# generated using pymatgen
data_TbH13C23N4O7
_symmetry_space_group_name_H-M   'P 1'
_cell_length_a   13.04930000
_cell_length_b   13.04930000
_cell_length_c   15.24450000
_cell_angle_alpha   93.40820000
_cell_angle_beta   93.40830000
_cell_angle_gamma   117.77000000
_symmetry_Int_Tables_number   1
_chemical_formula_structural   TbH13C23N4O7
_chemical_formula_sum   'Tb4 H52 C92 N16 O28'
_cell_volume   2281.66480154
_cell_formula_units_Z   4
loop_
 _symmetry_equiv_pos_site_id
 _symmetry_equiv_pos_as_xyz
  1  'x, y, z'
loop_
 _atom_site_type_symbol
 _atom_site_label
 _atom_site_symmetry_multiplicity
 _atom_site_fract_x
 _atom_site_fract_y
 _atom_site_fract_z
 _atom_site_occupancy
  Tb  Tb0  1  0.10054000  0.38524000  0.57950000  1.0
  Tb  Tb1  1  0.61476000  0.89946000  0.92049000  1.0
  Tb  Tb2  1  0.89946000  0.61476000  0.42050000  1.0
  Tb  Tb3  1  0.38524000  0.10054000  0.07951000  1.0
  H  H4  1  0.17233000  0.73820000  0.37735000  1.0
  H  H5  1  0.26180000  0.82767000  0.12265000  1.0
  H  H6  1  0.82767000  0.26180000  0.62265000  1.0
  H  H7  1  0.73820000  0.17233000  0.87735000  1.0
  H  H8  1  0.34403000  0.92961000  0.35652000  1.0
  H  H9  1  0.07039000  0.65597000  0.14348000  1.0
  H  H10  1  0.65597000  0.07039000  0.64348000  1.0
  H  H11  1  0.92961000  0.34403000  0.85653000  1.0
  H  H12  1  0.31111000  0.10351000  0.34290000  1.0
  H  H13  1  0.89649000  0.68889000  0.15710000  1.0
  H  H14  1  0.68889000  0.89649000  0.65709000  1.0
  H  H15  1  0.10351000  0.31111000  0.84291000  1.0
  H  H16  1  0.11248000  0.08035000  0.35091000  1.0
  H  H17  1  0.91964000  0.88752000  0.14909000  1.0
  H  H18  1  0.88753000  0.91965000  0.64909000  1.0
  H  H19  1  0.08035000  0.11247000  0.85091000  1.0
  H  H20  1  0.94965000  0.05012000  0.35642000  1.0
  H  H21  1  0.94988000  0.05035000  0.14358000  1.0
  H  H22  1  0.05035000  0.94988000  0.64358000  1.0
  H  H23  1  0.05012000  0.94965000  0.85642000  1.0
  H  H24  1  0.59153000  0.79604000  0.35750000  1.0
  H  H25  1  0.20396000  0.40847000  0.14250000  1.0
  H  H26  1  0.40847000  0.20395000  0.64250000  1.0
  H  H27  1  0.79605000  0.59153000  0.85750000  1.0
  H  H28  1  0.48050000  0.62532000  0.32929000  1.0
  H  H29  1  0.37468000  0.51950000  0.17071000  1.0
  H  H30  1  0.51950000  0.37468000  0.67071000  1.0
  H  H31  1  0.62532000  0.48050000  0.82929000  1.0
  H  H32  1  0.34359000  0.42096000  0.35257000  1.0
  H  H33  1  0.57904000  0.65641000  0.14743000  1.0
  H  H34  1  0.65641000  0.57904000  0.64743000  1.0
  H  H35  1  0.42096000  0.34359000  0.85257000  1.0
  H  H36  1  0.42623000  0.29692000  0.41490000  1.0
  H  H37  1  0.70308000  0.57377000  0.08511000  1.0
  H  H38  1  0.57377000  0.70308000  0.58510000  1.0
  H  H39  1  0.29692000  0.42623000  0.91490000  1.0
  H  H40  1  0.64298000  0.38522000  0.44802000  1.0
  H  H41  1  0.61478000  0.35702000  0.05198000  1.0
  H  H42  1  0.35702000  0.61478000  0.55198000  1.0
  H  H43  1  0.38522000  0.64298000  0.94802000  1.0
  H  H44  1  0.87893000  0.15038000  0.43613000  1.0
  H  H45  1  0.84962000  0.12107000  0.06386000  1.0
  H  H46  1  0.12106000  0.84962000  0.56386000  1.0
  H  H47  1  0.15038000  0.87894000  0.93614000  1.0
  H  H48  1  0.65009000  0.27747000  0.33469000  1.0
  H  H49  1  0.72253000  0.34991000  0.16531000  1.0
  H  H50  1  0.34991000  0.72253000  0.66531000  1.0
  H  H51  1  0.27747000  0.65009000  0.83469000  1.0
  H  H52  1  0.57688000  0.92757000  0.25445000  1.0
  H  H53  1  0.07243000  0.42312000  0.24555000  1.0
  H  H54  1  0.42312000  0.07243000  0.74555000  1.0
  H  H55  1  0.92757000  0.57688000  0.75445000  1.0
  C  C56  1  0.16361000  0.81674000  0.37184000  1.0
  C  C57  1  0.18326000  0.83639000  0.12816000  1.0
  C  C58  1  0.83639000  0.18326000  0.62816000  1.0
  C  C59  1  0.81674000  0.16361000  0.87184000  1.0
  C  C60  1  0.25826000  0.92319000  0.36076000  1.0
  C  C61  1  0.07681000  0.74174000  0.13925000  1.0
  C  C62  1  0.74175000  0.07681000  0.63925000  1.0
  C  C63  1  0.92319000  0.25826000  0.86076000  1.0
  C  C64  1  0.23962000  0.01945000  0.35393000  1.0
  C  C65  1  0.98055000  0.76038000  0.14607000  1.0
  C  C66  1  0.76039000  0.98055000  0.64607000  1.0
  C  C67  1  0.01945000  0.23962000  0.85393000  1.0
  C  C68  1  0.12758000  0.00573000  0.35732000  1.0
  C  C69  1  0.99428000  0.87242000  0.14268000  1.0
  C  C70  1  0.87242000  0.99427000  0.64268000  1.0
  C  C71  1  0.00572000  0.12758000  0.85732000  1.0
  C  C72  1  0.03603000  0.89518000  0.36647000  1.0
  C  C73  1  0.10482000  0.96397000  0.13353000  1.0
  C  C74  1  0.96397000  0.10482000  0.63353000  1.0
  C  C75  1  0.89518000  0.03603000  0.86647000  1.0
  C  C76  1  0.91301000  0.87156000  0.36403000  1.0
  C  C77  1  0.12844000  0.08699000  0.13597000  1.0
  C  C78  1  0.08699000  0.12844000  0.63597000  1.0
  C  C79  1  0.87156000  0.91301000  0.86403000  1.0
  C  C80  1  0.88262000  0.96062000  0.35801000  1.0
  C  C81  1  0.03938000  0.11739000  0.14199000  1.0
  C  C82  1  0.11739000  0.03938000  0.64199000  1.0
  C  C83  1  0.96062000  0.88261000  0.85801000  1.0
  C  C84  1  0.76538000  0.93451000  0.35392000  1.0
  C  C85  1  0.06549000  0.23462000  0.14608000  1.0
  C  C86  1  0.23462000  0.06549000  0.64608000  1.0
  C  C87  1  0.93451000  0.76538000  0.85392000  1.0
  C  C88  1  0.68304000  0.81871000  0.35761000  1.0
  C  C89  1  0.18128000  0.31697000  0.14239000  1.0
  C  C90  1  0.31697000  0.18129000  0.64239000  1.0
  C  C91  1  0.81872000  0.68303000  0.85761000  1.0
  C  C92  1  0.71891000  0.73384000  0.36482000  1.0
  C  C93  1  0.26616000  0.28109000  0.13518000  1.0
  C  C94  1  0.28109000  0.26616000  0.63518000  1.0
  C  C95  1  0.73384000  0.71891000  0.86482000  1.0
  C  C96  1  0.63369000  0.61202000  0.37519000  1.0
  C  C97  1  0.38798000  0.36632000  0.12481000  1.0
  C  C98  1  0.36632000  0.38798000  0.62481000  1.0
  C  C99  1  0.61202000  0.63368000  0.87519000  1.0
  C  C100  1  0.51375000  0.56975000  0.35582000  1.0
  C  C101  1  0.43025000  0.48626000  0.14418000  1.0
  C  C102  1  0.48625000  0.43025000  0.64418000  1.0
  C  C103  1  0.56976000  0.51374000  0.85582000  1.0
  C  C104  1  0.43691000  0.45543000  0.36888000  1.0
  C  C105  1  0.54457000  0.56310000  0.13112000  1.0
  C  C106  1  0.56310000  0.54457000  0.63112000  1.0
  C  C107  1  0.45543000  0.43690000  0.86888000  1.0
  C  C108  1  0.48234000  0.38676000  0.40298000  1.0
  C  C109  1  0.61324000  0.51766000  0.09702000  1.0
  C  C110  1  0.51766000  0.61324000  0.59702000  1.0
  C  C111  1  0.38676000  0.48234000  0.90298000  1.0
  C  C112  1  0.60252000  0.43475000  0.42125000  1.0
  C  C113  1  0.56525000  0.39748000  0.07875000  1.0
  C  C114  1  0.39748000  0.56525000  0.57875000  1.0
  C  C115  1  0.43475000  0.60252000  0.92125000  1.0
  C  C116  1  0.73051000  0.02645000  0.34796000  1.0
  C  C117  1  0.97355000  0.26949000  0.15204000  1.0
  C  C118  1  0.26949000  0.97355000  0.65204000  1.0
  C  C119  1  0.02644000  0.73051000  0.84796000  1.0
  C  C120  1  0.80051000  0.13479000  0.39567000  1.0
  C  C121  1  0.86521000  0.19949000  0.10433000  1.0
  C  C122  1  0.19949000  0.86520000  0.60433000  1.0
  C  C123  1  0.13480000  0.80051000  0.89567000  1.0
  C  C124  1  0.77175000  0.22493000  0.39248000  1.0
  C  C125  1  0.77507000  0.22825000  0.10752000  1.0
  C  C126  1  0.22824000  0.77507000  0.60752000  1.0
  C  C127  1  0.22493000  0.77176000  0.89248000  1.0
  C  C128  1  0.67154000  0.20681000  0.34064000  1.0
  C  C129  1  0.79318000  0.32846000  0.15936000  1.0
  C  C130  1  0.32846000  0.79318000  0.65936000  1.0
  C  C131  1  0.20682000  0.67154000  0.84064000  1.0
  C  C132  1  0.60045000  0.09901000  0.29256000  1.0
  C  C133  1  0.90098000  0.39955000  0.20744000  1.0
  C  C134  1  0.39955000  0.90098000  0.70744000  1.0
  C  C135  1  0.09902000  0.60045000  0.79256000  1.0
  C  C136  1  0.63010000  0.00885000  0.29598000  1.0
  C  C137  1  0.99115000  0.36990000  0.20402000  1.0
  C  C138  1  0.36990000  0.99115000  0.70402000  1.0
  C  C139  1  0.00885000  0.63010000  0.79598000  1.0
  C  C140  1  0.85136000  0.34061000  0.44302000  1.0
  C  C141  1  0.65939000  0.14864000  0.05698000  1.0
  C  C142  1  0.14865000  0.65938000  0.55698000  1.0
  C  C143  1  0.34062000  0.85136000  0.94302000  1.0
  C  C144  1  0.49857000  0.08426000  0.23179000  1.0
  C  C145  1  0.91574000  0.50143000  0.26821000  1.0
  C  C146  1  0.50143000  0.91574000  0.76821000  1.0
  C  C147  1  0.08426000  0.49857000  0.73179000  1.0
  N  N148  1  0.05524000  0.80275000  0.37496000  1.0
  N  N149  1  0.19725000  0.94476000  0.12504000  1.0
  N  N150  1  0.94476000  0.19725000  0.62504000  1.0
  N  N151  1  0.80275000  0.05524000  0.87496000  1.0
  N  N152  1  0.83200000  0.75952000  0.36721000  1.0
  N  N153  1  0.24048000  0.16800000  0.13279000  1.0
  N  N154  1  0.16800000  0.24048000  0.63279000  1.0
  N  N155  1  0.75952000  0.83200000  0.86721000  1.0
  N  N156  1  0.67731000  0.54402000  0.40656000  1.0
  N  N157  1  0.45598000  0.32269000  0.09343000  1.0
  N  N158  1  0.32269000  0.45598000  0.59344000  1.0
  N  N159  1  0.54402000  0.67731000  0.90656000  1.0
  N  N160  1  0.13498000  0.30236000  0.40581000  1.0
  N  N161  1  0.69764000  0.86502000  0.09419000  1.0
  N  N162  1  0.86502000  0.69764000  0.59419000  1.0
  N  N163  1  0.30236000  0.13498000  0.90581000  1.0
  O  O164  1  0.94090000  0.35117000  0.48786000  1.0
  O  O165  1  0.64883000  0.05910000  0.01214000  1.0
  O  O166  1  0.05908000  0.64882000  0.51214000  1.0
  O  O167  1  0.35118000  0.94092000  0.98786000  1.0
  O  O168  1  0.82280000  0.42090000  0.43724000  1.0
  O  O169  1  0.57910000  0.17720000  0.06276000  1.0
  O  O170  1  0.17719000  0.57911000  0.56275000  1.0
  O  O171  1  0.42089000  0.82281000  0.93725000  1.0
  O  O172  1  0.46958000  0.16566000  0.23235000  1.0
  O  O173  1  0.83434000  0.53043000  0.26765000  1.0
  O  O174  1  0.53042000  0.83434000  0.76765000  1.0
  O  O175  1  0.16565000  0.46957000  0.73235000  1.0
  O  O176  1  0.44686000  0.99370000  0.17663000  1.0
  O  O177  1  0.00630000  0.55314000  0.32337000  1.0
  O  O178  1  0.55314000  0.00630000  0.82337000  1.0
  O  O179  1  0.99370000  0.44686000  0.67663000  1.0
  O  O180  1  0.16995000  0.41019000  0.42726000  1.0
  O  O181  1  0.58981000  0.83005000  0.07274000  1.0
  O  O182  1  0.83005000  0.58981000  0.57274000  1.0
  O  O183  1  0.41019000  0.16995000  0.92726000  1.0
  O  O184  1  0.08314000  0.23170000  0.46303000  1.0
  O  O185  1  0.76830000  0.91686000  0.03697000  1.0
  O  O186  1  0.91686000  0.76830000  0.53697000  1.0
  O  O187  1  0.23170000  0.08314000  0.96303000  1.0
  O  O188  1  0.15091000  0.26622000  0.33311000  1.0
  O  O189  1  0.73379000  0.84909000  0.16689000  1.0
  O  O190  1  0.84909000  0.73378000  0.66688000  1.0
  O  O191  1  0.26622000  0.15091000  0.83312000  1.0
