# generated using pymatgen
data_LaH34C38(NO6)2
_symmetry_space_group_name_H-M   'P 1'
_cell_length_a   10.25930000
_cell_length_b   17.39200000
_cell_length_c   19.42850000
_cell_angle_alpha   90.00160000
_cell_angle_beta   90.00100000
_cell_angle_gamma   89.98700000
_symmetry_Int_Tables_number   1
_chemical_formula_structural   LaH34C38(NO6)2
_chemical_formula_sum   'La4 H136 C152 N8 O48'
_cell_volume   3466.62222128
_cell_formula_units_Z   4
loop_
 _symmetry_equiv_pos_site_id
 _symmetry_equiv_pos_as_xyz
  1  'x, y, z'
loop_
 _atom_site_type_symbol
 _atom_site_label
 _atom_site_symmetry_multiplicity
 _atom_site_fract_x
 _atom_site_fract_y
 _atom_site_fract_z
 _atom_site_occupancy
  La  La0  1  0.03902000  0.24997000  0.25002000  1.0
  La  La1  1  0.46099000  0.75001000  0.75002000  1.0
  La  La2  1  0.96100000  0.75004000  0.74997000  1.0
  La  La3  1  0.53902000  0.24998000  0.24998000  1.0
  H  H4  1  0.97216000  0.05205000  0.29733000  1.0
  H  H5  1  0.52786000  0.94795000  0.79733000  1.0
  H  H6  1  0.97191000  0.44786000  0.20263000  1.0
  H  H7  1  0.52804000  0.55205000  0.70268000  1.0
  H  H8  1  0.02785000  0.94796000  0.70267000  1.0
  H  H9  1  0.47218000  0.05203000  0.20268000  1.0
  H  H10  1  0.02812000  0.55216000  0.79734000  1.0
  H  H11  1  0.47199000  0.44795000  0.29733000  1.0
  H  H12  1  0.63067000  0.13276000  0.46926000  1.0
  H  H13  1  0.86931000  0.86725000  0.96928000  1.0
  H  H14  1  0.63063000  0.36726000  0.03077000  1.0
  H  H15  1  0.86937000  0.63275000  0.53073000  1.0
  H  H16  1  0.36930000  0.86728000  0.53074000  1.0
  H  H17  1  0.13063000  0.13280000  0.03072000  1.0
  H  H18  1  0.36932000  0.63272000  0.96924000  1.0
  H  H19  1  0.13060000  0.36721000  0.46926000  1.0
  H  H20  1  0.18509000  0.07936000  0.52265000  1.0
  H  H21  1  0.31492000  0.92064000  0.02264000  1.0
  H  H22  1  0.18502000  0.42056000  0.97736000  1.0
  H  H23  1  0.31506000  0.57945000  0.47739000  1.0
  H  H24  1  0.81491000  0.92064000  0.47735000  1.0
  H  H25  1  0.68506000  0.07938000  0.97735000  1.0
  H  H26  1  0.81502000  0.57942000  0.02261000  1.0
  H  H27  1  0.68498000  0.42053000  0.52262000  1.0
  H  H28  1  0.88398000  0.97631000  0.39488000  1.0
  H  H29  1  0.61600000  0.02370000  0.89488000  1.0
  H  H30  1  0.88375000  0.52360000  0.10507000  1.0
  H  H31  1  0.61620000  0.47631000  0.60511000  1.0
  H  H32  1  0.11600000  0.02370000  0.60512000  1.0
  H  H33  1  0.38401000  0.97629000  0.10512000  1.0
  H  H34  1  0.11629000  0.47640000  0.89490000  1.0
  H  H35  1  0.38384000  0.52369000  0.39490000  1.0
  H  H36  1  0.99445000  0.24908000  0.43731000  1.0
  H  H37  1  0.50554000  0.75091000  0.93728000  1.0
  H  H38  1  0.99446000  0.25089000  0.06268000  1.0
  H  H39  1  0.50554000  0.74910000  0.56270000  1.0
  H  H40  1  0.00557000  0.75090000  0.56269000  1.0
  H  H41  1  0.49445000  0.24906000  0.06270000  1.0
  H  H42  1  0.00554000  0.74914000  0.93728000  1.0
  H  H43  1  0.49448000  0.25093000  0.43729000  1.0
  H  H44  1  0.68883000  0.11014000  0.59262000  1.0
  H  H45  1  0.81111000  0.88986000  0.09263000  1.0
  H  H46  1  0.68877000  0.38996000  0.90744000  1.0
  H  H47  1  0.81118000  0.61008000  0.40740000  1.0
  H  H48  1  0.31110000  0.88993000  0.40739000  1.0
  H  H49  1  0.18878000  0.11017000  0.90736000  1.0
  H  H50  1  0.31111000  0.61005000  0.09258000  1.0
  H  H51  1  0.18874000  0.38986000  0.59261000  1.0
  H  H52  1  0.26146000  0.14828000  0.41966000  1.0
  H  H53  1  0.23855000  0.85172000  0.91964000  1.0
  H  H54  1  0.26136000  0.35163000  0.08038000  1.0
  H  H55  1  0.23872000  0.64837000  0.58041000  1.0
  H  H56  1  0.73855000  0.85172000  0.58035000  1.0
  H  H57  1  0.76146000  0.14828000  0.08036000  1.0
  H  H58  1  0.73868000  0.64838000  0.91961000  1.0
  H  H59  1  0.76132000  0.35162000  0.41959000  1.0
  H  H60  1  0.89933000  0.15972000  0.63845000  1.0
  H  H61  1  0.60061000  0.84026000  0.13843000  1.0
  H  H62  1  0.89927000  0.34034000  0.86157000  1.0
  H  H63  1  0.60065000  0.65969000  0.36157000  1.0
  H  H64  1  0.10061000  0.84033000  0.36157000  1.0
  H  H65  1  0.39930000  0.15974000  0.86154000  1.0
  H  H66  1  0.10061000  0.65969000  0.13841000  1.0
  H  H67  1  0.39929000  0.34028000  0.63844000  1.0
  H  H68  1  0.05039000  0.23159000  0.56078000  1.0
  H  H69  1  0.44956000  0.76841000  0.06074000  1.0
  H  H70  1  0.05037000  0.26842000  0.93920000  1.0
  H  H71  1  0.44957000  0.73159000  0.43923000  1.0
  H  H72  1  0.94958000  0.76844000  0.43923000  1.0
  H  H73  1  0.55038000  0.23159000  0.93922000  1.0
  H  H74  1  0.94955000  0.73162000  0.06076000  1.0
  H  H75  1  0.55041000  0.26842000  0.56077000  1.0
  H  H76  1  0.82708000  0.13008000  0.20125000  1.0
  H  H77  1  0.67293000  0.86990000  0.70126000  1.0
  H  H78  1  0.82702000  0.36996000  0.29870000  1.0
  H  H79  1  0.67299000  0.63004000  0.79872000  1.0
  H  H80  1  0.17293000  0.86991000  0.79874000  1.0
  H  H81  1  0.32707000  0.13009000  0.29874000  1.0
  H  H82  1  0.17299000  0.63004000  0.70130000  1.0
  H  H83  1  0.32705000  0.36996000  0.20127000  1.0
  H  H84  1  0.95422000  0.09995000  0.16069000  1.0
  H  H85  1  0.54580000  0.90001000  0.66068000  1.0
  H  H86  1  0.95408000  0.40008000  0.33932000  1.0
  H  H87  1  0.54595000  0.59991000  0.83933000  1.0
  H  H88  1  0.04581000  0.90005000  0.83931000  1.0
  H  H89  1  0.45421000  0.09999000  0.33932000  1.0
  H  H90  1  0.04593000  0.59992000  0.66069000  1.0
  H  H91  1  0.45410000  0.40011000  0.16069000  1.0
  H  H92  1  0.03873000  0.55559000  0.51528000  1.0
  H  H93  1  0.46130000  0.44440000  0.01528000  1.0
  H  H94  1  0.03863000  0.94438000  0.98472000  1.0
  H  H95  1  0.46137000  0.05562000  0.48473000  1.0
  H  H96  1  0.96127000  0.44440000  0.48474000  1.0
  H  H97  1  0.53872000  0.55560000  0.98473000  1.0
  H  H98  1  0.96136000  0.05563000  0.01528000  1.0
  H  H99  1  0.53864000  0.94437000  0.51527000  1.0
  H  H100  1  0.13270000  0.46086000  0.29806000  1.0
  H  H101  1  0.36733000  0.53901000  0.79804000  1.0
  H  H102  1  0.13311000  0.03917000  0.20177000  1.0
  H  H103  1  0.36700000  0.96088000  0.70181000  1.0
  H  H104  1  0.86734000  0.53912000  0.70197000  1.0
  H  H105  1  0.63282000  0.46095000  0.20193000  1.0
  H  H106  1  0.86692000  0.96084000  0.79822000  1.0
  H  H107  1  0.63303000  0.03913000  0.29822000  1.0
  H  H108  1  0.27646000  0.50705000  0.20501000  1.0
  H  H109  1  0.22345000  0.49285000  0.70503000  1.0
  H  H110  1  0.27727000  0.99309000  0.29470000  1.0
  H  H111  1  0.22282000  0.00695000  0.79473000  1.0
  H  H112  1  0.72360000  0.49293000  0.79502000  1.0
  H  H113  1  0.77672000  0.50713000  0.29493000  1.0
  H  H114  1  0.72275000  0.00692000  0.70529000  1.0
  H  H115  1  0.77722000  0.99307000  0.20529000  1.0
  H  H116  1  0.18204000  0.67749000  0.40432000  1.0
  H  H117  1  0.31765000  0.32249000  0.90442000  1.0
  H  H118  1  0.18203000  0.82239000  0.09569000  1.0
  H  H119  1  0.31793000  0.17761000  0.59569000  1.0
  H  H120  1  0.81789000  0.32249000  0.59570000  1.0
  H  H121  1  0.68227000  0.67752000  0.09560000  1.0
  H  H122  1  0.81795000  0.17762000  0.90430000  1.0
  H  H123  1  0.68204000  0.82237000  0.40429000  1.0
  H  H124  1  0.32724000  0.72296000  0.31117000  1.0
  H  H125  1  0.17223000  0.27708000  0.81133000  1.0
  H  H126  1  0.32786000  0.77709000  0.18866000  1.0
  H  H127  1  0.17209000  0.22291000  0.68866000  1.0
  H  H128  1  0.67267000  0.27705000  0.68886000  1.0
  H  H129  1  0.82769000  0.72295000  0.18868000  1.0
  H  H130  1  0.67210000  0.22291000  0.81134000  1.0
  H  H131  1  0.82789000  0.77708000  0.31132000  1.0
  H  H132  1  0.37797000  0.63668000  0.21164000  1.0
  H  H133  1  0.12167000  0.36330000  0.71174000  1.0
  H  H134  1  0.37901000  0.86350000  0.28803000  1.0
  H  H135  1  0.12100000  0.13651000  0.78804000  1.0
  H  H136  1  0.62200000  0.36334000  0.78839000  1.0
  H  H137  1  0.87838000  0.63670000  0.28824000  1.0
  H  H138  1  0.62097000  0.13649000  0.71197000  1.0
  H  H139  1  0.87902000  0.86350000  0.21196000  1.0
  C  C140  1  0.80903000  0.19139000  0.44592000  1.0
  C  C141  1  0.69096000  0.80861000  0.94592000  1.0
  C  C142  1  0.80900000  0.30860000  0.05408000  1.0
  C  C143  1  0.69100000  0.69140000  0.55408000  1.0
  C  C144  1  0.19097000  0.80862000  0.55408000  1.0
  C  C145  1  0.30902000  0.19139000  0.05407000  1.0
  C  C146  1  0.19097000  0.69142000  0.94591000  1.0
  C  C147  1  0.30900000  0.30861000  0.44592000  1.0
  C  C148  1  0.01458000  0.05333000  0.34859000  1.0
  C  C149  1  0.48543000  0.94669000  0.84858000  1.0
  C  C150  1  0.01437000  0.44659000  0.15139000  1.0
  C  C151  1  0.48560000  0.55333000  0.65143000  1.0
  C  C152  1  0.98542000  0.94669000  0.65141000  1.0
  C  C153  1  0.51459000  0.05330000  0.15142000  1.0
  C  C154  1  0.98566000  0.55342000  0.84859000  1.0
  C  C155  1  0.51444000  0.44666000  0.34858000  1.0
  C  C156  1  0.72237000  0.15353000  0.49021000  1.0
  C  C157  1  0.77761000  0.84647000  0.99023000  1.0
  C  C158  1  0.72232000  0.34649000  0.00981000  1.0
  C  C159  1  0.77766000  0.65352000  0.50979000  1.0
  C  C160  1  0.27761000  0.84650000  0.50978000  1.0
  C  C161  1  0.22234000  0.15355000  0.00977000  1.0
  C  C162  1  0.27762000  0.65351000  0.99020000  1.0
  C  C163  1  0.22231000  0.34646000  0.49021000  1.0
  C  C164  1  0.02471000  0.02000000  0.47049000  1.0
  C  C165  1  0.47527000  0.98001000  0.97048000  1.0
  C  C166  1  0.02466000  0.47995000  0.02950000  1.0
  C  C167  1  0.47537000  0.52001000  0.52954000  1.0
  C  C168  1  0.97529000  0.98001000  0.52951000  1.0
  C  C169  1  0.52471000  0.02000000  0.02951000  1.0
  C  C170  1  0.97538000  0.52003000  0.97046000  1.0
  C  C171  1  0.52467000  0.47997000  0.47048000  1.0
  C  C172  1  0.13440000  0.06960000  0.47445000  1.0
  C  C173  1  0.36560000  0.93041000  0.97444000  1.0
  C  C174  1  0.13432000  0.43032000  0.02556000  1.0
  C  C175  1  0.36573000  0.56966000  0.52560000  1.0
  C  C176  1  0.86560000  0.93041000  0.52556000  1.0
  C  C177  1  0.63438000  0.06960000  0.02556000  1.0
  C  C178  1  0.86573000  0.56966000  0.97442000  1.0
  C  C179  1  0.63431000  0.43032000  0.47442000  1.0
  C  C180  1  0.96760000  0.01327000  0.40402000  1.0
  C  C181  1  0.53238000  0.98674000  0.90402000  1.0
  C  C182  1  0.96743000  0.48666000  0.09595000  1.0
  C  C183  1  0.53256000  0.51327000  0.59599000  1.0
  C  C184  1  0.03239000  0.98674000  0.59598000  1.0
  C  C185  1  0.46761000  0.01326000  0.09598000  1.0
  C  C186  1  0.03261000  0.51334000  0.90402000  1.0
  C  C187  1  0.46748000  0.48672000  0.40402000  1.0
  C  C188  1  0.92712000  0.21960000  0.47185000  1.0
  C  C189  1  0.57287000  0.78039000  0.97183000  1.0
  C  C190  1  0.92710000  0.28038000  0.02815000  1.0
  C  C191  1  0.57288000  0.71961000  0.52817000  1.0
  C  C192  1  0.07289000  0.78039000  0.52815000  1.0
  C  C193  1  0.42711000  0.21960000  0.02816000  1.0
  C  C194  1  0.07287000  0.71965000  0.97183000  1.0
  C  C195  1  0.42712000  0.28040000  0.47183000  1.0
  C  C196  1  0.75500000  0.14179000  0.55903000  1.0
  C  C197  1  0.74495000  0.85820000  0.05904000  1.0
  C  C198  1  0.75494000  0.35826000  0.94101000  1.0
  C  C199  1  0.74502000  0.64177000  0.44098000  1.0
  C  C200  1  0.24495000  0.85825000  0.44098000  1.0
  C  C201  1  0.25497000  0.14182000  0.94096000  1.0
  C  C202  1  0.24496000  0.64176000  0.05900000  1.0
  C  C203  1  0.25493000  0.35820000  0.55902000  1.0
  C  C204  1  0.17961000  0.10870000  0.41811000  1.0
  C  C205  1  0.32038000  0.89131000  0.91809000  1.0
  C  C206  1  0.17950000  0.39121000  0.08190000  1.0
  C  C207  1  0.32054000  0.60876000  0.58195000  1.0
  C  C208  1  0.82039000  0.89131000  0.58189000  1.0
  C  C209  1  0.67961000  0.10869000  0.08190000  1.0
  C  C210  1  0.82054000  0.60878000  0.91807000  1.0
  C  C211  1  0.67950000  0.39122000  0.41806000  1.0
  C  C212  1  0.87346000  0.16945000  0.58468000  1.0
  C  C213  1  0.62650000  0.83054000  0.08467000  1.0
  C  C214  1  0.87340000  0.33059000  0.91533000  1.0
  C  C215  1  0.62655000  0.66943000  0.41533000  1.0
  C  C216  1  0.12651000  0.83058000  0.41532000  1.0
  C  C217  1  0.37343000  0.16947000  0.91531000  1.0
  C  C218  1  0.12651000  0.66944000  0.08465000  1.0
  C  C219  1  0.37341000  0.33055000  0.58467000  1.0
  C  C220  1  0.95837000  0.20919000  0.54114000  1.0
  C  C221  1  0.54160000  0.79081000  0.04112000  1.0
  C  C222  1  0.95834000  0.29081000  0.95886000  1.0
  C  C223  1  0.54162000  0.70920000  0.45888000  1.0
  C  C224  1  0.04161000  0.79082000  0.45887000  1.0
  C  C225  1  0.45836000  0.20919000  0.95886000  1.0
  C  C226  1  0.04160000  0.70922000  0.04111000  1.0
  C  C227  1  0.45837000  0.29081000  0.54112000  1.0
  C  C228  1  0.77549000  0.20065000  0.37115000  1.0
  C  C229  1  0.72453000  0.79934000  0.87115000  1.0
  C  C230  1  0.77546000  0.29931000  0.12885000  1.0
  C  C231  1  0.72456000  0.70068000  0.62884000  1.0
  C  C232  1  0.22454000  0.79934000  0.62885000  1.0
  C  C233  1  0.27548000  0.20065000  0.12884000  1.0
  C  C234  1  0.22456000  0.70070000  0.87115000  1.0
  C  C235  1  0.27547000  0.29932000  0.37115000  1.0
  C  C236  1  0.17247000  0.51884000  0.30042000  1.0
  C  C237  1  0.32746000  0.48106000  0.80042000  1.0
  C  C238  1  0.17279000  0.98114000  0.19947000  1.0
  C  C239  1  0.32728000  0.01888000  0.69949000  1.0
  C  C240  1  0.82754000  0.48114000  0.69962000  1.0
  C  C241  1  0.67265000  0.51892000  0.19957000  1.0
  C  C242  1  0.82722000  0.01887000  0.80053000  1.0
  C  C243  1  0.67274000  0.98112000  0.30052000  1.0
  C  C244  1  0.07134000  0.53730000  0.41629000  1.0
  C  C245  1  0.42861000  0.46263000  0.91628000  1.0
  C  C246  1  0.07139000  0.96264000  0.08370000  1.0
  C  C247  1  0.42863000  0.03736000  0.58372000  1.0
  C  C248  1  0.92865000  0.46267000  0.58375000  1.0
  C  C249  1  0.57141000  0.53736000  0.08372000  1.0
  C  C250  1  0.92861000  0.03737000  0.91630000  1.0
  C  C251  1  0.57137000  0.96263000  0.41629000  1.0
  C  C252  1  0.14669000  0.56656000  0.35731000  1.0
  C  C253  1  0.35319000  0.43337000  0.85735000  1.0
  C  C254  1  0.14682000  0.93337000  0.14264000  1.0
  C  C255  1  0.35320000  0.06663000  0.64265000  1.0
  C  C256  1  0.85330000  0.43342000  0.64272000  1.0
  C  C257  1  0.64686000  0.56662000  0.14266000  1.0
  C  C258  1  0.85316000  0.06664000  0.85736000  1.0
  C  C259  1  0.64682000  0.93336000  0.35735000  1.0
  C  C260  1  0.25450000  0.54479000  0.24818000  1.0
  C  C261  1  0.24536000  0.45513000  0.74821000  1.0
  C  C262  1  0.25510000  0.95528000  0.25164000  1.0
  C  C263  1  0.24497000  0.04474000  0.75165000  1.0
  C  C264  1  0.74552000  0.45520000  0.75186000  1.0
  C  C265  1  0.75476000  0.54485000  0.25178000  1.0
  C  C266  1  0.74491000  0.04472000  0.74836000  1.0
  C  C267  1  0.75507000  0.95527000  0.24836000  1.0
  C  C268  1  0.20241000  0.64057000  0.36039000  1.0
  C  C269  1  0.29731000  0.35939000  0.86047000  1.0
  C  C270  1  0.20255000  0.85934000  0.13957000  1.0
  C  C271  1  0.29744000  0.14066000  0.63957000  1.0
  C  C272  1  0.79755000  0.35940000  0.63964000  1.0
  C  C273  1  0.70268000  0.64062000  0.13954000  1.0
  C  C274  1  0.79744000  0.14066000  0.86043000  1.0
  C  C275  1  0.70255000  0.85933000  0.36042000  1.0
  C  C276  1  0.28406000  0.66580000  0.30795000  1.0
  C  C277  1  0.21556000  0.33419000  0.80806000  1.0
  C  C278  1  0.28453000  0.83421000  0.19191000  1.0
  C  C279  1  0.21546000  0.16580000  0.69191000  1.0
  C  C280  1  0.71589000  0.33419000  0.69209000  1.0
  C  C281  1  0.78444000  0.66582000  0.19195000  1.0
  C  C282  1  0.71545000  0.16579000  0.80808000  1.0
  C  C283  1  0.78454000  0.83420000  0.30808000  1.0
  C  C284  1  0.31145000  0.61769000  0.25202000  1.0
  C  C285  1  0.18825000  0.38228000  0.75210000  1.0
  C  C286  1  0.31217000  0.88241000  0.24775000  1.0
  C  C287  1  0.18786000  0.11760000  0.74776000  1.0
  C  C288  1  0.68854000  0.38231000  0.74802000  1.0
  C  C289  1  0.81180000  0.61772000  0.24789000  1.0
  C  C290  1  0.68782000  0.11760000  0.75224000  1.0
  C  C291  1  0.81216000  0.88241000  0.25224000  1.0
  N  N292  1  0.11951000  0.10113000  0.35573000  1.0
  N  N293  1  0.38049000  0.89888000  0.85571000  1.0
  N  N294  1  0.11937000  0.39881000  0.14427000  1.0
  N  N295  1  0.38063000  0.60114000  0.64432000  1.0
  N  N296  1  0.88049000  0.89888000  0.64428000  1.0
  N  N297  1  0.61953000  0.10112000  0.14428000  1.0
  N  N298  1  0.88066000  0.60120000  0.85570000  1.0
  N  N299  1  0.61941000  0.39885000  0.35569000  1.0
  O  O300  1  0.16586000  0.13957000  0.30039000  1.0
  O  O301  1  0.33416000  0.86043000  0.80038000  1.0
  O  O302  1  0.16577000  0.36043000  0.19962000  1.0
  O  O303  1  0.33426000  0.63953000  0.69966000  1.0
  O  O304  1  0.83415000  0.86043000  0.69962000  1.0
  O  O305  1  0.66586000  0.13955000  0.19962000  1.0
  O  O306  1  0.83426000  0.63958000  0.80036000  1.0
  O  O307  1  0.66576000  0.36046000  0.30035000  1.0
  O  O308  1  0.86877000  0.21242000  0.32921000  1.0
  O  O309  1  0.63124000  0.78757000  0.82921000  1.0
  O  O310  1  0.86874000  0.28752000  0.17079000  1.0
  O  O311  1  0.63130000  0.71245000  0.67079000  1.0
  O  O312  1  0.13126000  0.78758000  0.67079000  1.0
  O  O313  1  0.36877000  0.21241000  0.17078000  1.0
  O  O314  1  0.13129000  0.71248000  0.82920000  1.0
  O  O315  1  0.36874000  0.28755000  0.32921000  1.0
  O  O316  1  0.65619000  0.19663000  0.35365000  1.0
  O  O317  1  0.84384000  0.80338000  0.85366000  1.0
  O  O318  1  0.65616000  0.30333000  0.14634000  1.0
  O  O319  1  0.84386000  0.69666000  0.64633000  1.0
  O  O320  1  0.34384000  0.80336000  0.64634000  1.0
  O  O321  1  0.15618000  0.19662000  0.14635000  1.0
  O  O322  1  0.34387000  0.69665000  0.85367000  1.0
  O  O323  1  0.15617000  0.30335000  0.35365000  1.0
  O  O324  1  0.92456000  0.12375000  0.20359000  1.0
  O  O325  1  0.57545000  0.87624000  0.70360000  1.0
  O  O326  1  0.92449000  0.37625000  0.29642000  1.0
  O  O327  1  0.57552000  0.62375000  0.79644000  1.0
  O  O328  1  0.07546000  0.87625000  0.79641000  1.0
  O  O329  1  0.42455000  0.12376000  0.29641000  1.0
  O  O330  1  0.07552000  0.62376000  0.70358000  1.0
  O  O331  1  0.42451000  0.37625000  0.20357000  1.0
  O  O332  1  0.07715000  0.58140000  0.47175000  1.0
  O  O333  1  0.42285000  0.41856000  0.97177000  1.0
  O  O334  1  0.07708000  0.91855000  0.02825000  1.0
  O  O335  1  0.42292000  0.08144000  0.52825000  1.0
  O  O336  1  0.92283000  0.41859000  0.52827000  1.0
  O  O337  1  0.57716000  0.58144000  0.02824000  1.0
  O  O338  1  0.92290000  0.08145000  0.97175000  1.0
  O  O339  1  0.57708000  0.91854000  0.47175000  1.0
  O  O340  1  0.01005000  0.47452000  0.41533000  1.0
  O  O341  1  0.48992000  0.52541000  0.91531000  1.0
  O  O342  1  0.01019000  0.02546000  0.08467000  1.0
  O  O343  1  0.48985000  0.97455000  0.58468000  1.0
  O  O344  1  0.98995000  0.52546000  0.58470000  1.0
  O  O345  1  0.51013000  0.47457000  0.08470000  1.0
  O  O346  1  0.98983000  0.97455000  0.91533000  1.0
  O  O347  1  0.51019000  0.02545000  0.41532000  1.0
