# generated using pymatgen
data_KH15C16(SO2)2
_symmetry_space_group_name_H-M   'P 1'
_cell_length_a   6.08078000
_cell_length_b   7.09229000
_cell_length_c   18.61900000
_cell_angle_alpha   98.02120000
_cell_angle_beta   93.77110000
_cell_angle_gamma   96.29720000
_symmetry_Int_Tables_number   1
_chemical_formula_structural   KH15C16(SO2)2
_chemical_formula_sum   'K2 H30 C32 S4 O8'
_cell_volume   787.63586264
_cell_formula_units_Z   2
loop_
 _symmetry_equiv_pos_site_id
 _symmetry_equiv_pos_as_xyz
  1  'x, y, z'
loop_
 _atom_site_type_symbol
 _atom_site_label
 _atom_site_symmetry_multiplicity
 _atom_site_fract_x
 _atom_site_fract_y
 _atom_site_fract_z
 _atom_site_occupancy
  K  K0  1  0.78479000  0.70712000  0.97687000  1.0
  K  K1  1  0.21523000  0.29289000  0.02313000  1.0
  H  H2  1  0.70763000  0.16251000  0.22945000  1.0
  H  H3  1  0.29237000  0.83750000  0.77055000  1.0
  H  H4  1  0.65172000  0.23539000  0.35917000  1.0
  H  H5  1  0.34827000  0.76461000  0.64082000  1.0
  H  H6  1  0.92993000  0.16231000  0.45349000  1.0
  H  H7  1  0.07005000  0.83768000  0.54651000  1.0
  H  H8  1  0.26364000  0.01074000  0.41355000  1.0
  H  H9  1  0.73634000  0.98926000  0.58645000  1.0
  H  H10  1  0.32425000  0.94275000  0.28473000  1.0
  H  H11  1  0.67574000  0.05724000  0.71527000  1.0
  H  H12  1  0.43440000  0.98276000  0.17047000  1.0
  H  H13  1  0.56561000  0.01724000  0.82953000  1.0
  H  H14  1  0.27249000  0.76077000  0.17809000  1.0
  H  H15  1  0.72751000  0.23924000  0.82191000  1.0
  H  H16  1  0.86983000  0.56732000  0.67655000  1.0
  H  H17  1  0.13016000  0.43268000  0.32345000  1.0
  H  H18  1  0.87623000  0.44756000  0.54639000  1.0
  H  H19  1  0.12378000  0.55244000  0.45361000  1.0
  H  H20  1  0.54005000  0.25294000  0.47684000  1.0
  H  H21  1  0.45996000  0.74706000  0.52316000  1.0
  H  H22  1  0.20587000  0.17390000  0.54241000  1.0
  H  H23  1  0.79413000  0.82608000  0.45759000  1.0
  H  H24  1  0.19868000  0.28586000  0.67216000  1.0
  H  H25  1  0.80133000  0.71413000  0.32784000  1.0
  H  H26  1  0.25966000  0.30485000  0.80638000  1.0
  H  H27  1  0.74034000  0.69515000  0.19363000  1.0
  H  H28  1  0.14949000  0.48779000  0.76360000  1.0
  H  H29  1  0.85050000  0.51220000  0.23640000  1.0
  H  H30  1  0.29984000  0.79544000  0.95219000  1.0
  H  H31  1  0.70017000  0.20457000  0.04781000  1.0
  C  C32  1  0.02044000  0.04825000  0.24699000  1.0
  C  C33  1  0.97956000  0.95175000  0.75301000  1.0
  C  C34  1  0.83082000  0.12977000  0.26972000  1.0
  C  C35  1  0.16918000  0.87024000  0.73028000  1.0
  C  C36  1  0.79942000  0.17095000  0.34338000  1.0
  C  C37  1  0.20057000  0.82905000  0.65662000  1.0
  C  C38  1  0.95532000  0.13028000  0.39589000  1.0
  C  C39  1  0.04466000  0.86971000  0.60411000  1.0
  C  C40  1  0.14174000  0.04704000  0.37368000  1.0
  C  C41  1  0.85825000  0.95296000  0.62631000  1.0
  C  C42  1  0.17604000  0.00645000  0.29989000  1.0
  C  C43  1  0.82395000  0.99355000  0.70011000  1.0
  C  C44  1  0.28732000  0.88268000  0.14756000  1.0
  C  C45  1  0.71269000  0.11732000  0.85244000  1.0
  C  C46  1  0.32771000  0.80564000  0.06991000  1.0
  C  C47  1  0.67231000  0.19437000  0.93009000  1.0
  C  C48  1  0.53392000  0.43747000  0.68408000  1.0
  C  C49  1  0.46608000  0.56253000  0.31592000  1.0
  C  C50  1  0.72479000  0.47841000  0.64743000  1.0
  C  C51  1  0.27521000  0.52159000  0.35257000  1.0
  C  C52  1  0.72762000  0.41094000  0.57372000  1.0
  C  C53  1  0.27238000  0.58905000  0.42628000  1.0
  C  C54  1  0.54087000  0.30173000  0.53497000  1.0
  C  C55  1  0.45914000  0.69826000  0.46502000  1.0
  C  C56  1  0.35289000  0.25933000  0.57144000  1.0
  C  C57  1  0.64712000  0.74067000  0.42855000  1.0
  C  C58  1  0.34789000  0.32455000  0.64562000  1.0
  C  C59  1  0.65211000  0.67544000  0.35438000  1.0
  C  C60  1  0.27926000  0.45917000  0.80349000  1.0
  C  C61  1  0.72074000  0.54082000  0.19651000  1.0
  C  C62  1  0.23077000  0.56274000  0.87657000  1.0
  C  C63  1  0.76924000  0.43727000  0.12343000  1.0
  S  S64  1  0.04322000  0.00531000  0.15255000  1.0
  S  S65  1  0.95679000  0.99470000  0.84745000  1.0
  S  S66  1  0.54885000  0.54092000  0.77623000  1.0
  S  S67  1  0.45114000  0.45908000  0.22376000  1.0
  O  O68  1  0.44609000  0.67210000  0.06106000  1.0
  O  O69  1  0.55393000  0.32790000  0.93894000  1.0
  O  O70  1  0.24216000  0.88534000  0.01776000  1.0
  O  O71  1  0.75787000  0.11467000  0.98225000  1.0
  O  O72  1  0.07757000  0.49342000  0.90913000  1.0
  O  O73  1  0.92242000  0.50659000  0.09087000  1.0
  O  O74  1  0.35229000  0.72827000  0.89955000  1.0
  O  O75  1  0.64772000  0.27173000  0.10045000  1.0
