# generated using pymatgen
data_Cd2H18C21N2O9
_symmetry_space_group_name_H-M   'P 1'
_cell_length_a   8.11886000
_cell_length_b   10.12270000
_cell_length_c   14.16820000
_cell_angle_alpha   75.49670000
_cell_angle_beta   78.21820000
_cell_angle_gamma   73.15200000
_symmetry_Int_Tables_number   1
_chemical_formula_structural   Cd2H18C21N2O9
_chemical_formula_sum   'Cd4 H36 C42 N4 O18'
_cell_volume   1067.97975114
_cell_formula_units_Z   2
loop_
 _symmetry_equiv_pos_site_id
 _symmetry_equiv_pos_as_xyz
  1  'x, y, z'
loop_
 _atom_site_type_symbol
 _atom_site_label
 _atom_site_symmetry_multiplicity
 _atom_site_fract_x
 _atom_site_fract_y
 _atom_site_fract_z
 _atom_site_occupancy
  Cd  Cd0  1  0.18609000  0.06827000  0.17952000  1.0
  Cd  Cd1  1  0.81391000  0.93173000  0.82048000  1.0
  Cd  Cd2  1  0.61281000  0.84891000  0.07893000  1.0
  Cd  Cd3  1  0.38719000  0.15109000  0.92107000  1.0
  H  H4  1  0.26301000  0.31891000  0.09272000  1.0
  H  H5  1  0.73699000  0.68109000  0.90727000  1.0
  H  H6  1  0.47431000  0.27186000  0.06974000  1.0
  H  H7  1  0.52569000  0.72814000  0.93026000  1.0
  H  H8  1  0.27291000  0.91408000  0.03082000  1.0
  H  H9  1  0.72710000  0.08592000  0.96918000  1.0
  H  H10  1  0.97595000  0.76573000  0.02148000  1.0
  H  H11  1  0.02405000  0.23426000  0.97852000  1.0
  H  H12  1  0.92441000  0.64120000  0.11421000  1.0
  H  H13  1  0.07559000  0.35880000  0.88580000  1.0
  H  H14  1  0.83284000  0.33211000  0.41209000  1.0
  H  H15  1  0.16716000  0.66790000  0.58792000  1.0
  H  H16  1  0.62913000  0.19154000  0.51560000  1.0
  H  H17  1  0.37087000  0.80847000  0.48440000  1.0
  H  H18  1  0.48409000  0.07233000  0.43416000  1.0
  H  H19  1  0.51592000  0.92768000  0.56584000  1.0
  H  H20  1  0.47645000  0.23953000  0.68478000  1.0
  H  H21  1  0.52355000  0.76047000  0.31521000  1.0
  H  H22  1  0.61134000  0.40739000  0.55473000  1.0
  H  H23  1  0.38866000  0.59261000  0.44527000  1.0
  H  H24  1  0.69694000  0.57786000  0.78629000  1.0
  H  H25  1  0.30306000  0.42213000  0.21371000  1.0
  H  H26  1  0.54946000  0.40646000  0.90737000  1.0
  H  H27  1  0.45054000  0.59354000  0.09263000  1.0
  H  H28  1  0.78956000  0.67905000  0.62651000  1.0
  H  H29  1  0.21044000  0.32095000  0.37349000  1.0
  H  H30  1  0.75954000  0.54862000  0.45745000  1.0
  H  H31  1  0.24047000  0.45138000  0.54255000  1.0
  H  H32  1  0.02264000  0.82117000  0.18217000  1.0
  H  H33  1  0.97735000  0.17883000  0.81783000  1.0
  H  H34  1  0.88046000  0.64604000  0.29476000  1.0
  H  H35  1  0.11954000  0.35396000  0.70524000  1.0
  H  H36  1  0.90536000  0.83134000  0.53460000  1.0
  H  H37  1  0.09464000  0.16866000  0.46540000  1.0
  H  H38  1  0.06756000  0.98853000  0.41251000  1.0
  H  H39  1  0.93243000  0.01148000  0.58749000  1.0
  C  C40  1  0.61999000  0.13174000  0.29054000  1.0
  C  C41  1  0.38001000  0.86826000  0.70946000  1.0
  C  C42  1  0.74101000  0.20531000  0.23229000  1.0
  C  C43  1  0.25899000  0.79469000  0.76771000  1.0
  C  C44  1  0.81596000  0.27889000  0.27705000  1.0
  C  C45  1  0.18404000  0.72111000  0.72295000  1.0
  C  C46  1  0.77321000  0.27488000  0.37854000  1.0
  C  C47  1  0.22679000  0.72512000  0.62146000  1.0
  C  C48  1  0.65794000  0.19806000  0.43618000  1.0
  C  C49  1  0.34206000  0.80194000  0.56382000  1.0
  C  C50  1  0.57894000  0.12940000  0.39151000  1.0
  C  C51  1  0.42106000  0.87060000  0.60848000  1.0
  C  C52  1  0.53913000  0.04815000  0.24738000  1.0
  C  C53  1  0.46086000  0.95186000  0.75262000  1.0
  C  C54  1  0.78816000  0.21157000  0.12254000  1.0
  C  C55  1  0.21184000  0.78843000  0.87746000  1.0
  C  C56  1  0.94059000  0.36614000  0.21914000  1.0
  C  C57  1  0.05941000  0.63387000  0.78086000  1.0
  C  C58  1  0.52478000  0.31795000  0.70392000  1.0
  C  C59  1  0.47522000  0.68205000  0.29607000  1.0
  C  C60  1  0.60179000  0.41121000  0.63188000  1.0
  C  C61  1  0.39821000  0.58879000  0.36812000  1.0
  C  C62  1  0.66741000  0.50788000  0.65989000  1.0
  C  C63  1  0.33259000  0.49212000  0.34011000  1.0
  C  C64  1  0.64659000  0.50589000  0.76109000  1.0
  C  C65  1  0.35342000  0.49410000  0.23891000  1.0
  C  C66  1  0.56616000  0.41002000  0.82854000  1.0
  C  C67  1  0.43384000  0.58998000  0.17145000  1.0
  C  C68  1  0.75485000  0.60808000  0.59147000  1.0
  C  C69  1  0.24515000  0.39192000  0.40853000  1.0
  C  C70  1  0.79393000  0.61938000  0.49282000  1.0
  C  C71  1  0.20608000  0.38062000  0.50718000  1.0
  C  C72  1  0.00045000  0.81817000  0.26107000  1.0
  C  C73  1  0.99955000  0.18183000  0.73893000  1.0
  C  C74  1  0.91687000  0.72118000  0.32481000  1.0
  C  C75  1  0.08313000  0.27882000  0.67519000  1.0
  C  C76  1  0.88079000  0.72130000  0.42606000  1.0
  C  C77  1  0.11921000  0.27870000  0.57394000  1.0
  C  C78  1  0.93295000  0.82257000  0.45761000  1.0
  C  C79  1  0.06704000  0.17743000  0.54239000  1.0
  C  C80  1  0.02077000  0.91229000  0.38989000  1.0
  C  C81  1  0.97922000  0.08771000  0.61012000  1.0
  N  N82  1  0.50705000  0.31640000  0.80085000  1.0
  N  N83  1  0.49295000  0.68360000  0.19915000  1.0
  N  N84  1  0.05394000  0.91124000  0.29280000  1.0
  N  N85  1  0.94606000  0.08876000  0.70721000  1.0
  O  O86  1  0.38199000  0.04459000  0.28272000  1.0
  O  O87  1  0.61801000  0.95541000  0.71728000  1.0
  O  O88  1  0.63589000  0.98575000  0.18133000  1.0
  O  O89  1  0.36411000  0.01425000  0.81867000  1.0
  O  O90  1  0.67460000  0.26880000  0.06622000  1.0
  O  O91  1  0.32540000  0.73120000  0.93378000  1.0
  O  O92  1  0.94916000  0.16299000  0.09107000  1.0
  O  O93  1  0.05084000  0.83701000  0.90893000  1.0
  O  O94  1  0.88118000  0.49695000  0.19827000  1.0
  O  O95  1  0.11883000  0.50304000  0.80173000  1.0
  O  O96  1  0.10093000  0.30041000  0.19933000  1.0
  O  O97  1  0.89907000  0.69959000  0.80066000  1.0
  O  O98  1  0.36261000  0.26833000  0.05156000  1.0
  O  O99  1  0.63740000  0.73167000  0.94844000  1.0
  O  O100  1  0.32987000  0.97192000  0.05242000  1.0
  O  O101  1  0.67013000  0.02808000  0.94758000  1.0
  O  O102  1  0.90272000  0.74411000  0.08664000  1.0
  O  O103  1  0.09728000  0.25589000  0.91336000  1.0
