# generated using pymatgen
data_HgH18C14(NCl)2
_symmetry_space_group_name_H-M   'P 1'
_cell_length_a   3.97077000
_cell_length_b   13.98670000
_cell_length_c   13.98640000
_cell_angle_alpha   89.99990000
_cell_angle_beta   90.00140000
_cell_angle_gamma   89.99970000
_symmetry_Int_Tables_number   1
_chemical_formula_structural   HgH18C14(NCl)2
_chemical_formula_sum   'Hg2 H36 C28 N4 Cl4'
_cell_volume   776.77624601
_cell_formula_units_Z   2
loop_
 _symmetry_equiv_pos_site_id
 _symmetry_equiv_pos_as_xyz
  1  'x, y, z'
loop_
 _atom_site_type_symbol
 _atom_site_label
 _atom_site_symmetry_multiplicity
 _atom_site_fract_x
 _atom_site_fract_y
 _atom_site_fract_z
 _atom_site_occupancy
  Hg  Hg0  1  0.49995000  0.50000000  0.00000000  1.0
  Hg  Hg1  1  0.49997000  0.00000000  0.50000000  1.0
  H  H2  1  0.27923000  0.52368000  0.78743000  1.0
  H  H3  1  0.27926000  0.47632000  0.21257000  1.0
  H  H4  1  0.72074000  0.21257000  0.52370000  1.0
  H  H5  1  0.72079000  0.78744000  0.47630000  1.0
  H  H6  1  0.27925000  0.02369000  0.71257000  1.0
  H  H7  1  0.27927000  0.97631000  0.28743000  1.0
  H  H8  1  0.72071000  0.71256000  0.97631000  1.0
  H  H9  1  0.72074000  0.28743000  0.02370000  1.0
  H  H10  1  0.50001000  0.81025000  0.68974000  1.0
  H  H11  1  0.49999000  0.18975000  0.31025000  1.0
  H  H12  1  0.50001000  0.31025000  0.81026000  1.0
  H  H13  1  0.50002000  0.68975000  0.18974000  1.0
  H  H14  1  0.23481000  0.70231000  0.58007000  1.0
  H  H15  1  0.23483000  0.29769000  0.41993000  1.0
  H  H16  1  0.76520000  0.41993000  0.70231000  1.0
  H  H17  1  0.76518000  0.58007000  0.29769000  1.0
  H  H18  1  0.23481000  0.20232000  0.91993000  1.0
  H  H19  1  0.23482000  0.79769000  0.08006000  1.0
  H  H20  1  0.76519000  0.91993000  0.79770000  1.0
  H  H21  1  0.76519000  0.08007000  0.20231000  1.0
  H  H22  1  0.97743000  0.61252000  0.63224000  1.0
  H  H23  1  0.97744000  0.38748000  0.36776000  1.0
  H  H24  1  0.02255000  0.36776000  0.61252000  1.0
  H  H25  1  0.02256000  0.63224000  0.38749000  1.0
  H  H26  1  0.97743000  0.11252000  0.86776000  1.0
  H  H27  1  0.97745000  0.88748000  0.13224000  1.0
  H  H28  1  0.02254000  0.86775000  0.88749000  1.0
  H  H29  1  0.02254000  0.13224000  0.11252000  1.0
  H  H30  1  0.38677000  0.58261000  0.59256000  1.0
  H  H31  1  0.38680000  0.41740000  0.40743000  1.0
  H  H32  1  0.61322000  0.40743000  0.58261000  1.0
  H  H33  1  0.61320000  0.59257000  0.41739000  1.0
  H  H34  1  0.38679000  0.08261000  0.90744000  1.0
  H  H35  1  0.38679000  0.91739000  0.09256000  1.0
  H  H36  1  0.61319000  0.90743000  0.91740000  1.0
  H  H37  1  0.61320000  0.09257000  0.08261000  1.0
  C  C38  1  0.37883000  0.59592000  0.79680000  1.0
  C  C39  1  0.37885000  0.40409000  0.20320000  1.0
  C  C40  1  0.62116000  0.20321000  0.59591000  1.0
  C  C41  1  0.62119000  0.79680000  0.40408000  1.0
  C  C42  1  0.37884000  0.09592000  0.70320000  1.0
  C  C43  1  0.37886000  0.90409000  0.29680000  1.0
  C  C44  1  0.62117000  0.70320000  0.90409000  1.0
  C  C45  1  0.62117000  0.29679000  0.09591000  1.0
  C  C46  1  0.37373000  0.66407000  0.72381000  1.0
  C  C47  1  0.37375000  0.33593000  0.27619000  1.0
  C  C48  1  0.62629000  0.27618000  0.66409000  1.0
  C  C49  1  0.62632000  0.72382000  0.33591000  1.0
  C  C50  1  0.37374000  0.16407000  0.77619000  1.0
  C  C51  1  0.37377000  0.83593000  0.22381000  1.0
  C  C52  1  0.62625000  0.77618000  0.83592000  1.0
  C  C53  1  0.62628000  0.22381000  0.16408000  1.0
  C  C54  1  0.50001000  0.75512000  0.74489000  1.0
  C  C55  1  0.50001000  0.24488000  0.25511000  1.0
  C  C56  1  0.50001000  0.25513000  0.75512000  1.0
  C  C57  1  0.50000000  0.74488000  0.24488000  1.0
  C  C58  1  0.23668000  0.63932000  0.62669000  1.0
  C  C59  1  0.23670000  0.36068000  0.37330000  1.0
  C  C60  1  0.76332000  0.37330000  0.63933000  1.0
  C  C61  1  0.76331000  0.62670000  0.36068000  1.0
  C  C62  1  0.23668000  0.13932000  0.87331000  1.0
  C  C63  1  0.23669000  0.86068000  0.12669000  1.0
  C  C64  1  0.76330000  0.87330000  0.86069000  1.0
  C  C65  1  0.76331000  0.12670000  0.13932000  1.0
  N  N66  1  0.49997000  0.61594000  0.88404000  1.0
  N  N67  1  0.50000000  0.38406000  0.11596000  1.0
  N  N68  1  0.49999000  0.11594000  0.61596000  1.0
  N  N69  1  0.50004000  0.88406000  0.38404000  1.0
  Cl  Cl70  1  0.99997000  0.40020000  0.90020000  1.0
  Cl  Cl71  1  0.99998000  0.59980000  0.09980000  1.0
  Cl  Cl72  1  0.99998000  0.09980000  0.40020000  1.0
  Cl  Cl73  1  0.00000000  0.90021000  0.59980000  1.0
