# generated using pymatgen
data_HgH10C12(BrN2)2
_symmetry_space_group_name_H-M   'P 1'
_cell_length_a   8.34263000
_cell_length_b   11.82110000
_cell_length_c   14.89820000
_cell_angle_alpha   89.99960000
_cell_angle_beta   89.99960000
_cell_angle_gamma   89.99970000
_symmetry_Int_Tables_number   1
_chemical_formula_structural   HgH10C12(BrN2)2
_chemical_formula_sum   'Hg4 H40 C48 Br8 N16'
_cell_volume   1469.24653164
_cell_formula_units_Z   4
loop_
 _symmetry_equiv_pos_site_id
 _symmetry_equiv_pos_as_xyz
  1  'x, y, z'
loop_
 _atom_site_type_symbol
 _atom_site_label
 _atom_site_symmetry_multiplicity
 _atom_site_fract_x
 _atom_site_fract_y
 _atom_site_fract_z
 _atom_site_occupancy
  Hg  Hg0  1  0.78260000  0.94676000  0.25000000  1.0
  Hg  Hg1  1  0.71740000  0.44676000  0.75000000  1.0
  Hg  Hg2  1  0.21740000  0.05324000  0.75000000  1.0
  Hg  Hg3  1  0.28260000  0.55324000  0.25000000  1.0
  H  H4  1  0.73478000  0.17625000  0.36978000  1.0
  H  H5  1  0.76522000  0.67625000  0.63022000  1.0
  H  H6  1  0.26522000  0.82376000  0.86978000  1.0
  H  H7  1  0.23477000  0.32375000  0.13023000  1.0
  H  H8  1  0.26522000  0.82376000  0.63023000  1.0
  H  H9  1  0.23478000  0.32376000  0.36978000  1.0
  H  H10  1  0.73478000  0.17624000  0.13022000  1.0
  H  H11  1  0.76522000  0.67624000  0.86977000  1.0
  H  H12  1  0.54742000  0.27933000  0.47544000  1.0
  H  H13  1  0.95258000  0.77933000  0.52455000  1.0
  H  H14  1  0.45257000  0.72068000  0.97545000  1.0
  H  H15  1  0.04743000  0.22067000  0.02456000  1.0
  H  H16  1  0.45258000  0.72068000  0.52456000  1.0
  H  H17  1  0.04742000  0.22067000  0.47544000  1.0
  H  H18  1  0.54742000  0.27933000  0.02456000  1.0
  H  H19  1  0.95257000  0.77932000  0.97544000  1.0
  H  H20  1  0.29059000  0.18449000  0.51895000  1.0
  H  H21  1  0.20942000  0.68449000  0.48105000  1.0
  H  H22  1  0.70940000  0.81551000  0.01896000  1.0
  H  H23  1  0.79060000  0.31551000  0.98104000  1.0
  H  H24  1  0.70941000  0.81551000  0.48105000  1.0
  H  H25  1  0.79059000  0.31550000  0.51895000  1.0
  H  H26  1  0.29059000  0.18450000  0.98105000  1.0
  H  H27  1  0.20940000  0.68449000  0.01895000  1.0
  H  H28  1  0.41700000  0.90970000  0.34136000  1.0
  H  H29  1  0.08300000  0.40970000  0.65864000  1.0
  H  H30  1  0.58301000  0.09030000  0.84136000  1.0
  H  H31  1  0.91699000  0.59031000  0.15864000  1.0
  H  H32  1  0.58300000  0.09030000  0.65864000  1.0
  H  H33  1  0.91699000  0.59030000  0.34136000  1.0
  H  H34  1  0.41699000  0.90970000  0.15864000  1.0
  H  H35  1  0.08301000  0.40969000  0.84136000  1.0
  H  H36  1  0.15202000  0.90699000  0.40981000  1.0
  H  H37  1  0.34798000  0.40699000  0.59019000  1.0
  H  H38  1  0.84798000  0.09300000  0.90981000  1.0
  H  H39  1  0.65202000  0.59301000  0.09018000  1.0
  H  H40  1  0.84798000  0.09301000  0.59019000  1.0
  H  H41  1  0.65202000  0.59301000  0.40981000  1.0
  H  H42  1  0.15202000  0.90699000  0.09019000  1.0
  H  H43  1  0.34799000  0.40699000  0.90981000  1.0
  C  C44  1  0.61911000  0.14048000  0.38925000  1.0
  C  C45  1  0.88089000  0.64048000  0.61074000  1.0
  C  C46  1  0.38089000  0.85952000  0.88926000  1.0
  C  C47  1  0.11911000  0.35951000  0.11075000  1.0
  C  C48  1  0.38089000  0.85952000  0.61075000  1.0
  C  C49  1  0.11911000  0.35952000  0.38925000  1.0
  C  C50  1  0.61911000  0.14048000  0.11075000  1.0
  C  C51  1  0.88089000  0.64048000  0.88925000  1.0
  C  C52  1  0.51578000  0.19662000  0.44799000  1.0
  C  C53  1  0.98422000  0.69663000  0.55201000  1.0
  C  C54  1  0.48421000  0.80338000  0.94799000  1.0
  C  C55  1  0.01579000  0.30338000  0.05201000  1.0
  C  C56  1  0.48422000  0.80338000  0.55202000  1.0
  C  C57  1  0.01578000  0.30338000  0.44799000  1.0
  C  C58  1  0.51578000  0.19663000  0.05202000  1.0
  C  C59  1  0.98421000  0.69662000  0.94798000  1.0
  C  C60  1  0.37150000  0.14554000  0.47055000  1.0
  C  C61  1  0.12850000  0.64554000  0.52944000  1.0
  C  C62  1  0.62849000  0.85447000  0.97056000  1.0
  C  C63  1  0.87151000  0.35446000  0.02944000  1.0
  C  C64  1  0.62850000  0.85447000  0.52945000  1.0
  C  C65  1  0.87150000  0.35446000  0.47055000  1.0
  C  C66  1  0.37150000  0.14554000  0.02944000  1.0
  C  C67  1  0.12849000  0.64554000  0.97055000  1.0
  C  C68  1  0.32976000  0.04186000  0.43054000  1.0
  C  C69  1  0.17024000  0.54186000  0.56946000  1.0
  C  C70  1  0.67024000  0.95814000  0.93054000  1.0
  C  C71  1  0.82976000  0.45813000  0.06946000  1.0
  C  C72  1  0.67024000  0.95814000  0.56946000  1.0
  C  C73  1  0.82976000  0.45814000  0.43054000  1.0
  C  C74  1  0.32976000  0.04186000  0.06946000  1.0
  C  C75  1  0.17024000  0.54186000  0.93054000  1.0
  C  C76  1  0.44215000  0.99138000  0.37292000  1.0
  C  C77  1  0.05786000  0.49138000  0.62708000  1.0
  C  C78  1  0.55786000  0.00862000  0.87292000  1.0
  C  C79  1  0.94215000  0.50862000  0.12707000  1.0
  C  C80  1  0.55785000  0.00862000  0.62708000  1.0
  C  C81  1  0.94215000  0.50862000  0.37292000  1.0
  C  C82  1  0.44214000  0.99138000  0.12708000  1.0
  C  C83  1  0.05786000  0.49138000  0.87292000  1.0
  C  C84  1  0.17647000  0.98648000  0.44560000  1.0
  C  C85  1  0.32353000  0.48648000  0.55440000  1.0
  C  C86  1  0.82353000  0.01351000  0.94560000  1.0
  C  C87  1  0.67647000  0.51352000  0.05439000  1.0
  C  C88  1  0.82353000  0.01352000  0.55440000  1.0
  C  C89  1  0.67647000  0.51351000  0.44560000  1.0
  C  C90  1  0.17647000  0.98648000  0.05440000  1.0
  C  C91  1  0.32353000  0.48648000  0.94560000  1.0
  Br  Br92  1  0.67181000  0.74787000  0.25000000  1.0
  Br  Br93  1  0.82819000  0.24788000  0.75000000  1.0
  Br  Br94  1  0.32819000  0.25213000  0.75000000  1.0
  Br  Br95  1  0.17180000  0.75212000  0.25001000  1.0
  Br  Br96  1  0.00006000  0.09467000  0.25000000  1.0
  Br  Br97  1  0.49994000  0.59467000  0.75000000  1.0
  Br  Br98  1  0.99994000  0.90533000  0.75000000  1.0
  Br  Br99  1  0.50006000  0.40533000  0.25000000  1.0
  N  N100  1  0.58394000  0.03885000  0.35434000  1.0
  N  N101  1  0.91606000  0.53885000  0.64566000  1.0
  N  N102  1  0.41606000  0.96115000  0.85435000  1.0
  N  N103  1  0.08394000  0.46115000  0.14566000  1.0
  N  N104  1  0.41606000  0.96115000  0.64566000  1.0
  N  N105  1  0.08394000  0.46115000  0.35434000  1.0
  N  N106  1  0.58394000  0.03885000  0.14566000  1.0
  N  N107  1  0.91606000  0.53884000  0.85434000  1.0
  N  N108  1  0.07020000  0.03118000  0.49816000  1.0
  N  N109  1  0.42981000  0.53118000  0.50184000  1.0
  N  N110  1  0.92981000  0.96881000  0.99815000  1.0
  N  N111  1  0.57019000  0.46882000  0.00184000  1.0
  N  N112  1  0.92981000  0.96882000  0.50185000  1.0
  N  N113  1  0.57019000  0.46881000  0.49815000  1.0
  N  N114  1  0.07019000  0.03118000  0.00184000  1.0
  N  N115  1  0.42981000  0.53118000  0.99815000  1.0
