# generated using pymatgen
data_MgH7C19NO5
_symmetry_space_group_name_H-M   'P 1'
_cell_length_a   6.80007000
_cell_length_b   41.53320000
_cell_length_c   41.52600000
_cell_angle_alpha   119.68500000
_cell_angle_beta   93.12530000
_cell_angle_gamma   93.13620000
_symmetry_Int_Tables_number   1
_chemical_formula_structural   MgH7C19NO5
_chemical_formula_sum   'Mg6 H42 C114 N6 O30'
_cell_volume   10128.55943633
_cell_formula_units_Z   6
loop_
 _symmetry_equiv_pos_site_id
 _symmetry_equiv_pos_as_xyz
  1  'x, y, z'
loop_
 _atom_site_type_symbol
 _atom_site_label
 _atom_site_symmetry_multiplicity
 _atom_site_fract_x
 _atom_site_fract_y
 _atom_site_fract_z
 _atom_site_occupancy
  Mg  Mg0  1  0.85250000  0.69011000  0.32952000  1.0
  Mg  Mg1  1  0.30245000  0.30903000  0.66914000  1.0
  Mg  Mg2  1  0.16246000  0.63947000  0.30986000  1.0
  Mg  Mg3  1  0.99313000  0.35994000  0.69093000  1.0
  Mg  Mg4  1  0.52299000  0.67045000  0.36051000  1.0
  Mg  Mg5  1  0.63310000  0.33083000  0.63999000  1.0
  H  H6  1  0.15815000  0.55476000  0.96055000  1.0
  H  H7  1  0.95247000  0.52319000  0.90026000  1.0
  H  H8  1  0.29864000  0.58122000  0.01009000  1.0
  H  H9  1  0.49662000  0.61167000  0.07119000  1.0
  H  H10  1  0.21054000  0.47068000  0.09881000  1.0
  H  H11  1  0.00284000  0.43928000  0.03878000  1.0
  H  H12  1  0.39113000  0.59067000  0.20486000  1.0
  H  H13  1  0.11138000  0.62701000  0.21940000  1.0
  H  H14  1  0.93293000  0.59041000  0.15595000  1.0
  H  H15  1  0.84198000  0.41500000  0.99109000  1.0
  H  H16  1  0.64269000  0.38483000  0.93016000  1.0
  H  H17  1  0.76273000  0.40513000  0.79546000  1.0
  H  H18  1  0.04186000  0.36906000  0.77995000  1.0
  H  H19  1  0.21894000  0.40453000  0.84351000  1.0
  H  H20  1  0.60289000  0.40586000  0.44521000  1.0
  H  H21  1  0.42882000  0.37712000  0.47677000  1.0
  H  H22  1  0.71909000  0.42900000  0.41900000  1.0
  H  H23  1  0.88626000  0.45968000  0.38853000  1.0
  H  H24  1  0.73952000  0.62818000  0.52938000  1.0
  H  H25  1  0.56317000  0.59951000  0.56077000  1.0
  H  H26  1  0.79991000  0.61420000  0.40926000  1.0
  H  H27  1  0.48405000  0.59245000  0.37300000  1.0
  H  H28  1  0.34220000  0.56567000  0.40968000  1.0
  H  H29  1  0.42659000  0.57605000  0.58504000  1.0
  H  H30  1  0.25745000  0.54522000  0.61517000  1.0
  H  H31  1  0.35751000  0.39033000  0.59489000  1.0
  H  H32  1  0.67253000  0.41070000  0.63090000  1.0
  H  H33  1  0.81405000  0.43888000  0.59548000  1.0
  H  H34  1  0.19772000  0.03940000  0.59422000  1.0
  H  H35  1  0.05248000  0.09969000  0.62294000  1.0
  H  H36  1  0.29148000  0.99007000  0.57108000  1.0
  H  H37  1  0.42709000  0.92885000  0.54037000  1.0
  H  H38  1  0.10974000  0.90113000  0.37190000  1.0
  H  H39  1  0.96293000  0.96124000  0.40056000  1.0
  H  H40  1  0.18533000  0.79497000  0.38569000  1.0
  H  H41  1  0.89144000  0.78069000  0.40755000  1.0
  H  H42  1  0.77577000  0.84406000  0.43435000  1.0
  H  H43  1  0.85124000  0.00900000  0.42397000  1.0
  H  H44  1  0.71348000  0.06999000  0.45474000  1.0
  H  H45  1  0.96777000  0.20455000  0.60962000  1.0
  H  H46  1  0.26223000  0.22000000  0.58915000  1.0
  H  H47  1  0.37598000  0.15645000  0.56102000  1.0
  C  C48  1  0.60850000  0.40808000  0.88135000  1.0
  C  C49  1  0.71691000  0.46058000  0.87096000  1.0
  C  C50  1  0.83919000  0.47817000  0.90708000  1.0
  C  C51  1  0.84115000  0.46179000  0.92995000  1.0
  C  C52  1  0.95843000  0.47969000  0.96508000  1.0
  C  C53  1  0.95875000  0.46258000  0.98767000  1.0
  C  C54  1  0.07958000  0.48080000  0.02347000  1.0
  C  C55  1  0.19263000  0.51547000  0.03517000  1.0
  C  C56  1  0.19044000  0.53276000  0.01275000  1.0
  C  C57  1  0.07315000  0.51414000  0.97660000  1.0
  C  C58  1  0.06947000  0.52891000  0.95271000  1.0
  C  C59  1  0.95429000  0.51136000  0.91856000  1.0
  C  C60  1  0.30027000  0.56722000  0.02637000  1.0
  C  C61  1  0.41290000  0.58472000  0.06078000  1.0
  C  C62  1  0.42002000  0.56810000  0.08270000  1.0
  C  C63  1  0.31016000  0.53340000  0.07027000  1.0
  C  C64  1  0.31612000  0.51661000  0.09276000  1.0
  C  C65  1  0.20487000  0.48296000  0.08091000  1.0
  C  C66  1  0.08831000  0.46551000  0.04689000  1.0
  C  C67  1  0.43902000  0.53424000  0.12883000  1.0
  C  C68  1  0.53953000  0.58755000  0.11912000  1.0
  C  C69  1  0.64956000  0.58868000  0.17644000  1.0
  C  C70  1  0.54888000  0.59875000  0.20763000  1.0
  C  C71  1  0.64639000  0.61951000  0.24367000  1.0
  C  C72  1  0.85377000  0.63061000  0.24826000  1.0
  C  C73  1  0.95312000  0.61885000  0.21581000  1.0
  C  C74  1  0.85358000  0.59839000  0.18054000  1.0
  C  C75  1  0.52596000  0.62924000  0.27514000  1.0
  C  C76  1  0.84379000  0.42869000  0.97452000  1.0
  C  C77  1  0.73019000  0.41136000  0.94019000  1.0
  C  C78  1  0.72745000  0.42753000  0.91784000  1.0
  C  C79  1  0.50345000  0.40662000  0.82350000  1.0
  C  C80  1  0.60491000  0.39707000  0.79250000  1.0
  C  C81  1  0.50789000  0.37709000  0.75638000  1.0
  C  C82  1  0.30014000  0.36607000  0.75140000  1.0
  C  C83  1  0.20024000  0.37712000  0.78370000  1.0
  C  C84  1  0.29919000  0.39695000  0.81909000  1.0
  C  C85  1  0.62907000  0.36847000  0.72521000  1.0
  C  C86  1  0.19978000  0.47320000  0.59187000  1.0
  C  C87  1  0.25621000  0.41037000  0.53942000  1.0
  C  C88  1  0.36078000  0.42892000  0.52182000  1.0
  C  C89  1  0.37914000  0.46816000  0.53820000  1.0
  C  C90  1  0.47841000  0.48541000  0.52032000  1.0
  C  C91  1  0.49577000  0.52511000  0.53744000  1.0
  C  C92  1  0.59830000  0.54272000  0.51923000  1.0
  C  C93  1  0.67662000  0.51977000  0.48456000  1.0
  C  C94  1  0.65762000  0.48008000  0.46730000  1.0
  C  C95  1  0.55866000  0.46251000  0.48586000  1.0
  C  C96  1  0.54010000  0.42387000  0.47107000  1.0
  C  C97  1  0.44254000  0.40724000  0.48862000  1.0
  C  C98  1  0.73396000  0.45926000  0.43294000  1.0
  C  C99  1  0.82882000  0.47619000  0.41542000  1.0
  C  C100  1  0.85154000  0.51471000  0.43196000  1.0
  C  C101  1  0.77611000  0.53695000  0.46663000  1.0
  C  C102  1  0.79904000  0.57623000  0.48343000  1.0
  C  C103  1  0.72149000  0.59801000  0.51708000  1.0
  C  C104  1  0.62240000  0.58142000  0.53452000  1.0
  C  C105  1  0.90464000  0.59466000  0.46581000  1.0
  C  C106  1  0.95120000  0.53169000  0.41248000  1.0
  C  C107  1  0.06048000  0.58784000  0.41134000  1.0
  C  C108  1  0.94956000  0.60889000  0.40120000  1.0
  C  C109  1  0.02641000  0.62414000  0.38042000  1.0
  C  C110  1  0.22284000  0.61768000  0.36935000  1.0
  C  C111  1  0.33398000  0.59702000  0.38115000  1.0
  C  C112  1  0.25488000  0.58226000  0.40165000  1.0
  C  C113  1  0.89638000  0.64594000  0.37073000  1.0
  C  C114  1  0.41477000  0.54580000  0.57134000  1.0
  C  C115  1  0.31846000  0.52877000  0.58864000  1.0
  C  C116  1  0.29959000  0.49026000  0.57245000  1.0
  C  C117  1  0.09658000  0.41681000  0.59337000  1.0
  C  C118  1  0.20768000  0.39537000  0.60293000  1.0
  C  C119  1  0.13076000  0.37920000  0.62292000  1.0
  C  C120  1  0.93395000  0.38519000  0.63389000  1.0
  C  C121  1  0.82291000  0.40644000  0.62286000  1.0
  C  C122  1  0.90196000  0.42203000  0.60304000  1.0
  C  C123  1  0.26050000  0.35664000  0.63152000  1.0
  C  C124  1  0.72744000  0.11866000  0.52677000  1.0
  C  C125  1  0.84677000  0.12906000  0.58964000  1.0
  C  C126  1  0.93270000  0.09294000  0.57111000  1.0
  C  C127  1  0.91179000  0.07007000  0.53187000  1.0
  C  C128  1  0.99373000  0.03495000  0.51464000  1.0
  C  C129  1  0.97119000  0.01236000  0.47495000  1.0
  C  C130  1  0.05545000  0.97650000  0.45736000  1.0
  C  C131  1  0.15676000  0.96477000  0.48031000  1.0
  C  C132  1  0.17809000  0.98725000  0.52000000  1.0
  C  C133  1  0.09688000  0.02339000  0.53756000  1.0
  C  C134  1  0.11697000  0.04725000  0.57621000  1.0
  C  C135  1  0.03612000  0.08142000  0.59282000  1.0
  C  C136  1  0.27553000  0.97372000  0.54081000  1.0
  C  C137  1  0.35308000  0.93924000  0.52387000  1.0
  C  C138  1  0.33672000  0.91723000  0.48534000  1.0
  C  C139  1  0.23871000  0.92964000  0.46311000  1.0
  C  C140  1  0.22167000  0.90713000  0.42383000  1.0
  C  C141  1  0.12225000  0.91902000  0.40207000  1.0
  C  C142  1  0.04023000  0.95308000  0.41866000  1.0
  C  C143  1  0.30818000  0.87105000  0.40538000  1.0
  C  C144  1  0.41943000  0.88079000  0.46835000  1.0
  C  C145  1  0.47194000  0.82348000  0.41216000  1.0
  C  C146  1  0.34034000  0.79227000  0.39104000  1.0
  C  C147  1  0.40232000  0.75628000  0.37578000  1.0
  C  C148  1  0.60521000  0.75172000  0.38230000  1.0
  C  C149  1  0.73673000  0.78420000  0.40297000  1.0
  C  C150  1  0.67199000  0.81943000  0.41775000  1.0
  C  C151  1  0.25065000  0.72478000  0.35398000  1.0
  C  C152  1  0.86976000  0.02557000  0.45422000  1.0
  C  C153  1  0.79073000  0.05991000  0.47122000  1.0
  C  C154  1  0.81028000  0.08220000  0.50973000  1.0
  C  C155  1  0.68053000  0.17648000  0.58311000  1.0
  C  C156  1  0.81289000  0.20750000  0.60453000  1.0
  C  C157  1  0.75185000  0.24360000  0.62071000  1.0
  C  C158  1  0.54901000  0.24856000  0.61470000  1.0
  C  C159  1  0.41693000  0.21624000  0.59342000  1.0
  C  C160  1  0.48061000  0.18087000  0.57786000  1.0
  C  C161  1  0.90404000  0.27478000  0.64332000  1.0
  N  N162  1  0.61058000  0.42592000  0.85989000  1.0
  N  N163  1  0.54170000  0.56925000  0.14014000  1.0
  N  N164  1  0.18446000  0.43392000  0.57408000  1.0
  N  N165  1  0.97212000  0.57098000  0.43079000  1.0
  N  N166  1  0.75139000  0.14013000  0.56605000  1.0
  N  N167  1  0.40020000  0.85975000  0.42904000  1.0
  O  O168  1  0.34664000  0.61589000  0.26977000  1.0
  O  O169  1  0.60614000  0.65235000  0.30843000  1.0
  O  O170  1  0.95678000  0.65158000  0.28158000  1.0
  O  O171  1  0.80842000  0.38195000  0.73109000  1.0
  O  O172  1  0.54958000  0.34630000  0.69162000  1.0
  O  O173  1  0.19749000  0.34594000  0.71792000  1.0
  O  O174  1  0.51251000  0.37781000  0.86976000  1.0
  O  O175  1  0.70732000  0.47494000  0.85124000  1.0
  O  O176  1  0.45214000  0.51968000  0.14833000  1.0
  O  O177  1  0.63254000  0.61813000  0.13101000  1.0
  O  O178  1  0.73047000  0.65392000  0.38409000  1.0
  O  O179  1  0.95368000  0.65617000  0.34766000  1.0
  O  O180  1  0.30504000  0.63004000  0.34839000  1.0
  O  O181  1  0.42639000  0.34906000  0.61805000  1.0
  O  O182  1  0.20318000  0.34518000  0.65367000  1.0
  O  O183  1  0.85142000  0.37179000  0.65399000  1.0
  O  O184  1  0.13337000  0.49186000  0.62208000  1.0
  O  O185  1  0.23242000  0.37631000  0.52506000  1.0
  O  O186  1  0.93272000  0.62871000  0.48040000  1.0
  O  O187  1  0.01308000  0.51298000  0.38184000  1.0
  O  O188  1  0.07678000  0.73013000  0.34594000  1.0
  O  O189  1  0.29771000  0.69150000  0.34380000  1.0
  O  O190  1  0.67518000  0.71843000  0.36997000  1.0
  O  O191  1  0.07753000  0.26890000  0.65092000  1.0
  O  O192  1  0.85787000  0.30836000  0.65481000  1.0
  O  O193  1  0.47969000  0.28203000  0.62812000  1.0
  O  O194  1  0.64232000  0.13019000  0.50810000  1.0
  O  O195  1  0.85703000  0.14878000  0.62371000  1.0
  O  O196  1  0.30099000  0.85152000  0.37132000  1.0
  O  O197  1  0.50065000  0.86889000  0.48705000  1.0
