# generated using pymatgen
data_CdH20C29N8O9
_symmetry_space_group_name_H-M   'P 1'
_cell_length_a   8.15776000
_cell_length_b   13.56363685
_cell_length_c   16.15630000
_cell_angle_alpha   91.77349092
_cell_angle_beta   95.17350000
_cell_angle_gamma   106.66303759
_symmetry_Int_Tables_number   1
_chemical_formula_structural   CdH20C29N8O9
_chemical_formula_sum   'Cd2 H40 C58 N16 O18'
_cell_volume   1702.60561441
_cell_formula_units_Z   2
loop_
 _symmetry_equiv_pos_site_id
 _symmetry_equiv_pos_as_xyz
  1  'x, y, z'
loop_
 _atom_site_type_symbol
 _atom_site_label
 _atom_site_symmetry_multiplicity
 _atom_site_fract_x
 _atom_site_fract_y
 _atom_site_fract_z
 _atom_site_occupancy
  Cd  Cd0  1  0.86492000  0.79635000  0.80259000  1.0
  Cd  Cd1  1  0.13509000  0.20365000  0.19741000  1.0
  H  H2  1  0.87592000  0.83843000  0.97614000  1.0
  H  H3  1  0.12409000  0.16157000  0.02386000  1.0
  H  H4  1  0.81255000  0.93080000  0.93466000  1.0
  H  H5  1  0.18745000  0.06920000  0.06534000  1.0
  H  H6  1  0.44455000  0.09970000  0.96326000  1.0
  H  H7  1  0.55544000  0.90029000  0.03674000  1.0
  H  H8  1  0.32815000  0.30475000  0.78219000  1.0
  H  H9  1  0.67187000  0.69525000  0.21781000  1.0
  H  H10  1  0.69491000  0.42597000  0.99696000  1.0
  H  H11  1  0.30510000  0.57403000  0.00303000  1.0
  H  H12  1  0.17154000  0.99908000  0.91607000  1.0
  H  H13  1  0.82845000  0.00092000  0.08393000  1.0
  H  H14  1  0.99995000  0.98330000  0.65971000  1.0
  H  H15  1  0.00007000  0.01671000  0.34029000  1.0
  H  H16  1  0.24680000  0.16914000  0.69796000  1.0
  H  H17  1  0.75321000  0.83086000  0.30204000  1.0
  H  H18  1  0.81331000  0.54858000  0.89341000  1.0
  H  H19  1  0.18671000  0.45142000  0.10658000  1.0
  H  H20  1  0.44958000  0.66180000  0.75597000  1.0
  H  H21  1  0.55044000  0.33821000  0.24403000  1.0
  H  H22  1  0.28998000  0.46027000  0.79268000  1.0
  H  H23  1  0.71004000  0.53974000  0.20732000  1.0
  H  H24  1  0.93342000  0.30867000  0.03444000  1.0
  H  H25  1  0.06657000  0.69133000  0.96556000  1.0
  H  H26  1  0.72990000  0.17081000  0.24796000  1.0
  H  H27  1  0.27010000  0.82919000  0.75204000  1.0
  H  H28  1  0.45987000  0.16719000  0.12769000  1.0
  H  H29  1  0.54013000  0.83281000  0.87231000  1.0
  H  H30  1  0.71276000  0.72746000  0.50244000  1.0
  H  H31  1  0.28725000  0.27255000  0.49755000  1.0
  H  H32  1  0.54139000  0.73266000  0.36777000  1.0
  H  H33  1  0.45861000  0.26735000  0.63223000  1.0
  H  H34  1  0.41635000  0.89058000  0.62594000  1.0
  H  H35  1  0.58364000  0.10942000  0.37407000  1.0
  H  H36  1  0.52427000  0.95424000  0.31723000  1.0
  H  H37  1  0.47573000  0.04575000  0.68277000  1.0
  H  H38  1  0.41621000  0.98293000  0.17310000  1.0
  H  H39  1  0.58379000  0.01707000  0.82690000  1.0
  H  H40  1  0.96476000  0.72946000  0.18537000  1.0
  H  H41  1  0.03524000  0.27054000  0.81463000  1.0
  C  C42  1  0.46189000  0.17660000  0.94115000  1.0
  C  C43  1  0.53810000  0.82339000  0.05885000  1.0
  C  C44  1  0.37081000  0.19326000  0.86808000  1.0
  C  C45  1  0.62919000  0.80674000  0.13192000  1.0
  C  C46  1  0.40001000  0.29210000  0.83896000  1.0
  C  C47  1  0.60000000  0.70790000  0.16104000  1.0
  C  C48  1  0.51925000  0.37515000  0.88434000  1.0
  C  C49  1  0.48075000  0.62485000  0.11566000  1.0
  C  C50  1  0.60950000  0.36092000  0.95853000  1.0
  C  C51  1  0.39051000  0.63908000  0.04147000  1.0
  C  C52  1  0.57998000  0.26104000  0.98542000  1.0
  C  C53  1  0.42002000  0.73896000  0.01458000  1.0
  C  C54  1  0.15783000  0.01914000  0.85153000  1.0
  C  C55  1  0.84217000  0.98086000  0.14847000  1.0
  C  C56  1  0.07130000  0.01447000  0.71913000  1.0
  C  C57  1  0.92870000  0.98553000  0.28086000  1.0
  C  C58  1  0.19379000  0.10725000  0.73715000  1.0
  C  C59  1  0.80623000  0.89276000  0.26285000  1.0
  C  C60  1  0.69338000  0.55470000  0.86250000  1.0
  C  C61  1  0.30663000  0.44530000  0.13749000  1.0
  C  C62  1  0.50097000  0.60813000  0.79039000  1.0
  C  C63  1  0.49905000  0.39188000  0.20961000  1.0
  C  C64  1  0.42018000  0.50922000  0.80878000  1.0
  C  C65  1  0.57982000  0.49078000  0.19121000  1.0
  C  C66  1  0.84536000  0.27674000  0.07972000  1.0
  C  C67  1  0.15464000  0.72326000  0.92028000  1.0
  C  C68  1  0.73327000  0.19943000  0.18611000  1.0
  C  C69  1  0.26673000  0.80057000  0.81389000  1.0
  C  C70  1  0.59819000  0.19527000  0.12789000  1.0
  C  C71  1  0.40181000  0.80473000  0.87211000  1.0
  C  C72  1  0.67449000  0.80597000  0.65544000  1.0
  C  C73  1  0.32550000  0.19403000  0.34456000  1.0
  C  C74  1  0.57520000  0.80871000  0.57310000  1.0
  C  C75  1  0.42480000  0.19129000  0.42690000  1.0
  C  C76  1  0.61027000  0.76445000  0.49971000  1.0
  C  C77  1  0.38973000  0.23556000  0.50029000  1.0
  C  C78  1  0.51495000  0.76812000  0.42457000  1.0
  C  C79  1  0.48505000  0.23189000  0.57544000  1.0
  C  C80  1  0.38352000  0.81614000  0.41912000  1.0
  C  C81  1  0.61648000  0.18386000  0.58088000  1.0
  C  C82  1  0.35221000  0.86089000  0.49352000  1.0
  C  C83  1  0.64778000  0.13911000  0.50649000  1.0
  C  C84  1  0.44504000  0.85656000  0.56929000  1.0
  C  C85  1  0.55495000  0.14344000  0.43071000  1.0
  C  C86  1  0.30499000  0.82772000  0.33448000  1.0
  C  C87  1  0.69501000  0.17228000  0.66552000  1.0
  C  C88  1  0.40098000  0.90528000  0.28810000  1.0
  C  C89  1  0.59902000  0.09472000  0.71190000  1.0
  C  C90  1  0.34140000  0.92064000  0.20731000  1.0
  C  C91  1  0.65859000  0.07936000  0.79270000  1.0
  C  C92  1  0.18501000  0.85647000  0.16916000  1.0
  C  C93  1  0.81499000  0.14353000  0.83084000  1.0
  C  C94  1  0.08730000  0.77894000  0.21440000  1.0
  C  C95  1  0.91269000  0.22106000  0.78560000  1.0
  C  C96  1  0.14571000  0.76575000  0.29571000  1.0
  C  C97  1  0.85429000  0.23426000  0.70429000  1.0
  C  C98  1  0.11655000  0.87106000  0.08162000  1.0
  C  C99  1  0.88344000  0.12894000  0.91838000  1.0
  N  N100  1  0.04985000  0.96114000  0.79073000  1.0
  N  N101  1  0.95016000  0.03886000  0.20926000  1.0
  N  N102  1  0.24925000  0.10989000  0.82151000  1.0
  N  N103  1  0.75075000  0.89011000  0.17849000  1.0
  N  N104  1  0.67085000  0.63540000  0.82409000  1.0
  N  N105  1  0.32916000  0.36459000  0.17590000  1.0
  N  N106  1  0.54361000  0.47539000  0.85500000  1.0
  N  N107  1  0.45640000  0.52461000  0.14500000  1.0
  N  N108  1  0.88660000  0.24929000  0.15515000  1.0
  N  N109  1  0.11341000  0.75072000  0.84485000  1.0
  N  N110  1  0.67105000  0.24538000  0.06068000  1.0
  N  N111  1  0.32895000  0.75462000  0.93932000  1.0
  N  N112  1  0.22028000  0.91495000  0.49454000  1.0
  N  N113  1  0.77972000  0.08505000  0.50547000  1.0
  N  N114  1  0.03175000  0.68779000  0.34179000  1.0
  N  N115  1  0.96823000  0.31220000  0.65821000  1.0
  O  O116  1  0.80611000  0.77291000  0.65627000  1.0
  O  O117  1  0.19389000  0.22710000  0.34373000  1.0
  O  O118  1  0.62209000  0.83663000  0.72079000  1.0
  O  O119  1  0.37791000  0.16337000  0.27921000  1.0
  O  O120  1  0.19949000  0.94825000  0.04473000  1.0
  O  O121  1  0.80050000  0.05175000  0.95527000  1.0
  O  O122  1  0.97837000  0.80342000  0.05176000  1.0
  O  O123  1  0.02163000  0.19659000  0.94824000  1.0
  O  O124  1  0.23392000  0.97891000  0.55335000  1.0
  O  O125  1  0.76607000  0.02109000  0.44665000  1.0
  O  O126  1  0.10228000  0.89397000  0.43675000  1.0
  O  O127  1  0.89771000  0.10602000  0.56325000  1.0
  O  O128  1  0.09355000  0.65701000  0.40504000  1.0
  O  O129  1  0.90642000  0.34300000  0.59497000  1.0
  O  O130  1  0.87583000  0.65695000  0.31480000  1.0
  O  O131  1  0.12416000  0.34303000  0.68519000  1.0
  O  O132  1  0.80253000  0.85599000  0.92765000  1.0
  O  O133  1  0.19748000  0.14401000  0.07235000  1.0
