# generated using pymatgen
data_NiH27C40N5O7
_symmetry_space_group_name_H-M   'P 1'
_cell_length_a   10.19610000
_cell_length_b   11.52260000
_cell_length_c   16.97210000
_cell_angle_alpha   82.70260000
_cell_angle_beta   73.07960000
_cell_angle_gamma   66.21570000
_symmetry_Int_Tables_number   1
_chemical_formula_structural   NiH27C40N5O7
_chemical_formula_sum   'Ni2 H54 C80 N10 O14'
_cell_volume   1745.53492991
_cell_formula_units_Z   2
loop_
 _symmetry_equiv_pos_site_id
 _symmetry_equiv_pos_as_xyz
  1  'x, y, z'
loop_
 _atom_site_type_symbol
 _atom_site_label
 _atom_site_symmetry_multiplicity
 _atom_site_fract_x
 _atom_site_fract_y
 _atom_site_fract_z
 _atom_site_occupancy
  Ni  Ni0  1  0.54508000  0.10693000  0.14690000  1.0
  Ni  Ni1  1  0.45491000  0.89306000  0.85309000  1.0
  H  H2  1  0.51671000  0.64440000  0.70465000  1.0
  H  H3  1  0.48328000  0.35560000  0.29534000  1.0
  H  H4  1  0.48700000  0.95230000  0.07514000  1.0
  H  H5  1  0.51298000  0.04775000  0.92489000  1.0
  H  H6  1  0.63831000  0.92925000  0.00781000  1.0
  H  H7  1  0.36167000  0.07081000  0.99223000  1.0
  H  H8  1  0.13238000  0.27856000  0.28100000  1.0
  H  H9  1  0.86760000  0.72143000  0.71900000  1.0
  H  H10  1  0.00959000  0.09679000  0.12435000  1.0
  H  H11  1  0.99040000  0.90319000  0.87566000  1.0
  H  H12  1  0.78083000  0.09017000  0.98501000  1.0
  H  H13  1  0.21918000  0.90982000  0.01501000  1.0
  H  H14  1  0.68086000  0.30861000  0.33480000  1.0
  H  H15  1  0.31912000  0.69140000  0.66519000  1.0
  H  H16  1  0.78698000  0.17459000  0.64246000  1.0
  H  H17  1  0.21301000  0.82543000  0.35754000  1.0
  H  H18  1  0.36607000  0.16497000  0.32352000  1.0
  H  H19  1  0.63394000  0.83504000  0.67647000  1.0
  H  H20  1  0.99998000  0.47994000  0.34226000  1.0
  H  H21  1  0.00002000  0.52004000  0.65773000  1.0
  H  H22  1  0.61364000  0.41368000  0.57194000  1.0
  H  H23  1  0.38636000  0.58631000  0.42806000  1.0
  H  H24  1  0.12361000  0.12835000  0.39990000  1.0
  H  H25  1  0.87639000  0.87163000  0.60010000  1.0
  H  H26  1  0.72570000  0.78396000  0.15162000  1.0
  H  H27  1  0.27431000  0.21603000  0.84838000  1.0
  H  H28  1  0.90048000  0.61418000  0.46859000  1.0
  H  H29  1  0.09951000  0.38581000  0.53141000  1.0
  H  H30  1  0.45322000  0.90312000  0.52806000  1.0
  H  H31  1  0.54678000  0.09689000  0.47193000  1.0
  H  H32  1  0.26839000  0.38439000  0.12887000  1.0
  H  H33  1  0.73162000  0.61562000  0.87114000  1.0
  H  H34  1  0.26764000  0.97553000  0.66108000  1.0
  H  H35  1  0.73236000  0.02448000  0.33892000  1.0
  H  H36  1  0.60305000  0.24372000  0.77589000  1.0
  H  H37  1  0.39695000  0.75629000  0.22412000  1.0
  H  H38  1  0.93885000  0.20326000  0.53209000  1.0
  H  H39  1  0.06115000  0.79674000  0.46790000  1.0
  H  H40  1  0.13889000  0.12375000  0.75273000  1.0
  H  H41  1  0.86111000  0.87625000  0.24727000  1.0
  H  H42  1  0.45850000  0.72640000  0.44597000  1.0
  H  H43  1  0.54151000  0.27360000  0.55402000  1.0
  H  H44  1  0.95487000  0.19256000  0.88578000  1.0
  H  H45  1  0.04514000  0.80743000  0.11422000  1.0
  H  H46  1  0.49585000  0.47058000  0.83248000  1.0
  H  H47  1  0.50415000  0.52941000  0.16752000  1.0
  H  H48  1  0.24035000  0.61196000  0.90621000  1.0
  H  H49  1  0.75965000  0.38805000  0.09379000  1.0
  H  H50  1  0.62537000  0.53958000  0.35512000  1.0
  H  H51  1  0.37463000  0.46041000  0.64487000  1.0
  H  H52  1  0.12831000  0.57023000  0.05166000  1.0
  H  H53  1  0.87169000  0.42977000  0.94834000  1.0
  H  H54  1  0.76285000  0.56690000  0.21285000  1.0
  H  H55  1  0.23715000  0.43309000  0.78714000  1.0
  C  C56  1  0.04676000  0.25811000  0.26627000  1.0
  C  C57  1  0.95322000  0.74188000  0.73374000  1.0
  C  C58  1  0.08643000  0.18226000  0.19809000  1.0
  C  C59  1  0.91355000  0.81773000  0.80191000  1.0
  C  C60  1  0.97854000  0.15557000  0.17736000  1.0
  C  C61  1  0.02146000  0.84442000  0.82264000  1.0
  C  C62  1  0.90106000  0.30186000  0.31665000  1.0
  C  C63  1  0.09892000  0.69814000  0.68335000  1.0
  C  C64  1  0.83083000  0.20477000  0.22490000  1.0
  C  C65  1  0.16917000  0.79524000  0.77510000  1.0
  C  C66  1  0.24643000  0.12583000  0.14993000  1.0
  C  C67  1  0.75356000  0.87416000  0.85009000  1.0
  C  C68  1  0.71064000  0.18481000  0.20183000  1.0
  C  C69  1  0.28937000  0.81519000  0.79816000  1.0
  C  C70  1  0.85607000  0.37695000  0.39135000  1.0
  C  C71  1  0.14391000  0.62305000  0.60865000  1.0
  C  C72  1  0.08895000  0.09687000  0.60739000  1.0
  C  C73  1  0.91105000  0.90313000  0.39261000  1.0
  C  C74  1  0.68169000  0.17459000  0.98571000  1.0
  C  C75  1  0.31832000  0.82542000  0.01429000  1.0
  C  C76  1  0.79390000  0.27440000  0.29540000  1.0
  C  C77  1  0.20609000  0.72560000  0.70459000  1.0
  C  C78  1  0.82509000  0.18037000  0.69500000  1.0
  C  C79  1  0.17491000  0.81964000  0.30501000  1.0
  C  C80  1  0.30027000  0.01314000  0.45576000  1.0
  C  C81  1  0.69974000  0.98686000  0.54423000  1.0
  C  C82  1  0.45804000  0.32085000  0.02275000  1.0
  C  C83  1  0.54196000  0.67917000  0.97726000  1.0
  C  C84  1  0.57411000  0.87525000  0.26510000  1.0
  C  C85  1  0.42590000  0.12474000  0.73490000  1.0
  C  C86  1  0.50045000  0.85756000  0.34785000  1.0
  C  C87  1  0.49955000  0.14244000  0.65215000  1.0
  C  C88  1  0.76747000  0.22259000  0.83917000  1.0
  C  C89  1  0.23253000  0.77740000  0.16084000  1.0
  C  C90  1  0.42517000  0.06294000  0.31568000  1.0
  C  C91  1  0.57484000  0.93705000  0.68433000  1.0
  C  C92  1  0.75058000  0.52201000  0.52988000  1.0
  C  C93  1  0.24941000  0.47798000  0.47011000  1.0
  C  C94  1  0.52098000  0.34577000  0.93943000  1.0
  C  C95  1  0.47903000  0.65424000  0.06057000  1.0
  C  C96  1  0.97807000  0.14277000  0.68682000  1.0
  C  C97  1  0.02194000  0.85724000  0.31317000  1.0
  C  C98  1  0.91552000  0.46654000  0.39470000  1.0
  C  C99  1  0.08448000  0.53345000  0.60529000  1.0
  C  C100  1  0.69878000  0.43010000  0.52128000  1.0
  C  C101  1  0.30121000  0.56989000  0.47872000  1.0
  C  C102  1  0.15478000  0.09594000  0.45742000  1.0
  C  C103  1  0.84522000  0.90405000  0.54258000  1.0
  C  C104  1  0.67275000  0.77038000  0.21569000  1.0
  C  C105  1  0.32727000  0.22962000  0.78430000  1.0
  C  C106  1  0.86111000  0.54077000  0.46437000  1.0
  C  C107  1  0.13888000  0.45922000  0.53563000  1.0
  C  C108  1  0.68851000  0.59802000  0.60617000  1.0
  C  C109  1  0.31149000  0.40197000  0.39381000  1.0
  C  C110  1  0.34015000  0.96872000  0.52941000  1.0
  C  C111  1  0.65985000  0.03128000  0.47058000  1.0
  C  C112  1  0.31602000  0.40230000  0.06464000  1.0
  C  C113  1  0.68399000  0.59771000  0.93537000  1.0
  C  C114  1  0.23517000  0.01079000  0.60417000  1.0
  C  C115  1  0.76483000  0.98922000  0.39582000  1.0
  C  C116  1  0.72029000  0.21985000  0.77006000  1.0
  C  C117  1  0.27972000  0.78015000  0.22994000  1.0
  C  C118  1  0.05094000  0.13732000  0.53241000  1.0
  C  C119  1  0.94906000  0.86267000  0.46759000  1.0
  C  C120  1  0.02209000  0.14919000  0.75677000  1.0
  C  C121  1  0.97791000  0.85081000  0.24323000  1.0
  C  C122  1  0.51815000  0.73778000  0.38271000  1.0
  C  C123  1  0.48185000  0.26223000  0.61729000  1.0
  C  C124  1  0.91834000  0.18876000  0.83218000  1.0
  C  C125  1  0.08167000  0.81123000  0.16782000  1.0
  C  C126  1  0.44578000  0.45053000  0.89593000  1.0
  C  C127  1  0.55424000  0.54946000  0.10408000  1.0
  C  C128  1  0.30338000  0.52945000  0.93804000  1.0
  C  C129  1  0.69663000  0.47055000  0.06197000  1.0
  C  C130  1  0.61262000  0.63474000  0.33173000  1.0
  C  C131  1  0.38738000  0.36527000  0.66826000  1.0
  C  C132  1  0.23980000  0.50567000  0.02085000  1.0
  C  C133  1  0.76020000  0.49433000  0.97916000  1.0
  C  C134  1  0.69005000  0.65059000  0.25030000  1.0
  C  C135  1  0.30995000  0.34941000  0.74969000  1.0
  N  N136  1  0.52366000  0.00528000  0.24769000  1.0
  N  N137  1  0.47635000  0.99473000  0.75230000  1.0
  N  N138  1  0.74837000  0.35927000  0.45433000  1.0
  N  N139  1  0.25161000  0.64072000  0.54566000  1.0
  N  N140  1  0.40707000  0.97866000  0.37807000  1.0
  N  N141  1  0.59294000  0.02132000  0.62193000  1.0
  N  N142  1  0.66353000  0.25072000  0.91792000  1.0
  N  N143  1  0.33647000  0.74929000  0.08208000  1.0
  N  N144  1  0.56193000  0.21173000  0.04886000  1.0
  N  N145  1  0.43808000  0.78828000  0.95114000  1.0
  O  O146  1  0.74752000  0.09364000  0.15297000  1.0
  O  O147  1  0.25254000  0.90634000  0.84702000  1.0
  O  O148  1  0.33064000  0.16897000  0.16931000  1.0
  O  O149  1  0.66933000  0.83105000  0.83070000  1.0
  O  O150  1  0.57165000  0.57946000  0.65723000  1.0
  O  O151  1  0.42835000  0.42054000  0.34276000  1.0
  O  O152  1  0.57543000  0.25706000  0.23052000  1.0
  O  O153  1  0.42457000  0.74293000  0.76947000  1.0
  O  O154  1  0.59581000  0.91953000  0.06729000  1.0
  O  O155  1  0.40416000  0.08054000  0.93274000  1.0
  O  O156  1  0.28713000  0.04169000  0.09701000  1.0
  O  O157  1  0.71290000  0.95827000  0.90302000  1.0
  O  O158  1  0.74176000  0.67061000  0.61918000  1.0
  O  O159  1  0.25823000  0.32939000  0.38081000  1.0
