# generated using pymatgen
data_ZnH12C22Br(NO2)2
_symmetry_space_group_name_H-M   'P 1'
_cell_length_a   11.55240000
_cell_length_b   15.84310000
_cell_length_c   15.89320000
_cell_angle_alpha   90.00020000
_cell_angle_beta   90.09240000
_cell_angle_gamma   89.99990000
_symmetry_Int_Tables_number   1
_chemical_formula_structural   ZnH12C22Br(NO2)2
_chemical_formula_sum   'Zn2 H24 C44 Br2 N4 O8'
_cell_volume   2908.86231392
_cell_formula_units_Z   2
loop_
 _symmetry_equiv_pos_site_id
 _symmetry_equiv_pos_as_xyz
  1  'x, y, z'
loop_
 _atom_site_type_symbol
 _atom_site_label
 _atom_site_symmetry_multiplicity
 _atom_site_fract_x
 _atom_site_fract_y
 _atom_site_fract_z
 _atom_site_occupancy
  Zn  Zn0  1  0.49852000  0.50000000  0.58672000  1.0
  Zn  Zn1  1  0.50148000  0.50000000  0.41328000  1.0
  H  H2  1  0.13352000  0.16726000  0.36440000  1.0
  H  H3  1  0.86648000  0.16726000  0.63560000  1.0
  H  H4  1  0.86648000  0.83274000  0.63560000  1.0
  H  H5  1  0.13351000  0.83274000  0.36440000  1.0
  H  H6  1  0.25435000  0.29863000  0.63452000  1.0
  H  H7  1  0.74566000  0.29863000  0.36548000  1.0
  H  H8  1  0.74566000  0.70137000  0.36548000  1.0
  H  H9  1  0.25435000  0.70137000  0.63452000  1.0
  H  H10  1  0.25538000  0.29785000  0.36497000  1.0
  H  H11  1  0.74461000  0.29785000  0.63503000  1.0
  H  H12  1  0.74462000  0.70215000  0.63503000  1.0
  H  H13  1  0.25538000  0.70215000  0.36497000  1.0
  H  H14  1  0.13244000  0.16803000  0.63510000  1.0
  H  H15  1  0.86756000  0.16804000  0.36490000  1.0
  H  H16  1  0.86755000  0.83196000  0.36490000  1.0
  H  H17  1  0.13244000  0.83197000  0.63510000  1.0
  H  H18  1  0.68553000  0.50000000  0.70976000  1.0
  H  H19  1  0.31447000  0.50000000  0.29024000  1.0
  H  H20  1  0.32912000  0.50000000  0.73026000  1.0
  H  H21  1  0.67088000  0.50000000  0.26974000  1.0
  H  H22  1  0.33815000  0.50000000  0.88953000  1.0
  H  H23  1  0.66186000  0.50000000  0.11047000  1.0
  H  H24  1  0.71045000  0.50000000  0.86872000  1.0
  H  H25  1  0.28955000  0.50000000  0.13127000  1.0
  C  C26  1  0.11945000  0.00000000  0.49980000  1.0
  C  C27  1  0.88055000  0.00000000  0.50020000  1.0
  C  C28  1  0.26218000  0.30577000  0.49980000  1.0
  C  C29  1  0.73781000  0.30577000  0.50021000  1.0
  C  C30  1  0.73782000  0.69423000  0.50021000  1.0
  C  C31  1  0.26219000  0.69423000  0.49979000  1.0
  C  C32  1  0.06097000  0.07768000  0.49985000  1.0
  C  C33  1  0.93902000  0.07768000  0.50015000  1.0
  C  C34  1  0.93903000  0.92232000  0.50015000  1.0
  C  C35  1  0.06097000  0.92232000  0.49984000  1.0
  C  C36  1  0.15913000  0.19652000  0.42369000  1.0
  C  C37  1  0.84087000  0.19652000  0.57631000  1.0
  C  C38  1  0.84088000  0.80348000  0.57631000  1.0
  C  C39  1  0.15913000  0.80348000  0.42369000  1.0
  C  C40  1  0.22614000  0.26963000  0.57581000  1.0
  C  C41  1  0.77386000  0.26964000  0.42419000  1.0
  C  C42  1  0.77386000  0.73036000  0.42420000  1.0
  C  C43  1  0.22615000  0.73037000  0.57580000  1.0
  C  C44  1  0.22680000  0.26925000  0.42371000  1.0
  C  C45  1  0.77320000  0.26925000  0.57629000  1.0
  C  C46  1  0.77320000  0.73075000  0.57629000  1.0
  C  C47  1  0.22680000  0.73075000  0.42371000  1.0
  C  C48  1  0.12599000  0.15885000  0.49975000  1.0
  C  C49  1  0.87401000  0.15885000  0.50025000  1.0
  C  C50  1  0.87401000  0.84115000  0.50025000  1.0
  C  C51  1  0.12599000  0.84115000  0.49975000  1.0
  C  C52  1  0.34247000  0.38010000  0.50015000  1.0
  C  C53  1  0.65753000  0.38010000  0.49986000  1.0
  C  C54  1  0.65753000  0.61990000  0.49986000  1.0
  C  C55  1  0.34247000  0.61990000  0.50015000  1.0
  C  C56  1  0.15848000  0.19696000  0.57580000  1.0
  C  C57  1  0.84152000  0.19696000  0.42420000  1.0
  C  C58  1  0.84152000  0.80304000  0.42421000  1.0
  C  C59  1  0.15848000  0.80304000  0.57579000  1.0
  C  C60  1  0.61195000  0.50000000  0.75258000  1.0
  C  C61  1  0.38805000  0.50000000  0.24742000  1.0
  C  C62  1  0.41117000  0.50000000  0.76427000  1.0
  C  C63  1  0.58883000  0.50000000  0.23573000  1.0
  C  C64  1  0.41632000  0.50000000  0.85147000  1.0
  C  C65  1  0.58368000  0.50000000  0.14853000  1.0
  C  C66  1  0.52584000  0.50000000  0.89000000  1.0
  C  C67  1  0.47417000  0.50000000  0.11000000  1.0
  C  C68  1  0.62507000  0.50000000  0.83960000  1.0
  C  C69  1  0.37493000  0.50000000  0.16039000  1.0
  Br  Br70  1  0.28475000  0.00000000  0.50022000  1.0
  Br  Br71  1  0.71525000  0.99999000  0.49979000  1.0
  N  N72  1  0.50705000  0.50000000  0.71604000  1.0
  N  N73  1  0.49295000  0.50000000  0.28396000  1.0
  N  N74  1  0.54564000  0.50000000  0.97818000  1.0
  N  N75  1  0.45436000  0.50000000  0.02182000  1.0
  O  O76  1  0.37515000  0.40854000  0.42900000  1.0
  O  O77  1  0.62485000  0.40854000  0.57101000  1.0
  O  O78  1  0.62485000  0.59146000  0.57101000  1.0
  O  O79  1  0.37516000  0.59146000  0.42900000  1.0
  O  O80  1  0.37427000  0.40825000  0.57175000  1.0
  O  O81  1  0.62572000  0.40826000  0.42826000  1.0
  O  O82  1  0.62573000  0.59175000  0.42826000  1.0
  O  O83  1  0.37427000  0.59175000  0.57175000  1.0
