# generated using pymatgen
data_Cd2H23C38N5O7
_symmetry_space_group_name_H-M   'P 1'
_cell_length_a   12.00350000
_cell_length_b   12.13770000
_cell_length_c   13.40260000
_cell_angle_alpha   97.97620000
_cell_angle_beta   110.94600000
_cell_angle_gamma   96.53510000
_symmetry_Int_Tables_number   1
_chemical_formula_structural   Cd2H23C38N5O7
_chemical_formula_sum   'Cd4 H46 C76 N10 O14'
_cell_volume   1777.59495912
_cell_formula_units_Z   2
loop_
 _symmetry_equiv_pos_site_id
 _symmetry_equiv_pos_as_xyz
  1  'x, y, z'
loop_
 _atom_site_type_symbol
 _atom_site_label
 _atom_site_symmetry_multiplicity
 _atom_site_fract_x
 _atom_site_fract_y
 _atom_site_fract_z
 _atom_site_occupancy
  Cd  Cd0  1  0.09943000  0.88236000  0.22732000  1.0
  Cd  Cd1  1  0.90057000  0.11764000  0.77268000  1.0
  Cd  Cd2  1  0.14806000  0.06699000  0.04665000  1.0
  Cd  Cd3  1  0.85194000  0.93301000  0.95335000  1.0
  H  H4  1  0.04363000  0.83465000  0.00691000  1.0
  H  H5  1  0.95637000  0.16535000  0.99309000  1.0
  H  H6  1  0.06314000  0.48612000  0.17349000  1.0
  H  H7  1  0.93686000  0.51388000  0.82651000  1.0
  H  H8  1  0.26559000  0.28122000  0.38313000  1.0
  H  H9  1  0.73442000  0.71878000  0.61686000  1.0
  H  H10  1  0.39098000  0.45554000  0.51639000  1.0
  H  H11  1  0.60902000  0.54446000  0.48361000  1.0
  H  H12  1  0.39505000  0.75400000  0.36204000  1.0
  H  H13  1  0.60496000  0.24600000  0.63796000  1.0
  H  H14  1  0.55127000  0.91658000  0.48945000  1.0
  H  H15  1  0.44873000  0.08341000  0.51056000  1.0
  H  H16  1  0.54653000  0.75571000  0.75381000  1.0
  H  H17  1  0.45347000  0.24429000  0.24619000  1.0
  H  H18  1  0.91844000  0.62772000  0.12673000  1.0
  H  H19  1  0.08156000  0.37229000  0.87327000  1.0
  H  H20  1  0.75626000  0.50928000  0.16257000  1.0
  H  H21  1  0.24374000  0.49072000  0.83742000  1.0
  H  H22  1  0.65184000  0.60409000  0.27472000  1.0
  H  H23  1  0.34816000  0.39591000  0.72528000  1.0
  H  H24  1  0.63280000  0.78321000  0.38264000  1.0
  H  H25  1  0.36720000  0.21679000  0.61736000  1.0
  H  H26  1  0.71013000  0.98744000  0.46402000  1.0
  H  H27  1  0.28987000  0.01256000  0.53598000  1.0
  H  H28  1  0.85398000  0.16440000  0.49094000  1.0
  H  H29  1  0.14602000  0.83560000  0.50906000  1.0
  H  H30  1  0.03268000  0.25826000  0.45929000  1.0
  H  H31  1  0.96732000  0.74174000  0.54071000  1.0
  H  H32  1  0.12481000  0.14168000  0.34928000  1.0
  H  H33  1  0.87519000  0.85832000  0.65072000  1.0
  H  H34  1  0.24393000  0.35570000  0.12670000  1.0
  H  H35  1  0.75607000  0.64430000  0.87331000  1.0
  H  H36  1  0.42049000  0.49848000  0.14574000  1.0
  H  H37  1  0.57951000  0.50152000  0.85426000  1.0
  H  H38  1  0.56515000  0.43966000  0.05910000  1.0
  H  H39  1  0.43485000  0.56034000  0.94090000  1.0
  H  H40  1  0.62191000  0.28984000  0.94792000  1.0
  H  H41  1  0.37808000  0.71016000  0.05208000  1.0
  H  H42  1  0.57940000  0.09175000  0.84780000  1.0
  H  H43  1  0.42060000  0.90825000  0.15219000  1.0
  H  H44  1  0.45111000  0.90389000  0.78319000  1.0
  H  H45  1  0.54889000  0.09611000  0.21681000  1.0
  H  H46  1  0.27075000  0.77079000  0.77793000  1.0
  H  H47  1  0.72925000  0.22921000  0.22207000  1.0
  H  H48  1  0.14585000  0.84170000  0.88050000  1.0
  H  H49  1  0.85414000  0.15830000  0.11950000  1.0
  C  C50  1  0.17524000  0.68943000  0.29580000  1.0
  C  C51  1  0.82476000  0.31057000  0.70420000  1.0
  C  C52  1  0.20558000  0.57774000  0.32254000  1.0
  C  C53  1  0.79442000  0.42226000  0.67746000  1.0
  C  C54  1  0.13413000  0.47975000  0.24960000  1.0
  C  C55  1  0.86586000  0.52025000  0.75040000  1.0
  C  C56  1  0.15453000  0.37264000  0.27046000  1.0
  C  C57  1  0.84547000  0.62735000  0.72954000  1.0
  C  C58  1  0.08703000  0.26978000  0.18270000  1.0
  C  C59  1  0.91296000  0.73022000  0.81730000  1.0
  C  C60  1  0.24659000  0.36428000  0.36801000  1.0
  C  C61  1  0.75341000  0.63572000  0.63199000  1.0
  C  C62  1  0.31722000  0.46131000  0.44183000  1.0
  C  C63  1  0.68278000  0.53869000  0.55817000  1.0
  C  C64  1  0.29996000  0.56912000  0.41938000  1.0
  C  C65  1  0.70004000  0.43088000  0.58062000  1.0
  C  C66  1  0.38749000  0.66928000  0.49263000  1.0
  C  C67  1  0.61251000  0.33072000  0.50736000  1.0
  C  C68  1  0.42946000  0.75724000  0.44962000  1.0
  C  C69  1  0.57055000  0.24276000  0.55038000  1.0
  C  C70  1  0.51605000  0.84739000  0.51976000  1.0
  C  C71  1  0.48395000  0.15261000  0.48024000  1.0
  C  C72  1  0.55988000  0.84903000  0.63180000  1.0
  C  C73  1  0.44013000  0.15096000  0.36820000  1.0
  C  C74  1  0.65957000  0.94069000  0.71067000  1.0
  C  C75  1  0.34043000  0.05931000  0.28933000  1.0
  C  C76  1  0.51272000  0.75778000  0.66703000  1.0
  C  C77  1  0.48728000  0.24222000  0.33297000  1.0
  C  C78  1  0.87224000  0.66505000  0.17639000  1.0
  C  C79  1  0.12777000  0.33495000  0.82361000  1.0
  C  C80  1  0.78022000  0.59974000  0.19576000  1.0
  C  C81  1  0.21979000  0.40027000  0.80424000  1.0
  C  C82  1  0.72351000  0.65204000  0.25779000  1.0
  C  C83  1  0.27650000  0.34796000  0.74220000  1.0
  C  C84  1  0.76021000  0.76907000  0.30197000  1.0
  C  C85  1  0.23979000  0.23093000  0.69803000  1.0
  C  C86  1  0.85732000  0.82691000  0.28127000  1.0
  C  C87  1  0.14268000  0.17309000  0.71873000  1.0
  C  C88  1  0.70673000  0.82941000  0.36747000  1.0
  C  C89  1  0.29327000  0.17059000  0.63252000  1.0
  C  C90  1  0.74824000  0.94185000  0.41146000  1.0
  C  C91  1  0.25176000  0.05815000  0.58853000  1.0
  C  C92  1  0.84725000  0.00235000  0.39417000  1.0
  C  C93  1  0.15275000  0.99765000  0.60584000  1.0
  C  C94  1  0.90354000  0.94508000  0.33063000  1.0
  C  C95  1  0.09647000  0.05493000  0.66937000  1.0
  C  C96  1  0.89423000  0.11796000  0.44067000  1.0
  C  C97  1  0.10577000  0.88204000  0.55933000  1.0
  C  C98  1  0.99325000  0.16958000  0.42419000  1.0
  C  C99  1  0.00676000  0.83042000  0.57581000  1.0
  C  C100  1  0.04561000  0.10550000  0.36301000  1.0
  C  C101  1  0.95439000  0.89450000  0.63699000  1.0
  C  C102  1  0.30781000  0.33275000  0.09012000  1.0
  C  C103  1  0.69219000  0.66725000  0.90989000  1.0
  C  C104  1  0.40752000  0.41304000  0.10052000  1.0
  C  C105  1  0.59248000  0.58696000  0.89948000  1.0
  C  C106  1  0.48665000  0.38040000  0.05319000  1.0
  C  C107  1  0.51335000  0.61960000  0.94681000  1.0
  C  C108  1  0.46558000  0.26903000  0.99466000  1.0
  C  C109  1  0.53441000  0.73097000  0.00534000  1.0
  C  C110  1  0.36306000  0.19336000  0.98993000  1.0
  C  C111  1  0.63693000  0.80664000  0.01007000  1.0
  C  C112  1  0.54285000  0.23095000  0.94190000  1.0
  C  C113  1  0.45715000  0.76905000  0.05810000  1.0
  C  C114  1  0.51950000  0.12250000  0.88609000  1.0
  C  C115  1  0.48050000  0.87750000  0.11391000  1.0
  C  C116  1  0.41763000  0.04392000  0.87993000  1.0
  C  C117  1  0.58237000  0.95608000  0.12007000  1.0
  C  C118  1  0.33963000  0.07768000  0.93246000  1.0
  C  C119  1  0.66036000  0.92232000  0.06754000  1.0
  C  C120  1  0.39158000  0.93102000  0.82330000  1.0
  C  C121  1  0.60842000  0.06898000  0.17670000  1.0
  C  C122  1  0.29343000  0.85817000  0.82139000  1.0
  C  C123  1  0.70657000  0.14183000  0.17861000  1.0
  C  C124  1  0.22219000  0.89781000  0.87745000  1.0
  C  C125  1  0.77781000  0.10219000  0.12255000  1.0
  N  N126  1  0.42974000  0.66953000  0.60051000  1.0
  N  N127  1  0.57025000  0.33046000  0.39949000  1.0
  N  N128  1  0.90954000  0.77462000  0.21825000  1.0
  N  N129  1  0.09046000  0.22538000  0.78175000  1.0
  N  N130  1  0.00171000  0.99717000  0.31706000  1.0
  N  N131  1  0.99829000  0.00284000  0.68294000  1.0
  N  N132  1  0.28706000  0.22657000  0.03770000  1.0
  N  N133  1  0.71294000  0.77343000  0.96230000  1.0
  N  N134  1  0.24474000  0.00405000  0.93080000  1.0
  N  N135  1  0.75525000  0.99595000  0.06920000  1.0
  O  O136  1  0.16285000  0.76112000  0.36790000  1.0
  O  O137  1  0.83716000  0.23888000  0.63210000  1.0
  O  O138  1  0.16014000  0.70531000  0.19981000  1.0
  O  O139  1  0.83985000  0.29469000  0.80019000  1.0
  O  O140  1  0.13614000  0.18123000  0.19333000  1.0
  O  O141  1  0.86386000  0.81877000  0.80668000  1.0
  O  O142  1  0.99278000  0.27848000  0.10444000  1.0
  O  O143  1  0.00722000  0.72152000  0.89556000  1.0
  O  O144  1  0.67209000  0.95591000  0.81014000  1.0
  O  O145  1  0.32790000  0.04409000  0.18987000  1.0
  O  O146  1  0.72374000  0.99594000  0.66987000  1.0
  O  O147  1  0.27626000  0.00406000  0.33013000  1.0
  O  O148  1  0.04087000  0.90352000  0.05563000  1.0
  O  O149  1  0.95913000  0.09648000  0.94437000  1.0
