# generated using pymatgen
data_CdH16C23N2O5
_symmetry_space_group_name_H-M   'P 1'
_cell_length_a   15.87370000
_cell_length_b   16.75590000
_cell_length_c   17.07710000
_cell_angle_alpha   60.63400000
_cell_angle_beta   70.06600000
_cell_angle_gamma   89.99940000
_symmetry_Int_Tables_number   1
_chemical_formula_structural   CdH16C23N2O5
_chemical_formula_sum   'Cd4 H64 C92 N8 O20'
_cell_volume   3643.02470410
_cell_formula_units_Z   4
loop_
 _symmetry_equiv_pos_site_id
 _symmetry_equiv_pos_as_xyz
  1  'x, y, z'
loop_
 _atom_site_type_symbol
 _atom_site_label
 _atom_site_symmetry_multiplicity
 _atom_site_fract_x
 _atom_site_fract_y
 _atom_site_fract_z
 _atom_site_occupancy
  Cd  Cd0  1  0.12621000  0.03493000  0.49392000  1.0
  Cd  Cd1  1  0.37375000  0.52880000  0.50617000  1.0
  Cd  Cd2  1  0.87379000  0.96507000  0.50608000  1.0
  Cd  Cd3  1  0.62625000  0.47120000  0.49383000  1.0
  H  H4  1  0.09588000  0.82807000  0.68165000  1.0
  H  H5  1  0.40415000  0.50973000  0.31833000  1.0
  H  H6  1  0.90412000  0.17193000  0.31835000  1.0
  H  H7  1  0.59585000  0.49027000  0.68167000  1.0
  H  H8  1  0.66374000  0.68107000  0.31830000  1.0
  H  H9  1  0.83633000  0.99940000  0.68159000  1.0
  H  H10  1  0.33626000  0.31893000  0.68170000  1.0
  H  H11  1  0.16367000  0.00061000  0.31841000  1.0
  H  H12  1  0.77016000  0.77984000  0.14488000  1.0
  H  H13  1  0.72999000  0.92486000  0.85502000  1.0
  H  H14  1  0.22984000  0.22016000  0.85512000  1.0
  H  H15  1  0.27000000  0.07515000  0.14498000  1.0
  H  H16  1  0.68545000  0.43748000  0.31242000  1.0
  H  H17  1  0.81447000  0.74995000  0.68747000  1.0
  H  H18  1  0.31455000  0.56252000  0.68757000  1.0
  H  H19  1  0.18553000  0.25005000  0.31253000  1.0
  H  H20  1  0.04212000  0.07541000  0.66690000  1.0
  H  H21  1  0.45789000  0.74221000  0.33327000  1.0
  H  H22  1  0.95788000  0.92459000  0.33310000  1.0
  H  H23  1  0.54212000  0.25779000  0.66674000  1.0
  H  H24  1  0.79083000  0.52612000  0.13677000  1.0
  H  H25  1  0.70913000  0.66305000  0.86313000  1.0
  H  H26  1  0.20917000  0.47388000  0.86322000  1.0
  H  H27  1  0.29087000  0.33695000  0.13687000  1.0
  H  H28  1  0.00136000  0.73334000  0.85965000  1.0
  H  H29  1  0.49872000  0.59300000  0.14032000  1.0
  H  H30  1  0.99864000  0.26666000  0.14035000  1.0
  H  H31  1  0.50128000  0.40700000  0.85968000  1.0
  H  H32  1  0.94364000  0.99152000  0.84584000  1.0
  H  H33  1  0.55644000  0.83724000  0.15433000  1.0
  H  H34  1  0.05636000  0.00849000  0.15416000  1.0
  H  H35  1  0.44356000  0.16276000  0.84567000  1.0
  H  H36  1  0.87530000  0.84794000  0.00142000  1.0
  H  H37  1  0.62467000  0.84937000  0.99873000  1.0
  H  H38  1  0.12469000  0.15206000  0.99858000  1.0
  H  H39  1  0.37533000  0.15063000  0.00127000  1.0
  H  H40  1  0.30721000  0.27389000  0.48612000  1.0
  H  H41  1  0.19277000  0.75997000  0.51398000  1.0
  H  H42  1  0.69279000  0.72612000  0.51388000  1.0
  H  H43  1  0.80722000  0.24003000  0.48603000  1.0
  H  H44  1  0.44682000  0.06452000  0.45541000  1.0
  H  H45  1  0.05322000  0.52001000  0.54448000  1.0
  H  H46  1  0.55318000  0.93548000  0.54459000  1.0
  H  H47  1  0.94679000  0.47999000  0.45552000  1.0
  H  H48  1  0.72045000  0.10700000  0.45999000  1.0
  H  H49  1  0.77939000  0.56705000  0.54034000  1.0
  H  H50  1  0.27955000  0.89300000  0.54001000  1.0
  H  H51  1  0.22062000  0.43295000  0.45965000  1.0
  H  H52  1  0.67401000  0.18894000  0.49131000  1.0
  H  H53  1  0.82595000  0.68031000  0.50886000  1.0
  H  H54  1  0.32598000  0.81105000  0.50870000  1.0
  H  H55  1  0.17405000  0.31969000  0.49113000  1.0
  H  H56  1  0.58202000  0.27546000  0.47471000  1.0
  H  H57  1  0.91804000  0.75024000  0.52520000  1.0
  H  H58  1  0.41798000  0.72454000  0.52529000  1.0
  H  H59  1  0.08196000  0.24976000  0.47480000  1.0
  H  H60  1  0.80821000  0.35366000  0.18011000  1.0
  H  H61  1  0.69190000  0.53424000  0.82003000  1.0
  H  H62  1  0.19180000  0.64634000  0.81990000  1.0
  H  H63  1  0.30810000  0.46575000  0.17996000  1.0
  H  H64  1  0.87794000  0.66941000  0.99119000  1.0
  H  H65  1  0.62219000  0.66073000  0.00871000  1.0
  H  H66  1  0.12206000  0.33059000  0.00881000  1.0
  H  H67  1  0.37781000  0.33927000  0.99129000  1.0
  C  C68  1  0.06044000  0.86115000  0.72124000  1.0
  C  C69  1  0.43959000  0.58239000  0.27877000  1.0
  C  C70  1  0.93956000  0.13885000  0.27875000  1.0
  C  C71  1  0.56041000  0.41761000  0.72123000  1.0
  C  C72  1  0.69385000  0.64974000  0.27505000  1.0
  C  C73  1  0.80620000  0.92485000  0.72484000  1.0
  C  C74  1  0.30615000  0.35026000  0.72494000  1.0
  C  C75  1  0.19380000  0.07515000  0.27516000  1.0
  C  C76  1  0.79188000  0.66130000  0.12487000  1.0
  C  C77  1  0.70816000  0.78630000  0.87505000  1.0
  C  C78  1  0.20812000  0.33870000  0.87513000  1.0
  C  C79  1  0.29184000  0.21370000  0.12495000  1.0
  C  C80  1  0.75343000  0.70434000  0.17803000  1.0
  C  C81  1  0.74664000  0.88248000  0.82187000  1.0
  C  C82  1  0.24657000  0.29567000  0.82197000  1.0
  C  C83  1  0.25336000  0.11752000  0.17813000  1.0
  C  C84  1  0.70468000  0.51368000  0.27198000  1.0
  C  C85  1  0.79528000  0.78572000  0.72791000  1.0
  C  C86  1  0.29532000  0.48632000  0.72802000  1.0
  C  C87  1  0.20472000  0.21428000  0.27209000  1.0
  C  C88  1  0.03091000  0.99956000  0.71314000  1.0
  C  C89  1  0.46914000  0.71263000  0.28698000  1.0
  C  C90  1  0.96910000  0.00044000  0.28686000  1.0
  C  C91  1  0.53086000  0.28737000  0.71302000  1.0
  C  C92  1  0.76412000  0.56356000  0.17418000  1.0
  C  C93  1  0.73587000  0.73787000  0.82572000  1.0
  C  C94  1  0.23588000  0.43644000  0.82581000  1.0
  C  C95  1  0.26413000  0.26213000  0.17428000  1.0
  C  C96  1  0.00672000  0.80885000  0.82050000  1.0
  C  C97  1  0.49336000  0.62933000  0.17952000  1.0
  C  C98  1  0.99328000  0.19115000  0.17950000  1.0
  C  C99  1  0.50664000  0.37067000  0.82048000  1.0
  C  C100  1  0.97620000  0.95234000  0.81238000  1.0
  C  C101  1  0.52387000  0.76464000  0.18774000  1.0
  C  C102  1  0.02380000  0.04766000  0.18761000  1.0
  C  C103  1  0.47613000  0.23536000  0.81226000  1.0
  C  C104  1  0.89578000  0.80433000  0.96988000  1.0
  C  C105  1  0.60427000  0.77423000  0.03017000  1.0
  C  C106  1  0.10422000  0.19567000  0.03012000  1.0
  C  C107  1  0.39573000  0.22577000  0.96983000  1.0
  C  C108  1  0.96024000  0.85405000  0.86829000  1.0
  C  C109  1  0.53983000  0.72229000  0.13179000  1.0
  C  C110  1  0.03976000  0.14595000  0.13171000  1.0
  C  C111  1  0.46017000  0.27771000  0.86821000  1.0
  C  C112  1  0.73163000  0.24006000  0.34014000  1.0
  C  C113  1  0.76848000  0.58043000  0.66005000  1.0
  C  C114  1  0.26837000  0.75995000  0.65987000  1.0
  C  C115  1  0.23152000  0.41957000  0.33994000  1.0
  C  C116  1  0.28433000  0.12248000  0.47232000  1.0
  C  C117  1  0.21569000  0.59484000  0.52768000  1.0
  C  C118  1  0.71568000  0.87752000  0.52768000  1.0
  C  C119  1  0.78431000  0.40517000  0.47232000  1.0
  C  C120  1  0.36867000  0.16544000  0.46994000  1.0
  C  C121  1  0.13134000  0.63542000  0.53004000  1.0
  C  C122  1  0.63133000  0.83456000  0.53005000  1.0
  C  C123  1  0.86866000  0.36459000  0.46996000  1.0
  C  C124  1  0.36800000  0.24393000  0.47906000  1.0
  C  C125  1  0.13201000  0.72299000  0.52096000  1.0
  C  C126  1  0.63200000  0.75608000  0.52094000  1.0
  C  C127  1  0.86799000  0.27701000  0.47904000  1.0
  C  C128  1  0.44664000  0.12649000  0.46120000  1.0
  C  C129  1  0.05339000  0.58775000  0.53873000  1.0
  C  C130  1  0.55336000  0.87351000  0.53880000  1.0
  C  C131  1  0.94662000  0.41225000  0.46127000  1.0
  C  C132  1  0.52414000  0.16614000  0.46182000  1.0
  C  C133  1  0.97588000  0.62802000  0.53814000  1.0
  C  C134  1  0.47586000  0.83386000  0.53818000  1.0
  C  C135  1  0.02413000  0.37198000  0.46186000  1.0
  C  C136  1  0.43940000  0.36259000  0.49720000  1.0
  C  C137  1  0.06063000  0.85981000  0.50280000  1.0
  C  C138  1  0.56060000  0.63741000  0.50280000  1.0
  C  C139  1  0.93937000  0.14019000  0.49720000  1.0
  C  C140  1  0.68241000  0.16379000  0.44085000  1.0
  C  C141  1  0.81755000  0.60473000  0.55935000  1.0
  C  C142  1  0.31758000  0.83621000  0.55916000  1.0
  C  C143  1  0.18245000  0.39528000  0.44064000  1.0
  C  C144  1  0.52353000  0.24392000  0.47240000  1.0
  C  C145  1  0.97652000  0.71640000  0.52751000  1.0
  C  C146  1  0.47647000  0.75608000  0.52760000  1.0
  C  C147  1  0.02348000  0.28360000  0.47249000  1.0
  C  C148  1  0.77218000  0.30096000  0.25528000  1.0
  C  C149  1  0.72795000  0.55662000  0.74488000  1.0
  C  C150  1  0.22782000  0.69905000  0.74473000  1.0
  C  C151  1  0.27206000  0.44338000  0.25511000  1.0
  C  C152  1  0.85818000  0.71198000  0.02412000  1.0
  C  C153  1  0.64191000  0.73621000  0.97583000  1.0
  C  C154  1  0.14182000  0.28802000  0.97588000  1.0
  C  C155  1  0.35809000  0.26379000  0.02417000  1.0
  C  C156  1  0.44448000  0.28223000  0.48130000  1.0
  C  C157  1  0.05556000  0.76358000  0.51865000  1.0
  C  C158  1  0.55552000  0.71777000  0.51870000  1.0
  C  C159  1  0.94444000  0.23642000  0.48135000  1.0
  N  N160  1  0.07083000  0.95469000  0.66775000  1.0
  N  N161  1  0.42920000  0.62240000  0.33232000  1.0
  N  N162  1  0.92917000  0.04531000  0.33225000  1.0
  N  N163  1  0.57080000  0.37759000  0.66769000  1.0
  N  N164  1  0.67046000  0.55586000  0.32224000  1.0
  N  N165  1  0.82954000  0.87813000  0.67765000  1.0
  N  N166  1  0.32954000  0.44414000  0.67776000  1.0
  N  N167  1  0.17046000  0.12187000  0.32235000  1.0
  O  O168  1  0.28557000  0.05094000  0.46386000  1.0
  O  O169  1  0.21447000  0.51486000  0.53610000  1.0
  O  O170  1  0.71443000  0.94906000  0.53614000  1.0
  O  O171  1  0.78553000  0.48514000  0.46390000  1.0
  O  O172  1  0.37404000  0.40555000  0.48530000  1.0
  O  O173  1  0.12595000  0.89083000  0.51477000  1.0
  O  O174  1  0.62596000  0.59446000  0.51470000  1.0
  O  O175  1  0.87405000  0.10918000  0.48523000  1.0
  O  O176  1  0.21318000  0.15857000  0.48421000  1.0
  O  O177  1  0.28681000  0.64275000  0.51590000  1.0
  O  O178  1  0.78682000  0.84143000  0.51579000  1.0
  O  O179  1  0.71319000  0.35725000  0.48410000  1.0
  O  O180  1  0.49656000  0.38201000  0.52546000  1.0
  O  O181  1  0.00350000  0.90750000  0.47450000  1.0
  O  O182  1  0.50344000  0.61800000  0.47454000  1.0
  O  O183  1  0.99650000  0.09250000  0.52550000  1.0
  O  O184  1  0.59590000  0.12086000  0.45480000  1.0
  O  O185  1  0.90405000  0.57572000  0.54526000  1.0
  O  O186  1  0.40410000  0.87914000  0.54520000  1.0
  O  O187  1  0.09596000  0.42429000  0.45474000  1.0
