# generated using pymatgen
data_YbPH11C9SNO9
_symmetry_space_group_name_H-M   'P 1'
_cell_length_a   6.68701000
_cell_length_b   7.45683000
_cell_length_c   13.28060000
_cell_angle_alpha   90.64950000
_cell_angle_beta   93.31410000
_cell_angle_gamma   101.99400000
_symmetry_Int_Tables_number   1
_chemical_formula_structural   YbPH11C9SNO9
_chemical_formula_sum   'Yb2 P2 H22 C18 S2 N2 O18'
_cell_volume   646.49754315
_cell_formula_units_Z   2
loop_
 _symmetry_equiv_pos_site_id
 _symmetry_equiv_pos_as_xyz
  1  'x, y, z'
loop_
 _atom_site_type_symbol
 _atom_site_label
 _atom_site_symmetry_multiplicity
 _atom_site_fract_x
 _atom_site_fract_y
 _atom_site_fract_z
 _atom_site_occupancy
  Yb  Yb0  1  0.28380000  0.76872000  0.45580000  1.0
  Yb  Yb1  1  0.71620000  0.23128000  0.54420000  1.0
  P  P2  1  0.25367000  0.38545000  0.61875000  1.0
  P  P3  1  0.74633000  0.61455000  0.38125000  1.0
  H  H4  1  0.16730000  0.10316000  0.77306000  1.0
  H  H5  1  0.83269000  0.89684000  0.22694000  1.0
  H  H6  1  0.16619000  0.12228000  0.96086000  1.0
  H  H7  1  0.83381000  0.87773000  0.03914000  1.0
  H  H8  1  0.21413000  0.31804000  0.12048000  1.0
  H  H9  1  0.78587000  0.68197000  0.87952000  1.0
  H  H10  1  0.27223000  0.62876000  0.19982000  1.0
  H  H11  1  0.72777000  0.37124000  0.80018000  1.0
  H  H12  1  0.32786000  0.90329000  0.09609000  1.0
  H  H13  1  0.67214000  0.09671000  0.90391000  1.0
  H  H14  1  0.33415000  0.87504000  0.90722000  1.0
  H  H15  1  0.66586000  0.12496000  0.09278000  1.0
  H  H16  1  0.31299000  0.68042000  0.76537000  1.0
  H  H17  1  0.68701000  0.31958000  0.23463000  1.0
  H  H18  1  0.23099000  0.39448000  0.34559000  1.0
  H  H19  1  0.76901000  0.60552000  0.65441000  1.0
  H  H20  1  0.02273000  0.41939000  0.38813000  1.0
  H  H21  1  0.97726000  0.58061000  0.61187000  1.0
  H  H22  1  0.23445000  0.92137000  0.64440000  1.0
  H  H23  1  0.76555000  0.07863000  0.35560000  1.0
  H  H24  1  0.10993000  0.03686000  0.57455000  1.0
  H  H25  1  0.89007000  0.96314000  0.42545000  1.0
  C  C26  1  0.24059000  0.39597000  0.75687000  1.0
  C  C27  1  0.75941000  0.60403000  0.24313000  1.0
  C  C28  1  0.19752000  0.23471000  0.81299000  1.0
  C  C29  1  0.80248000  0.76529000  0.18701000  1.0
  C  C30  1  0.19683000  0.24635000  0.91655000  1.0
  C  C31  1  0.80317000  0.75365000  0.08345000  1.0
  C  C32  1  0.23464000  0.41858000  0.96755000  1.0
  C  C33  1  0.76536000  0.58142000  0.03245000  1.0
  C  C34  1  0.23705000  0.43930000  0.07383000  1.0
  C  C35  1  0.76294000  0.56071000  0.92617000  1.0
  C  C36  1  0.27115000  0.61169000  0.11829000  1.0
  C  C37  1  0.72885000  0.38832000  0.88171000  1.0
  C  C38  1  0.30356000  0.76937000  0.05824000  1.0
  C  C39  1  0.69644000  0.23063000  0.94176000  1.0
  C  C40  1  0.30543000  0.75520000  0.95453000  1.0
  C  C41  1  0.69457000  0.24481000  0.04547000  1.0
  C  C42  1  0.27150000  0.57903000  0.90834000  1.0
  C  C43  1  0.72850000  0.42097000  0.09166000  1.0
  S  S44  1  0.39049000  0.07712000  0.31076000  1.0
  S  S45  1  0.60951000  0.92288000  0.68924000  1.0
  N  N46  1  0.27390000  0.55855000  0.80555000  1.0
  N  N47  1  0.72610000  0.44145000  0.19445000  1.0
  O  O48  1  0.25415000  0.58147000  0.58574000  1.0
  O  O49  1  0.74584000  0.41853000  0.41426000  1.0
  O  O50  1  0.44674000  0.31623000  0.60239000  1.0
  O  O51  1  0.55326000  0.68377000  0.39761000  1.0
  O  O52  1  0.05807000  0.24956000  0.58196000  1.0
  O  O53  1  0.94193000  0.75044000  0.41804000  1.0
  O  O54  1  0.26083000  0.89140000  0.29010000  1.0
  O  O55  1  0.73917000  0.10860000  0.70990000  1.0
  O  O56  1  0.42980000  0.08393000  0.42473000  1.0
  O  O57  1  0.57020000  0.91607000  0.57527000  1.0
  O  O58  1  0.29006000  0.22412000  0.27590000  1.0
  O  O59  1  0.70993000  0.77588000  0.72410000  1.0
  O  O60  1  0.59043000  0.09431000  0.26220000  1.0
  O  O61  1  0.40957000  0.90569000  0.73780000  1.0
  O  O62  1  0.15886000  0.48761000  0.37163000  1.0
  O  O63  1  0.84114000  0.51239000  0.62837000  1.0
  O  O64  1  0.14384000  0.91340000  0.58183000  1.0
  O  O65  1  0.85616000  0.08660000  0.41817000  1.0
