# generated using pymatgen
data_CdH5C3S2NCl2
_symmetry_space_group_name_H-M   'P 1'
_cell_length_a   3.91002000
_cell_length_b   9.08736000
_cell_length_c   22.36160000
_cell_angle_alpha   90.00000000
_cell_angle_beta   90.00010000
_cell_angle_gamma   90.69290000
_symmetry_Int_Tables_number   1
_chemical_formula_structural   CdH5C3S2NCl2
_chemical_formula_sum   'Cd4 H20 C12 S8 N4 Cl8'
_cell_volume   794.48888928
_cell_formula_units_Z   4
loop_
 _symmetry_equiv_pos_site_id
 _symmetry_equiv_pos_as_xyz
  1  'x, y, z'
loop_
 _atom_site_type_symbol
 _atom_site_label
 _atom_site_symmetry_multiplicity
 _atom_site_fract_x
 _atom_site_fract_y
 _atom_site_fract_z
 _atom_site_occupancy
  Cd  Cd0  1  0.74516000  0.84263000  0.95497000  1.0
  Cd  Cd1  1  0.24515000  0.34263000  0.54503000  1.0
  Cd  Cd2  1  0.25484000  0.15737000  0.04503000  1.0
  Cd  Cd3  1  0.75484000  0.65737000  0.45497000  1.0
  H  H4  1  0.50851000  0.24505000  0.78263000  1.0
  H  H5  1  0.00851000  0.74505000  0.71737000  1.0
  H  H6  1  0.49150000  0.75495000  0.21737000  1.0
  H  H7  1  0.99149000  0.25495000  0.28263000  1.0
  H  H8  1  0.93965000  0.31081000  0.77888000  1.0
  H  H9  1  0.43965000  0.81081000  0.72112000  1.0
  H  H10  1  0.06035000  0.68919000  0.22112000  1.0
  H  H11  1  0.56035000  0.18919000  0.27888000  1.0
  H  H12  1  0.44256000  0.32309000  0.88592000  1.0
  H  H13  1  0.94255000  0.82309000  0.61408000  1.0
  H  H14  1  0.55745000  0.67691000  0.11408000  1.0
  H  H15  1  0.05744000  0.17691000  0.38592000  1.0
  H  H16  1  0.87657000  0.27104000  0.88666000  1.0
  H  H17  1  0.37656000  0.77104000  0.61334000  1.0
  H  H18  1  0.12344000  0.72896000  0.11334000  1.0
  H  H19  1  0.62344000  0.22896000  0.38666000  1.0
  H  H20  1  0.88964000  0.53195000  0.91784000  1.0
  H  H21  1  0.38964000  0.03196000  0.58216000  1.0
  H  H22  1  0.11036000  0.46804000  0.08216000  1.0
  H  H23  1  0.61036000  0.96805000  0.41784000  1.0
  C  C24  1  0.70177000  0.59657000  0.83599000  1.0
  C  C25  1  0.20177000  0.09657000  0.66401000  1.0
  C  C26  1  0.29823000  0.40343000  0.16401000  1.0
  C  C27  1  0.79823000  0.90343000  0.33599000  1.0
  C  C28  1  0.68642000  0.33097000  0.79809000  1.0
  C  C29  1  0.18642000  0.83098000  0.70191000  1.0
  C  C30  1  0.31359000  0.66903000  0.20191000  1.0
  C  C31  1  0.81358000  0.16903000  0.29809000  1.0
  C  C32  1  0.69439000  0.34619000  0.86584000  1.0
  C  C33  1  0.19438000  0.84619000  0.63416000  1.0
  C  C34  1  0.30562000  0.65381000  0.13415000  1.0
  C  C35  1  0.80562000  0.15381000  0.36585000  1.0
  S  S36  1  0.54736000  0.51018000  0.77137000  1.0
  S  S37  1  0.04735000  0.01018000  0.72863000  1.0
  S  S38  1  0.45265000  0.48982000  0.22863000  1.0
  S  S39  1  0.95264000  0.98982000  0.27137000  1.0
  S  S40  1  0.71994000  0.78126000  0.84026000  1.0
  S  S41  1  0.21993000  0.28126000  0.65974000  1.0
  S  S42  1  0.28007000  0.21874000  0.15974000  1.0
  S  S43  1  0.78006000  0.71874000  0.34026000  1.0
  N  N44  1  0.79159000  0.49907000  0.87732000  1.0
  N  N45  1  0.29157000  0.99908000  0.62268000  1.0
  N  N46  1  0.20842000  0.50092000  0.12268000  1.0
  N  N47  1  0.70841000  0.00092000  0.37732000  1.0
  Cl  Cl48  1  0.23734000  0.66174000  0.98327000  1.0
  Cl  Cl49  1  0.73734000  0.16174000  0.51673000  1.0
  Cl  Cl50  1  0.76266000  0.33826000  0.01673000  1.0
  Cl  Cl51  1  0.26266000  0.83826000  0.48327000  1.0
  Cl  Cl52  1  0.24871000  0.04754000  0.93390000  1.0
  Cl  Cl53  1  0.74870000  0.54755000  0.56610000  1.0
  Cl  Cl54  1  0.75130000  0.95245000  0.06610000  1.0
  Cl  Cl55  1  0.25129000  0.45246000  0.43390000  1.0
