# generated using pymatgen
data_ZnPH10C5NO6
_symmetry_space_group_name_H-M   'P 1'
_cell_length_a   8.79934000
_cell_length_b   10.38790000
_cell_length_c   10.78600000
_cell_angle_alpha   97.57540000
_cell_angle_beta   90.00300000
_cell_angle_gamma   115.04000000
_symmetry_Int_Tables_number   1
_chemical_formula_structural   ZnPH10C5NO6
_chemical_formula_sum   'Zn4 P4 H40 C20 N4 O24'
_cell_volume   883.73905898
_cell_formula_units_Z   4
loop_
 _symmetry_equiv_pos_site_id
 _symmetry_equiv_pos_as_xyz
  1  'x, y, z'
loop_
 _atom_site_type_symbol
 _atom_site_label
 _atom_site_symmetry_multiplicity
 _atom_site_fract_x
 _atom_site_fract_y
 _atom_site_fract_z
 _atom_site_occupancy
  Zn  Zn0  1  0.13995000  0.64913000  0.36647000  1.0
  Zn  Zn1  1  0.49085000  0.35078000  0.13355000  1.0
  Zn  Zn2  1  0.86005000  0.35087000  0.63354000  1.0
  Zn  Zn3  1  0.50915000  0.64922000  0.86645000  1.0
  P  P4  1  0.77068000  0.38187000  0.35417000  1.0
  P  P5  1  0.38870000  0.61808000  0.14581000  1.0
  P  P6  1  0.22933000  0.61813000  0.64583000  1.0
  P  P7  1  0.61130000  0.38191000  0.85419000  1.0
  H  H8  1  0.77554000  0.17211000  0.35327000  1.0
  H  H9  1  0.60346000  0.82774000  0.14669000  1.0
  H  H10  1  0.22446000  0.82789000  0.64673000  1.0
  H  H11  1  0.39654000  0.17226000  0.85332000  1.0
  H  H12  1  0.40773000  0.18200000  0.61533000  1.0
  H  H13  1  0.22559000  0.81815000  0.88474000  1.0
  H  H14  1  0.59227000  0.81800000  0.38467000  1.0
  H  H15  1  0.77441000  0.18185000  0.11525000  1.0
  H  H16  1  0.53099000  0.28566000  0.51439000  1.0
  H  H17  1  0.24534000  0.71436000  0.98555000  1.0
  H  H18  1  0.46902000  0.71434000  0.48561000  1.0
  H  H19  1  0.75466000  0.28564000  0.01445000  1.0
  H  H20  1  0.39748000  0.11861000  0.35290000  1.0
  H  H21  1  0.27902000  0.88133000  0.14713000  1.0
  H  H22  1  0.60252000  0.88140000  0.64710000  1.0
  H  H23  1  0.72098000  0.11867000  0.85287000  1.0
  H  H24  1  0.13804000  0.10994000  0.28618000  1.0
  H  H25  1  0.02843000  0.89009000  0.21412000  1.0
  H  H26  1  0.86196000  0.89006000  0.71382000  1.0
  H  H27  1  0.97158000  0.10991000  0.78588000  1.0
  H  H28  1  0.05003000  0.07338000  0.43332000  1.0
  H  H29  1  0.97677000  0.92674000  0.06706000  1.0
  H  H30  1  0.94997000  0.92662000  0.56668000  1.0
  H  H31  1  0.02323000  0.07326000  0.93294000  1.0
  H  H32  1  0.30098000  0.36240000  0.36552000  1.0
  H  H33  1  0.93880000  0.63758000  0.13461000  1.0
  H  H34  1  0.69902000  0.63760000  0.63448000  1.0
  H  H35  1  0.06120000  0.36241000  0.86539000  1.0
  H  H36  1  0.11361000  0.32560000  0.44308000  1.0
  H  H37  1  0.78821000  0.67453000  0.05720000  1.0
  H  H38  1  0.88640000  0.67440000  0.55692000  1.0
  H  H39  1  0.21179000  0.32547000  0.94280000  1.0
  H  H40  1  0.23228000  0.28725000  0.63274000  1.0
  H  H41  1  0.94494000  0.71298000  0.86750000  1.0
  H  H42  1  0.76772000  0.71275000  0.36726000  1.0
  H  H43  1  0.05506000  0.28701000  0.13249000  1.0
  H  H44  1  0.40885000  0.43257000  0.58763000  1.0
  H  H45  1  0.97630000  0.56756000  0.91239000  1.0
  H  H46  1  0.59116000  0.56744000  0.41238000  1.0
  H  H47  1  0.02370000  0.43243000  0.08761000  1.0
  C  C48  1  0.26118000  0.96194000  0.47199000  1.0
  C  C49  1  0.29916000  0.03801000  0.02810000  1.0
  C  C50  1  0.73882000  0.03807000  0.52802000  1.0
  C  C51  1  0.70085000  0.96198000  0.97189000  1.0
  C  C52  1  0.31197000  0.10797000  0.42904000  1.0
  C  C53  1  0.20404000  0.89202000  0.07108000  1.0
  C  C54  1  0.68802000  0.89204000  0.57097000  1.0
  C  C55  1  0.79596000  0.10797000  0.92891000  1.0
  C  C56  1  0.16354000  0.13747000  0.38767000  1.0
  C  C57  1  0.02628000  0.86262000  0.11261000  1.0
  C  C58  1  0.83646000  0.86254000  0.61233000  1.0
  C  C59  1  0.97372000  0.13738000  0.88738000  1.0
  C  C60  1  0.21983000  0.29754000  0.43233000  1.0
  C  C61  1  0.92249000  0.70257000  0.06791000  1.0
  C  C62  1  0.78017000  0.70247000  0.56767000  1.0
  C  C63  1  0.07751000  0.29743000  0.93209000  1.0
  C  C64  1  0.31602000  0.32238000  0.55679000  1.0
  C  C65  1  0.99367000  0.67775000  0.94336000  1.0
  C  C66  1  0.68398000  0.67762000  0.44321000  1.0
  C  C67  1  0.00633000  0.32225000  0.05664000  1.0
  N  N68  1  0.40537000  0.22650000  0.53513000  1.0
  N  N69  1  0.17884000  0.77356000  0.96492000  1.0
  N  N70  1  0.59463000  0.77350000  0.46487000  1.0
  N  N71  1  0.82116000  0.22644000  0.03508000  1.0
  O  O72  1  0.90599000  0.52404000  0.32532000  1.0
  O  O73  1  0.38183000  0.47584000  0.17455000  1.0
  O  O74  1  0.09401000  0.47596000  0.67468000  1.0
  O  O75  1  0.61817000  0.52416000  0.82545000  1.0
  O  O76  1  0.60104000  0.34423000  0.28713000  1.0
  O  O77  1  0.25676000  0.65577000  0.21290000  1.0
  O  O78  1  0.39897000  0.65577000  0.71286000  1.0
  O  O79  1  0.74324000  0.34423000  0.78710000  1.0
  O  O80  1  0.73925000  0.37929000  0.49611000  1.0
  O  O81  1  0.35996000  0.62087000  0.00389000  1.0
  O  O82  1  0.26075000  0.62071000  0.50389000  1.0
  O  O83  1  0.64004000  0.37913000  0.99611000  1.0
  O  O84  1  0.83415000  0.26129000  0.30901000  1.0
  O  O85  1  0.57273000  0.73860000  0.19103000  1.0
  O  O86  1  0.16585000  0.73871000  0.69099000  1.0
  O  O87  1  0.42727000  0.26140000  0.80898000  1.0
  O  O88  1  0.17082000  0.85446000  0.39122000  1.0
  O  O89  1  0.31647000  0.14548000  0.10896000  1.0
  O  O90  1  0.82919000  0.14554000  0.60878000  1.0
  O  O91  1  0.68353000  0.85452000  0.89104000  1.0
  O  O92  1  0.30972000  0.96016000  0.58178000  1.0
  O  O93  1  0.34919000  0.03979000  0.91822000  1.0
  O  O94  1  0.69028000  0.03985000  0.41823000  1.0
  O  O95  1  0.65081000  0.96021000  0.08178000  1.0
