# generated using pymatgen
data_GdH9C9(NO3)3
_symmetry_space_group_name_H-M   'P 1'
_cell_length_a   6.13677000
_cell_length_b   7.67407000
_cell_length_c   13.37560000
_cell_angle_alpha   81.24710000
_cell_angle_beta   85.88510000
_cell_angle_gamma   76.91310000
_symmetry_Int_Tables_number   1
_chemical_formula_structural   GdH9C9(NO3)3
_chemical_formula_sum   'Gd2 H18 C18 N6 O18'
_cell_volume   605.94946970
_cell_formula_units_Z   2
loop_
 _symmetry_equiv_pos_site_id
 _symmetry_equiv_pos_as_xyz
  1  'x, y, z'
loop_
 _atom_site_type_symbol
 _atom_site_label
 _atom_site_symmetry_multiplicity
 _atom_site_fract_x
 _atom_site_fract_y
 _atom_site_fract_z
 _atom_site_occupancy
  Gd  Gd0  1  0.77354000  0.79300000  0.26810000  1.0
  Gd  Gd1  1  0.22646000  0.20700000  0.73190000  1.0
  H  H2  1  0.09545000  0.09598000  0.99434000  1.0
  H  H3  1  0.90455000  0.90403000  0.00566000  1.0
  H  H4  1  0.88208000  0.88368000  0.67005000  1.0
  H  H5  1  0.11792000  0.11631000  0.32995000  1.0
  H  H6  1  0.15095000  0.71017000  0.95595000  1.0
  H  H7  1  0.84904000  0.28984000  0.04405000  1.0
  H  H8  1  0.56133000  0.20004000  0.19144000  1.0
  H  H9  1  0.43867000  0.79996000  0.80856000  1.0
  H  H10  1  0.50755000  0.16351000  0.30904000  1.0
  H  H11  1  0.49246000  0.83648000  0.69096000  1.0
  H  H12  1  0.17816000  0.49405000  0.36158000  1.0
  H  H13  1  0.82184000  0.50595000  0.63842000  1.0
  H  H14  1  0.22724000  0.68883000  0.33047000  1.0
  H  H15  1  0.77276000  0.31117000  0.66952000  1.0
  H  H16  1  0.84385000  0.39922000  0.26331000  1.0
  H  H17  1  0.15615000  0.60078000  0.73669000  1.0
  H  H18  1  0.63169000  0.41779000  0.34412000  1.0
  H  H19  1  0.36831000  0.58220000  0.65588000  1.0
  C  C20  1  0.25551000  0.90752000  0.18108000  1.0
  C  C21  1  0.74450000  0.09248000  0.81892000  1.0
  C  C22  1  0.38174000  0.96310000  0.08574000  1.0
  C  C23  1  0.61826000  0.03691000  0.91426000  1.0
  C  C24  1  0.27609000  0.05241000  0.99736000  1.0
  C  C25  1  0.72391000  0.94760000  0.00264000  1.0
  C  C26  1  0.67778000  0.77957000  0.51439000  1.0
  C  C27  1  0.32223000  0.22043000  0.48561000  1.0
  C  C28  1  0.85040000  0.89475000  0.50812000  1.0
  C  C29  1  0.14961000  0.10524000  0.49187000  1.0
  C  C30  1  0.93434000  0.93677000  0.59410000  1.0
  C  C31  1  0.06566000  0.06322000  0.40590000  1.0
  C  C32  1  0.11718000  0.48035000  0.13531000  1.0
  C  C33  1  0.88280000  0.51967000  0.86469000  1.0
  C  C34  1  0.31956000  0.48708000  0.06340000  1.0
  C  C35  1  0.68043000  0.51293000  0.93661000  1.0
  C  C36  1  0.30821000  0.61701000  0.97683000  1.0
  C  C37  1  0.69178000  0.38300000  0.02318000  1.0
  N  N38  1  0.60569000  0.91178000  0.08788000  1.0
  N  N39  1  0.39431000  0.08823000  0.91212000  1.0
  N  N40  1  0.91721000  0.95756000  0.41435000  1.0
  N  N41  1  0.08280000  0.04244000  0.58565000  1.0
  N  N42  1  0.51393000  0.36938000  0.08534000  1.0
  N  N43  1  0.48606000  0.63062000  0.91467000  1.0
  O  O44  1  0.37579000  0.81476000  0.25277000  1.0
  O  O45  1  0.62422000  0.18523000  0.74723000  1.0
  O  O46  1  0.04482000  0.94872000  0.18225000  1.0
  O  O47  1  0.95519000  0.05125000  0.81775000  1.0
  O  O48  1  0.60651000  0.75922000  0.43150000  1.0
  O  O49  1  0.39349000  0.24078000  0.56850000  1.0
  O  O50  1  0.61464000  0.71208000  0.60155000  1.0
  O  O51  1  0.38536000  0.28792000  0.39846000  1.0
  O  O52  1  0.97848000  0.63225000  0.13529000  1.0
  O  O53  1  0.02148000  0.36776000  0.86469000  1.0
  O  O54  1  0.10064000  0.33307000  0.18755000  1.0
  O  O55  1  0.89934000  0.66693000  0.81246000  1.0
  O  O56  1  0.59997000  0.10848000  0.25309000  1.0
  O  O57  1  0.40003000  0.89152000  0.74691000  1.0
  O  O58  1  0.10499000  0.62338000  0.35298000  1.0
  O  O59  1  0.89501000  0.37661000  0.64702000  1.0
  O  O60  1  0.72625000  0.48402000  0.29788000  1.0
  O  O61  1  0.27375000  0.51598000  0.70213000  1.0
