# generated using pymatgen
data_Zn4H9C27O16F9
_symmetry_space_group_name_H-M   'P 1'
_cell_length_a   18.30190000
_cell_length_b   18.34747987
_cell_length_c   18.37370000
_cell_angle_alpha   60.61993011
_cell_angle_beta   60.61400000
_cell_angle_gamma   60.47051782
_symmetry_Int_Tables_number   1
_chemical_formula_structural   Zn4H9C27O16F9
_chemical_formula_sum   'Zn8 H18 C54 O32 F18'
_cell_volume   4418.66216015
_cell_formula_units_Z   2
loop_
 _symmetry_equiv_pos_site_id
 _symmetry_equiv_pos_as_xyz
  1  'x, y, z'
loop_
 _atom_site_type_symbol
 _atom_site_label
 _atom_site_symmetry_multiplicity
 _atom_site_fract_x
 _atom_site_fract_y
 _atom_site_fract_z
 _atom_site_occupancy
  Zn  Zn0  1  0.95761000  0.93146000  0.14727000  1.0
  Zn  Zn1  1  0.13182000  0.93098000  0.97620000  1.0
  Zn  Zn2  1  0.95811000  0.10427000  0.97572000  1.0
  Zn  Zn3  1  0.95718000  0.93068000  0.97330000  1.0
  Zn  Zn4  1  0.54437000  0.51673000  0.38745000  1.0
  Zn  Zn5  1  0.37060000  0.51544000  0.56579000  1.0
  Zn  Zn6  1  0.54773000  0.51577000  0.56191000  1.0
  Zn  Zn7  1  0.54334000  0.34594000  0.56048000  1.0
  H  H8  1  0.31970000  0.77316000  0.10891000  1.0
  H  H9  1  0.41213000  0.67422000  0.20899000  1.0
  H  H10  1  0.08311000  0.76738000  0.33680000  1.0
  H  H11  1  0.80630000  0.29241000  0.10643000  1.0
  H  H12  1  0.70939000  0.38569000  0.20569000  1.0
  H  H13  1  0.78700000  0.05856000  0.33462000  1.0
  H  H14  1  0.78738000  0.77742000  0.10413000  1.0
  H  H15  1  0.69198000  0.68070000  0.20475000  1.0
  H  H16  1  0.81691000  0.76092000  0.33073000  1.0
  H  H17  1  0.08773000  0.29269000  0.81321000  1.0
  H  H18  1  0.18634000  0.38642000  0.71759000  1.0
  H  H19  1  0.31926000  0.05916000  0.83152000  1.0
  H  H20  1  0.08969000  0.77211000  0.81040000  1.0
  H  H21  1  0.19058000  0.67482000  0.71553000  1.0
  H  H22  1  0.31896000  0.77733000  0.81677000  1.0
  H  H23  1  0.79308000  0.29414000  0.82183000  1.0
  H  H24  1  0.69958000  0.38769000  0.72252000  1.0
  H  H25  1  0.81299000  0.06001000  0.80284000  1.0
  C  C26  1  0.13942000  0.83565000  0.15798000  1.0
  C  C27  1  0.19581000  0.77679000  0.21655000  1.0
  C  C28  1  0.28870000  0.75026000  0.18038000  1.0
  C  C29  1  0.33985000  0.69536000  0.23585000  1.0
  C  C30  1  0.30077000  0.66505000  0.32821000  1.0
  C  C31  1  0.36096000  0.60627000  0.38345000  1.0
  C  C32  1  0.20721000  0.69249000  0.36295000  1.0
  C  C33  1  0.15523000  0.74750000  0.30828000  1.0
  C  C34  1  0.13324000  0.71094000  0.50392000  1.0
  C  C35  1  0.86160000  0.11296000  0.15677000  1.0
  C  C36  1  0.80286000  0.16990000  0.21444000  1.0
  C  C37  1  0.78065000  0.26229000  0.17776000  1.0
  C  C38  1  0.72694000  0.31383000  0.23275000  1.0
  C  C39  1  0.69361000  0.27548000  0.32490000  1.0
  C  C40  1  0.63820000  0.33523000  0.38018000  1.0
  C  C41  1  0.71544000  0.18257000  0.36003000  1.0
  C  C42  1  0.77000000  0.13026000  0.30583000  1.0
  C  C43  1  0.61368000  0.11522000  0.48529000  1.0
  C  C44  1  0.86372000  0.83430000  0.15315000  1.0
  C  C45  1  0.80769000  0.77559000  0.21111000  1.0
  C  C46  1  0.77294000  0.75254000  0.17539000  1.0
  C  C47  1  0.72010000  0.69886000  0.23121000  1.0
  C  C48  1  0.70089000  0.66621000  0.32332000  1.0
  C  C49  1  0.64098000  0.61092000  0.37962000  1.0
  C  C50  1  0.73830000  0.68873000  0.35740000  1.0
  C  C51  1  0.79006000  0.74338000  0.30252000  1.0
  C  C52  1  0.78269000  0.58561000  0.48237000  1.0
  C  C53  1  0.13990000  0.11303000  0.88360000  1.0
  C  C54  1  0.19732000  0.17027000  0.82793000  1.0
  C  C55  1  0.15967000  0.26268000  0.79627000  1.0
  C  C56  1  0.21438000  0.31453000  0.74336000  1.0
  C  C57  1  0.30735000  0.27632000  0.72074000  1.0
  C  C58  1  0.36246000  0.33602000  0.66044000  1.0
  C  C59  1  0.34353000  0.18339000  0.75486000  1.0
  C  C60  1  0.28956000  0.13085000  0.80709000  1.0
  C  C61  1  0.47328000  0.11689000  0.79340000  1.0
  C  C62  1  0.13943000  0.83747000  0.87767000  1.0
  C  C63  1  0.19798000  0.78069000  0.81959000  1.0
  C  C64  1  0.16162000  0.75199000  0.79083000  1.0
  C  C65  1  0.21765000  0.69795000  0.73833000  1.0
  C  C66  1  0.31069000  0.67099000  0.71293000  1.0
  C  C67  1  0.36641000  0.61096000  0.65773000  1.0
  C  C68  1  0.34562000  0.70162000  0.74179000  1.0
  C  C69  1  0.29029000  0.75531000  0.79465000  1.0
  C  C70  1  0.48187000  0.73008000  0.65356000  1.0
  C  C71  1  0.86281000  0.11420000  0.87895000  1.0
  C  C72  1  0.80790000  0.17144000  0.81916000  1.0
  C  C73  1  0.77663000  0.26397000  0.79599000  1.0
  C  C74  1  0.72496000  0.31570000  0.74095000  1.0
  C  C75  1  0.70342000  0.27714000  0.70746000  1.0
  C  C76  1  0.64338000  0.33656000  0.65247000  1.0
  C  C77  1  0.73779000  0.18419000  0.72960000  1.0
  C  C78  1  0.78841000  0.13177000  0.78552000  1.0
  C  C79  1  0.78074000  0.11848000  0.62581000  1.0
  O  O80  1  0.00128000  0.97413000  0.01758000  1.0
  O  O81  1  0.17996000  0.85697000  0.07475000  1.0
  O  O82  1  0.05545000  0.85941000  0.19647000  1.0
  O  O83  1  0.32569000  0.57307000  0.46620000  1.0
  O  O84  1  0.44378000  0.59456000  0.34146000  1.0
  O  O85  1  0.16306000  0.66050000  0.45392000  1.0
  O  O86  1  0.88656000  0.15281000  0.07360000  1.0
  O  O87  1  0.88186000  0.02927000  0.19569000  1.0
  O  O88  1  0.62519000  0.29930000  0.46280000  1.0
  O  O89  1  0.60976000  0.41810000  0.33887000  1.0
  O  O90  1  0.68654000  0.13897000  0.45131000  1.0
  O  O91  1  0.88317000  0.85759000  0.06975000  1.0
  O  O92  1  0.88733000  0.85596000  0.19253000  1.0
  O  O93  1  0.60867000  0.59846000  0.46212000  1.0
  O  O94  1  0.62634000  0.58223000  0.33880000  1.0
  O  O95  1  0.72154000  0.65999000  0.44869000  1.0
  O  O96  1  0.05611000  0.15278000  0.90309000  1.0
  O  O97  1  0.17963000  0.02935000  0.90683000  1.0
  O  O98  1  0.44408000  0.30081000  0.62147000  1.0
  O  O99  1  0.32185000  0.41838000  0.65185000  1.0
  O  O100  1  0.43569000  0.13989000  0.73393000  1.0
  O  O101  1  0.05566000  0.85888000  0.89867000  1.0
  O  O102  1  0.17854000  0.85929000  0.90157000  1.0
  O  O103  1  0.44918000  0.57525000  0.64689000  1.0
  O  O104  1  0.32473000  0.60000000  0.62683000  1.0
  O  O105  1  0.43747000  0.67464000  0.72319000  1.0
  O  O106  1  0.88312000  0.15384000  0.90360000  1.0
  O  O107  1  0.88477000  0.03053000  0.90018000  1.0
  O  O108  1  0.60470000  0.30121000  0.64366000  1.0
  O  O109  1  0.63439000  0.41885000  0.62073000  1.0
  O  O110  1  0.71919000  0.14045000  0.69922000  1.0
  O  O111  1  0.50091000  0.47595000  0.51697000  1.0
  F  F112  1  0.19299000  0.74659000  0.48506000  1.0
  F  F113  1  0.11496000  0.65888000  0.58956000  1.0
  F  F114  1  0.05681000  0.78045000  0.49419000  1.0
  F  F115  1  0.54276000  0.18432000  0.46187000  1.0
  F  F116  1  0.59132000  0.08422000  0.57373000  1.0
  F  F117  1  0.62895000  0.04998000  0.45808000  1.0
  F  F118  1  0.80588000  0.51677000  0.45657000  1.0
  F  F119  1  0.74793000  0.56113000  0.57119000  1.0
  F  F120  1  0.86025000  0.59882000  0.45782000  1.0
  F  F121  1  0.45470000  0.18713000  0.81486000  1.0
  F  F122  1  0.56166000  0.08258000  0.75796000  1.0
  F  F123  1  0.44530000  0.05441000  0.87174000  1.0
  F  F124  1  0.46910000  0.75406000  0.57662000  1.0
  F  F125  1  0.56896000  0.68773000  0.64332000  1.0
  F  F126  1  0.45706000  0.80738000  0.66702000  1.0
  F  F127  1  0.79887000  0.19010000  0.55452000  1.0
  F  F128  1  0.74882000  0.08079000  0.60609000  1.0
  F  F129  1  0.86070000  0.05946000  0.63780000  1.0
