# generated using pymatgen
data_BaH8C4N12O5
_symmetry_space_group_name_H-M   'P 1'
_cell_length_a   7.18601000
_cell_length_b   8.60672000
_cell_length_c   10.97007297
_cell_angle_alpha   95.88984770
_cell_angle_beta   109.12363287
_cell_angle_gamma   89.98640000
_symmetry_Int_Tables_number   1
_chemical_formula_structural   BaH8C4N12O5
_chemical_formula_sum   'Ba2 H16 C8 N24 O10'
_cell_volume   637.24795764
_cell_formula_units_Z   2
loop_
 _symmetry_equiv_pos_site_id
 _symmetry_equiv_pos_as_xyz
  1  'x, y, z'
loop_
 _atom_site_type_symbol
 _atom_site_label
 _atom_site_symmetry_multiplicity
 _atom_site_fract_x
 _atom_site_fract_y
 _atom_site_fract_z
 _atom_site_occupancy
  Ba  Ba0  1  0.38267000  0.75003000  0.00003000  1.0
  Ba  Ba1  1  0.61735000  0.24997000  0.99998000  1.0
  H  H2  1  0.59385000  0.77197000  0.44322000  1.0
  H  H3  1  0.15040000  0.72790000  0.55688000  1.0
  H  H4  1  0.40615000  0.22802000  0.55678000  1.0
  H  H5  1  0.84961000  0.27209000  0.44313000  1.0
  H  H6  1  0.80816000  0.68911000  0.54984000  1.0
  H  H7  1  0.25814000  0.81069000  0.45031000  1.0
  H  H8  1  0.19183000  0.31089000  0.45016000  1.0
  H  H9  1  0.74186000  0.18930000  0.54969000  1.0
  H  H10  1  0.81629000  0.89043000  0.52256000  1.0
  H  H11  1  0.29363000  0.60939000  0.47762000  1.0
  H  H12  1  0.18371000  0.10957000  0.47744000  1.0
  H  H13  1  0.70637000  0.39060000  0.52238000  1.0
  H  H14  1  0.89658000  0.66666667  0.96683000  1.0
  H  H15  1  0.92968000  0.83349000  0.03328000  1.0
  H  H16  1  0.10342000  0.33333333  0.03317000  1.0
  H  H17  1  0.07033000  0.16651000  0.96672000  1.0
  C  C18  1  0.61632000  0.74371000  0.72261000  1.0
  C  C19  1  0.89365000  0.75618000  0.27741000  1.0
  C  C20  1  0.38369000  0.25629000  0.27739000  1.0
  C  C21  1  0.10635000  0.24381000  0.72259000  1.0
  C  C22  1  0.72293000  0.79461000  0.53115000  1.0
  C  C23  1  0.19161000  0.70519000  0.46898000  1.0
  C  C24  1  0.27707000  0.20539000  0.46885000  1.0
  C  C25  1  0.80839000  0.29481000  0.53103000  1.0
  N  N26  1  0.66232000  0.83840000  0.64358000  1.0
  N  N27  1  0.01862000  0.66147000  0.35648000  1.0
  N  N28  1  0.33768000  0.16160000  0.35642000  1.0
  N  N29  1  0.98139000  0.33853000  0.64352000  1.0
  N  N30  1  0.64946000  0.98820000  0.68778000  1.0
  N  N31  1  0.96154000  0.51168000  0.31228000  1.0
  N  N32  1  0.35054000  0.01179000  0.31222000  1.0
  N  N33  1  0.03846000  0.48832000  0.68772000  1.0
  N  N34  1  0.59704000  0.98499000  0.79077000  1.0
  N  N35  1  0.80619000  0.51493000  0.20925000  1.0
  N  N36  1  0.40296000  0.01500000  0.20923000  1.0
  N  N37  1  0.19381000  0.48507000  0.79075000  1.0
  N  N38  1  0.57446000  0.83658000  0.81562000  1.0
  N  N39  1  0.75881000  0.66335000  0.18437000  1.0
  N  N40  1  0.42554000  0.16341000  0.18438000  1.0
  N  N41  1  0.24119000  0.33665000  0.81563000  1.0
  N  N42  1  0.60815000  0.58565000  0.69052000  1.0
  N  N43  1  0.91759000  0.91425000  0.30945000  1.0
  N  N44  1  0.39185000  0.41435000  0.30948000  1.0
  N  N45  1  0.08241000  0.08575000  0.69055000  1.0
  N  N46  1  0.62495000  0.49542000  0.78210000  1.0
  N  N47  1  0.84269000  0.00448000  0.21788000  1.0
  N  N48  1  0.37505000  0.50458000  0.21790000  1.0
  N  N49  1  0.15730000  0.99552000  0.78212000  1.0
  O  O50  1  0.65568000  0.54809000  0.90277000  1.0
  O  O51  1  0.75256000  0.95183000  0.09723000  1.0
  O  O52  1  0.34432000  0.45191000  0.09723000  1.0
  O  O53  1  0.24744000  0.04817000  0.90277000  1.0
  O  O54  1  0.61477000  0.34972000  0.75202000  1.0
  O  O55  1  0.86269000  0.15016000  0.24795000  1.0
  O  O56  1  0.38523000  0.65028000  0.24798000  1.0
  O  O57  1  0.13730000  0.84984000  0.75205000  1.0
  O  O58  1  0.99978000  0.75011000  0.00008000  1.0
  O  O59  1  0.00022000  0.24988000  0.99992000  1.0
