# generated using pymatgen
data_CuSiH24C40(N2F3)2
_symmetry_space_group_name_H-M   'P 1'
_cell_length_a   8.04984000
_cell_length_b   20.59630000
_cell_length_c   20.59640000
_cell_angle_alpha   86.31780000
_cell_angle_beta   89.99960000
_cell_angle_gamma   89.99940000
_symmetry_Int_Tables_number   1
_chemical_formula_structural   CuSiH24C40(N2F3)2
_chemical_formula_sum   'Cu2 Si2 H48 C80 N8 F12'
_cell_volume   3407.77018311
_cell_formula_units_Z   2
loop_
 _symmetry_equiv_pos_site_id
 _symmetry_equiv_pos_as_xyz
  1  'x, y, z'
loop_
 _atom_site_type_symbol
 _atom_site_label
 _atom_site_symmetry_multiplicity
 _atom_site_fract_x
 _atom_site_fract_y
 _atom_site_fract_z
 _atom_site_occupancy
  Cu  Cu0  1  0.25000000  0.67504000  0.32496000  1.0
  Cu  Cu1  1  0.75000000  0.32496000  0.67504000  1.0
  Si  Si2  1  0.75000000  0.67521000  0.32480000  1.0
  Si  Si3  1  0.25000000  0.32479000  0.67520000  1.0
  H  H4  1  0.99156000  0.77903000  0.32248000  1.0
  H  H5  1  0.49157000  0.22099000  0.67751000  1.0
  H  H6  1  0.00843000  0.32248000  0.77901000  1.0
  H  H7  1  0.50845000  0.67752000  0.22097000  1.0
  H  H8  1  0.00843000  0.22099000  0.67751000  1.0
  H  H9  1  0.50844000  0.77903000  0.32249000  1.0
  H  H10  1  0.99156000  0.67752000  0.22097000  1.0
  H  H11  1  0.49157000  0.32248000  0.77901000  1.0
  H  H12  1  0.98096000  0.89966000  0.32402000  1.0
  H  H13  1  0.48095000  0.10036000  0.67598000  1.0
  H  H14  1  0.01905000  0.32402000  0.89964000  1.0
  H  H15  1  0.51906000  0.67599000  0.10034000  1.0
  H  H16  1  0.01904000  0.10036000  0.67598000  1.0
  H  H17  1  0.51904000  0.89966000  0.32402000  1.0
  H  H18  1  0.98097000  0.67599000  0.10034000  1.0
  H  H19  1  0.48095000  0.32402000  0.89964000  1.0
  H  H20  1  0.98197000  0.11451000  0.33129000  1.0
  H  H21  1  0.48197000  0.88548000  0.66872000  1.0
  H  H22  1  0.01804000  0.33129000  0.11452000  1.0
  H  H23  1  0.51803000  0.66871000  0.88547000  1.0
  H  H24  1  0.01803000  0.88548000  0.66872000  1.0
  H  H25  1  0.51803000  0.11452000  0.33129000  1.0
  H  H26  1  0.98197000  0.66871000  0.88547000  1.0
  H  H27  1  0.48197000  0.33128000  0.11453000  1.0
  H  H28  1  0.98181000  0.23500000  0.33567000  1.0
  H  H29  1  0.48183000  0.76500000  0.66434000  1.0
  H  H30  1  0.01817000  0.33566000  0.23501000  1.0
  H  H31  1  0.51817000  0.66433000  0.76499000  1.0
  H  H32  1  0.01817000  0.76499000  0.66434000  1.0
  H  H33  1  0.51815000  0.23501000  0.33567000  1.0
  H  H34  1  0.98183000  0.66433000  0.76499000  1.0
  H  H35  1  0.48183000  0.33566000  0.23501000  1.0
  H  H36  1  0.98079000  0.44992000  0.33385000  1.0
  H  H37  1  0.48078000  0.55009000  0.66616000  1.0
  H  H38  1  0.01921000  0.33384000  0.44992000  1.0
  H  H39  1  0.51921000  0.66616000  0.55008000  1.0
  H  H40  1  0.01921000  0.55009000  0.66616000  1.0
  H  H41  1  0.51921000  0.44991000  0.33385000  1.0
  H  H42  1  0.98079000  0.66615000  0.55008000  1.0
  H  H43  1  0.48079000  0.33384000  0.44991000  1.0
  H  H44  1  0.99152000  0.57108000  0.32887000  1.0
  H  H45  1  0.49152000  0.42892000  0.67114000  1.0
  H  H46  1  0.00848000  0.32886000  0.57108000  1.0
  H  H47  1  0.50849000  0.67113000  0.42892000  1.0
  H  H48  1  0.00848000  0.42892000  0.67114000  1.0
  H  H49  1  0.50849000  0.57108000  0.32887000  1.0
  H  H50  1  0.99151000  0.67113000  0.42892000  1.0
  H  H51  1  0.49152000  0.32886000  0.57108000  1.0
  C  C52  1  0.10535000  0.80764000  0.32269000  1.0
  C  C53  1  0.60535000  0.19238000  0.67731000  1.0
  C  C54  1  0.89465000  0.32269000  0.80762000  1.0
  C  C55  1  0.39465000  0.67732000  0.19237000  1.0
  C  C56  1  0.89465000  0.19238000  0.67730000  1.0
  C  C57  1  0.39465000  0.80763000  0.32269000  1.0
  C  C58  1  0.10536000  0.67731000  0.19236000  1.0
  C  C59  1  0.60535000  0.32269000  0.80762000  1.0
  C  C60  1  0.10043000  0.87492000  0.32355000  1.0
  C  C61  1  0.60043000  0.12509000  0.67646000  1.0
  C  C62  1  0.89957000  0.32354000  0.87491000  1.0
  C  C63  1  0.39958000  0.67646000  0.12508000  1.0
  C  C64  1  0.89957000  0.12509000  0.67646000  1.0
  C  C65  1  0.39957000  0.87492000  0.32355000  1.0
  C  C66  1  0.10044000  0.67646000  0.12508000  1.0
  C  C67  1  0.60043000  0.32355000  0.87491000  1.0
  C  C68  1  0.25000000  0.91039000  0.32423000  1.0
  C  C69  1  0.75000000  0.08962000  0.67578000  1.0
  C  C70  1  0.75000000  0.32423000  0.91038000  1.0
  C  C71  1  0.25001000  0.67578000  0.08961000  1.0
  C  C72  1  0.25000000  0.97891000  0.32597000  1.0
  C  C73  1  0.75000000  0.02110000  0.67405000  1.0
  C  C74  1  0.75000000  0.32596000  0.97890000  1.0
  C  C75  1  0.25001000  0.67404000  0.02109000  1.0
  C  C76  1  0.25001000  0.03802000  0.32815000  1.0
  C  C77  1  0.75000000  0.96199000  0.67186000  1.0
  C  C78  1  0.75000000  0.32814000  0.03802000  1.0
  C  C79  1  0.25000000  0.67185000  0.96197000  1.0
  C  C80  1  0.25000000  0.10641000  0.33085000  1.0
  C  C81  1  0.75000000  0.89360000  0.66916000  1.0
  C  C82  1  0.75000000  0.33084000  0.10641000  1.0
  C  C83  1  0.25000000  0.66915000  0.89358000  1.0
  C  C84  1  0.09878000  0.14120000  0.33223000  1.0
  C  C85  1  0.59879000  0.85881000  0.66777000  1.0
  C  C86  1  0.90121000  0.33222000  0.14120000  1.0
  C  C87  1  0.40122000  0.66777000  0.85880000  1.0
  C  C88  1  0.90121000  0.85881000  0.66777000  1.0
  C  C89  1  0.40121000  0.14120000  0.33223000  1.0
  C  C90  1  0.09878000  0.66777000  0.85880000  1.0
  C  C91  1  0.59879000  0.33222000  0.14120000  1.0
  C  C92  1  0.09854000  0.20825000  0.33465000  1.0
  C  C93  1  0.59857000  0.79175000  0.66536000  1.0
  C  C94  1  0.90143000  0.33463000  0.20825000  1.0
  C  C95  1  0.40144000  0.66535000  0.79174000  1.0
  C  C96  1  0.90144000  0.79175000  0.66536000  1.0
  C  C97  1  0.40143000  0.20825000  0.33465000  1.0
  C  C98  1  0.09856000  0.66535000  0.79175000  1.0
  C  C99  1  0.59857000  0.33463000  0.20825000  1.0
  C  C100  1  0.24998000  0.24289000  0.33567000  1.0
  C  C101  1  0.75000000  0.75711000  0.66435000  1.0
  C  C102  1  0.75000000  0.33565000  0.24290000  1.0
  C  C103  1  0.25000000  0.66434000  0.75710000  1.0
  C  C104  1  0.24998000  0.31145000  0.33668000  1.0
  C  C105  1  0.75000000  0.68856000  0.66334000  1.0
  C  C106  1  0.75000000  0.33665000  0.31145000  1.0
  C  C107  1  0.25000000  0.66333000  0.68855000  1.0
  C  C108  1  0.24999000  0.37080000  0.33608000  1.0
  C  C109  1  0.75000000  0.62920000  0.66394000  1.0
  C  C110  1  0.75000000  0.33605000  0.37080000  1.0
  C  C111  1  0.25000000  0.66392000  0.62920000  1.0
  C  C112  1  0.25001000  0.43953000  0.33414000  1.0
  C  C113  1  0.74999000  0.56047000  0.66587000  1.0
  C  C114  1  0.75000000  0.33413000  0.43954000  1.0
  C  C115  1  0.25000000  0.66586000  0.56046000  1.0
  C  C116  1  0.10012000  0.47489000  0.33282000  1.0
  C  C117  1  0.60011000  0.52511000  0.66719000  1.0
  C  C118  1  0.89989000  0.33281000  0.47489000  1.0
  C  C119  1  0.39988000  0.66718000  0.52511000  1.0
  C  C120  1  0.89988000  0.52511000  0.66719000  1.0
  C  C121  1  0.39988000  0.47489000  0.33282000  1.0
  C  C122  1  0.10012000  0.66718000  0.52511000  1.0
  C  C123  1  0.60012000  0.33281000  0.47489000  1.0
  C  C124  1  0.10525000  0.54237000  0.33008000  1.0
  C  C125  1  0.60525000  0.45764000  0.66993000  1.0
  C  C126  1  0.89475000  0.33008000  0.54236000  1.0
  C  C127  1  0.39475000  0.66991000  0.45763000  1.0
  C  C128  1  0.89475000  0.45764000  0.66993000  1.0
  C  C129  1  0.39475000  0.54237000  0.33008000  1.0
  C  C130  1  0.10525000  0.66991000  0.45763000  1.0
  C  C131  1  0.60525000  0.33008000  0.54237000  1.0
  N  N132  1  0.25000000  0.77449000  0.32245000  1.0
  N  N133  1  0.75000000  0.22552000  0.67755000  1.0
  N  N134  1  0.75000000  0.32245000  0.77448000  1.0
  N  N135  1  0.25000000  0.67756000  0.22551000  1.0
  N  N136  1  0.25000000  0.57551000  0.32864000  1.0
  N  N137  1  0.75000000  0.42449000  0.67137000  1.0
  N  N138  1  0.75000000  0.32864000  0.57551000  1.0
  N  N139  1  0.25000000  0.67136000  0.42449000  1.0
  F  F140  1  0.53449000  0.67519000  0.32481000  1.0
  F  F141  1  0.03448000  0.32481000  0.67519000  1.0
  F  F142  1  0.46551000  0.32481000  0.67519000  1.0
  F  F143  1  0.96551000  0.67520000  0.32481000  1.0
  F  F144  1  0.75001000  0.61449000  0.38551000  1.0
  F  F145  1  0.25000000  0.38550000  0.61449000  1.0
  F  F146  1  0.75001000  0.61821000  0.26787000  1.0
  F  F147  1  0.24999000  0.38179000  0.73212000  1.0
  F  F148  1  0.25000000  0.26787000  0.61821000  1.0
  F  F149  1  0.75000000  0.73212000  0.38179000  1.0
  F  F150  1  0.75000000  0.73591000  0.26410000  1.0
  F  F151  1  0.25000000  0.26409000  0.73590000  1.0
