# generated using pymatgen
data_CaP2H18(C4O3)2
_symmetry_space_group_name_H-M   'P 1'
_cell_length_a   5.50116000
_cell_length_b   7.56206000
_cell_length_c   16.87790000
_cell_angle_alpha   96.97270000
_cell_angle_beta   90.79370000
_cell_angle_gamma   101.84400000
_symmetry_Int_Tables_number   1
_chemical_formula_structural   CaP2H18(C4O3)2
_chemical_formula_sum   'Ca2 P4 H36 C16 O12'
_cell_volume   681.54859313
_cell_formula_units_Z   2
loop_
 _symmetry_equiv_pos_site_id
 _symmetry_equiv_pos_as_xyz
  1  'x, y, z'
loop_
 _atom_site_type_symbol
 _atom_site_label
 _atom_site_symmetry_multiplicity
 _atom_site_fract_x
 _atom_site_fract_y
 _atom_site_fract_z
 _atom_site_occupancy
  Ca  Ca0  1  0.79001000  0.78373000  0.00735000  1.0
  Ca  Ca1  1  0.20998000  0.21627000  0.99265000  1.0
  P  P2  1  0.77406000  0.33792000  0.87557000  1.0
  P  P3  1  0.22593000  0.66209000  0.12443000  1.0
  P  P4  1  0.29576000  0.80488000  0.88419000  1.0
  P  P5  1  0.70423000  0.19513000  0.11581000  1.0
  H  H6  1  0.22933000  0.35742000  0.59579000  1.0
  H  H7  1  0.77065000  0.64254000  0.40421000  1.0
  H  H8  1  0.01859000  0.35040000  0.51429000  1.0
  H  H9  1  0.98140000  0.64955000  0.48571000  1.0
  H  H10  1  0.01326000  0.15306000  0.56209000  1.0
  H  H11  1  0.98672000  0.84690000  0.43792000  1.0
  H  H12  1  0.65970000  0.29998000  0.60751000  1.0
  H  H13  1  0.34030000  0.70001000  0.39250000  1.0
  H  H14  1  0.86793000  0.50817000  0.63701000  1.0
  H  H15  1  0.13207000  0.49182000  0.36298000  1.0
  H  H16  1  0.07448000  0.36815000  0.73822000  1.0
  H  H17  1  0.92552000  0.63188000  0.26179000  1.0
  H  H18  1  0.87935000  0.15535000  0.70876000  1.0
  H  H19  1  0.12066000  0.84465000  0.29125000  1.0
  H  H20  1  0.51040000  0.25956000  0.75832000  1.0
  H  H21  1  0.48958000  0.74044000  0.24168000  1.0
  H  H22  1  0.66442000  0.48992000  0.77014000  1.0
  H  H23  1  0.33556000  0.51009000  0.22986000  1.0
  H  H24  1  0.48446000  0.66244000  0.56592000  1.0
  H  H25  1  0.51555000  0.33757000  0.43408000  1.0
  H  H26  1  0.48791000  0.86510000  0.52258000  1.0
  H  H27  1  0.51214000  0.13491000  0.47742000  1.0
  H  H28  1  0.70709000  0.86292000  0.60040000  1.0
  H  H29  1  0.29295000  0.13707000  0.39961000  1.0
  H  H30  1  0.36130000  0.01600000  0.65160000  1.0
  H  H31  1  0.63874000  0.98401000  0.34840000  1.0
  H  H32  1  0.14079000  0.81568000  0.61908000  1.0
  H  H33  1  0.85923000  0.18433000  0.38091000  1.0
  H  H34  1  0.34117000  0.64605000  0.71158000  1.0
  H  H35  1  0.65882000  0.35394000  0.28842000  1.0
  H  H36  1  0.57007000  0.84331000  0.74156000  1.0
  H  H37  1  0.42994000  0.15668000  0.25843000  1.0
  H  H38  1  0.22631000  0.00597000  0.79433000  1.0
  H  H39  1  0.77369000  0.99402000  0.20567000  1.0
  H  H40  1  0.01172000  0.79782000  0.77515000  1.0
  H  H41  1  0.98828000  0.20217000  0.22484000  1.0
  C  C42  1  0.03747000  0.30221000  0.57244000  1.0
  C  C43  1  0.96251000  0.69776000  0.42756000  1.0
  C  C44  1  0.85073000  0.35918000  0.63116000  1.0
  C  C45  1  0.14927000  0.64081000  0.36884000  1.0
  C  C46  1  0.88653000  0.30291000  0.71372000  1.0
  C  C47  1  0.11347000  0.69709000  0.28628000  1.0
  C  C48  1  0.69317000  0.35065000  0.77238000  1.0
  C  C49  1  0.30681000  0.64936000  0.22763000  1.0
  C  C50  1  0.51254000  0.81142000  0.57907000  1.0
  C  C51  1  0.48748000  0.18859000  0.42093000  1.0
  C  C52  1  0.33482000  0.86633000  0.64159000  1.0
  C  C53  1  0.66520000  0.13367000  0.35841000  1.0
  C  C54  1  0.37396000  0.79599000  0.72097000  1.0
  C  C55  1  0.62605000  0.20401000  0.27903000  1.0
  C  C56  1  0.21089000  0.85720000  0.78719000  1.0
  C  C57  1  0.78911000  0.14280000  0.21281000  1.0
  O  O58  1  0.92055000  0.55115000  0.91087000  1.0
  O  O59  1  0.07943000  0.44886000  0.08913000  1.0
  O  O60  1  0.95280000  0.21476000  0.88208000  1.0
  O  O61  1  0.04719000  0.78526000  0.11793000  1.0
  O  O62  1  0.54920000  0.32699000  0.92590000  1.0
  O  O63  1  0.45077000  0.67304000  0.07411000  1.0
  O  O64  1  0.57041000  0.81338000  0.89206000  1.0
  O  O65  1  0.42958000  0.18663000  0.10795000  1.0
  O  O66  1  0.16938000  0.90834000  0.94823000  1.0
  O  O67  1  0.83061000  0.09167000  0.05177000  1.0
  O  O68  1  0.18761000  0.58399000  0.88667000  1.0
  O  O69  1  0.81239000  0.41601000  0.11332000  1.0
