# generated using pymatgen
data_CeH16C24S3NO7
_symmetry_space_group_name_H-M   'P 1'
_cell_length_a   8.25341000
_cell_length_b   14.06420000
_cell_length_c   14.06620000
_cell_angle_alpha   71.32210000
_cell_angle_beta   88.16290000
_cell_angle_gamma   88.18980000
_symmetry_Int_Tables_number   1
_chemical_formula_structural   CeH16C24S3NO7
_chemical_formula_sum   'Ce2 H32 C48 S6 N2 O14'
_cell_volume   1545.59207526
_cell_formula_units_Z   2
loop_
 _symmetry_equiv_pos_site_id
 _symmetry_equiv_pos_as_xyz
  1  'x, y, z'
loop_
 _atom_site_type_symbol
 _atom_site_label
 _atom_site_symmetry_multiplicity
 _atom_site_fract_x
 _atom_site_fract_y
 _atom_site_fract_z
 _atom_site_occupancy
  Ce  Ce0  1  0.59195000  0.08306000  0.05306000  1.0
  Ce  Ce1  1  0.09272000  0.05314000  0.08340000  1.0
  H  H2  1  0.10078000  0.69586000  0.87410000  1.0
  H  H3  1  0.02693000  0.90365000  0.57812000  1.0
  H  H4  1  0.86195000  0.60031000  0.65389000  1.0
  H  H5  1  0.06880000  0.34552000  0.05023000  1.0
  H  H6  1  0.13867000  0.53597000  0.95787000  1.0
  H  H7  1  0.39461000  0.08956000  0.70409000  1.0
  H  H8  1  0.23837000  0.98644000  0.60864000  1.0
  H  H9  1  0.63300000  0.73455000  0.33146000  1.0
  H  H10  1  0.71517000  0.64932000  0.52071000  1.0
  H  H11  1  0.80552000  0.17235000  0.23800000  1.0
  H  H12  1  0.93397000  0.27572000  0.29231000  1.0
  H  H13  1  0.95909000  0.39587000  0.19940000  1.0
  H  H14  1  0.82200000  0.38292000  0.30357000  1.0
  H  H15  1  0.55405000  0.37883000  0.09452000  1.0
  H  H16  1  0.59569000  0.45403000  0.17307000  1.0
  H  H17  1  0.72993000  0.45428000  0.07043000  1.0
  H  H18  1  0.60077000  0.87408000  0.69571000  1.0
  H  H19  1  0.52687000  0.57807000  0.90358000  1.0
  H  H20  1  0.36182000  0.65373000  0.60036000  1.0
  H  H21  1  0.56809000  0.05021000  0.34527000  1.0
  H  H22  1  0.63826000  0.95802000  0.53566000  1.0
  H  H23  1  0.89487000  0.70439000  0.08909000  1.0
  H  H24  1  0.73866000  0.60875000  0.98616000  1.0
  H  H25  1  0.13318000  0.33117000  0.73441000  1.0
  H  H26  1  0.21541000  0.52046000  0.64925000  1.0
  H  H27  1  0.30536000  0.23782000  0.17267000  1.0
  H  H28  1  0.43423000  0.29243000  0.27564000  1.0
  H  H29  1  0.45935000  0.19984000  0.39594000  1.0
  H  H30  1  0.32247000  0.30412000  0.38274000  1.0
  H  H31  1  0.05433000  0.09464000  0.37958000  1.0
  H  H32  1  0.09584000  0.17360000  0.45439000  1.0
  H  H33  1  0.23025000  0.07097000  0.45491000  1.0
  C  C34  1  0.97592000  0.63728000  0.77297000  1.0
  C  C35  1  0.05486000  0.71223000  0.79864000  1.0
  C  C36  1  0.07712000  0.80780000  0.72873000  1.0
  C  C37  1  0.01553000  0.82846000  0.63191000  1.0
  C  C38  1  0.93724000  0.75467000  0.60377000  1.0
  C  C39  1  0.91919000  0.65910000  0.67512000  1.0
  C  C40  1  0.95967000  0.53748000  0.84644000  1.0
  C  C41  1  0.89328000  0.35873000  0.93528000  1.0
  C  C42  1  0.01055000  0.39411000  0.98314000  1.0
  C  C43  1  0.04659000  0.49547000  0.93381000  1.0
  C  C44  1  0.82633000  0.25787000  0.96735000  1.0
  C  C45  1  0.16534000  0.88392000  0.75489000  1.0
  C  C46  1  0.31400000  0.98039000  0.84336000  1.0
  C  C47  1  0.32553000  0.02226000  0.73974000  1.0
  C  C48  1  0.23991000  0.96825000  0.68977000  1.0
  C  C49  1  0.38844000  0.01723000  0.91740000  1.0
  C  C50  1  0.87296000  0.77593000  0.50328000  1.0
  C  C51  1  0.79461000  0.85478000  0.32507000  1.0
  C  C52  1  0.72041000  0.76382000  0.37064000  1.0
  C  C53  1  0.76526000  0.71888000  0.47111000  1.0
  C  C54  1  0.76218000  0.92679000  0.22565000  1.0
  C  C55  1  0.71767000  0.22928000  0.19463000  1.0
  C  C56  1  0.87143000  0.34577000  0.25057000  1.0
  C  C57  1  0.64912000  0.40777000  0.12967000  1.0
  C  C58  1  0.47582000  0.77288000  0.63722000  1.0
  C  C59  1  0.55478000  0.79860000  0.71212000  1.0
  C  C60  1  0.57698000  0.72871000  0.80768000  1.0
  C  C61  1  0.51543000  0.63184000  0.82840000  1.0
  C  C62  1  0.43717000  0.60363000  0.75466000  1.0
  C  C63  1  0.41910000  0.67498000  0.65911000  1.0
  C  C64  1  0.45952000  0.84630000  0.53740000  1.0
  C  C65  1  0.39289000  0.93497000  0.35868000  1.0
  C  C66  1  0.51004000  0.98303000  0.39392000  1.0
  C  C67  1  0.54624000  0.93379000  0.49527000  1.0
  C  C68  1  0.32564000  0.96673000  0.25794000  1.0
  C  C69  1  0.66518000  0.75494000  0.88377000  1.0
  C  C70  1  0.81377000  0.84359000  0.98008000  1.0
  C  C71  1  0.82560000  0.73997000  0.02190000  1.0
  C  C72  1  0.73998000  0.68989000  0.96799000  1.0
  C  C73  1  0.88803000  0.91781000  0.01679000  1.0
  C  C74  1  0.37292000  0.50309000  0.77592000  1.0
  C  C75  1  0.29447000  0.32482000  0.85473000  1.0
  C  C76  1  0.22048000  0.37038000  0.76374000  1.0
  C  C77  1  0.26537000  0.47088000  0.71883000  1.0
  C  C78  1  0.26165000  0.22540000  0.92668000  1.0
  C  C79  1  0.21763000  0.19451000  0.22979000  1.0
  C  C80  1  0.37172000  0.25091000  0.34580000  1.0
  C  C81  1  0.14935000  0.13002000  0.40831000  1.0
  S  S82  1  0.82808000  0.45134000  0.82925000  1.0
  S  S83  1  0.19872000  0.87423000  0.87820000  1.0
  S  S84  1  0.92129000  0.88336000  0.40650000  1.0
  S  S85  1  0.32797000  0.82888000  0.45140000  1.0
  S  S86  1  0.69826000  0.87830000  0.87409000  1.0
  S  S87  1  0.42102000  0.40631000  0.88337000  1.0
  N  N88  1  0.74193000  0.32346000  0.19428000  1.0
  N  N89  1  0.24206000  0.19450000  0.32381000  1.0
  O  O90  1  0.89596000  0.19042000  0.04019000  1.0
  O  O91  1  0.69877000  0.24025000  0.92822000  1.0
  O  O92  1  0.50311000  0.07935000  0.88905000  1.0
  O  O93  1  0.34065000  0.98534000  0.01082000  1.0
  O  O94  1  0.65375000  0.90803000  0.17242000  1.0
  O  O95  1  0.83809000  0.01096000  0.19671000  1.0
  O  O96  1  0.60388000  0.20701000  0.14966000  1.0
  O  O97  1  0.39440000  0.03991000  0.19028000  1.0
  O  O98  1  0.19851000  0.92708000  0.24050000  1.0
  O  O99  1  0.00331000  0.88970000  0.07845000  1.0
  O  O100  1  0.83937000  0.01102000  0.98525000  1.0
  O  O101  1  0.15368000  0.17205000  0.90767000  1.0
  O  O102  1  0.33676000  0.19652000  0.01115000  1.0
  O  O103  1  0.10381000  0.14931000  0.20784000  1.0
