# generated using pymatgen
data_AgH4C2SO3
_symmetry_space_group_name_H-M   'P 1'
_cell_length_a   4.84686000
_cell_length_b   9.70116000
_cell_length_c   10.22990000
_cell_angle_alpha   72.72350000
_cell_angle_beta   89.99920000
_cell_angle_gamma   89.99950000
_symmetry_Int_Tables_number   1
_chemical_formula_structural   AgH4C2SO3
_chemical_formula_sum   'Ag4 H16 C8 S4 O12'
_cell_volume   459.30962991
_cell_formula_units_Z   4
loop_
 _symmetry_equiv_pos_site_id
 _symmetry_equiv_pos_as_xyz
  1  'x, y, z'
loop_
 _atom_site_type_symbol
 _atom_site_label
 _atom_site_symmetry_multiplicity
 _atom_site_fract_x
 _atom_site_fract_y
 _atom_site_fract_z
 _atom_site_occupancy
  Ag  Ag0  1  0.11161000  0.79780000  0.05785000  1.0
  Ag  Ag1  1  0.61161000  0.70221000  0.94215000  1.0
  Ag  Ag2  1  0.88838000  0.20221000  0.94215000  1.0
  Ag  Ag3  1  0.38839000  0.29780000  0.05785000  1.0
  H  H4  1  0.51108000  0.35081000  0.35491000  1.0
  H  H5  1  0.01106000  0.14917000  0.64509000  1.0
  H  H6  1  0.48892000  0.64919000  0.64509000  1.0
  H  H7  1  0.98893000  0.85081000  0.35491000  1.0
  H  H8  1  0.81870000  0.32997000  0.45531000  1.0
  H  H9  1  0.31867000  0.17004000  0.54469000  1.0
  H  H10  1  0.18129000  0.67003000  0.54470000  1.0
  H  H11  1  0.68130000  0.82996000  0.45530000  1.0
  H  H12  1  0.77832000  0.57844000  0.46958000  1.0
  H  H13  1  0.27834000  0.92156000  0.53042000  1.0
  H  H14  1  0.22168000  0.42156000  0.53042000  1.0
  H  H15  1  0.72168000  0.07843000  0.46959000  1.0
  H  H16  1  0.49032000  0.61392000  0.35848000  1.0
  H  H17  1  0.99035000  0.88606000  0.64152000  1.0
  H  H18  1  0.50967000  0.38607000  0.64153000  1.0
  H  H19  1  0.00967000  0.11392000  0.35848000  1.0
  C  C20  1  0.68693000  0.40825000  0.38244000  1.0
  C  C21  1  0.18692000  0.09175000  0.61755000  1.0
  C  C22  1  0.31306000  0.59175000  0.61755000  1.0
  C  C23  1  0.81307000  0.90825000  0.38244000  1.0
  C  C24  1  0.59502000  0.52930000  0.43852000  1.0
  C  C25  1  0.09503000  0.97069000  0.56148000  1.0
  C  C26  1  0.40498000  0.47069000  0.56148000  1.0
  C  C27  1  0.90498000  0.02930000  0.43852000  1.0
  S  S28  1  0.88355000  0.46982000  0.22718000  1.0
  S  S29  1  0.38355000  0.03019000  0.77282000  1.0
  S  S30  1  0.11646000  0.53019000  0.77282000  1.0
  S  S31  1  0.61645000  0.96982000  0.22718000  1.0
  O  O32  1  0.03077000  0.60225000  0.23223000  1.0
  O  O33  1  0.53079000  0.89776000  0.76776000  1.0
  O  O34  1  0.96923000  0.39775000  0.76778000  1.0
  O  O35  1  0.46923000  0.10226000  0.23223000  1.0
  O  O36  1  0.67764000  0.50209000  0.11348000  1.0
  O  O37  1  0.17763000  0.99791000  0.88651000  1.0
  O  O38  1  0.32238000  0.49792000  0.88652000  1.0
  O  O39  1  0.82236000  0.00209000  0.11348000  1.0
  O  O40  1  0.06689000  0.35050000  0.22541000  1.0
  O  O41  1  0.56686000  0.14951000  0.77460000  1.0
  O  O42  1  0.93313000  0.64952000  0.77460000  1.0
  O  O43  1  0.43312000  0.85049000  0.22540000  1.0
