# generated using pymatgen
data_ZnH5C10NO4
_symmetry_space_group_name_H-M   'P 1'
_cell_length_a   10.60480000
_cell_length_b   11.87760000
_cell_length_c   13.78340000
_cell_angle_alpha   90.00220000
_cell_angle_beta   81.92520000
_cell_angle_gamma   90.00020000
_symmetry_Int_Tables_number   1
_chemical_formula_structural   ZnH5C10NO4
_chemical_formula_sum   'Zn2 H10 C20 N2 O8'
_cell_volume   1718.93815752
_cell_formula_units_Z   2
loop_
 _symmetry_equiv_pos_site_id
 _symmetry_equiv_pos_as_xyz
  1  'x, y, z'
loop_
 _atom_site_type_symbol
 _atom_site_label
 _atom_site_symmetry_multiplicity
 _atom_site_fract_x
 _atom_site_fract_y
 _atom_site_fract_z
 _atom_site_occupancy
  Zn  Zn0  1  0.62790000  0.50116000  0.50197000  1.0
  Zn  Zn1  1  0.37209000  0.50115000  0.49804000  1.0
  H  H2  1  0.66407000  0.65560000  0.89407000  1.0
  H  H3  1  0.33395000  0.44498000  0.12368000  1.0
  H  H4  1  0.75071000  0.64475000  0.99534000  1.0
  H  H5  1  0.82279000  0.60319000  0.87637000  1.0
  H  H6  1  0.75306000  0.43253000  0.97699000  1.0
  H  H7  1  0.66605000  0.44500000  0.87633000  1.0
  H  H8  1  0.33589000  0.65557000  0.10595000  1.0
  H  H9  1  0.24924000  0.64471000  0.00468000  1.0
  H  H10  1  0.17717000  0.60314000  0.12365000  1.0
  H  H11  1  0.24693000  0.43249000  0.02302000  1.0
  C  C12  1  0.50002000  0.71978000  0.50000000  1.0
  C  C13  1  0.43518000  0.48655000  0.88301000  1.0
  C  C14  1  0.50002000  0.84125000  0.49998000  1.0
  C  C15  1  0.50004000  0.16095000  0.49996000  1.0
  C  C16  1  0.50003000  0.94429000  0.49996000  1.0
  C  C17  1  0.50004000  0.05793000  0.49996000  1.0
  C  C18  1  0.06500000  0.50145000  0.49621000  1.0
  C  C19  1  0.93498000  0.50145000  0.50379000  1.0
  C  C20  1  0.68223000  0.48385000  0.94589000  1.0
  C  C21  1  0.73299000  0.60405000  0.92697000  1.0
  C  C22  1  0.31775000  0.48382000  0.05412000  1.0
  C  C23  1  0.50004000  0.28241000  0.49997000  1.0
  C  C24  1  0.26697000  0.60400000  0.07305000  1.0
  C  C25  1  0.54875000  0.49738000  0.31068000  1.0
  C  C26  1  0.45126000  0.49736000  0.68933000  1.0
  C  C27  1  0.43434000  0.49188000  0.79459000  1.0
  C  C28  1  0.56565000  0.49190000  0.20542000  1.0
  C  C29  1  0.44098000  0.48199000  0.98435000  1.0
  C  C30  1  0.55900000  0.48200000  0.01565000  1.0
  C  C31  1  0.56480000  0.48656000  0.11700000  1.0
  N  N32  1  0.17541000  0.50123000  0.48971000  1.0
  N  N33  1  0.82458000  0.50124000  0.51030000  1.0
  O  O34  1  0.60210000  0.67198000  0.51747000  1.0
  O  O35  1  0.39130000  0.33009000  0.51485000  1.0
  O  O36  1  0.39792000  0.67197000  0.48255000  1.0
  O  O37  1  0.60875000  0.33009000  0.48513000  1.0
  O  O38  1  0.64592000  0.51756000  0.35320000  1.0
  O  O39  1  0.35406000  0.51754000  0.64680000  1.0
  O  O40  1  0.43466000  0.48120000  0.35254000  1.0
  O  O41  1  0.56533000  0.48120000  0.64747000  1.0
