# generated using pymatgen
data_Zn2H32C43(NO6)2
_symmetry_space_group_name_H-M   'P 1'
_cell_length_a   13.93110000
_cell_length_b   13.93110000
_cell_length_c   31.12870000
_cell_angle_alpha   84.90970000
_cell_angle_beta   84.90970000
_cell_angle_gamma   88.91810000
_symmetry_Int_Tables_number   1
_chemical_formula_structural   Zn2H32C43(NO6)2
_chemical_formula_sum   'Zn8 H128 C172 N8 O48'
_cell_volume   5993.39170550
_cell_formula_units_Z   4
loop_
 _symmetry_equiv_pos_site_id
 _symmetry_equiv_pos_as_xyz
  1  'x, y, z'
loop_
 _atom_site_type_symbol
 _atom_site_label
 _atom_site_symmetry_multiplicity
 _atom_site_fract_x
 _atom_site_fract_y
 _atom_site_fract_z
 _atom_site_occupancy
  Zn  Zn0  1  0.60497000  0.19467000  0.53068000  1.0
  Zn  Zn1  1  0.80859000  0.19605000  0.51484000  1.0
  Zn  Zn2  1  0.19467000  0.60497000  0.03068000  1.0
  Zn  Zn3  1  0.19605000  0.80859000  0.01484000  1.0
  Zn  Zn4  1  0.80533000  0.39504000  0.96932000  1.0
  Zn  Zn5  1  0.80395000  0.19141000  0.98516000  1.0
  Zn  Zn6  1  0.39504000  0.80533000  0.46932000  1.0
  Zn  Zn7  1  0.19141000  0.80395000  0.48516000  1.0
  H  H8  1  0.83732000  0.68417000  0.71498000  1.0
  H  H9  1  0.80940000  0.78209000  0.74780000  1.0
  H  H10  1  0.55696000  0.81245000  0.67379000  1.0
  H  H11  1  0.56485000  0.94441000  0.61349000  1.0
  H  H12  1  0.87143000  0.95529000  0.61497000  1.0
  H  H13  1  0.86614000  0.82493000  0.67508000  1.0
  H  H14  1  0.81238000  0.56620000  0.82765000  1.0
  H  H15  1  0.89112000  0.57932000  0.77881000  1.0
  H  H16  1  0.94572000  0.54435000  0.85655000  1.0
  H  H17  1  0.03934000  0.55447000  0.92008000  1.0
  H  H18  1  0.01701000  0.86251000  0.90721000  1.0
  H  H19  1  0.92055000  0.85468000  0.84313000  1.0
  H  H20  1  0.69821000  0.75623000  0.81480000  1.0
  H  H21  1  0.60562000  0.70911000  0.78650000  1.0
  H  H22  1  0.54685000  0.79301000  0.84507000  1.0
  H  H23  1  0.41844000  0.82213000  0.90356000  1.0
  H  H24  1  0.45846000  0.53595000  0.96248000  1.0
  H  H25  1  0.58926000  0.50508000  0.90501000  1.0
  H  H26  1  0.64482000  0.57967000  0.73815000  1.0
  H  H27  1  0.68199000  0.50185000  0.78289000  1.0
  H  H28  1  0.90567000  0.44895000  0.67485000  1.0
  H  H29  1  0.87435000  0.35178000  0.61354000  1.0
  H  H30  1  0.57150000  0.36018000  0.65191000  1.0
  H  H31  1  0.60051000  0.45689000  0.71244000  1.0
  H  H32  1  0.47306000  0.12078000  0.47274000  1.0
  H  H33  1  0.29686000  0.12417000  0.46347000  1.0
  H  H34  1  0.25403000  0.26495000  0.58236000  1.0
  H  H35  1  0.43171000  0.25581000  0.58606000  1.0
  H  H36  1  0.95034000  0.32868000  0.54299000  1.0
  H  H37  1  0.12858000  0.33196000  0.54890000  1.0
  H  H38  1  0.15042000  0.06576000  0.48613000  1.0
  H  H39  1  0.97283000  0.07893000  0.48038000  1.0
  H  H40  1  0.68417000  0.83732000  0.21498000  1.0
  H  H41  1  0.78209000  0.80940000  0.24780000  1.0
  H  H42  1  0.81245000  0.55696000  0.17379000  1.0
  H  H43  1  0.94441000  0.56485000  0.11349000  1.0
  H  H44  1  0.95529000  0.87143000  0.11497000  1.0
  H  H45  1  0.82493000  0.86614000  0.17508000  1.0
  H  H46  1  0.56620000  0.81238000  0.32765000  1.0
  H  H47  1  0.57932000  0.89112000  0.27881000  1.0
  H  H48  1  0.54435000  0.94572000  0.35655000  1.0
  H  H49  1  0.55446000  0.03934000  0.42008000  1.0
  H  H50  1  0.86251000  0.01702000  0.40721000  1.0
  H  H51  1  0.85468000  0.92055000  0.34313000  1.0
  H  H52  1  0.75624000  0.69821000  0.31480000  1.0
  H  H53  1  0.70911000  0.60562000  0.28650000  1.0
  H  H54  1  0.79301000  0.54685000  0.34507000  1.0
  H  H55  1  0.82213000  0.41844000  0.40356000  1.0
  H  H56  1  0.53595000  0.45846000  0.46248000  1.0
  H  H57  1  0.50508000  0.58926000  0.40501000  1.0
  H  H58  1  0.57967000  0.64483000  0.23815000  1.0
  H  H59  1  0.50184000  0.68199000  0.28289000  1.0
  H  H60  1  0.44894000  0.90567000  0.17485000  1.0
  H  H61  1  0.35178000  0.87435000  0.11354000  1.0
  H  H62  1  0.36018000  0.57150000  0.15191000  1.0
  H  H63  1  0.45689000  0.60051000  0.21244000  1.0
  H  H64  1  0.12079000  0.47307000  0.97275000  1.0
  H  H65  1  0.12417000  0.29687000  0.96347000  1.0
  H  H66  1  0.26494000  0.25403000  0.08237000  1.0
  H  H67  1  0.25581000  0.43171000  0.08607000  1.0
  H  H68  1  0.32868000  0.95034000  0.04299000  1.0
  H  H69  1  0.33196000  0.12858000  0.04890000  1.0
  H  H70  1  0.06575000  0.15041000  0.98613000  1.0
  H  H71  1  0.07893000  0.97283000  0.98038000  1.0
  H  H72  1  0.31583000  0.16268000  0.78502000  1.0
  H  H73  1  0.21791000  0.19060000  0.75220000  1.0
  H  H74  1  0.18755000  0.44304000  0.82621000  1.0
  H  H75  1  0.05559000  0.43515000  0.88651000  1.0
  H  H76  1  0.04471000  0.12857000  0.88503000  1.0
  H  H77  1  0.17507000  0.13385000  0.82492000  1.0
  H  H78  1  0.43380000  0.18762000  0.67235000  1.0
  H  H79  1  0.42068000  0.10888000  0.72119000  1.0
  H  H80  1  0.45565000  0.05428000  0.64345000  1.0
  H  H81  1  0.44554000  0.96066000  0.57992000  1.0
  H  H82  1  0.13749000  0.98299000  0.59279000  1.0
  H  H83  1  0.14532000  0.07945000  0.65687000  1.0
  H  H84  1  0.24376000  0.30179000  0.68520000  1.0
  H  H85  1  0.29089000  0.39437000  0.71350000  1.0
  H  H86  1  0.20699000  0.45315000  0.65493000  1.0
  H  H87  1  0.17787000  0.58156000  0.59644000  1.0
  H  H88  1  0.46405000  0.54154000  0.53752000  1.0
  H  H89  1  0.49492000  0.41074000  0.59499000  1.0
  H  H90  1  0.42033000  0.35517000  0.76185000  1.0
  H  H91  1  0.49816000  0.31800000  0.71711000  1.0
  H  H92  1  0.55105000  0.09433000  0.82515000  1.0
  H  H93  1  0.64821000  0.12565000  0.88646000  1.0
  H  H94  1  0.63982000  0.42850000  0.84809000  1.0
  H  H95  1  0.54311000  0.39949000  0.78756000  1.0
  H  H96  1  0.87922000  0.52694000  0.02725000  1.0
  H  H97  1  0.87583000  0.70314000  0.03653000  1.0
  H  H98  1  0.73506000  0.74597000  0.91764000  1.0
  H  H99  1  0.74419000  0.56829000  0.91394000  1.0
  H  H100  1  0.67132000  0.04966000  0.95701000  1.0
  H  H101  1  0.66803000  0.87142000  0.95110000  1.0
  H  H102  1  0.93425000  0.84958000  0.01387000  1.0
  H  H103  1  0.92107000  0.02717000  0.01962000  1.0
  H  H104  1  0.16268000  0.31583000  0.28502000  1.0
  H  H105  1  0.19060000  0.21791000  0.25220000  1.0
  H  H106  1  0.44304000  0.18755000  0.32621000  1.0
  H  H107  1  0.43515000  0.05559000  0.38651000  1.0
  H  H108  1  0.12857000  0.04471000  0.38503000  1.0
  H  H109  1  0.13385000  0.17507000  0.32492000  1.0
  H  H110  1  0.18763000  0.43380000  0.17235000  1.0
  H  H111  1  0.10888000  0.42068000  0.22119000  1.0
  H  H112  1  0.05428000  0.45565000  0.14345000  1.0
  H  H113  1  0.96066000  0.44554000  0.07992000  1.0
  H  H114  1  0.98299000  0.13750000  0.09279000  1.0
  H  H115  1  0.07945000  0.14532000  0.15687000  1.0
  H  H116  1  0.30179000  0.24376000  0.18520000  1.0
  H  H117  1  0.39438000  0.29089000  0.21350000  1.0
  H  H118  1  0.45315000  0.20699000  0.15493000  1.0
  H  H119  1  0.58156000  0.17787000  0.09644000  1.0
  H  H120  1  0.54154000  0.46405000  0.03752000  1.0
  H  H121  1  0.41074000  0.49492000  0.09499000  1.0
  H  H122  1  0.35518000  0.42033000  0.26185000  1.0
  H  H123  1  0.31801000  0.49816000  0.21711000  1.0
  H  H124  1  0.09433000  0.55105000  0.32515000  1.0
  H  H125  1  0.12565000  0.64822000  0.38645000  1.0
  H  H126  1  0.42850000  0.63982000  0.34809000  1.0
  H  H127  1  0.39949000  0.54311000  0.28756000  1.0
  H  H128  1  0.52693000  0.87921000  0.52725000  1.0
  H  H129  1  0.70314000  0.87583000  0.53653000  1.0
  H  H130  1  0.74597000  0.73506000  0.41763000  1.0
  H  H131  1  0.56829000  0.74419000  0.41393000  1.0
  H  H132  1  0.04966000  0.67132000  0.45701000  1.0
  H  H133  1  0.87143000  0.66803000  0.45110000  1.0
  H  H134  1  0.84959000  0.93425000  0.51387000  1.0
  H  H135  1  0.02717000  0.92108000  0.51962000  1.0
  C  C136  1  0.74794000  0.64410000  0.77391000  1.0
  C  C137  1  0.78055000  0.71731000  0.73598000  1.0
  C  C138  1  0.71040000  0.81191000  0.67854000  1.0
  C  C139  1  0.62542000  0.84427000  0.66062000  1.0
  C  C140  1  0.62998000  0.91706000  0.62726000  1.0
  C  C141  1  0.71829000  0.95845000  0.61075000  1.0
  C  C142  1  0.80284000  0.92358000  0.62801000  1.0
  C  C143  1  0.79970000  0.85066000  0.66184000  1.0
  C  C144  1  0.71961000  0.04063000  0.57645000  1.0
  C  C145  1  0.83527000  0.61539000  0.79914000  1.0
  C  C146  1  0.92718000  0.69973000  0.84612000  1.0
  C  C147  1  0.96118000  0.61442000  0.86712000  1.0
  C  C148  1  0.01424000  0.62008000  0.90269000  1.0
  C  C149  1  0.03470000  0.70869000  0.91741000  1.0
  C  C150  1  0.00105000  0.79360000  0.89559000  1.0
  C  C151  1  0.94789000  0.78952000  0.86021000  1.0
  C  C152  1  0.09110000  0.71277000  0.95580000  1.0
  C  C153  1  0.66986000  0.69010000  0.80382000  1.0
  C  C154  1  0.57512000  0.64634000  0.87116000  1.0
  C  C155  1  0.52861000  0.73654000  0.87081000  1.0
  C  C156  1  0.45661000  0.75308000  0.90362000  1.0
  C  C157  1  0.43032000  0.68100000  0.93650000  1.0
  C  C158  1  0.47905000  0.59174000  0.93673000  1.0
  C  C159  1  0.55112000  0.57420000  0.90464000  1.0
  C  C160  1  0.34852000  0.69580000  0.96984000  1.0
  C  C161  1  0.70633000  0.55566000  0.75640000  1.0
  C  C162  1  0.75548000  0.46007000  0.69698000  1.0
  C  C163  1  0.83274000  0.42929000  0.66922000  1.0
  C  C164  1  0.81512000  0.37581000  0.63537000  1.0
  C  C165  1  0.72081000  0.35093000  0.62835000  1.0
  C  C166  1  0.64471000  0.38023000  0.65677000  1.0
  C  C167  1  0.66109000  0.43467000  0.69091000  1.0
  C  C168  1  0.70429000  0.29503000  0.59084000  1.0
  C  C169  1  0.42106000  0.15152000  0.49608000  1.0
  C  C170  1  0.32296000  0.15342000  0.49149000  1.0
  C  C171  1  0.25967000  0.19504000  0.52232000  1.0
  C  C172  1  0.29937000  0.23295000  0.55697000  1.0
  C  C173  1  0.39831000  0.22772000  0.55951000  1.0
  C  C174  1  0.99849000  0.27297000  0.53056000  1.0
  C  C175  1  0.09710000  0.27316000  0.53420000  1.0
  C  C176  1  0.15503000  0.19840000  0.51829000  1.0
  C  C177  1  0.10999000  0.12689000  0.49836000  1.0
  C  C178  1  0.01106000  0.13252000  0.49565000  1.0
  C  C179  1  0.64410000  0.74794000  0.27391000  1.0
  C  C180  1  0.71731000  0.78055000  0.23598000  1.0
  C  C181  1  0.81191000  0.71040000  0.17854000  1.0
  C  C182  1  0.84428000  0.62542000  0.16062000  1.0
  C  C183  1  0.91706000  0.62998000  0.12726000  1.0
  C  C184  1  0.95845000  0.71829000  0.11075000  1.0
  C  C185  1  0.92358000  0.80284000  0.12801000  1.0
  C  C186  1  0.85066000  0.79970000  0.16184000  1.0
  C  C187  1  0.04063000  0.71961000  0.07645000  1.0
  C  C188  1  0.61540000  0.83527000  0.29914000  1.0
  C  C189  1  0.69973000  0.92718000  0.34612000  1.0
  C  C190  1  0.61442000  0.96118000  0.36712000  1.0
  C  C191  1  0.62008000  0.01424000  0.40268000  1.0
  C  C192  1  0.70869000  0.03471000  0.41741000  1.0
  C  C193  1  0.79360000  0.00106000  0.39559000  1.0
  C  C194  1  0.78952000  0.94789000  0.36021000  1.0
  C  C195  1  0.71277000  0.09110000  0.45580000  1.0
  C  C196  1  0.69010000  0.66986000  0.30382000  1.0
  C  C197  1  0.64635000  0.57512000  0.37116000  1.0
  C  C198  1  0.73654000  0.52861000  0.37081000  1.0
  C  C199  1  0.75308000  0.45661000  0.40361000  1.0
  C  C200  1  0.68100000  0.43032000  0.43650000  1.0
  C  C201  1  0.59174000  0.47905000  0.43673000  1.0
  C  C202  1  0.57421000  0.55111000  0.40464000  1.0
  C  C203  1  0.69580000  0.34851000  0.46984000  1.0
  C  C204  1  0.55567000  0.70633000  0.25640000  1.0
  C  C205  1  0.46006000  0.75549000  0.19698000  1.0
  C  C206  1  0.42929000  0.83274000  0.16922000  1.0
  C  C207  1  0.37580000  0.81511000  0.13537000  1.0
  C  C208  1  0.35093000  0.72081000  0.12835000  1.0
  C  C209  1  0.38023000  0.64471000  0.15678000  1.0
  C  C210  1  0.43466000  0.66109000  0.19091000  1.0
  C  C211  1  0.29503000  0.70429000  0.09084000  1.0
  C  C212  1  0.15152000  0.42106000  0.99609000  1.0
  C  C213  1  0.15342000  0.32296000  0.99149000  1.0
  C  C214  1  0.19504000  0.25967000  0.02232000  1.0
  C  C215  1  0.23294000  0.29937000  0.05697000  1.0
  C  C216  1  0.22771000  0.39831000  0.05951000  1.0
  C  C217  1  0.27297000  0.99849000  0.03056000  1.0
  C  C218  1  0.27316000  0.09710000  0.03420000  1.0
  C  C219  1  0.19840000  0.15503000  0.01829000  1.0
  C  C220  1  0.12689000  0.10999000  0.99836000  1.0
  C  C221  1  0.13252000  0.01106000  0.99565000  1.0
  C  C222  1  0.35590000  0.25206000  0.72609000  1.0
  C  C223  1  0.28269000  0.21944000  0.76402000  1.0
  C  C224  1  0.18809000  0.28960000  0.82147000  1.0
  C  C225  1  0.15573000  0.37458000  0.83938000  1.0
  C  C226  1  0.08295000  0.37001000  0.87274000  1.0
  C  C227  1  0.04155000  0.28170000  0.88925000  1.0
  C  C228  1  0.07642000  0.19716000  0.87200000  1.0
  C  C229  1  0.14934000  0.20030000  0.83816000  1.0
  C  C230  1  0.95937000  0.28039000  0.92355000  1.0
  C  C231  1  0.38460000  0.16473000  0.70086000  1.0
  C  C232  1  0.30027000  0.07282000  0.65388000  1.0
  C  C233  1  0.38558000  0.03882000  0.63288000  1.0
  C  C234  1  0.37992000  0.98577000  0.59731000  1.0
  C  C235  1  0.29131000  0.96530000  0.58258000  1.0
  C  C236  1  0.20640000  0.99895000  0.60441000  1.0
  C  C237  1  0.21048000  0.05211000  0.63979000  1.0
  C  C238  1  0.28723000  0.90890000  0.54420000  1.0
  C  C239  1  0.30990000  0.33014000  0.69618000  1.0
  C  C240  1  0.35365000  0.42488000  0.62884000  1.0
  C  C241  1  0.26346000  0.47139000  0.62919000  1.0
  C  C242  1  0.24692000  0.54339000  0.59638000  1.0
  C  C243  1  0.31900000  0.56968000  0.56350000  1.0
  C  C244  1  0.40827000  0.52095000  0.56326000  1.0
  C  C245  1  0.42579000  0.44888000  0.59536000  1.0
  C  C246  1  0.30420000  0.65148000  0.53016000  1.0
  C  C247  1  0.44434000  0.29367000  0.74360000  1.0
  C  C248  1  0.53993000  0.24452000  0.80303000  1.0
  C  C249  1  0.57070000  0.16726000  0.83078000  1.0
  C  C250  1  0.62419000  0.18489000  0.86463000  1.0
  C  C251  1  0.64906000  0.27919000  0.87166000  1.0
  C  C252  1  0.61977000  0.35529000  0.84323000  1.0
  C  C253  1  0.56533000  0.33891000  0.80909000  1.0
  C  C254  1  0.70497000  0.29571000  0.90917000  1.0
  C  C255  1  0.84849000  0.57894000  0.00391000  1.0
  C  C256  1  0.84659000  0.67704000  0.00851000  1.0
  C  C257  1  0.80496000  0.74033000  0.97768000  1.0
  C  C258  1  0.76706000  0.70063000  0.94303000  1.0
  C  C259  1  0.77228000  0.60169000  0.94049000  1.0
  C  C260  1  0.72703000  0.00151000  0.96944000  1.0
  C  C261  1  0.72684000  0.90290000  0.96580000  1.0
  C  C262  1  0.80160000  0.84497000  0.98171000  1.0
  C  C263  1  0.87311000  0.89001000  0.00164000  1.0
  C  C264  1  0.86748000  0.98894000  0.00435000  1.0
  C  C265  1  0.25206000  0.35590000  0.22609000  1.0
  C  C266  1  0.21945000  0.28269000  0.26403000  1.0
  C  C267  1  0.28960000  0.18809000  0.32147000  1.0
  C  C268  1  0.37458000  0.15573000  0.33938000  1.0
  C  C269  1  0.37002000  0.08295000  0.37274000  1.0
  C  C270  1  0.28171000  0.04155000  0.38925000  1.0
  C  C271  1  0.19716000  0.07642000  0.37200000  1.0
  C  C272  1  0.20030000  0.14934000  0.33816000  1.0
  C  C273  1  0.28040000  0.95937000  0.42355000  1.0
  C  C274  1  0.16473000  0.38461000  0.20086000  1.0
  C  C275  1  0.07282000  0.30027000  0.15388000  1.0
  C  C276  1  0.03883000  0.38558000  0.13288000  1.0
  C  C277  1  0.98577000  0.37992000  0.09731000  1.0
  C  C278  1  0.96530000  0.29131000  0.08259000  1.0
  C  C279  1  0.99895000  0.20640000  0.10441000  1.0
  C  C280  1  0.05211000  0.21048000  0.13979000  1.0
  C  C281  1  0.90891000  0.28724000  0.04420000  1.0
  C  C282  1  0.33014000  0.30990000  0.19618000  1.0
  C  C283  1  0.42488000  0.35365000  0.12884000  1.0
  C  C284  1  0.47139000  0.26345000  0.12919000  1.0
  C  C285  1  0.54339000  0.24692000  0.09638000  1.0
  C  C286  1  0.56968000  0.31900000  0.06350000  1.0
  C  C287  1  0.52095000  0.40826000  0.06327000  1.0
  C  C288  1  0.44888000  0.42579000  0.09536000  1.0
  C  C289  1  0.65148000  0.30420000  0.03016000  1.0
  C  C290  1  0.29367000  0.44433000  0.24360000  1.0
  C  C291  1  0.24452000  0.53993000  0.30302000  1.0
  C  C292  1  0.16727000  0.57071000  0.33078000  1.0
  C  C293  1  0.18489000  0.62419000  0.36463000  1.0
  C  C294  1  0.27919000  0.64906000  0.37165000  1.0
  C  C295  1  0.35529000  0.61977000  0.34322000  1.0
  C  C296  1  0.33891000  0.56533000  0.30909000  1.0
  C  C297  1  0.29572000  0.70497000  0.40916000  1.0
  C  C298  1  0.57894000  0.84848000  0.50391000  1.0
  C  C299  1  0.67704000  0.84658000  0.50851000  1.0
  C  C300  1  0.74033000  0.80496000  0.47768000  1.0
  C  C301  1  0.70063000  0.76706000  0.44303000  1.0
  C  C302  1  0.60169000  0.77228000  0.44049000  1.0
  C  C303  1  0.00151000  0.72703000  0.46944000  1.0
  C  C304  1  0.90290000  0.72684000  0.46580000  1.0
  C  C305  1  0.84497000  0.80160000  0.48171000  1.0
  C  C306  1  0.89001000  0.87311000  0.50163000  1.0
  C  C307  1  0.98894000  0.86748000  0.50435000  1.0
  N  N308  1  0.45834000  0.18821000  0.52952000  1.0
  N  N309  1  0.95601000  0.20353000  0.51184000  1.0
  N  N310  1  0.18821000  0.45834000  0.02952000  1.0
  N  N311  1  0.20353000  0.95601000  0.01184000  1.0
  N  N312  1  0.81179000  0.54166000  0.97048000  1.0
  N  N313  1  0.79647000  0.04399000  0.98816000  1.0
  N  N314  1  0.54166000  0.81178000  0.47048000  1.0
  N  N315  1  0.04399000  0.79647000  0.48816000  1.0
  O  O316  1  0.69858000  0.74273000  0.71248000  1.0
  O  O317  1  0.63751000  0.06862000  0.56430000  1.0
  O  O318  1  0.80066000  0.07647000  0.56192000  1.0
  O  O319  1  0.87180000  0.70328000  0.81193000  1.0
  O  O320  1  0.12635000  0.63435000  0.97209000  1.0
  O  O321  1  0.10000000  0.79564000  0.96968000  1.0
  O  O322  1  0.64552000  0.62169000  0.84019000  1.0
  O  O323  1  0.30866000  0.77894000  0.96986000  1.0
  O  O324  1  0.32367000  0.62223000  0.99553000  1.0
  O  O325  1  0.78057000  0.51460000  0.72857000  1.0
  O  O326  1  0.77832000  0.28159000  0.56467000  1.0
  O  O327  1  0.61961000  0.26518000  0.58721000  1.0
  O  O328  1  0.74273000  0.69858000  0.21248000  1.0
  O  O329  1  0.06862000  0.63751000  0.06430000  1.0
  O  O330  1  0.07647000  0.80066000  0.06192000  1.0
  O  O331  1  0.70328000  0.87180000  0.31193000  1.0
  O  O332  1  0.63434000  0.12635000  0.47209000  1.0
  O  O333  1  0.79563000  0.10000000  0.46968000  1.0
  O  O334  1  0.62169000  0.64552000  0.34019000  1.0
  O  O335  1  0.77894000  0.30866000  0.46986000  1.0
  O  O336  1  0.62223000  0.32366000  0.49552000  1.0
  O  O337  1  0.51460000  0.78057000  0.22857000  1.0
  O  O338  1  0.28159000  0.77832000  0.06467000  1.0
  O  O339  1  0.26519000  0.61960000  0.08721000  1.0
  O  O340  1  0.25727000  0.30141000  0.78753000  1.0
  O  O341  1  0.93138000  0.36248000  0.93571000  1.0
  O  O342  1  0.92352000  0.19934000  0.93808000  1.0
  O  O343  1  0.29672000  0.12820000  0.68807000  1.0
  O  O344  1  0.36565000  0.87366000  0.52790000  1.0
  O  O345  1  0.20437000  0.90000000  0.53032000  1.0
  O  O346  1  0.37831000  0.35448000  0.65981000  1.0
  O  O347  1  0.22106000  0.69134000  0.53015000  1.0
  O  O348  1  0.37777000  0.67633000  0.50447000  1.0
  O  O349  1  0.48540000  0.21943000  0.77143000  1.0
  O  O350  1  0.71841000  0.22168000  0.93533000  1.0
  O  O351  1  0.73482000  0.38039000  0.91279000  1.0
  O  O352  1  0.30142000  0.25728000  0.28753000  1.0
  O  O353  1  0.36249000  0.93138000  0.43570000  1.0
  O  O354  1  0.19934000  0.92353000  0.43808000  1.0
  O  O355  1  0.12820000  0.29672000  0.18807000  1.0
  O  O356  1  0.87366000  0.36566000  0.02791000  1.0
  O  O357  1  0.90000000  0.20437000  0.03032000  1.0
  O  O358  1  0.35448000  0.37831000  0.15981000  1.0
  O  O359  1  0.69134000  0.22106000  0.03015000  1.0
  O  O360  1  0.67633000  0.37777000  0.00448000  1.0
  O  O361  1  0.21943000  0.48540000  0.27143000  1.0
  O  O362  1  0.22168000  0.71841000  0.43533000  1.0
  O  O363  1  0.38040000  0.73482000  0.41279000  1.0
