# generated using pymatgen
data_CuH15C27N4O4F
_symmetry_space_group_name_H-M   'P 1'
_cell_length_a   9.69191000
_cell_length_b   10.86400000
_cell_length_c   11.81952700
_cell_angle_alpha   117.08969231
_cell_angle_beta   100.58829858
_cell_angle_gamma   100.11410000
_symmetry_Int_Tables_number   1
_chemical_formula_structural   CuH15C27N4O4F
_chemical_formula_sum   'Cu2 H30 C54 N8 O8 F2'
_cell_volume   1040.21657191
_cell_formula_units_Z   2
loop_
 _symmetry_equiv_pos_site_id
 _symmetry_equiv_pos_as_xyz
  1  'x, y, z'
loop_
 _atom_site_type_symbol
 _atom_site_label
 _atom_site_symmetry_multiplicity
 _atom_site_fract_x
 _atom_site_fract_y
 _atom_site_fract_z
 _atom_site_occupancy
  Cu  Cu0  1  0.51565000  0.02497000  0.15665000  1.0
  Cu  Cu1  1  0.48435000  0.97504000  0.84336000  1.0
  H  H2  1  0.49033000  0.32969000  0.33177000  1.0
  H  H3  1  0.50966000  0.67031000  0.66823000  1.0
  H  H4  1  0.29612000  0.41975000  0.43476000  1.0
  H  H5  1  0.70387000  0.58025000  0.56524000  1.0
  H  H6  1  0.08354000  0.24196000  0.42083000  1.0
  H  H7  1  0.91646000  0.75804000  0.57917000  1.0
  H  H8  1  0.48096000  0.69498000  0.02131000  1.0
  H  H9  1  0.51903000  0.30502000  0.97868000  1.0
  H  H10  1  0.29789000  0.48232000  0.00278000  1.0
  H  H11  1  0.70211000  0.51768000  0.99721000  1.0
  H  H12  1  0.09393000  0.52666000  0.10319000  1.0
  H  H13  1  0.90607000  0.47333000  0.89680000  1.0
  H  H14  1  0.69244000  0.96631000  0.43446000  1.0
  H  H15  1  0.30756000  0.03367000  0.56553000  1.0
  H  H16  1  0.45623000  0.87248000  0.46608000  1.0
  H  H17  1  0.54377000  0.12751000  0.53391000  1.0
  H  H18  1  0.45805000  0.43541000  0.21992000  1.0
  H  H19  1  0.54194000  0.56458000  0.78007000  1.0
  H  H20  1  0.70292000  0.52814000  0.20151000  1.0
  H  H21  1  0.29708000  0.47184000  0.79848000  1.0
  H  H22  1  0.86487000  0.42358000  0.26717000  1.0
  H  H23  1  0.13514000  0.57642000  0.73285000  1.0
  H  H24  1  0.92937000  0.34751000  0.59778000  1.0
  H  H25  1  0.07063000  0.65249000  0.40223000  1.0
  H  H26  1  0.84484000  0.15609000  0.09473000  1.0
  H  H27  1  0.15516000  0.84391000  0.90527000  1.0
  H  H28  1  0.91027000  0.73627000  0.91794000  1.0
  H  H29  1  0.08973000  0.26373000  0.08206000  1.0
  H  H30  1  0.87180000  0.02390000  0.36147000  1.0
  H  H31  1  0.12820000  0.97609000  0.63853000  1.0
  C  C32  1  0.39370000  0.25614000  0.32601000  1.0
  C  C33  1  0.60630000  0.74387000  0.67400000  1.0
  C  C34  1  0.28572000  0.30471000  0.38384000  1.0
  C  C35  1  0.71427000  0.69529000  0.61616000  1.0
  C  C36  1  0.16709000  0.20555000  0.37504000  1.0
  C  C37  1  0.83291000  0.79444000  0.62495000  1.0
  C  C38  1  0.15658000  0.05724000  0.30814000  1.0
  C  C39  1  0.84342000  0.94276000  0.69186000  1.0
  C  C40  1  0.27000000  0.01679000  0.25169000  1.0
  C  C41  1  0.72999000  0.98321000  0.74831000  1.0
  C  C42  1  0.27078000  0.86861000  0.18270000  1.0
  C  C43  1  0.72922000  0.13139000  0.81730000  1.0
  C  C44  1  0.38894000  0.70758000  0.06279000  1.0
  C  C45  1  0.61106000  0.29241000  0.93720000  1.0
  C  C46  1  0.28717000  0.59100000  0.05335000  1.0
  C  C47  1  0.71283000  0.40900000  0.94664000  1.0
  C  C48  1  0.17388000  0.61501000  0.10898000  1.0
  C  C49  1  0.82612000  0.38499000  0.89102000  1.0
  C  C50  1  0.16253000  0.75649000  0.17527000  1.0
  C  C51  1  0.83747000  0.24351000  0.82473000  1.0
  C  C52  1  0.04890000  0.79735000  0.23351000  1.0
  C  C53  1  0.95111000  0.20265000  0.76649000  1.0
  C  C54  1  0.04510000  0.94177000  0.29319000  1.0
  C  C55  1  0.95490000  0.05824000  0.70681000  1.0
  C  C56  1  0.85329000  0.79957000  0.29546000  1.0
  C  C57  1  0.14671000  0.20043000  0.70454000  1.0
  C  C58  1  0.71461000  0.75252000  0.31625000  1.0
  C  C59  1  0.28539000  0.24746000  0.68374000  1.0
  C  C60  1  0.64420000  0.85014000  0.39005000  1.0
  C  C61  1  0.35581000  0.14985000  0.60995000  1.0
  C  C62  1  0.51164000  0.79949000  0.40708000  1.0
  C  C63  1  0.48836000  0.20050000  0.59291000  1.0
  C  C64  1  0.44990000  0.65097000  0.34763000  1.0
  C  C65  1  0.55010000  0.34902000  0.65236000  1.0
  C  C66  1  0.51416000  0.55096000  0.27158000  1.0
  C  C67  1  0.48583000  0.44902000  0.72841000  1.0
  C  C68  1  0.64813000  0.60313000  0.25838000  1.0
  C  C69  1  0.35187000  0.39686000  0.74161000  1.0
  C  C70  1  0.76239000  0.23188000  0.34331000  1.0
  C  C71  1  0.23762000  0.76813000  0.65671000  1.0
  C  C72  1  0.88386000  0.37142000  0.42412000  1.0
  C  C73  1  0.11615000  0.62858000  0.57589000  1.0
  C  C74  1  0.92411000  0.45757000  0.36923000  1.0
  C  C75  1  0.07590000  0.54243000  0.63079000  1.0
  C  C76  1  0.96035000  0.41468000  0.55540000  1.0
  C  C77  1  0.03966000  0.58533000  0.44462000  1.0
  C  C78  1  0.71794000  0.87541000  0.01668000  1.0
  C  C79  1  0.28206000  0.12459000  0.98331000  1.0
  C  C80  1  0.86328000  0.93990000  0.00715000  1.0
  C  C81  1  0.13673000  0.06011000  0.99285000  1.0
  C  C82  1  0.91389000  0.08878000  0.05341000  1.0
  C  C83  1  0.08611000  0.91122000  0.94658000  1.0
  C  C84  1  0.95070000  0.85173000  0.95369000  1.0
  C  C85  1  0.04931000  0.14827000  0.04631000  1.0
  N  N86  1  0.38472000  0.11609000  0.26130000  1.0
  N  N87  1  0.61527000  0.88391000  0.73870000  1.0
  N  N88  1  0.38063000  0.84267000  0.12630000  1.0
  N  N89  1  0.61937000  0.15733000  0.87370000  1.0
  N  N90  1  0.93037000  0.71104000  0.23715000  1.0
  N  N91  1  0.06963000  0.28896000  0.76285000  1.0
  N  N92  1  0.92011000  0.94055000  0.33204000  1.0
  N  N93  1  0.07989000  0.05945000  0.66796000  1.0
  O  O94  1  0.75956000  0.13292000  0.37216000  1.0
  O  O95  1  0.24045000  0.86708000  0.62785000  1.0
  O  O96  1  0.66451000  0.22068000  0.24642000  1.0
  O  O97  1  0.33549000  0.77933000  0.75360000  1.0
  O  O98  1  0.62903000  0.95558000  0.03172000  1.0
  O  O99  1  0.37097000  0.04443000  0.96828000  1.0
  O  O100  1  0.69114000  0.75461000  0.00861000  1.0
  O  O101  1  0.30885000  0.24540000  0.99138000  1.0
  F  F102  1  0.31913000  0.60106000  0.36335000  1.0
  F  F103  1  0.68086000  0.39892000  0.63663000  1.0
