# generated using pymatgen
data_ZnH6C10N4O5
_symmetry_space_group_name_H-M   'P 1'
_cell_length_a   7.33711000
_cell_length_b   8.04363000
_cell_length_c   9.65970000
_cell_angle_alpha   112.56300000
_cell_angle_beta   104.94200000
_cell_angle_gamma   94.33490000
_symmetry_Int_Tables_number   1
_chemical_formula_structural   ZnH6C10N4O5
_chemical_formula_sum   'Zn2 H12 C20 N8 O10'
_cell_volume   498.82527664
_cell_formula_units_Z   2
loop_
 _symmetry_equiv_pos_site_id
 _symmetry_equiv_pos_as_xyz
  1  'x, y, z'
loop_
 _atom_site_type_symbol
 _atom_site_label
 _atom_site_symmetry_multiplicity
 _atom_site_fract_x
 _atom_site_fract_y
 _atom_site_fract_z
 _atom_site_occupancy
  Zn  Zn0  1  0.44643000  0.65310000  0.89542000  1.0
  Zn  Zn1  1  0.55357000  0.34690000  0.10459000  1.0
  H  H2  1  0.81547000  0.71997000  0.49203000  1.0
  H  H3  1  0.18453000  0.28002000  0.50797000  1.0
  H  H4  1  0.66323000  0.08728000  0.78492000  1.0
  H  H5  1  0.33677000  0.91271000  0.21508000  1.0
  H  H6  1  0.14556000  0.41932000  0.33333333  1.0
  H  H7  1  0.85443000  0.58068000  0.66666667  1.0
  H  H8  1  0.77336000  0.92406000  0.98037000  1.0
  H  H9  1  0.22664000  0.07595000  0.01963000  1.0
  H  H10  1  0.19035000  0.65442000  0.04728000  1.0
  H  H11  1  0.80965000  0.34558000  0.95271000  1.0
  H  H12  1  0.11095000  0.73305000  0.91078000  1.0
  H  H13  1  0.88904000  0.26695000  0.08922000  1.0
  C  C14  1  0.86590000  0.87082000  0.35983000  1.0
  C  C15  1  0.13410000  0.12917000  0.64017000  1.0
  C  C16  1  0.71763000  0.74349000  0.21426000  1.0
  C  C17  1  0.28236000  0.25651000  0.78574000  1.0
  C  C18  1  0.89726000  0.84236000  0.49722000  1.0
  C  C19  1  0.10275000  0.15763000  0.50278000  1.0
  C  C20  1  0.97000000  0.02855000  0.36240000  1.0
  C  C21  1  0.03001000  0.97144000  0.63760000  1.0
  C  C22  1  0.93885000  0.05018000  0.21490000  1.0
  C  C23  1  0.06116000  0.94983000  0.78510000  1.0
  C  C24  1  0.59350000  0.04928000  0.66024000  1.0
  C  C25  1  0.40650000  0.95071000  0.33976000  1.0
  C  C26  1  0.42509000  0.75578000  0.63945000  1.0
  C  C27  1  0.57491000  0.24422000  0.36055000  1.0
  C  C28  1  0.24454000  0.65154000  0.31374000  1.0
  C  C29  1  0.75545000  0.34846000  0.68626000  1.0
  C  C30  1  0.46672000  0.88068000  0.56976000  1.0
  C  C31  1  0.53327000  0.11932000  0.43024000  1.0
  C  C32  1  0.37300000  0.83078000  0.40728000  1.0
  C  C33  1  0.62699000  0.16922000  0.59272000  1.0
  N  N34  1  0.22523000  0.55113000  0.39615000  1.0
  N  N35  1  0.77477000  0.44887000  0.60385000  1.0
  N  N36  1  0.30612000  0.59615000  0.55308000  1.0
  N  N37  1  0.69388000  0.40386000  0.44692000  1.0
  N  N38  1  0.68955000  0.77290000  0.08446000  1.0
  N  N39  1  0.31045000  0.22710000  0.91554000  1.0
  N  N40  1  0.80410000  0.91813000  0.08801000  1.0
  N  N41  1  0.19590000  0.08187000  0.91200000  1.0
  O  O42  1  0.50553000  0.80584000  0.79117000  1.0
  O  O43  1  0.49448000  0.19416000  0.20883000  1.0
  O  O44  1  0.15376000  0.58609000  0.16774000  1.0
  O  O45  1  0.84624000  0.41391000  0.83226000  1.0
  O  O46  1  0.60665000  0.61264000  0.21459000  1.0
  O  O47  1  0.39334000  0.38736000  0.78541000  1.0
  O  O48  1  0.03094000  0.18013000  0.20147000  1.0
  O  O49  1  0.96906000  0.81987000  0.79854000  1.0
  O  O50  1  0.22670000  0.71062000  0.97665000  1.0
  O  O51  1  0.77329000  0.28938000  0.02335000  1.0
