# generated using pymatgen
data_ZnH12C26S2N2O15
_symmetry_space_group_name_H-M   'P 1'
_cell_length_a   14.66200000
_cell_length_b   15.93290000
_cell_length_c   23.61280000
_cell_angle_alpha   88.31330000
_cell_angle_beta   88.47950000
_cell_angle_gamma   88.24710000
_symmetry_Int_Tables_number   1
_chemical_formula_structural   ZnH12C26S2N2O15
_chemical_formula_sum   'Zn2 H24 C52 S4 N4 O30'
_cell_volume   5509.35869373
_cell_formula_units_Z   2
loop_
 _symmetry_equiv_pos_site_id
 _symmetry_equiv_pos_as_xyz
  1  'x, y, z'
loop_
 _atom_site_type_symbol
 _atom_site_label
 _atom_site_symmetry_multiplicity
 _atom_site_fract_x
 _atom_site_fract_y
 _atom_site_fract_z
 _atom_site_occupancy
  Zn  Zn0  1  0.40485000  0.49543000  0.50961000  1.0
  Zn  Zn1  1  0.59710000  0.49144000  0.49625000  1.0
  H  H2  1  0.31592000  0.57098000  0.05341000  1.0
  H  H3  1  0.73648000  0.38415000  0.94675000  1.0
  H  H4  1  0.05346000  0.64445000  0.47548000  1.0
  H  H5  1  0.94873000  0.35877000  0.52014000  1.0
  H  H6  1  0.07139000  0.40315000  0.42969000  1.0
  H  H7  1  0.93126000  0.60036000  0.56586000  1.0
  H  H8  1  0.32214000  0.57819000  0.94597000  1.0
  H  H9  1  0.72975000  0.37585000  0.05382000  1.0
  H  H10  1  0.49580000  0.37522000  0.67927000  1.0
  H  H11  1  0.59969000  0.55315000  0.32345000  1.0
  H  H12  1  0.42442000  0.06714000  0.42274000  1.0
  H  H13  1  0.58161000  0.92125000  0.58010000  1.0
  H  H14  1  0.66195000  0.04031000  0.50334000  1.0
  H  H15  1  0.34435000  0.94847000  0.49968000  1.0
  H  H16  1  0.98885000  0.55130000  0.36428000  1.0
  H  H17  1  0.01463000  0.44829000  0.63112000  1.0
  H  H18  1  0.48883000  0.30998000  0.76787000  1.0
  H  H19  1  0.65132000  0.60270000  0.23579000  1.0
  H  H20  1  0.43993000  0.64978000  0.58661000  1.0
  H  H21  1  0.33636000  0.48101000  0.38794000  1.0
  H  H22  1  0.49169000  0.74334000  0.77111000  1.0
  H  H23  1  0.27134000  0.34332000  0.22979000  1.0
  H  H24  1  0.60256000  0.99701000  0.37823000  1.0
  H  H25  1  0.40119000  0.99183000  0.62385000  1.0
  C  C26  1  0.50540000  0.65500000  0.49171000  1.0
  C  C27  1  0.50382000  0.33432000  0.51033000  1.0
  C  C28  1  0.51684000  0.42662000  0.76145000  1.0
  C  C29  1  0.56215000  0.51716000  0.23992000  1.0
  C  C30  1  0.51019000  0.43105000  0.70283000  1.0
  C  C31  1  0.55468000  0.51598000  0.29876000  1.0
  C  C32  1  0.51680000  0.50794000  0.67367000  1.0
  C  C33  1  0.48718000  0.46999000  0.32722000  1.0
  C  C34  1  0.53238000  0.58192000  0.70240000  1.0
  C  C35  1  0.42942000  0.41950000  0.29663000  1.0
  C  C36  1  0.54865000  0.57600000  0.76122000  1.0
  C  C37  1  0.44684000  0.41051000  0.23791000  1.0
  C  C38  1  0.53747000  0.49907000  0.79058000  1.0
  C  C39  1  0.50938000  0.46281000  0.20944000  1.0
  C  C40  1  0.45885000  0.03382000  0.45763000  1.0
  C  C41  1  0.54746000  0.95502000  0.54530000  1.0
  C  C42  1  0.54641000  0.97505000  0.45200000  1.0
  C  C43  1  0.45993000  0.01382000  0.55086000  1.0
  C  C44  1  0.50410000  0.74466000  0.48874000  1.0
  C  C45  1  0.50400000  0.24423000  0.51341000  1.0
  C  C46  1  0.41457000  0.96953000  0.50042000  1.0
  C  C47  1  0.59172000  0.01931000  0.50253000  1.0
  C  C48  1  0.50756000  0.50404000  0.61048000  1.0
  C  C49  1  0.48855000  0.47877000  0.39094000  1.0
  C  C50  1  0.50183000  0.90905000  0.49492000  1.0
  C  C51  1  0.50454000  0.07978000  0.50773000  1.0
  C  C52  1  0.50274000  0.82106000  0.49050000  1.0
  C  C53  1  0.50419000  0.16788000  0.51239000  1.0
  C  C54  1  0.02928000  0.58143000  0.48549000  1.0
  C  C55  1  0.97309000  0.42174000  0.51018000  1.0
  C  C56  1  0.97569000  0.52476000  0.44471000  1.0
  C  C57  1  0.02664000  0.47834000  0.55099000  1.0
  C  C58  1  0.96308000  0.55693000  0.53577000  1.0
  C  C59  1  0.03930000  0.44629000  0.45989000  1.0
  C  C60  1  0.90844000  0.50018000  0.49562000  1.0
  C  C61  1  0.09389000  0.50303000  0.50009000  1.0
  C  C62  1  0.81260000  0.49803000  0.49264000  1.0
  C  C63  1  0.18960000  0.50412000  0.50413000  1.0
  C  C64  1  0.59608000  0.43281000  0.12260000  1.0
  C  C65  1  0.45590000  0.52351000  0.87813000  1.0
  C  C66  1  0.44140000  0.50647000  0.12168000  1.0
  C  C67  1  0.61165000  0.45222000  0.87763000  1.0
  C  C68  1  0.44708000  0.50987000  0.05921000  1.0
  C  C69  1  0.60613000  0.44684000  0.94041000  1.0
  C  C70  1  0.52491000  0.47610000  0.03022000  1.0
  C  C71  1  0.52848000  0.48036000  0.96985000  1.0
  C  C72  1  0.59895000  0.43820000  0.05984000  1.0
  C  C73  1  0.45393000  0.51786000  0.94063000  1.0
  C  C74  1  0.37474000  0.54610000  0.02948000  1.0
  C  C75  1  0.67762000  0.40956000  0.97045000  1.0
  C  C76  1  0.37810000  0.55000000  0.97011000  1.0
  C  C77  1  0.67401000  0.40514000  0.02999000  1.0
  S  S78  1  0.51650000  0.68091000  0.66318000  1.0
  S  S79  1  0.33405000  0.37363000  0.33542000  1.0
  S  S80  1  0.59768000  0.66252000  0.79762000  1.0
  S  S81  1  0.40526000  0.32047000  0.20100000  1.0
  N  N82  1  0.51699000  0.46809000  0.14909000  1.0
  N  N83  1  0.53620000  0.49190000  0.85105000  1.0
  N  N84  1  0.73380000  0.49507000  0.49037000  1.0
  N  N85  1  0.26826000  0.50537000  0.50825000  1.0
  O  O86  1  0.43650000  0.62087000  0.51830000  1.0
  O  O87  1  0.58020000  0.36906000  0.51680000  1.0
  O  O88  1  0.57236000  0.61440000  0.46994000  1.0
  O  O89  1  0.42747000  0.37186000  0.50075000  1.0
  O  O90  1  0.43117000  0.48063000  0.59362000  1.0
  O  O91  1  0.56459000  0.46408000  0.41276000  1.0
  O  O92  1  0.57776000  0.52153000  0.58036000  1.0
  O  O93  1  0.41602000  0.50532000  0.41794000  1.0
  O  O94  1  0.65692000  0.40015000  0.15118000  1.0
  O  O95  1  0.39262000  0.55349000  0.85025000  1.0
  O  O96  1  0.37605000  0.53503000  0.14934000  1.0
  O  O97  1  0.67666000  0.42490000  0.84923000  1.0
  O  O98  1  0.94018000  0.54687000  0.39311000  1.0
  O  O99  1  0.06280000  0.45625000  0.60233000  1.0
  O  O100  1  0.50273000  0.35523000  0.79283000  1.0
  O  O101  1  0.61886000  0.56854000  0.20986000  1.0
  O  O102  1  0.48255000  0.74380000  0.70239000  1.0
  O  O103  1  0.59289000  0.69906000  0.62615000  1.0
  O  O104  1  0.42927000  0.66265000  0.62807000  1.0
  O  O105  1  0.26497000  0.34550000  0.29804000  1.0
  O  O106  1  0.36934000  0.31654000  0.37814000  1.0
  O  O107  1  0.28795000  0.45399000  0.36238000  1.0
  O  O108  1  0.62901000  0.63436000  0.85212000  1.0
  O  O109  1  0.66012000  0.69902000  0.75655000  1.0
  O  O110  1  0.51342000  0.72414000  0.80967000  1.0
  O  O111  1  0.44744000  0.31589000  0.14570000  1.0
  O  O112  1  0.41577000  0.25165000  0.24132000  1.0
  O  O113  1  0.30129000  0.34266000  0.19080000  1.0
  O  O114  1  0.58827000  0.94820000  0.40236000  1.0
  O  O115  1  0.41809000  0.04071000  0.60050000  1.0
