# generated using pymatgen
data_NiH22C26N2O11
_symmetry_space_group_name_H-M   'P 1'
_cell_length_a   10.01220000
_cell_length_b   11.28250000
_cell_length_c   12.47750000
_cell_angle_alpha   94.67350000
_cell_angle_beta   102.79800000
_cell_angle_gamma   114.08300000
_symmetry_Int_Tables_number   1
_chemical_formula_structural   NiH22C26N2O11
_chemical_formula_sum   'Ni2 H44 C52 N4 O22'
_cell_volume   1231.22962718
_cell_formula_units_Z   2
loop_
 _symmetry_equiv_pos_site_id
 _symmetry_equiv_pos_as_xyz
  1  'x, y, z'
loop_
 _atom_site_type_symbol
 _atom_site_label
 _atom_site_symmetry_multiplicity
 _atom_site_fract_x
 _atom_site_fract_y
 _atom_site_fract_z
 _atom_site_occupancy
  Ni  Ni0  1  0.28976000  0.13211000  0.65309000  1.0
  Ni  Ni1  1  0.71024000  0.86789000  0.34691000  1.0
  H  H2  1  0.31539000  0.85295000  0.11733000  1.0
  H  H3  1  0.68461000  0.14705000  0.88267000  1.0
  H  H4  1  0.68048000  0.54598000  0.03842000  1.0
  H  H5  1  0.31952000  0.45402000  0.96158000  1.0
  H  H6  1  0.51155000  0.22623000  0.58446000  1.0
  H  H7  1  0.48845000  0.77377000  0.41554000  1.0
  H  H8  1  0.56581000  0.14692000  0.67342000  1.0
  H  H9  1  0.43419000  0.85308000  0.32658000  1.0
  H  H10  1  0.30603000  0.22923000  0.85798000  1.0
  H  H11  1  0.69397000  0.77077000  0.14202000  1.0
  H  H12  1  0.45786000  0.21347000  0.86264000  1.0
  H  H13  1  0.54214000  0.78653000  0.13736000  1.0
  H  H14  1  0.96457000  0.99721000  0.59976000  1.0
  H  H15  1  0.03543000  0.00280000  0.40024000  1.0
  H  H16  1  0.04288000  0.11160000  0.70994000  1.0
  H  H17  1  0.95712000  0.88840000  0.29006000  1.0
  H  H18  1  0.09307000  0.24166000  0.52859000  1.0
  H  H19  1  0.90694000  0.75833000  0.47141000  1.0
  H  H20  1  0.08114000  0.45642000  0.51939000  1.0
  H  H21  1  0.91886000  0.54357000  0.48061000  1.0
  H  H22  1  0.51017000  0.64140000  0.77865000  1.0
  H  H23  1  0.48983000  0.35860000  0.22134000  1.0
  H  H24  1  0.50529000  0.41873000  0.77433000  1.0
  H  H25  1  0.49471000  0.58126000  0.22566000  1.0
  H  H26  1  0.20903000  0.67246000  0.46938000  1.0
  H  H27  1  0.79097000  0.32754000  0.53062000  1.0
  H  H28  1  0.21081000  0.89424000  0.47697000  1.0
  H  H29  1  0.78918000  0.10576000  0.52302000  1.0
  H  H30  1  0.34889000  0.97529000  0.82335000  1.0
  H  H31  1  0.65110000  0.02471000  0.17664000  1.0
  H  H32  1  0.36892000  0.76302000  0.83087000  1.0
  H  H33  1  0.63108000  0.23697000  0.16912000  1.0
  H  H34  1  0.16131000  0.03901000  0.02726000  1.0
  H  H35  1  0.83869000  0.96099000  0.97274000  1.0
  H  H36  1  0.04876000  0.19561000  0.00456000  1.0
  H  H37  1  0.95124000  0.80439000  0.99544000  1.0
  H  H38  1  0.19338000  0.32682000  0.36262000  1.0
  H  H39  1  0.80662000  0.67318000  0.63738000  1.0
  H  H40  1  0.85335000  0.24494000  0.04032000  1.0
  H  H41  1  0.14665000  0.75506000  0.95968000  1.0
  H  H42  1  0.14235000  0.69348000  0.27095000  1.0
  H  H43  1  0.85765000  0.30652000  0.72905000  1.0
  H  H44  1  0.24851000  0.53103000  0.29430000  1.0
  H  H45  1  0.75150000  0.46897000  0.70570000  1.0
  C  C46  1  0.18399000  0.33319000  0.58143000  1.0
  C  C47  1  0.81601000  0.66681000  0.41856000  1.0
  C  C48  1  0.17835000  0.45376000  0.57732000  1.0
  C  C49  1  0.82165000  0.54624000  0.42268000  1.0
  C  C50  1  0.29472000  0.56888000  0.64951000  1.0
  C  C51  1  0.70528000  0.43112000  0.35049000  1.0
  C  C52  1  0.41482000  0.55572000  0.72154000  1.0
  C  C53  1  0.58518000  0.44427000  0.27846000  1.0
  C  C54  1  0.41373000  0.43169000  0.71882000  1.0
  C  C55  1  0.58627000  0.56830000  0.28118000  1.0
  C  C56  1  0.28842000  0.69746000  0.65002000  1.0
  C  C57  1  0.71158000  0.30254000  0.34997000  1.0
  C  C58  1  0.23997000  0.73572000  0.55019000  1.0
  C  C59  1  0.76003000  0.26428000  0.44980000  1.0
  C  C60  1  0.24022000  0.85924000  0.55356000  1.0
  C  C61  1  0.75978000  0.14075000  0.44643000  1.0
  C  C62  1  0.32156000  0.90578000  0.74693000  1.0
  C  C63  1  0.67843000  0.09422000  0.25306000  1.0
  C  C64  1  0.33044000  0.78622000  0.75012000  1.0
  C  C65  1  0.66956000  0.21377000  0.24987000  1.0
  C  C66  1  0.24296000  0.16962000  0.30263000  1.0
  C  C67  1  0.75704000  0.83038000  0.69736000  1.0
  C  C68  1  0.23544000  0.08821000  0.20760000  1.0
  C  C69  1  0.76456000  0.91179000  0.79240000  1.0
  C  C70  1  0.16632000  0.10084000  0.10095000  1.0
  C  C71  1  0.83368000  0.89916000  0.89904000  1.0
  C  C72  1  0.10383000  0.18990000  0.08822000  1.0
  C  C73  1  0.89617000  0.81010000  0.91178000  1.0
  C  C74  1  0.11483000  0.27406000  0.18230000  1.0
  C  C75  1  0.88517000  0.72594000  0.81770000  1.0
  C  C76  1  0.18534000  0.26287000  0.28871000  1.0
  C  C77  1  0.81466000  0.73713000  0.71129000  1.0
  C  C78  1  0.05569000  0.37383000  0.16974000  1.0
  C  C79  1  0.94431000  0.62617000  0.83026000  1.0
  C  C80  1  0.91733000  0.34392000  0.09123000  1.0
  C  C81  1  0.08267000  0.65608000  0.90878000  1.0
  C  C82  1  0.85439000  0.43425000  0.07775000  1.0
  C  C83  1  0.14561000  0.56575000  0.92226000  1.0
  C  C84  1  0.93689000  0.56299000  0.14652000  1.0
  C  C85  1  0.06311000  0.43701000  0.85349000  1.0
  C  C86  1  0.07826000  0.59311000  0.22223000  1.0
  C  C87  1  0.92174000  0.40689000  0.77778000  1.0
  C  C88  1  0.13710000  0.50159000  0.23534000  1.0
  C  C89  1  0.86290000  0.49841000  0.76466000  1.0
  C  C90  1  0.31545000  0.16829000  0.42171000  1.0
  C  C91  1  0.68455000  0.83172000  0.57828000  1.0
  C  C92  1  0.29415000  0.98686000  0.21709000  1.0
  C  C93  1  0.70585000  0.01314000  0.78291000  1.0
  C  C94  1  0.70137000  0.37973000  0.99099000  1.0
  C  C95  1  0.29863000  0.62027000  0.00902000  1.0
  C  C96  1  0.89294000  0.67645000  0.15236000  1.0
  C  C97  1  0.10707000  0.32355000  0.84765000  1.0
  N  N98  1  0.29971000  0.32130000  0.65080000  1.0
  N  N99  1  0.70030000  0.67870000  0.34919000  1.0
  N  N100  1  0.27975000  0.94357000  0.65047000  1.0
  N  N101  1  0.72024000  0.05643000  0.34953000  1.0
  O  O102  1  0.22464000  0.10089000  0.47637000  1.0
  O  O103  1  0.77537000  0.89911000  0.52363000  1.0
  O  O104  1  0.45551000  0.24152000  0.46119000  1.0
  O  O105  1  0.54450000  0.75848000  0.53880000  1.0
  O  O106  1  0.34372000  0.95991000  0.30704000  1.0
  O  O107  1  0.65628000  0.04009000  0.69296000  1.0
  O  O108  1  0.28808000  0.92936000  0.11700000  1.0
  O  O109  1  0.71191000  0.07064000  0.88300000  1.0
  O  O110  1  0.64798000  0.26679000  0.93066000  1.0
  O  O111  1  0.35202000  0.73322000  0.06934000  1.0
  O  O112  1  0.62102000  0.44565000  0.97940000  1.0
  O  O113  1  0.37898000  0.55435000  0.02061000  1.0
  O  O114  1  0.75603000  0.65729000  0.10097000  1.0
  O  O115  1  0.24398000  0.34271000  0.89904000  1.0
  O  O116  1  0.99110000  0.78643000  0.20928000  1.0
  O  O117  1  0.00890000  0.21358000  0.79073000  1.0
  O  O118  1  0.52304000  0.21209000  0.66488000  1.0
  O  O119  1  0.47696000  0.78791000  0.33512000  1.0
  O  O120  1  0.34525000  0.16900000  0.82872000  1.0
  O  O121  1  0.65475000  0.83100000  0.17128000  1.0
  O  O122  1  0.06380000  0.05798000  0.65410000  1.0
  O  O123  1  0.93620000  0.94202000  0.34590000  1.0
