# generated using pymatgen
data_CuH3C2SN4
_symmetry_space_group_name_H-M   'P 1'
_cell_length_a   6.47641000
_cell_length_b   7.59721000
_cell_length_c   9.94738000
_cell_angle_alpha   75.02500000
_cell_angle_beta   89.99980000
_cell_angle_gamma   89.99950000
_symmetry_Int_Tables_number   1
_chemical_formula_structural   CuH3C2SN4
_chemical_formula_sum   'Cu4 H12 C8 S4 N16'
_cell_volume   472.81547674
_cell_formula_units_Z   4
loop_
 _symmetry_equiv_pos_site_id
 _symmetry_equiv_pos_as_xyz
  1  'x, y, z'
loop_
 _atom_site_type_symbol
 _atom_site_label
 _atom_site_symmetry_multiplicity
 _atom_site_fract_x
 _atom_site_fract_y
 _atom_site_fract_z
 _atom_site_occupancy
  Cu  Cu0  1  0.90820000  0.14766000  0.34089000  1.0
  Cu  Cu1  1  0.40820000  0.35233000  0.15911000  1.0
  Cu  Cu2  1  0.09179000  0.85233000  0.65911000  1.0
  Cu  Cu3  1  0.59180000  0.64768000  0.84089000  1.0
  H  H4  1  0.70256000  0.37693000  0.67599000  1.0
  H  H5  1  0.20257000  0.12307000  0.82401000  1.0
  H  H6  1  0.29744000  0.62305000  0.32402000  1.0
  H  H7  1  0.79744000  0.87693000  0.17599000  1.0
  H  H8  1  0.96185000  0.37926000  0.61492000  1.0
  H  H9  1  0.46186000  0.12075000  0.88507000  1.0
  H  H10  1  0.03815000  0.62074000  0.38508000  1.0
  H  H11  1  0.53814000  0.87926000  0.11493000  1.0
  H  H12  1  0.82467000  0.16802000  0.66453000  1.0
  H  H13  1  0.32467000  0.33199000  0.83546000  1.0
  H  H14  1  0.17533000  0.83198000  0.33547000  1.0
  H  H15  1  0.67532000  0.66802000  0.16453000  1.0
  C  C16  1  0.48681000  0.24889000  0.46526000  1.0
  C  C17  1  0.98679000  0.25112000  0.03474000  1.0
  C  C18  1  0.51319000  0.75111000  0.53475000  1.0
  C  C19  1  0.01318000  0.74890000  0.96525000  1.0
  C  C20  1  0.81035000  0.31455000  0.61736000  1.0
  C  C21  1  0.31036000  0.18545000  0.88263000  1.0
  C  C22  1  0.18965000  0.68543000  0.38265000  1.0
  C  C23  1  0.68964000  0.81456000  0.11737000  1.0
  S  S24  1  0.72604000  0.35705000  0.43872000  1.0
  S  S25  1  0.22605000  0.14294000  0.06128000  1.0
  S  S26  1  0.27396000  0.64294000  0.56129000  1.0
  S  S27  1  0.77396000  0.85706000  0.93872000  1.0
  N  N28  1  0.35231000  0.26124000  0.35948000  1.0
  N  N29  1  0.85233000  0.23875000  0.14051000  1.0
  N  N30  1  0.64769000  0.73876000  0.64051000  1.0
  N  N31  1  0.14769000  0.76125000  0.85949000  1.0
  N  N32  1  0.19060000  0.15633000  0.41694000  1.0
  N  N33  1  0.69060000  0.34366000  0.08305000  1.0
  N  N34  1  0.80940000  0.84366000  0.58306000  1.0
  N  N35  1  0.30940000  0.65635000  0.91695000  1.0
  N  N36  1  0.23110000  0.08384000  0.55140000  1.0
  N  N37  1  0.73111000  0.41615000  0.94860000  1.0
  N  N38  1  0.76890000  0.91615000  0.44860000  1.0
  N  N39  1  0.26890000  0.58385000  0.05140000  1.0
  N  N40  1  0.41650000  0.13995000  0.58467000  1.0
  N  N41  1  0.91651000  0.36003000  0.91534000  1.0
  N  N42  1  0.58350000  0.86004000  0.41533000  1.0
  N  N43  1  0.08350000  0.63996000  0.08467000  1.0
