# generated using pymatgen
data_Zn4H33C33N3O16
_symmetry_space_group_name_H-M   'P 1'
_cell_length_a   16.20970000
_cell_length_b   16.37690000
_cell_length_c   16.97070000
_cell_angle_alpha   90.66010000
_cell_angle_beta   117.96600000
_cell_angle_gamma   119.50500000
_symmetry_Int_Tables_number   1
_chemical_formula_structural   Zn4H33C33N3O16
_chemical_formula_sum   'Zn8 H66 C66 N6 O32'
_cell_volume   3286.20123736
_cell_formula_units_Z   2
loop_
 _symmetry_equiv_pos_site_id
 _symmetry_equiv_pos_as_xyz
  1  'x, y, z'
loop_
 _atom_site_type_symbol
 _atom_site_label
 _atom_site_symmetry_multiplicity
 _atom_site_fract_x
 _atom_site_fract_y
 _atom_site_fract_z
 _atom_site_occupancy
  Zn  Zn0  1  0.07248000  0.04734000  0.12460000  1.0
  Zn  Zn1  1  0.06808000  0.03109000  0.93810000  1.0
  Zn  Zn2  1  0.86688000  0.02908000  0.93630000  1.0
  Zn  Zn3  1  0.88114000  0.84214000  0.96150000  1.0
  Zn  Zn4  1  0.89874000  0.46093000  0.35300000  1.0
  Zn  Zn5  1  0.87148000  0.45060000  0.53406000  1.0
  Zn  Zn6  1  0.06437000  0.64176000  0.53553000  1.0
  Zn  Zn7  1  0.08245000  0.46135000  0.54562000  1.0
  H  H8  1  0.52457000  0.48307000  0.50061000  1.0
  H  H9  1  0.51695000  0.42227000  0.58482000  1.0
  H  H10  1  0.40139000  0.36388000  0.46474000  1.0
  H  H11  1  0.52136000  0.29300000  0.51167000  1.0
  H  H12  1  0.64109000  0.41253000  0.54184000  1.0
  H  H13  1  0.62550000  0.48346000  0.40605000  1.0
  H  H14  1  0.41716000  0.43305000  0.32651000  1.0
  H  H15  1  0.48328000  0.48834000  0.26593000  1.0
  H  H16  1  0.28009000  0.32573000  0.15637000  1.0
  H  H17  1  0.47605000  0.20279000  0.22593000  1.0
  H  H18  1  0.56072000  0.39524000  0.22953000  1.0
  H  H19  1  0.15894000  0.09160000  0.47476000  1.0
  H  H20  1  0.29845000  0.18480000  0.56939000  1.0
  H  H21  1  0.25690000  0.18272000  0.45178000  1.0
  H  H22  1  0.26473000  0.31616000  0.53610000  1.0
  H  H23  1  0.16137000  0.22586000  0.55479000  1.0
  H  H24  1  0.98035000  0.18914000  0.44962000  1.0
  H  H25  1  0.95353000  0.03141000  0.37351000  1.0
  H  H26  1  0.82977000  0.03017000  0.32384000  1.0
  H  H27  1  0.85959000  0.97878000  0.19673000  1.0
  H  H28  1  0.01180000  0.28768000  0.22813000  1.0
  H  H29  1  0.85193000  0.18367000  0.26778000  1.0
  H  H30  1  0.43201000  0.05762000  0.50380000  1.0
  H  H31  1  0.43984000  0.10369000  0.60405000  1.0
  H  H32  1  0.32978000  0.07950000  0.48876000  1.0
  H  H33  1  0.26072000  0.94817000  0.56142000  1.0
  H  H34  1  0.35719000  0.92052000  0.57039000  1.0
  H  H35  1  0.28867000  0.79590000  0.44034000  1.0
  H  H36  1  0.36604000  0.94024000  0.37689000  1.0
  H  H37  1  0.30734000  0.82369000  0.30501000  1.0
  H  H38  1  0.23463000  0.92685000  0.21203000  1.0
  H  H39  1  0.96503000  0.74003000  0.25044000  1.0
  H  H40  1  0.10142000  0.68641000  0.25857000  1.0
  H  H41  1  0.41383000  0.43409000  0.92606000  1.0
  H  H42  1  0.45385000  0.41096000  0.85179000  1.0
  H  H43  1  0.34466000  0.31066000  0.85842000  1.0
  H  H44  1  0.26653000  0.35160000  0.70911000  1.0
  H  H45  1  0.32821000  0.47297000  0.77495000  1.0
  H  H46  1  0.21277000  0.49586000  0.81045000  1.0
  H  H47  1  0.29806000  0.45037000  0.96095000  1.0
  H  H48  1  0.20516000  0.48205000  0.95166000  1.0
  H  H49  1  0.15864000  0.31775000  0.99376000  1.0
  H  H50  1  0.92619000  0.19792000  0.69504000  1.0
  H  H51  1  0.00818000  0.38063000  0.79501000  1.0
  H  H52  1  0.09703000  0.06137000  0.64849000  1.0
  H  H53  1  0.23119000  0.10441000  0.66813000  1.0
  H  H54  1  0.19959000  0.06047000  0.75229000  1.0
  H  H55  1  0.19276000  0.93621000  0.65668000  1.0
  H  H56  1  0.08632000  0.93103000  0.55182000  1.0
  H  H57  1  0.90151000  0.79589000  0.49872000  1.0
  H  H58  1  0.89489000  0.92827000  0.57626000  1.0
  H  H59  1  0.76637000  0.81039000  0.51690000  1.0
  H  H60  1  0.83234000  0.89242000  0.68942000  1.0
  H  H61  1  0.95565000  0.70697000  0.74329000  1.0
  H  H62  1  0.78571000  0.66698000  0.56917000  1.0
  H  H63  1  0.50720000  0.03351000  0.95228000  1.0
  H  H64  1  0.48021000  0.10501000  0.87883000  1.0
  H  H65  1  0.57673000  0.07530000  0.89094000  1.0
  H  H66  1  0.38866000  0.97141000  0.73659000  1.0
  H  H67  1  0.31943000  0.92479000  0.79748000  1.0
  H  H68  1  0.30077000  0.77804000  0.83443000  1.0
  H  H69  1  0.49934000  0.89541000  0.98815000  1.0
  H  H70  1  0.43550000  0.76917000  0.97793000  1.0
  H  H71  1  0.64745000  0.86007000  0.02577000  1.0
  H  H72  1  0.47419000  0.73786000  0.72818000  1.0
  H  H73  1  0.37580000  0.66056000  0.82480000  1.0
  C  C74  1  0.49397000  0.41033000  0.51164000  1.0
  C  C75  1  0.54797000  0.36301000  0.49547000  1.0
  C  C76  1  0.54959000  0.41227000  0.35278000  1.0
  C  C77  1  0.45168000  0.42209000  0.28790000  1.0
  C  C78  1  0.35836000  0.33117000  0.20343000  1.0
  C  C79  1  0.36493000  0.25414000  0.18904000  1.0
  C  C80  1  0.26228000  0.15865000  0.11605000  1.0
  C  C81  1  0.47076000  0.25806000  0.25627000  1.0
  C  C82  1  0.57035000  0.36653000  0.28903000  1.0
  C  C83  1  0.68626000  0.38448000  0.34084000  1.0
  C  C84  1  0.47608000  0.24646000  0.34895000  1.0
  C  C85  1  0.22793000  0.16998000  0.50010000  1.0
  C  C86  1  0.19193000  0.23860000  0.50746000  1.0
  C  C87  1  0.98444000  0.17790000  0.38794000  1.0
  C  C88  1  0.91334000  0.06748000  0.33288000  1.0
  C  C89  1  0.90000000  0.05362000  0.23889000  1.0
  C  C90  1  0.94359000  0.13050000  0.20909000  1.0
  C  C91  1  0.94816000  0.11486000  0.12504000  1.0
  C  C92  1  0.00482000  0.23566000  0.26850000  1.0
  C  C93  1  0.94380000  0.22946000  0.31819000  1.0
  C  C94  1  0.97456000  0.32855000  0.36387000  1.0
  C  C95  1  0.12240000  0.26709000  0.35292000  1.0
  C  C96  1  0.38140000  0.05328000  0.53147000  1.0
  C  C97  1  0.30644000  0.94850000  0.52973000  1.0
  C  C98  1  0.23626000  0.81649000  0.38804000  1.0
  C  C99  1  0.28600000  0.86766000  0.33129000  1.0
  C  C100  1  0.20447000  0.88119000  0.25108000  1.0
  C  C101  1  0.09914000  0.84333000  0.22993000  1.0
  C  C102  1  0.02513000  0.86640000  0.15505000  1.0
  C  C103  1  0.05728000  0.78508000  0.28680000  1.0
  C  C104  1  0.11308000  0.72751000  0.31856000  1.0
  C  C105  1  0.06433000  0.65630000  0.36480000  1.0
  C  C106  1  0.11609000  0.86085000  0.38213000  1.0
  C  C107  1  0.38155000  0.38757000  0.85807000  1.0
  C  C108  1  0.29343000  0.39614000  0.77585000  1.0
  C  C109  1  0.17117000  0.42161000  0.81694000  1.0
  C  C110  1  0.20887000  0.42598000  0.91946000  1.0
  C  C111  1  0.13588000  0.32656000  0.92439000  1.0
  C  C112  1  0.04715000  0.24821000  0.84712000  1.0
  C  C113  1  0.98582000  0.14976000  0.85848000  1.0
  C  C114  1  0.01310000  0.25780000  0.74957000  1.0
  C  C115  1  0.03969000  0.36312000  0.75729000  1.0
  C  C116  1  0.99414000  0.38151000  0.66360000  1.0
  C  C117  1  0.09896000  0.26469000  0.72838000  1.0
  C  C118  1  0.16433000  0.04854000  0.67672000  1.0
  C  C119  1  0.12210000  0.94497000  0.62766000  1.0
  C  C120  1  0.91506000  0.80698000  0.56876000  1.0
  C  C121  1  0.85459000  0.85159000  0.57804000  1.0
  C  C122  1  0.85918000  0.85138000  0.66858000  1.0
  C  C123  1  0.90492000  0.81058000  0.72774000  1.0
  C  C124  1  0.93294000  0.83316000  0.82585000  1.0
  C  C125  1  0.94904000  0.75797000  0.70348000  1.0
  C  C126  1  0.87615000  0.71101000  0.59543000  1.0
  C  C127  1  0.90490000  0.64553000  0.56644000  1.0
  C  C128  1  0.06398000  0.83861000  0.71870000  1.0
  C  C129  1  0.49687000  0.04719000  0.88607000  1.0
  C  C130  1  0.39906000  0.95382000  0.80160000  1.0
  C  C131  1  0.38037000  0.79684000  0.84350000  1.0
  C  C132  1  0.47189000  0.82455000  0.94699000  1.0
  C  C133  1  0.57194000  0.83157000  0.95561000  1.0
  C  C134  1  0.57445000  0.81123000  0.87993000  1.0
  C  C135  1  0.68299000  0.83890000  0.89244000  1.0
  C  C136  1  0.47264000  0.77494000  0.78107000  1.0
  C  C137  1  0.36758000  0.71252000  0.78651000  1.0
  C  C138  1  0.25758000  0.65317000  0.69115000  1.0
  C  C139  1  0.46543000  0.86372000  0.75899000  1.0
  N  N140  1  0.51737000  0.33821000  0.39904000  1.0
  N  N141  1  0.10282000  0.22748000  0.41736000  1.0
  N  N142  1  0.22072000  0.87841000  0.43525000  1.0
  N  N143  1  0.19139000  0.36009000  0.77547000  1.0
  N  N144  1  0.03710000  0.86729000  0.64030000  1.0
  N  N145  1  0.41690000  0.87499000  0.80194000  1.0
  O  O146  1  0.97086000  0.98686000  0.98788000  1.0
  O  O147  1  0.22013000  0.15192000  0.02911000  1.0
  O  O148  1  0.22040000  0.08811000  0.14690000  1.0
  O  O149  1  0.71973000  0.36520000  0.41826000  1.0
  O  O150  1  0.74206000  0.41940000  0.30211000  1.0
  O  O151  1  0.44801000  0.17101000  0.37173000  1.0
  O  O152  1  0.85719000  0.06689000  0.04385000  1.0
  O  O153  1  0.04785000  0.15075000  0.14206000  1.0
  O  O154  1  0.06342000  0.37921000  0.44660000  1.0
  O  O155  1  0.90692000  0.35242000  0.31454000  1.0
  O  O156  1  0.21384000  0.31618000  0.36001000  1.0
  O  O157  1  0.96284000  0.80891000  0.07106000  1.0
  O  O158  1  0.03098000  0.94383000  0.18146000  1.0
  O  O159  1  0.11930000  0.68673000  0.45430000  1.0
  O  O160  1  0.97156000  0.57252000  0.31089000  1.0
  O  O161  1  0.07701000  0.89837000  0.40437000  1.0
  O  O162  1  0.92334000  0.13864000  0.88887000  1.0
  O  O163  1  0.00202000  0.08553000  0.83912000  1.0
  O  O164  1  0.02632000  0.36994000  0.61142000  1.0
  O  O165  1  0.92648000  0.40827000  0.64430000  1.0
  O  O166  1  0.08799000  0.19883000  0.68055000  1.0
  O  O167  1  0.85613000  0.78435000  0.84226000  1.0
  O  O168  1  0.03582000  0.90362000  0.88777000  1.0
  O  O169  1  0.97068000  0.68233000  0.53683000  1.0
  O  O170  1  0.86243000  0.55968000  0.57548000  1.0
  O  O171  1  0.15925000  0.87065000  0.78736000  1.0
  O  O172  1  0.73392000  0.80160000  0.94260000  1.0
  O  O173  1  0.71883000  0.90148000  0.85259000  1.0
  O  O174  1  0.19758000  0.68789000  0.66131000  1.0
  O  O175  1  0.23381000  0.57191000  0.64918000  1.0
  O  O176  1  0.49715000  0.91390000  0.71334000  1.0
  O  O177  1  0.97444000  0.49753000  0.49040000  1.0
