# generated using pymatgen
data_KTbH3C7O9
_symmetry_space_group_name_H-M   'P 1'
_cell_length_a   6.70552000
_cell_length_b   7.54926000
_cell_length_c   10.98200000
_cell_angle_alpha   99.47570000
_cell_angle_beta   103.72300000
_cell_angle_gamma   107.61100000
_symmetry_Int_Tables_number   1
_chemical_formula_structural   KTbH3C7O9
_chemical_formula_sum   'K2 Tb2 H6 C14 O18'
_cell_volume   497.68709059
_cell_formula_units_Z   2
loop_
 _symmetry_equiv_pos_site_id
 _symmetry_equiv_pos_as_xyz
  1  'x, y, z'
loop_
 _atom_site_type_symbol
 _atom_site_label
 _atom_site_symmetry_multiplicity
 _atom_site_fract_x
 _atom_site_fract_y
 _atom_site_fract_z
 _atom_site_occupancy
  K  K0  1  0.63113000  0.37298000  0.89648000  1.0
  K  K1  1  0.36892000  0.62703000  0.10351000  1.0
  Tb  Tb2  1  0.36209000  0.15203000  0.25687000  1.0
  Tb  Tb3  1  0.63791000  0.84796000  0.74313000  1.0
  H  H4  1  0.93687000  0.78251000  0.43474000  1.0
  H  H5  1  0.06313000  0.21749000  0.56526000  1.0
  H  H6  1  0.86631000  0.23742000  0.72597000  1.0
  H  H7  1  0.13369000  0.76258000  0.27402000  1.0
  H  H8  1  0.63633000  0.17970000  0.61006000  1.0
  H  H9  1  0.36366000  0.82030000  0.38994000  1.0
  C  C10  1  0.89869000  0.48573000  0.36844000  1.0
  C  C11  1  0.10131000  0.51428000  0.63156000  1.0
  C  C12  1  0.93519000  0.32588000  0.40612000  1.0
  C  C13  1  0.06482000  0.67412000  0.59388000  1.0
  C  C14  1  0.96381000  0.65779000  0.46343000  1.0
  C  C15  1  0.03619000  0.34221000  0.53657000  1.0
  C  C16  1  0.79378000  0.48005000  0.22915000  1.0
  C  C17  1  0.20622000  0.51996000  0.77085000  1.0
  C  C18  1  0.86718000  0.13457000  0.31079000  1.0
  C  C19  1  0.13282000  0.86544000  0.68921000  1.0
  C  C20  1  0.53343000  0.43905000  0.54517000  1.0
  C  C21  1  0.46656000  0.56095000  0.45483000  1.0
  C  C22  1  0.98144000  0.09725000  0.00869000  1.0
  C  C23  1  0.01854000  0.90273000  0.99131000  1.0
  O  O24  1  0.89333000  0.60577000  0.18016000  1.0
  O  O25  1  0.10666000  0.39423000  0.81984000  1.0
  O  O26  1  0.60413000  0.35140000  0.16751000  1.0
  O  O27  1  0.39586000  0.64860000  0.83249000  1.0
  O  O28  1  0.66274000  0.04091000  0.25874000  1.0
  O  O29  1  0.33726000  0.95909000  0.74126000  1.0
  O  O30  1  0.01772000  0.07539000  0.29196000  1.0
  O  O31  1  0.98228000  0.92461000  0.70804000  1.0
  O  O32  1  0.51012000  0.26820000  0.49067000  1.0
  O  O33  1  0.48987000  0.73180000  0.50932000  1.0
  O  O34  1  0.60561000  0.51688000  0.66510000  1.0
  O  O35  1  0.39438000  0.48312000  0.33489000  1.0
  O  O36  1  0.80552000  0.09798000  0.93452000  1.0
  O  O37  1  0.19448000  0.90201000  0.06549000  1.0
  O  O38  1  0.12807000  0.23853000  0.09489000  1.0
  O  O39  1  0.87193000  0.76147000  0.90512000  1.0
  O  O40  1  0.71266000  0.14090000  0.68435000  1.0
  O  O41  1  0.28733000  0.85910000  0.31564000  1.0
