# generated using pymatgen
data_KH3C4S(NO)2
_symmetry_space_group_name_H-M   'P 1'
_cell_length_a   3.85740000
_cell_length_b   11.20840000
_cell_length_c   14.51870000
_cell_angle_alpha   97.58660000
_cell_angle_beta   89.99990000
_cell_angle_gamma   89.99990000
_symmetry_Int_Tables_number   1
_chemical_formula_structural   KH3C4S(NO)2
_chemical_formula_sum   'K4 H12 C16 S4 N8 O8'
_cell_volume   622.22530843
_cell_formula_units_Z   4
loop_
 _symmetry_equiv_pos_site_id
 _symmetry_equiv_pos_as_xyz
  1  'x, y, z'
loop_
 _atom_site_type_symbol
 _atom_site_label
 _atom_site_symmetry_multiplicity
 _atom_site_fract_x
 _atom_site_fract_y
 _atom_site_fract_z
 _atom_site_occupancy
  K  K0  1  0.05636000  0.00000000  0.75000000  1.0
  K  K1  1  0.94364000  0.00000000  0.25000000  1.0
  K  K2  1  0.60826000  0.50000000  0.75000000  1.0
  K  K3  1  0.39174000  0.50000000  0.25000000  1.0
  H  H4  1  0.65013000  0.92214000  0.94870000  1.0
  H  H5  1  0.65013000  0.07786000  0.55130000  1.0
  H  H6  1  0.34987000  0.07786000  0.05130000  1.0
  H  H7  1  0.34987000  0.92214000  0.44870000  1.0
  H  H8  1  0.50430000  0.75447000  0.19065000  1.0
  H  H9  1  0.50430000  0.24553000  0.30935000  1.0
  H  H10  1  0.49569000  0.24553000  0.80935000  1.0
  H  H11  1  0.49570000  0.75447000  0.69065000  1.0
  H  H12  1  0.00751000  0.57656000  0.95098000  1.0
  H  H13  1  0.00751000  0.42344000  0.54902000  1.0
  H  H14  1  0.99249000  0.42344000  0.04902000  1.0
  H  H15  1  0.99249000  0.57656000  0.45098000  1.0
  C  C16  1  0.60764000  0.75322000  0.12070000  1.0
  C  C17  1  0.60764000  0.24678000  0.37930000  1.0
  C  C18  1  0.39236000  0.24678000  0.87930000  1.0
  C  C19  1  0.39236000  0.75322000  0.62070000  1.0
  C  C20  1  0.85040000  0.74973000  0.93829000  1.0
  C  C21  1  0.85041000  0.25027000  0.56171000  1.0
  C  C22  1  0.14960000  0.25027000  0.06171000  1.0
  C  C23  1  0.14960000  0.74973000  0.43829000  1.0
  C  C24  1  0.56436000  0.85507000  0.07505000  1.0
  C  C25  1  0.56437000  0.14494000  0.42495000  1.0
  C  C26  1  0.43564000  0.14493000  0.92495000  1.0
  C  C27  1  0.43564000  0.85507000  0.57505000  1.0
  C  C28  1  0.77430000  0.64960000  0.07656000  1.0
  C  C29  1  0.77430000  0.35040000  0.42344000  1.0
  C  C30  1  0.22570000  0.35040000  0.92344000  1.0
  C  C31  1  0.22570000  0.64960000  0.57656000  1.0
  S  S32  1  0.99806000  0.74524000  0.82860000  1.0
  S  S33  1  0.99806000  0.25475000  0.67140000  1.0
  S  S34  1  0.00195000  0.25476000  0.17140000  1.0
  S  S35  1  0.00194000  0.74524000  0.32860000  1.0
  N  N36  1  0.88858000  0.65381000  0.98559000  1.0
  N  N37  1  0.88859000  0.34618000  0.51441000  1.0
  N  N38  1  0.11141000  0.34618000  0.01441000  1.0
  N  N39  1  0.11142000  0.65381000  0.48559000  1.0
  N  N40  1  0.69086000  0.84791000  0.98412000  1.0
  N  N41  1  0.69087000  0.15209000  0.51588000  1.0
  N  N42  1  0.30913000  0.15209000  0.01588000  1.0
  N  N43  1  0.30913000  0.84791000  0.48412000  1.0
  O  O44  1  0.42461000  0.95384000  0.11071000  1.0
  O  O45  1  0.42461000  0.04616000  0.38929000  1.0
  O  O46  1  0.57539000  0.04616000  0.88929000  1.0
  O  O47  1  0.57539000  0.95384000  0.61071000  1.0
  O  O48  1  0.82818000  0.55304000  0.11192000  1.0
  O  O49  1  0.82818000  0.44696000  0.38808000  1.0
  O  O50  1  0.17182000  0.44696000  0.88808000  1.0
  O  O51  1  0.17182000  0.55304000  0.61192000  1.0
