# generated using pymatgen
data_CuH23C23N3O4
_symmetry_space_group_name_H-M   'P 1'
_cell_length_a   8.15926000
_cell_length_b   10.63920000
_cell_length_c   14.17600000
_cell_angle_alpha   73.44830000
_cell_angle_beta   83.73110000
_cell_angle_gamma   70.20080000
_symmetry_Int_Tables_number   1
_chemical_formula_structural   CuH23C23N3O4
_chemical_formula_sum   'Cu2 H46 C46 N6 O8'
_cell_volume   1109.75692590
_cell_formula_units_Z   2
loop_
 _symmetry_equiv_pos_site_id
 _symmetry_equiv_pos_as_xyz
  1  'x, y, z'
loop_
 _atom_site_type_symbol
 _atom_site_label
 _atom_site_symmetry_multiplicity
 _atom_site_fract_x
 _atom_site_fract_y
 _atom_site_fract_z
 _atom_site_occupancy
  Cu  Cu0  1  0.58856000  0.58205000  0.71398000  1.0
  Cu  Cu1  1  0.41144000  0.41795000  0.28602000  1.0
  H  H2  1  0.86987000  0.57919000  0.83928000  1.0
  H  H3  1  0.13011000  0.42084000  0.16073000  1.0
  H  H4  1  0.09080000  0.70585000  0.81412000  1.0
  H  H5  1  0.90918000  0.29416000  0.18590000  1.0
  H  H6  1  0.10120000  0.87579000  0.65394000  1.0
  H  H7  1  0.89882000  0.12420000  0.34606000  1.0
  H  H8  1  0.88819000  0.91787000  0.52139000  1.0
  H  H9  1  0.11181000  0.08213000  0.47861000  1.0
  H  H10  1  0.67630000  0.94505000  0.41451000  1.0
  H  H11  1  0.32372000  0.05494000  0.58550000  1.0
  H  H12  1  0.44736000  0.93729000  0.32185000  1.0
  H  H13  1  0.55267000  0.06269000  0.67815000  1.0
  H  H14  1  0.28559000  0.76659000  0.39036000  1.0
  H  H15  1  0.71445000  0.23338000  0.60963000  1.0
  H  H16  1  0.18131000  0.59437000  0.46993000  1.0
  H  H17  1  0.81872000  0.40562000  0.53006000  1.0
  H  H18  1  0.04680000  0.42271000  0.58554000  1.0
  H  H19  1  0.95321000  0.57729000  0.41445000  1.0
  H  H20  1  0.14809000  0.31923000  0.75704000  1.0
  H  H21  1  0.85190000  0.68077000  0.24295000  1.0
  H  H22  1  0.38433000  0.38645000  0.81241000  1.0
  H  H23  1  0.61566000  0.61356000  0.18759000  1.0
  H  H24  1  0.85455000  0.19656000  0.93381000  1.0
  H  H25  1  0.14546000  0.80344000  0.06619000  1.0
  H  H26  1  0.03296000  0.14442000  0.85369000  1.0
  H  H27  1  0.96703000  0.85557000  0.14631000  1.0
  H  H28  1  0.88380000  0.02360000  0.78842000  1.0
  H  H29  1  0.11617000  0.97641000  0.21157000  1.0
  H  H30  1  0.88956000  0.96314000  0.91815000  1.0
  H  H31  1  0.11043000  0.03686000  0.08184000  1.0
  H  H32  1  0.57919000  0.13295000  0.92269000  1.0
  H  H33  1  0.42080000  0.86705000  0.07731000  1.0
  H  H34  1  0.57769000  0.16934000  0.79391000  1.0
  H  H35  1  0.42228000  0.83066000  0.20609000  1.0
  H  H36  1  0.62489000  0.88354000  0.93879000  1.0
  H  H37  1  0.37509000  0.11646000  0.06122000  1.0
  H  H38  1  0.63555000  0.91300000  0.81050000  1.0
  H  H39  1  0.36444000  0.08700000  0.18951000  1.0
  H  H40  1  0.32851000  0.07410000  0.79638000  1.0
  H  H41  1  0.67150000  0.92590000  0.20361000  1.0
  H  H42  1  0.31755000  0.05349000  0.92490000  1.0
  H  H43  1  0.68243000  0.94653000  0.07509000  1.0
  H  H44  1  0.36788000  0.79553000  0.95001000  1.0
  H  H45  1  0.63210000  0.20449000  0.04999000  1.0
  H  H46  1  0.17434000  0.90646000  0.88621000  1.0
  H  H47  1  0.82564000  0.09355000  0.11379000  1.0
  C  C48  1  0.88067000  0.65520000  0.77059000  1.0
  C  C49  1  0.11932000  0.34481000  0.22942000  1.0
  C  C50  1  0.00049000  0.72636000  0.75615000  1.0
  C  C51  1  0.99950000  0.27364000  0.24386000  1.0
  C  C52  1  0.00500000  0.82193000  0.66561000  1.0
  C  C53  1  0.99500000  0.17807000  0.33439000  1.0
  C  C54  1  0.88873000  0.84399000  0.59276000  1.0
  C  C55  1  0.11127000  0.15600000  0.40725000  1.0
  C  C56  1  0.77260000  0.76850000  0.61158000  1.0
  C  C57  1  0.22741000  0.23150000  0.38843000  1.0
  C  C58  1  0.64414000  0.77966000  0.54172000  1.0
  C  C59  1  0.35587000  0.22033000  0.45829000  1.0
  C  C60  1  0.60830000  0.87049000  0.44792000  1.0
  C  C61  1  0.39172000  0.12950000  0.55208000  1.0
  C  C62  1  0.47720000  0.86583000  0.39455000  1.0
  C  C63  1  0.52282000  0.13416000  0.60545000  1.0
  C  C64  1  0.38561000  0.77232000  0.43295000  1.0
  C  C65  1  0.61442000  0.22766000  0.56704000  1.0
  C  C66  1  0.42878000  0.68410000  0.52729000  1.0
  C  C67  1  0.57124000  0.31589000  0.47271000  1.0
  C  C68  1  0.34664000  0.58116000  0.58347000  1.0
  C  C69  1  0.65337000  0.41883000  0.41652000  1.0
  C  C70  1  0.21930000  0.54743000  0.54685000  1.0
  C  C71  1  0.78073000  0.45256000  0.45314000  1.0
  C  C72  1  0.14746000  0.45201000  0.60973000  1.0
  C  C73  1  0.85255000  0.54798000  0.39026000  1.0
  C  C74  1  0.20386000  0.39299000  0.70674000  1.0
  C  C75  1  0.79614000  0.60701000  0.29325000  1.0
  C  C76  1  0.33349000  0.42917000  0.73791000  1.0
  C  C77  1  0.66651000  0.57083000  0.26209000  1.0
  C  C78  1  0.81091000  0.30575000  0.78113000  1.0
  C  C79  1  0.18908000  0.69424000  0.21887000  1.0
  C  C80  1  0.89043000  0.17390000  0.86213000  1.0
  C  C81  1  0.10958000  0.82610000  0.13787000  1.0
  C  C82  1  0.83148000  0.05380000  0.85659000  1.0
  C  C83  1  0.16850000  0.94620000  0.14341000  1.0
  C  C84  1  0.63375000  0.08776000  0.86060000  1.0
  C  C85  1  0.36624000  0.91224000  0.13941000  1.0
  C  C86  1  0.57515000  0.96293000  0.86979000  1.0
  C  C87  1  0.42484000  0.03707000  0.13022000  1.0
  C  C88  1  0.37728000  0.00005000  0.86734000  1.0
  C  C89  1  0.62271000  0.99996000  0.13265000  1.0
  C  C90  1  0.31751000  0.87433000  0.88145000  1.0
  C  C91  1  0.68247000  0.12568000  0.11854000  1.0
  C  C92  1  0.37353000  0.80671000  0.79601000  1.0
  C  C93  1  0.62647000  0.19330000  0.20399000  1.0
  N  N94  1  0.77138000  0.67514000  0.69990000  1.0
  N  N95  1  0.22862000  0.32487000  0.30011000  1.0
  N  N96  1  0.55407000  0.69091000  0.57792000  1.0
  N  N97  1  0.44594000  0.30908000  0.42208000  1.0
  N  N98  1  0.40353000  0.52000000  0.67738000  1.0
  N  N99  1  0.59648000  0.47999000  0.32262000  1.0
  O  O100  1  0.70845000  0.40837000  0.81289000  1.0
  O  O101  1  0.29155000  0.59163000  0.18711000  1.0
  O  O102  1  0.84644000  0.30736000  0.69232000  1.0
  O  O103  1  0.15353000  0.69263000  0.30769000  1.0
  O  O104  1  0.34309000  0.88193000  0.70905000  1.0
  O  O105  1  0.65691000  0.11808000  0.29095000  1.0
  O  O106  1  0.44798000  0.67481000  0.82140000  1.0
  O  O107  1  0.55201000  0.32521000  0.17860000  1.0
