# generated using pymatgen
data_ZnH24C30(NO2)2
_symmetry_space_group_name_H-M   'P 1'
_cell_length_a   9.36300000
_cell_length_b   9.81526000
_cell_length_c   14.49600000
_cell_angle_alpha   106.95400000
_cell_angle_beta   97.40550000
_cell_angle_gamma   102.00900000
_symmetry_Int_Tables_number   1
_chemical_formula_structural   ZnH24C30(NO2)2
_chemical_formula_sum   'Zn2 H48 C60 N4 O8'
_cell_volume   1220.54955214
_cell_formula_units_Z   2
loop_
 _symmetry_equiv_pos_site_id
 _symmetry_equiv_pos_as_xyz
  1  'x, y, z'
loop_
 _atom_site_type_symbol
 _atom_site_label
 _atom_site_symmetry_multiplicity
 _atom_site_fract_x
 _atom_site_fract_y
 _atom_site_fract_z
 _atom_site_occupancy
  Zn  Zn0  1  0.08272000  0.61368000  0.90973000  1.0
  Zn  Zn1  1  0.91728000  0.38632000  0.09027000  1.0
  H  H2  1  0.40967000  0.77928000  0.00526000  1.0
  H  H3  1  0.59033000  0.22072000  0.99474000  1.0
  H  H4  1  0.54922000  0.02323000  0.12949000  1.0
  H  H5  1  0.45078000  0.97677000  0.87051000  1.0
  H  H6  1  0.12329000  0.12482000  0.14995000  1.0
  H  H7  1  0.87671000  0.87518000  0.85005000  1.0
  H  H8  1  0.00517000  0.87676000  0.02653000  1.0
  H  H9  1  0.99483000  0.12323000  0.97347000  1.0
  H  H10  1  0.55152000  0.25496000  0.24163000  1.0
  H  H11  1  0.44848000  0.74504000  0.75837000  1.0
  H  H12  1  0.24412000  0.32230000  0.25355000  1.0
  H  H13  1  0.75588000  0.67769000  0.74645000  1.0
  H  H14  1  0.66767000  0.45532000  0.34965000  1.0
  H  H15  1  0.33233000  0.54468000  0.65035000  1.0
  H  H16  1  0.78645000  0.69062000  0.48156000  1.0
  H  H17  1  0.21355000  0.30938000  0.51844000  1.0
  H  H18  1  0.35697000  0.78078000  0.49767000  1.0
  H  H19  1  0.64303000  0.21922000  0.50233000  1.0
  H  H20  1  0.23663000  0.54253000  0.36525000  1.0
  H  H21  1  0.76337000  0.45747000  0.63475000  1.0
  H  H22  1  0.56885000  0.94927000  0.61152000  1.0
  H  H23  1  0.43115000  0.05073000  0.38848000  1.0
  H  H24  1  0.86852000  0.93184000  0.54881000  1.0
  H  H25  1  0.13148000  0.06816000  0.45119000  1.0
  H  H26  1  0.06299000  0.16155000  0.61442000  1.0
  H  H27  1  0.93702000  0.83846000  0.38558000  1.0
  H  H28  1  0.16541000  0.41249000  0.73897000  1.0
  H  H29  1  0.83459000  0.58751000  0.26103000  1.0
  H  H30  1  0.78842000  0.37761000  0.86035000  1.0
  H  H31  1  0.21158000  0.62240000  0.13965000  1.0
  H  H32  1  0.66901000  0.12888000  0.74225000  1.0
  H  H33  1  0.33099000  0.87112000  0.25775000  1.0
  H  H34  1  0.29488000  0.97392000  0.60982000  1.0
  H  H35  1  0.70512000  0.02608000  0.39018000  1.0
  H  H36  1  0.46336000  0.22688000  0.67963000  1.0
  H  H37  1  0.53664000  0.77312000  0.32037000  1.0
  H  H38  1  0.47155000  0.38224000  0.85013000  1.0
  H  H39  1  0.52845000  0.61776000  0.14987000  1.0
  H  H40  1  0.14922000  0.02757000  0.88483000  1.0
  H  H41  1  0.85078000  0.97242000  0.11516000  1.0
  H  H42  1  0.98775000  0.83836000  0.68222000  1.0
  H  H43  1  0.01225000  0.16164000  0.31778000  1.0
  H  H44  1  0.13201000  0.77282000  0.62876000  1.0
  H  H45  1  0.86799000  0.22718000  0.37124000  1.0
  H  H46  1  0.43278000  0.37921000  0.01570000  1.0
  H  H47  1  0.56722000  0.62079000  0.98431000  1.0
  H  H48  1  0.28704000  0.24103000  0.02864000  1.0
  H  H49  1  0.71296000  0.75897000  0.97137000  1.0
  C  C50  1  0.35175000  0.85973000  0.03969000  1.0
  C  C51  1  0.64824000  0.14027000  0.96031000  1.0
  C  C52  1  0.42814000  0.99536000  0.10885000  1.0
  C  C53  1  0.57186000  0.00464000  0.89115000  1.0
  C  C54  1  0.34920000  0.09597000  0.15255000  1.0
  C  C55  1  0.65080000  0.90402000  0.84746000  1.0
  C  C56  1  0.19267000  0.05230000  0.12121000  1.0
  C  C57  1  0.80733000  0.94769000  0.87880000  1.0
  C  C58  1  0.12555000  0.91532000  0.05184000  1.0
  C  C59  1  0.87445000  0.08468000  0.94816000  1.0
  C  C60  1  0.43030000  0.23655000  0.22589000  1.0
  C  C61  1  0.56970000  0.76345000  0.77411000  1.0
  C  C62  1  0.36534000  0.34140000  0.27217000  1.0
  C  C63  1  0.63466000  0.65860000  0.72782000  1.0
  C  C64  1  0.44250000  0.48120000  0.34754000  1.0
  C  C65  1  0.55750000  0.51880000  0.65246000  1.0
  C  C66  1  0.59902000  0.52643000  0.38181000  1.0
  C  C67  1  0.40098000  0.47357000  0.61819000  1.0
  C  C68  1  0.66588000  0.65979000  0.45536000  1.0
  C  C69  1  0.33412000  0.34021000  0.54464000  1.0
  C  C70  1  0.58081000  0.75530000  0.49836000  1.0
  C  C71  1  0.41919000  0.24470000  0.50163000  1.0
  C  C72  1  0.42484000  0.70894000  0.46531000  1.0
  C  C73  1  0.57516000  0.29106000  0.53469000  1.0
  C  C74  1  0.35744000  0.57583000  0.39101000  1.0
  C  C75  1  0.64256000  0.42417000  0.60899000  1.0
  C  C76  1  0.64685000  0.89915000  0.57196000  1.0
  C  C77  1  0.35315000  0.10085000  0.42804000  1.0
  C  C78  1  0.79138000  0.97703000  0.59185000  1.0
  C  C79  1  0.20862000  0.02297000  0.40814000  1.0
  C  C80  1  0.85372000  0.12256000  0.66465000  1.0
  C  C81  1  0.14628000  0.87745000  0.33535000  1.0
  C  C82  1  0.99633000  0.20627000  0.66622000  1.0
  C  C83  1  0.00367000  0.79373000  0.33378000  1.0
  C  C84  1  0.05519000  0.34549000  0.73572000  1.0
  C  C85  1  0.94481000  0.65452000  0.26428000  1.0
  C  C86  1  0.84417000  0.32670000  0.80332000  1.0
  C  C87  1  0.15583000  0.67331000  0.19667000  1.0
  C  C88  1  0.77804000  0.18725000  0.73654000  1.0
  C  C89  1  0.22195000  0.81275000  0.26345000  1.0
  C  C90  1  0.20815000  0.98384000  0.74197000  1.0
  C  C91  1  0.79185000  0.01616000  0.25803000  1.0
  C  C92  1  0.29898000  0.04101000  0.68537000  1.0
  C  C93  1  0.70102000  0.95899000  0.31463000  1.0
  C  C94  1  0.39339000  0.18349000  0.72429000  1.0
  C  C95  1  0.60661000  0.81651000  0.27571000  1.0
  C  C96  1  0.39866000  0.27062000  0.82018000  1.0
  C  C97  1  0.60134000  0.72937000  0.17982000  1.0
  C  C98  1  0.31081000  0.21538000  0.87907000  1.0
  C  C99  1  0.68919000  0.78461000  0.12093000  1.0
  C  C100  1  0.21626000  0.07233000  0.83905000  1.0
  C  C101  1  0.78374000  0.92766000  0.16096000  1.0
  C  C102  1  0.10340000  0.83058000  0.69831000  1.0
  C  C103  1  0.89660000  0.16942000  0.30169000  1.0
  C  C104  1  0.11222000  0.73846000  0.76680000  1.0
  C  C105  1  0.88778000  0.26153000  0.23319000  1.0
  C  C106  1  0.31840000  0.30989000  0.98343000  1.0
  C  C107  1  0.68160000  0.69011000  0.01657000  1.0
  C  C108  1  0.21318000  0.41096000  0.98612000  1.0
  C  C109  1  0.78683000  0.58903000  0.01388000  1.0
  N  N110  1  0.20229000  0.81880000  0.01171000  1.0
  N  N111  1  0.79771000  0.18119000  0.98829000  1.0
  N  N112  1  0.98041000  0.40586000  0.80349000  1.0
  N  N113  1  0.01959000  0.59414000  0.19651000  1.0
  O  O114  1  0.22115000  0.68326000  0.77566000  1.0
  O  O115  1  0.77885000  0.31674000  0.22434000  1.0
  O  O116  1  0.00655000  0.72415000  0.81458000  1.0
  O  O117  1  0.99345000  0.27584000  0.18542000  1.0
  O  O118  1  0.09418000  0.37758000  0.01646000  1.0
  O  O119  1  0.90582000  0.62242000  0.98354000  1.0
  O  O120  1  0.25151000  0.51982000  0.95550000  1.0
  O  O121  1  0.74850000  0.48018000  0.04450000  1.0
