# generated using pymatgen
data_CdH4C6(SeN2)2
_symmetry_space_group_name_H-M   'P 1'
_cell_length_a   8.67475000
_cell_length_b   9.37253000
_cell_length_c   29.28770000
_cell_angle_alpha   89.00120000
_cell_angle_beta   87.84120000
_cell_angle_gamma   62.43360000
_symmetry_Int_Tables_number   1
_chemical_formula_structural   CdH4C6(SeN2)2
_chemical_formula_sum   'Cd8 H32 C48 Se16 N32'
_cell_volume   2109.39192595
_cell_formula_units_Z   8
loop_
 _symmetry_equiv_pos_site_id
 _symmetry_equiv_pos_as_xyz
  1  'x, y, z'
loop_
 _atom_site_type_symbol
 _atom_site_label
 _atom_site_symmetry_multiplicity
 _atom_site_fract_x
 _atom_site_fract_y
 _atom_site_fract_z
 _atom_site_occupancy
  Cd  Cd0  1  0.82109000  0.33598000  0.62755000  1.0
  Cd  Cd1  1  0.84292000  0.33597000  0.87246000  1.0
  Cd  Cd2  1  0.17891000  0.66402000  0.37245000  1.0
  Cd  Cd3  1  0.15708000  0.66403000  0.12754000  1.0
  Cd  Cd4  1  0.50000000  0.00000000  0.50000000  1.0
  Cd  Cd5  1  0.50000000  0.00000000  0.00000000  1.0
  Cd  Cd6  1  0.51617000  0.96762000  0.75000000  1.0
  Cd  Cd7  1  0.48383000  0.03238000  0.25000000  1.0
  H  H8  1  0.72399000  0.65731000  0.56054000  1.0
  H  H9  1  0.61862000  0.65734000  0.93947000  1.0
  H  H10  1  0.27601000  0.34269000  0.43946000  1.0
  H  H11  1  0.38139000  0.34266000  0.06053000  1.0
  H  H12  1  0.23262000  0.83071000  0.50711000  1.0
  H  H13  1  0.93645000  0.83096000  0.99286000  1.0
  H  H14  1  0.76738000  0.16930000  0.49289000  1.0
  H  H15  1  0.06355000  0.16904000  0.00714000  1.0
  H  H16  1  0.17550000  0.63283000  0.55620000  1.0
  H  H17  1  0.19152000  0.63296000  0.94381000  1.0
  H  H18  1  0.82450000  0.36717000  0.44380000  1.0
  H  H19  1  0.80848000  0.36704000  0.05619000  1.0
  H  H20  1  0.41169000  0.45684000  0.60979000  1.0
  H  H21  1  0.13140000  0.45688000  0.89024000  1.0
  H  H22  1  0.58831000  0.54316000  0.39021000  1.0
  H  H23  1  0.86859000  0.54312000  0.10976000  1.0
  H  H24  1  0.17691000  0.20521000  0.68932000  1.0
  H  H25  1  0.61785000  0.20525000  0.81068000  1.0
  H  H26  1  0.82309000  0.79479000  0.31068000  1.0
  H  H27  1  0.38215000  0.79475000  0.18932000  1.0
  H  H28  1  0.36255000  0.72610000  0.72734000  1.0
  H  H29  1  0.91131000  0.72616000  0.77265000  1.0
  H  H30  1  0.63744000  0.27390000  0.27266000  1.0
  H  H31  1  0.08869000  0.27384000  0.22735000  1.0
  H  H32  1  0.13577000  0.70521000  0.67972000  1.0
  H  H33  1  0.15901000  0.70524000  0.82026000  1.0
  H  H34  1  0.86423000  0.29479000  0.32028000  1.0
  H  H35  1  0.84099000  0.29476000  0.17974000  1.0
  H  H36  1  0.92699000  0.95892000  0.63841000  1.0
  H  H37  1  0.11408000  0.95893000  0.86159000  1.0
  H  H38  1  0.07301000  0.04108000  0.36159000  1.0
  H  H39  1  0.88592000  0.04107000  0.13841000  1.0
  C  C40  1  0.82472000  0.67008000  0.67695000  1.0
  C  C41  1  0.50520000  0.67006000  0.82304000  1.0
  C  C42  1  0.17529000  0.32991000  0.32305000  1.0
  C  C43  1  0.49480000  0.32994000  0.17696000  1.0
  C  C44  1  0.55108000  0.27682000  0.70592000  1.0
  C  C45  1  0.17208000  0.27681000  0.79408000  1.0
  C  C46  1  0.44892000  0.72318000  0.29408000  1.0
  C  C47  1  0.82793000  0.72319000  0.20592000  1.0
  C  C48  1  0.04558000  0.21602000  0.52220000  1.0
  C  C49  1  0.73844000  0.21600000  0.97782000  1.0
  C  C50  1  0.95442000  0.78398000  0.47779000  1.0
  C  C51  1  0.26156000  0.78399000  0.02218000  1.0
  C  C52  1  0.57298000  0.15604000  0.59785000  1.0
  C  C53  1  0.27092000  0.15618000  0.90219000  1.0
  C  C54  1  0.42702000  0.84397000  0.40215000  1.0
  C  C55  1  0.72907000  0.84381000  0.09781000  1.0
  C  C56  1  0.60049000  0.65254000  0.55970000  1.0
  C  C57  1  0.74687000  0.65260000  0.94031000  1.0
  C  C58  1  0.39951000  0.34746000  0.44030000  1.0
  C  C59  1  0.25313000  0.34740000  0.05969000  1.0
  C  C60  1  0.32927000  0.74658000  0.53020000  1.0
  C  C61  1  0.92398000  0.74676000  0.96980000  1.0
  C  C62  1  0.67074000  0.25341000  0.46980000  1.0
  C  C63  1  0.07603000  0.25324000  0.03020000  1.0
  C  C64  1  0.29815000  0.63810000  0.55712000  1.0
  C  C65  1  0.06361000  0.63822000  0.94289000  1.0
  C  C66  1  0.70185000  0.36190000  0.44288000  1.0
  C  C67  1  0.93640000  0.36178000  0.05711000  1.0
  C  C68  1  0.42804000  0.54083000  0.58635000  1.0
  C  C69  1  0.03105000  0.54088000  0.91368000  1.0
  C  C70  1  0.57196000  0.45917000  0.41365000  1.0
  C  C71  1  0.96896000  0.45912000  0.08632000  1.0
  C  C72  1  0.16675000  0.09361000  0.68745000  1.0
  C  C73  1  0.73960000  0.09364000  0.81255000  1.0
  C  C74  1  0.83324000  0.90639000  0.31255000  1.0
  C  C75  1  0.26039000  0.90635000  0.18745000  1.0
  C  C76  1  0.26853000  0.82861000  0.70829000  1.0
  C  C77  1  0.90283000  0.82865000  0.79171000  1.0
  C  C78  1  0.73147000  0.17139000  0.29171000  1.0
  C  C79  1  0.09717000  0.17134000  0.20829000  1.0
  C  C80  1  0.14382000  0.81740000  0.68228000  1.0
  C  C81  1  0.03877000  0.81743000  0.81771000  1.0
  C  C82  1  0.85618000  0.18260000  0.31772000  1.0
  C  C83  1  0.96124000  0.18257000  0.18229000  1.0
  C  C84  1  0.03017000  0.95529000  0.65936000  1.0
  C  C85  1  0.01453000  0.95530000  0.84063000  1.0
  C  C86  1  0.96983000  0.04472000  0.34064000  1.0
  C  C87  1  0.98547000  0.04470000  0.15937000  1.0
  Se  Se88  1  0.99322000  0.52220000  0.64032000  1.0
  Se  Se89  1  0.48458000  0.52220000  0.85969000  1.0
  Se  Se90  1  0.00679000  0.47779000  0.35968000  1.0
  Se  Se91  1  0.51542000  0.47780000  0.14032000  1.0
  Se  Se92  1  0.62698000  0.42530000  0.70917000  1.0
  Se  Se93  1  0.94772000  0.42534000  0.79085000  1.0
  Se  Se94  1  0.37302000  0.57471000  0.29083000  1.0
  Se  Se95  1  0.05229000  0.57466000  0.20915000  1.0
  Se  Se96  1  0.15572000  0.12240000  0.46928000  1.0
  Se  Se97  1  0.72193000  0.12241000  0.03075000  1.0
  Se  Se98  1  0.84428000  0.87760000  0.53072000  1.0
  Se  Se99  1  0.27807000  0.87759000  0.96925000  1.0
  Se  Se100  1  0.37698000  0.14370000  0.58685000  1.0
  Se  Se101  1  0.47912000  0.14415000  0.91320000  1.0
  Se  Se102  1  0.62303000  0.85630000  0.41315000  1.0
  Se  Se103  1  0.52088000  0.85584000  0.08679000  1.0
  N  N104  1  0.71716000  0.76736000  0.70113000  1.0
  N  N105  1  0.51551000  0.76732000  0.79886000  1.0
  N  N106  1  0.28284000  0.23263000  0.29887000  1.0
  N  N107  1  0.48449000  0.23267000  0.20114000  1.0
  N  N108  1  0.50270000  0.17826000  0.70467000  1.0
  N  N109  1  0.31899000  0.17821000  0.79534000  1.0
  N  N110  1  0.49729000  0.82174000  0.29534000  1.0
  N  N111  1  0.68101000  0.82179000  0.20466000  1.0
  N  N112  1  0.96926000  0.27483000  0.55659000  1.0
  N  N113  1  0.75594000  0.27477000  0.94342000  1.0
  N  N114  1  0.03073000  0.72517000  0.44341000  1.0
  N  N115  1  0.24406000  0.72523000  0.05658000  1.0
  N  N116  1  0.69858000  0.16993000  0.60479000  1.0
  N  N117  1  0.13152000  0.16991000  0.89520000  1.0
  N  N118  1  0.30143000  0.83007000  0.39521000  1.0
  N  N119  1  0.86846000  0.83009000  0.10480000  1.0
  N  N120  1  0.58070000  0.54537000  0.58678000  1.0
  N  N121  1  0.87387000  0.54538000  0.91325000  1.0
  N  N122  1  0.41930000  0.45463000  0.41322000  1.0
  N  N123  1  0.12612000  0.45462000  0.08675000  1.0
  N  N124  1  0.47897000  0.75620000  0.53215000  1.0
  N  N125  1  0.76467000  0.75634000  0.96784000  1.0
  N  N126  1  0.52103000  0.24380000  0.46785000  1.0
  N  N127  1  0.23534000  0.24366000  0.03216000  1.0
  N  N128  1  0.04124000  0.09346000  0.66218000  1.0
  N  N129  1  0.86527000  0.09348000  0.83782000  1.0
  N  N130  1  0.95876000  0.90654000  0.33782000  1.0
  N  N131  1  0.13473000  0.90652000  0.16218000  1.0
  N  N132  1  0.28050000  0.96627000  0.71063000  1.0
  N  N133  1  0.75320000  0.96631000  0.78936000  1.0
  N  N134  1  0.71950000  0.03373000  0.28937000  1.0
  N  N135  1  0.24680000  0.03369000  0.21064000  1.0
