# generated using pymatgen
data_CuH8C14IN
_symmetry_space_group_name_H-M   'P 1'
_cell_length_a   4.06110000
_cell_length_b   16.37661988
_cell_length_c   18.81400000
_cell_angle_alpha   113.22999695
_cell_angle_beta   90.07570000
_cell_angle_gamma   97.09005863
_symmetry_Int_Tables_number   1
_chemical_formula_structural   CuH8C14IN
_chemical_formula_sum   'Cu4 H32 C56 I4 N4'
_cell_volume   1139.31404875
_cell_formula_units_Z   4
loop_
 _symmetry_equiv_pos_site_id
 _symmetry_equiv_pos_as_xyz
  1  'x, y, z'
loop_
 _atom_site_type_symbol
 _atom_site_label
 _atom_site_symmetry_multiplicity
 _atom_site_fract_x
 _atom_site_fract_y
 _atom_site_fract_z
 _atom_site_occupancy
  Cu  Cu0  1  0.96650000  0.49576000  0.79388000  1.0
  Cu  Cu1  1  0.47000000  0.50384000  0.70570000  1.0
  Cu  Cu2  1  0.03347000  0.50423000  0.20612000  1.0
  Cu  Cu3  1  0.52998000  0.49616000  0.29430000  1.0
  H  H4  1  0.21557000  0.47830000  0.93706000  1.0
  H  H5  1  0.73757000  0.52162000  0.56297000  1.0
  H  H6  1  0.78444000  0.52169000  0.06293000  1.0
  H  H7  1  0.26241000  0.47839000  0.43703000  1.0
  H  H8  1  0.55307000  0.32244000  0.75199000  1.0
  H  H9  1  0.23151000  0.67747000  0.74787000  1.0
  H  H10  1  0.44690000  0.67755000  0.24801000  1.0
  H  H11  1  0.76847000  0.32254000  0.25214000  1.0
  H  H12  1  0.11570000  0.36854000  0.99934000  1.0
  H  H13  1  0.74702000  0.63138000  0.50074000  1.0
  H  H14  1  0.88434000  0.63144000  0.00065000  1.0
  H  H15  1  0.25295000  0.36863000  0.49926000  1.0
  H  H16  1  0.43757000  0.20372000  0.80321000  1.0
  H  H17  1  0.23312000  0.79599000  0.69644000  1.0
  H  H18  1  0.56245000  0.79626000  0.19679000  1.0
  H  H19  1  0.76685000  0.20402000  0.30356000  1.0
  H  H20  1  0.98931000  0.21115000  0.08064000  1.0
  H  H21  1  0.77621000  0.78862000  0.41935000  1.0
  H  H22  1  0.01069000  0.78884000  0.91937000  1.0
  H  H23  1  0.22380000  0.21138000  0.58064000  1.0
  H  H24  1  0.73961000  0.95270000  0.15792000  1.0
  H  H25  1  0.78768000  0.04736000  0.34230000  1.0
  H  H26  1  0.26040000  0.04729000  0.84208000  1.0
  H  H27  1  0.21232000  0.95265000  0.65770000  1.0
  H  H28  1  0.12718000  0.08703000  0.24020000  1.0
  H  H29  1  0.04000000  0.91289000  0.26011000  1.0
  H  H30  1  0.87280000  0.91296000  0.75981000  1.0
  H  H31  1  0.96000000  0.08712000  0.73989000  1.0
  H  H32  1  0.24748000  0.21667000  0.20091000  1.0
  H  H33  1  0.02945000  0.78314000  0.29930000  1.0
  H  H34  1  0.75251000  0.78333000  0.79910000  1.0
  H  H35  1  0.97056000  0.21687000  0.70070000  1.0
  C  C36  1  0.04060000  0.41695000  0.91023000  1.0
  C  C37  1  0.62376000  0.58294000  0.58973000  1.0
  C  C38  1  0.95941000  0.58304000  0.08977000  1.0
  C  C39  1  0.37621000  0.41707000  0.41026000  1.0
  C  C40  1  0.67392000  0.32960000  0.80638000  1.0
  C  C41  1  0.34460000  0.67024000  0.69347000  1.0
  C  C42  1  0.32608000  0.67039000  0.19362000  1.0
  C  C43  1  0.65537000  0.32977000  0.30653000  1.0
  C  C44  1  0.98628000  0.35565000  0.94437000  1.0
  C  C45  1  0.63023000  0.64422000  0.55560000  1.0
  C  C46  1  0.01375000  0.64434000  0.05562000  1.0
  C  C47  1  0.36973000  0.35579000  0.44440000  1.0
  C  C48  1  0.64456000  0.00378000  0.07096000  1.0
  C  C49  1  0.64095000  0.99621000  0.42911000  1.0
  C  C50  1  0.35547000  0.99621000  0.92904000  1.0
  C  C51  1  0.35906000  0.00380000  0.57089000  1.0
  C  C52  1  0.71699000  0.07804000  0.04851000  1.0
  C  C53  1  0.63799000  0.92185000  0.45147000  1.0
  C  C54  1  0.28303000  0.92195000  0.95149000  1.0
  C  C55  1  0.36202000  0.07816000  0.54853000  1.0
  C  C56  1  0.76831000  0.27547000  0.90602000  1.0
  C  C57  1  0.49129000  0.72426000  0.59370000  1.0
  C  C58  1  0.23174000  0.72452000  0.09398000  1.0
  C  C59  1  0.50868000  0.27575000  0.40631000  1.0
  C  C60  1  0.64576000  0.14600000  0.95557000  1.0
  C  C61  1  0.49728000  0.85370000  0.54411000  1.0
  C  C62  1  0.35429000  0.85399000  0.04443000  1.0
  C  C63  1  0.50271000  0.14631000  0.45589000  1.0
  C  C64  1  0.60936000  0.26394000  0.83526000  1.0
  C  C65  1  0.34483000  0.73579000  0.66446000  1.0
  C  C66  1  0.39066000  0.73604000  0.16473000  1.0
  C  C67  1  0.65515000  0.26422000  0.33554000  1.0
  C  C68  1  0.57272000  0.07371000  0.97779000  1.0
  C  C69  1  0.49759000  0.92613000  0.52205000  1.0
  C  C70  1  0.42732000  0.92628000  0.02221000  1.0
  C  C71  1  0.50241000  0.07388000  0.47795000  1.0
  C  C72  1  0.93387000  0.15473000  0.09766000  1.0
  C  C73  1  0.77752000  0.84507000  0.40235000  1.0
  C  C74  1  0.06613000  0.84526000  0.90235000  1.0
  C  C75  1  0.22248000  0.15493000  0.59765000  1.0
  C  C76  1  0.79385000  0.00964000  0.14157000  1.0
  C  C77  1  0.78437000  0.99037000  0.35862000  1.0
  C  C78  1  0.20617000  0.99035000  0.85844000  1.0
  C  C79  1  0.21564000  0.00964000  0.64138000  1.0
  C  C80  1  0.70833000  0.20814000  0.93497000  1.0
  C  C81  1  0.49697000  0.79137000  0.56453000  1.0
  C  C82  1  0.29173000  0.79184000  0.06502000  1.0
  C  C83  1  0.50300000  0.20864000  0.43548000  1.0
  C  C84  1  0.00706000  0.08443000  0.18724000  1.0
  C  C85  1  0.92216000  0.91547000  0.31295000  1.0
  C  C86  1  0.99295000  0.91557000  0.81277000  1.0
  C  C87  1  0.07783000  0.08453000  0.68704000  1.0
  C  C88  1  0.07683000  0.15778000  0.16503000  1.0
  C  C89  1  0.91786000  0.84205000  0.33508000  1.0
  C  C90  1  0.92316000  0.84222000  0.83497000  1.0
  C  C91  1  0.08214000  0.15795000  0.66492000  1.0
  I  I92  1  0.51367000  0.60589000  0.85631000  1.0
  I  I93  1  0.90707000  0.39346000  0.64340000  1.0
  I  I94  1  0.48631000  0.39411000  0.14368000  1.0
  I  I95  1  0.09291000  0.60654000  0.35660000  1.0
  N  N96  1  0.89013000  0.40507000  0.84215000  1.0
  N  N97  1  0.48499000  0.59471000  0.65773000  1.0
  N  N98  1  0.10985000  0.59492000  0.15785000  1.0
  N  N99  1  0.51497000  0.40529000  0.34227000  1.0
