# generated using pymatgen
data_Zr6H44C57O32
_symmetry_space_group_name_H-M   'P 1'
_cell_length_a   14.76781132
_cell_length_b   14.77370000
_cell_length_c   14.77227449
_cell_angle_alpha   119.96276883
_cell_angle_beta   119.71994889
_cell_angle_gamma   60.07769805
_symmetry_Int_Tables_number   1
_chemical_formula_structural   Zr6H44C57O32
_chemical_formula_sum   'Zr6 H44 C57 O32'
_cell_volume   2285.73934721
_cell_formula_units_Z   1
loop_
 _symmetry_equiv_pos_site_id
 _symmetry_equiv_pos_as_xyz
  1  'x, y, z'
loop_
 _atom_site_type_symbol
 _atom_site_label
 _atom_site_symmetry_multiplicity
 _atom_site_fract_x
 _atom_site_fract_y
 _atom_site_fract_z
 _atom_site_occupancy
  Zr  Zr0  1  0.11451000  0.37168000  0.61331000  1.0
  Zr  Zr1  1  0.87732000  0.61387000  0.37859000  1.0
  Zr  Zr2  1  0.11436000  0.61213000  0.61612000  1.0
  Zr  Zr3  1  0.87360000  0.37512000  0.37535000  1.0
  Zr  Zr4  1  0.11372000  0.37369000  0.37501000  1.0
  Zr  Zr5  1  0.87550000  0.61217000  0.61615000  1.0
  H  H6  1  0.27652000  0.39702000  0.58641000  1.0
  H  H7  1  0.90063000  0.40139000  0.21356000  1.0
  H  H8  1  0.90310000  0.77536000  0.59386000  1.0
  H  H9  1  0.89934000  0.39914000  0.58930000  1.0
  H  H10  1  0.35557000  0.01982000  0.56268000  1.0
  H  H11  1  0.45554000  0.12882000  0.41662000  1.0
  H  H12  1  0.52909000  0.85336000  0.56364000  1.0
  H  H13  1  0.10696000  0.32585000  0.88739000  1.0
  H  H14  1  0.92354000  0.67388000  0.95949000  1.0
  H  H15  1  0.10135000  0.33567000  0.05923000  1.0
  H  H16  1  0.16262000  0.04977000  0.10236000  1.0
  H  H17  1  0.84518000  0.08859000  0.07974000  1.0
  H  H18  1  0.15629000  0.87991000  0.93215000  1.0
  H  H19  1  0.57017000  0.64671000  0.63730000  1.0
  H  H20  1  0.56699000  0.36878000  0.33653000  1.0
  H  H21  1  0.40006000  0.64068000  0.63102000  1.0
  H  H22  1  0.34630000  0.36078000  0.97404000  1.0
  H  H23  1  0.43123000  0.25936000  0.88979000  1.0
  H  H24  1  0.60149000  0.26079000  0.06035000  1.0
  H  H25  1  0.51615000  0.36038000  0.14473000  1.0
  H  H26  1  0.84640000  0.07465000  0.35019000  1.0
  H  H27  1  0.14305000  0.07855000  0.63034000  1.0
  H  H28  1  0.85511000  0.90527000  0.35961000  1.0
  H  H29  1  0.62644000  0.04794000  0.39937000  1.0
  H  H30  1  0.73594000  0.95714000  0.47356000  1.0
  H  H31  1  0.65974000  0.90098000  0.33562000  1.0
  H  H32  1  0.82573000  0.76090000  0.10894000  1.0
  H  H33  1  0.91613000  0.72348000  0.22946000  1.0
  H  H34  1  0.95746000  0.77625000  0.17585000  1.0
  H  H35  1  0.74716000  0.97771000  0.94590000  1.0
  H  H36  1  0.76365000  0.90996000  0.81278000  1.0
  H  H37  1  0.82604000  0.83402000  0.90155000  1.0
  H  H38  1  0.38271000  0.28010000  0.32012000  1.0
  H  H39  1  0.30060000  0.37445000  0.24791000  1.0
  H  H40  1  0.43697000  0.28892000  0.24125000  1.0
  H  H41  1  0.23583000  0.95446000  0.71683000  1.0
  H  H42  1  0.15286000  0.90712000  0.72814000  1.0
  H  H43  1  0.23129000  0.81641000  0.63881000  1.0
  H  H44  1  0.52597000  0.73902000  0.05043000  1.0
  H  H45  1  0.59114000  0.71807000  0.17984000  1.0
  H  H46  1  0.66635000  0.65211000  0.08882000  1.0
  H  H47  1  0.51089000  0.64478000  0.88787000  1.0
  H  H48  1  0.40748000  0.58620000  0.78042000  1.0
  H  H49  1  0.37037000  0.71369000  0.88301000  1.0
  C  C50  1  0.29447000  0.18401000  0.48821000  1.0
  C  C51  1  0.00234000  0.50313000  0.19961000  1.0
  C  C52  1  0.69003000  0.79763000  0.49486000  1.0
  C  C53  1  0.00477000  0.49465000  0.80526000  1.0
  C  C54  1  0.29836000  0.49299000  0.79835000  1.0
  C  C55  1  0.99389000  0.18675000  0.48896000  1.0
  C  C56  1  0.68687000  0.50151000  0.19845000  1.0
  C  C57  1  0.00123000  0.79598000  0.49790000  1.0
  C  C58  1  0.29225000  0.49943000  0.48849000  1.0
  C  C59  1  0.99814000  0.79179000  0.80639000  1.0
  C  C60  1  0.68427000  0.50220000  0.49204000  1.0
  C  C61  1  0.00009000  0.18430000  0.19672000  1.0
  C  C62  1  0.58937000  0.89914000  0.49224000  1.0
  C  C63  1  0.39554000  0.08320000  0.48829000  1.0
  C  C64  1  0.57094000  0.97705000  0.45054000  1.0
  C  C65  1  0.41566000  0.00672000  0.53122000  1.0
  C  C66  1  0.47253000  0.06734000  0.44839000  1.0
  C  C67  1  0.51185000  0.91503000  0.53206000  1.0
  C  C68  1  0.00906000  0.50977000  0.10521000  1.0
  C  C69  1  0.01171000  0.49948000  0.91186000  1.0
  C  C70  1  0.96116000  0.60851000  0.08065000  1.0
  C  C71  1  0.06591000  0.40368000  0.94105000  1.0
  C  C72  1  0.96220000  0.59986000  0.98229000  1.0
  C  C73  1  0.06308000  0.40949000  0.03636000  1.0
  C  C74  1  0.99689000  0.89029000  0.90996000  1.0
  C  C75  1  0.00268000  0.07964000  0.09949000  1.0
  C  C76  1  0.90703000  0.94758000  0.95127000  1.0
  C  C77  1  0.09213000  0.02085000  0.05956000  1.0
  C  C78  1  0.91304000  0.04165000  0.04614000  1.0
  C  C79  1  0.08834000  0.92707000  0.96559000  1.0
  C  C80  1  0.38865000  0.50126000  0.48095000  1.0
  C  C81  1  0.57904000  0.50619000  0.48746000  1.0
  C  C82  1  0.43342000  0.42355000  0.39398000  1.0
  C  C83  1  0.53162000  0.58520000  0.57044000  1.0
  C  C84  1  0.52889000  0.42828000  0.40054000  1.0
  C  C85  1  0.43746000  0.58169000  0.56649000  1.0
  C  C86  1  0.40034000  0.49574000  0.89675000  1.0
  C  C87  1  0.58604000  0.50610000  0.09874000  1.0
  C  C88  1  0.44030000  0.42764000  0.95729000  1.0
  C  C89  1  0.54339000  0.58120000  0.04187000  1.0
  C  C90  1  0.53236000  0.42992000  0.05267000  1.0
  C  C91  1  0.45810000  0.56945000  0.93751000  1.0
  C  C92  1  0.42353000  0.33640000  0.96091000  1.0
  C  C93  1  0.52971000  0.33718000  0.06808000  1.0
  C  C94  1  0.00366000  0.89684000  0.49969000  1.0
  C  C95  1  0.99550000  0.08550000  0.49021000  1.0
  C  C96  1  0.08730000  0.94506000  0.57899000  1.0
  C  C97  1  0.91293000  0.03782000  0.41294000  1.0
  C  C98  1  0.08048000  0.03897000  0.57127000  1.0
  C  C99  1  0.91799000  0.94427000  0.41848000  1.0
  C  C100  1  0.65235000  0.97051000  0.41259000  1.0
  C  C101  1  0.91270000  0.72297000  0.15377000  1.0
  C  C102  1  0.80533000  0.91589000  0.90014000  1.0
  C  C103  1  0.38615000  0.33688000  0.29548000  1.0
  C  C104  1  0.18224000  0.90346000  0.67068000  1.0
  C  C105  1  0.58388000  0.67753000  0.09213000  1.0
  C  C106  1  0.43540000  0.63202000  0.86882000  1.0
  O  O107  1  0.25293000  0.22134000  0.56312000  1.0
  O  O108  1  0.92218000  0.57548000  0.23647000  1.0
  O  O109  1  0.73200000  0.75665000  0.41924000  1.0
  O  O110  1  0.07751000  0.41422000  0.76115000  1.0
  O  O111  1  0.25137000  0.57210000  0.75960000  1.0
  O  O112  1  0.91551000  0.22742000  0.41378000  1.0
  O  O113  1  0.72492000  0.42168000  0.23386000  1.0
  O  O114  1  0.07519000  0.75537000  0.57446000  1.0
  O  O115  1  0.25287000  0.42172000  0.41514000  1.0
  O  O116  1  0.92169000  0.75052000  0.76302000  1.0
  O  O117  1  0.72662000  0.57603000  0.57206000  1.0
  O  O118  1  0.07570000  0.22471000  0.23378000  1.0
  O  O119  1  0.07395000  0.75582000  0.76636000  1.0
  O  O120  1  0.72551000  0.42389000  0.41674000  1.0
  O  O121  1  0.92085000  0.22716000  0.23441000  1.0
  O  O122  1  0.25696000  0.57386000  0.56933000  1.0
  O  O123  1  0.26212000  0.41377000  0.75979000  1.0
  O  O124  1  0.92417000  0.75712000  0.42027000  1.0
  O  O125  1  0.73212000  0.57455000  0.24084000  1.0
  O  O126  1  0.07085000  0.22615000  0.56494000  1.0
  O  O127  1  0.92557000  0.57000000  0.76517000  1.0
  O  O128  1  0.25852000  0.22688000  0.41488000  1.0
  O  O129  1  0.07522000  0.42207000  0.23434000  1.0
  O  O130  1  0.72698000  0.75861000  0.57137000  1.0
  O  O131  1  0.92635000  0.42586000  0.56258000  1.0
  O  O132  1  0.92868000  0.69508000  0.56541000  1.0
  O  O133  1  0.92798000  0.42648000  0.29372000  1.0
  O  O134  1  0.19638000  0.42451000  0.56117000  1.0
  O  O135  1  0.04531000  0.54310000  0.44677000  1.0
  O  O136  1  0.04320000  0.34449000  0.44464000  1.0
  O  O137  1  0.84661000  0.54373000  0.44745000  1.0
  O  O138  1  0.04441000  0.54089000  0.64392000  1.0
