# generated using pymatgen
data_AlH7C16O5F2
_symmetry_space_group_name_H-M   'P 1'
_cell_length_a   6.65414000
_cell_length_b   24.59040000
_cell_length_c   24.79980000
_cell_angle_alpha   90.03570000
_cell_angle_beta   89.94230000
_cell_angle_gamma   90.42780000
_symmetry_Int_Tables_number   1
_chemical_formula_structural   AlH7C16O5F2
_chemical_formula_sum   'Al4 H28 C64 O20 F8'
_cell_volume   4057.82484914
_cell_formula_units_Z   4
loop_
 _symmetry_equiv_pos_site_id
 _symmetry_equiv_pos_as_xyz
  1  'x, y, z'
loop_
 _atom_site_type_symbol
 _atom_site_label
 _atom_site_symmetry_multiplicity
 _atom_site_fract_x
 _atom_site_fract_y
 _atom_site_fract_z
 _atom_site_occupancy
  Al  Al0  1  0.98336000  0.49897000  0.00087000  1.0
  Al  Al1  1  0.48335000  0.49875000  0.99911000  1.0
  Al  Al2  1  0.01670000  0.00119000  0.50084000  1.0
  Al  Al3  1  0.51669000  0.00100000  0.49907000  1.0
  H  H4  1  0.22921000  0.51422000  0.93045000  1.0
  H  H5  1  0.72861000  0.51651000  0.06896000  1.0
  H  H6  1  0.27090000  0.98555000  0.56942000  1.0
  H  H7  1  0.77142000  0.98363000  0.43092000  1.0
  H  H8  1  0.44730000  0.13804000  0.59302000  1.0
  H  H9  1  0.44233000  0.20779000  0.66666667  1.0
  H  H10  1  0.07479000  0.10919000  0.62375000  1.0
  H  H11  1  0.42546000  0.39053000  0.87633000  1.0
  H  H12  1  0.05311000  0.36191000  0.90707000  1.0
  H  H13  1  0.05843000  0.29214000  0.83347000  1.0
  H  H14  1  0.94560000  0.89120000  0.37970000  1.0
  H  H15  1  0.93564000  0.82099000  0.30681000  1.0
  H  H16  1  0.57691000  0.86159000  0.40296000  1.0
  H  H17  1  0.92306000  0.63853000  0.09673000  1.0
  H  H18  1  0.55427000  0.60886000  0.12015000  1.0
  H  H19  1  0.56399000  0.67904000  0.19306000  1.0
  H  H20  1  0.57642000  0.10792000  0.37519000  1.0
  H  H21  1  0.57428000  0.17817000  0.30213000  1.0
  H  H22  1  0.94817000  0.13665000  0.40528000  1.0
  H  H23  1  0.55145000  0.36322000  0.09471000  1.0
  H  H24  1  0.92322000  0.39210000  0.12469000  1.0
  H  H25  1  0.92481000  0.32173000  0.19763000  1.0
  H  H26  1  0.44591000  0.89291000  0.62233000  1.0
  H  H27  1  0.43643000  0.82237000  0.69482000  1.0
  H  H28  1  0.07695000  0.86317000  0.59811000  1.0
  H  H29  1  0.42332000  0.63692000  0.90201000  1.0
  H  H30  1  0.05447000  0.60726000  0.87795000  1.0
  H  H31  1  0.06449000  0.67816000  0.80580000  1.0
  C  C32  1  0.73031000  0.57186000  0.93384000  1.0
  C  C33  1  0.74105000  0.42517000  0.93651000  1.0
  C  C34  1  0.23945000  0.42672000  0.06505000  1.0
  C  C35  1  0.23006000  0.57337000  0.06457000  1.0
  C  C36  1  0.76976000  0.92810000  0.56613000  1.0
  C  C37  1  0.75908000  0.07469000  0.56353000  1.0
  C  C38  1  0.26052000  0.07329000  0.43494000  1.0
  C  C39  1  0.26995000  0.92670000  0.43523000  1.0
  C  C40  1  0.75966000  0.11911000  0.60437000  1.0
  C  C41  1  0.58248000  0.14747000  0.61604000  1.0
  C  C42  1  0.57987000  0.18622000  0.65672000  1.0
  C  C43  1  0.75460000  0.19762000  0.68726000  1.0
  C  C44  1  0.93108000  0.16946000  0.67330000  1.0
  C  C45  1  0.93672000  0.13085000  0.63285000  1.0
  C  C46  1  0.75254000  0.23448000  0.73079000  1.0
  C  C47  1  0.74832000  0.26532000  0.76932000  1.0
  C  C48  1  0.74613000  0.30218000  0.81285000  1.0
  C  C49  1  0.56952000  0.33029000  0.82680000  1.0
  C  C50  1  0.56364000  0.36890000  0.86724000  1.0
  C  C51  1  0.74063000  0.38073000  0.89572000  1.0
  C  C52  1  0.91796000  0.35243000  0.88407000  1.0
  C  C53  1  0.92080000  0.31366000  0.84340000  1.0
  C  C54  1  0.26153000  0.88167000  0.39496000  1.0
  C  C55  1  0.08068000  0.86922000  0.36844000  1.0
  C  C56  1  0.07512000  0.83040000  0.32788000  1.0
  C  C57  1  0.25106000  0.80241000  0.31260000  1.0
  C  C58  1  0.42808000  0.81420000  0.34170000  1.0
  C  C59  1  0.43663000  0.85308000  0.38191000  1.0
  C  C60  1  0.25091000  0.76530000  0.26929000  1.0
  C  C61  1  0.24863000  0.73472000  0.23053000  1.0
  C  C62  1  0.24860000  0.69764000  0.18720000  1.0
  C  C63  1  0.07169000  0.68588000  0.15804000  1.0
  C  C64  1  0.06330000  0.64702000  0.11781000  1.0
  C  C65  1  0.23842000  0.61842000  0.10481000  1.0
  C  C66  1  0.41917000  0.63085000  0.13138000  1.0
  C  C67  1  0.42460000  0.66966000  0.17195000  1.0
  C  C68  1  0.26290000  0.11750000  0.39396000  1.0
  C  C69  1  0.43960000  0.12983000  0.36538000  1.0
  C  C70  1  0.43825000  0.16862000  0.32478000  1.0
  C  C71  1  0.25981000  0.19653000  0.31165000  1.0
  C  C72  1  0.08706000  0.18438000  0.34251000  1.0
  C  C73  1  0.08508000  0.14562000  0.38279000  1.0
  C  C74  1  0.25252000  0.23415000  0.26888000  1.0
  C  C75  1  0.24629000  0.26560000  0.23089000  1.0
  C  C76  1  0.23922000  0.30327000  0.18815000  1.0
  C  C77  1  0.41213000  0.31541000  0.15735000  1.0
  C  C78  1  0.41442000  0.35424000  0.11714000  1.0
  C  C79  1  0.23676000  0.38244000  0.10596000  1.0
  C  C80  1  0.05991000  0.37012000  0.13448000  1.0
  C  C81  1  0.06096000  0.33126000  0.17502000  1.0
  C  C82  1  0.76161000  0.88328000  0.60657000  1.0
  C  C83  1  0.58107000  0.87085000  0.63331000  1.0
  C  C84  1  0.57575000  0.83184000  0.67365000  1.0
  C  C85  1  0.75161000  0.80362000  0.68845000  1.0
  C  C86  1  0.92853000  0.81559000  0.65929000  1.0
  C  C87  1  0.93681000  0.85464000  0.61929000  1.0
  C  C88  1  0.75161000  0.76599000  0.73128000  1.0
  C  C89  1  0.74958000  0.73471000  0.76944000  1.0
  C  C90  1  0.74934000  0.69693000  0.81212000  1.0
  C  C91  1  0.57221000  0.68483000  0.84115000  1.0
  C  C92  1  0.56360000  0.64556000  0.88095000  1.0
  C  C93  1  0.73868000  0.61684000  0.89359000  1.0
  C  C94  1  0.91944000  0.62940000  0.86702000  1.0
  C  C95  1  0.92503000  0.66861000  0.82687000  1.0
  O  O96  1  0.89537000  0.54823000  0.94480000  1.0
  O  O97  1  0.57503000  0.44919000  0.94541000  1.0
  O  O98  1  0.40752000  0.43813000  0.04305000  1.0
  O  O99  1  0.05831000  0.56107000  0.04504000  1.0
  O  O100  1  0.07444000  0.45104000  0.05593000  1.0
  O  O101  1  0.39509000  0.54957000  0.05385000  1.0
  O  O102  1  0.55840000  0.55956000  0.95332000  1.0
  O  O103  1  0.90836000  0.43712000  0.95853000  1.0
  O  O104  1  0.23226000  0.49947000  0.96662000  1.0
  O  O105  1  0.73202000  0.50045000  0.03332000  1.0
  O  O106  1  0.94163000  0.94034000  0.54659000  1.0
  O  O107  1  0.59175000  0.06279000  0.54150000  1.0
  O  O108  1  0.42564000  0.04903000  0.44408000  1.0
  O  O109  1  0.10488000  0.95045000  0.44601000  1.0
  O  O110  1  0.09252000  0.06186000  0.45698000  1.0
  O  O111  1  0.44171000  0.93900000  0.45474000  1.0
  O  O112  1  0.60461000  0.95165000  0.55510000  1.0
  O  O113  1  0.92504000  0.05066000  0.55460000  1.0
  O  O114  1  0.26784000  0.00043000  0.53330000  1.0
  O  O115  1  0.76803000  0.99956000  0.46662000  1.0
  F  F116  1  0.10183000  0.18037000  0.70164000  1.0
  F  F117  1  0.39877000  0.31929000  0.79847000  1.0
  F  F118  1  0.59808000  0.78659000  0.32874000  1.0
  F  F119  1  0.90166000  0.71349000  0.17097000  1.0
  F  F120  1  0.91468000  0.21165000  0.33137000  1.0
  F  F121  1  0.58439000  0.28807000  0.16849000  1.0
  F  F122  1  0.09847000  0.78783000  0.67183000  1.0
  F  F123  1  0.40240000  0.71265000  0.82864000  1.0
