# generated using pymatgen
data_SmH14C6(ClO)3
_symmetry_space_group_name_H-M   'P 1'
_cell_length_a   8.25338000
_cell_length_b   8.58843000
_cell_length_c   16.32180000
_cell_angle_alpha   89.99990000
_cell_angle_beta   94.96960000
_cell_angle_gamma   90.00000000
_symmetry_Int_Tables_number   1
_chemical_formula_structural   SmH14C6(ClO)3
_chemical_formula_sum   'Sm4 H56 C24 Cl12 O12'
_cell_volume   1152.59836104
_cell_formula_units_Z   4
loop_
 _symmetry_equiv_pos_site_id
 _symmetry_equiv_pos_as_xyz
  1  'x, y, z'
loop_
 _atom_site_type_symbol
 _atom_site_label
 _atom_site_symmetry_multiplicity
 _atom_site_fract_x
 _atom_site_fract_y
 _atom_site_fract_z
 _atom_site_occupancy
  Sm  Sm0  1  0.31282000  0.37114000  0.22433000  1.0
  Sm  Sm1  1  0.18718000  0.87113000  0.27567000  1.0
  Sm  Sm2  1  0.68718000  0.62887000  0.77567000  1.0
  Sm  Sm3  1  0.81282000  0.12887000  0.72433000  1.0
  H  H4  1  0.50371000  0.35251000  0.97067000  1.0
  H  H5  1  0.99629000  0.85251000  0.52933000  1.0
  H  H6  1  0.49629000  0.64749000  0.02933000  1.0
  H  H7  1  0.00372000  0.14749000  0.47067000  1.0
  H  H8  1  0.30482000  0.33865000  0.00803000  1.0
  H  H9  1  0.19518000  0.83865000  0.49197000  1.0
  H  H10  1  0.69518000  0.66135000  0.99197000  1.0
  H  H11  1  0.80483000  0.16135000  0.50803000  1.0
  H  H12  1  0.44440000  0.17858000  0.02255000  1.0
  H  H13  1  0.05560000  0.67858000  0.47745000  1.0
  H  H14  1  0.55560000  0.82142000  0.97745000  1.0
  H  H15  1  0.94440000  0.32142000  0.52255000  1.0
  H  H16  1  0.72796000  0.39555000  0.06565000  1.0
  H  H17  1  0.77204000  0.89555000  0.43435000  1.0
  H  H18  1  0.27204000  0.60445000  0.93435000  1.0
  H  H19  1  0.22796000  0.10445000  0.56565000  1.0
  H  H20  1  0.68034000  0.21855000  0.11644000  1.0
  H  H21  1  0.81967000  0.71855000  0.38356000  1.0
  H  H22  1  0.31967000  0.78145000  0.88356000  1.0
  H  H23  1  0.18034000  0.28145000  0.61644000  1.0
  H  H24  1  0.84723000  0.38451000  0.21103000  1.0
  H  H25  1  0.65277000  0.88451000  0.28897000  1.0
  H  H26  1  0.15277000  0.61549000  0.78896000  1.0
  H  H27  1  0.34723000  0.11549000  0.71104000  1.0
  H  H28  1  0.71048000  0.54557000  0.19375000  1.0
  H  H29  1  0.78953000  0.04557000  0.30625000  1.0
  H  H30  1  0.28953000  0.45443000  0.80626000  1.0
  H  H31  1  0.21048000  0.95442000  0.69375000  1.0
  H  H32  1  0.67140000  0.52548000  0.34663000  1.0
  H  H33  1  0.82860000  0.02547000  0.15337000  1.0
  H  H34  1  0.32860000  0.47453000  0.65337000  1.0
  H  H35  1  0.17139000  0.97452000  0.84663000  1.0
  H  H36  1  0.80956000  0.36337000  0.34893000  1.0
  H  H37  1  0.69044000  0.86337000  0.15107000  1.0
  H  H38  1  0.19044000  0.63663000  0.65107000  1.0
  H  H39  1  0.30956000  0.13662000  0.84893000  1.0
  H  H40  1  0.58745000  0.18602000  0.38974000  1.0
  H  H41  1  0.91255000  0.68602000  0.11026000  1.0
  H  H42  1  0.41256000  0.81398000  0.61026000  1.0
  H  H43  1  0.08744000  0.31398000  0.88974000  1.0
  H  H44  1  0.61682000  0.34476000  0.46021000  1.0
  H  H45  1  0.88318000  0.84476000  0.03978000  1.0
  H  H46  1  0.38318000  0.65524000  0.53978000  1.0
  H  H47  1  0.11682000  0.15524000  0.96022000  1.0
  H  H48  1  0.30966000  0.19500000  0.44966000  1.0
  H  H49  1  0.19034000  0.69500000  0.05034000  1.0
  H  H50  1  0.69034000  0.80500000  0.55034000  1.0
  H  H51  1  0.80966000  0.30500000  0.94966000  1.0
  H  H52  1  0.19326000  0.36954000  0.42566000  1.0
  H  H53  1  0.30674000  0.86954000  0.07434000  1.0
  H  H54  1  0.80675000  0.63045000  0.57434000  1.0
  H  H55  1  0.69325000  0.13046000  0.92566000  1.0
  H  H56  1  0.36863000  0.37498000  0.49980000  1.0
  H  H57  1  0.13137000  0.87498000  0.00020000  1.0
  H  H58  1  0.63137000  0.62502000  0.50019000  1.0
  H  H59  1  0.86863000  0.12502000  0.99980000  1.0
  C  C60  1  0.43286000  0.30641000  0.01930000  1.0
  C  C61  1  0.06713000  0.80641000  0.48070000  1.0
  C  C62  1  0.56713000  0.69359000  0.98070000  1.0
  C  C63  1  0.93287000  0.19359000  0.51931000  1.0
  C  C64  1  0.66038000  0.34546000  0.11458000  1.0
  C  C65  1  0.83962000  0.84546000  0.38542000  1.0
  C  C66  1  0.33962000  0.65454000  0.88542000  1.0
  C  C67  1  0.16038000  0.15454000  0.61458000  1.0
  C  C68  1  0.71980000  0.41773000  0.19524000  1.0
  C  C69  1  0.78021000  0.91773000  0.30476000  1.0
  C  C70  1  0.28020000  0.58227000  0.80476000  1.0
  C  C71  1  0.21980000  0.08227000  0.69524000  1.0
  C  C72  1  0.68099000  0.39838000  0.33875000  1.0
  C  C73  1  0.81901000  0.89838000  0.16125000  1.0
  C  C74  1  0.31901000  0.60162000  0.66125000  1.0
  C  C75  1  0.18099000  0.10162000  0.83875000  1.0
  C  C76  1  0.57895000  0.31347000  0.39599000  1.0
  C  C77  1  0.92105000  0.81347000  0.10401000  1.0
  C  C78  1  0.42106000  0.68654000  0.60401000  1.0
  C  C79  1  0.07895000  0.18654000  0.89599000  1.0
  C  C80  1  0.31432000  0.32204000  0.44243000  1.0
  C  C81  1  0.18568000  0.82203000  0.05757000  1.0
  C  C82  1  0.68568000  0.67797000  0.55757000  1.0
  C  C83  1  0.81432000  0.17797000  0.94243000  1.0
  Cl  Cl84  1  0.42279000  0.67549000  0.21226000  1.0
  Cl  Cl85  1  0.07721000  0.17549000  0.28774000  1.0
  Cl  Cl86  1  0.57721000  0.32451000  0.78774000  1.0
  Cl  Cl87  1  0.92279000  0.82451000  0.71225000  1.0
  Cl  Cl88  1  0.09974000  0.56664000  0.30590000  1.0
  Cl  Cl89  1  0.40026000  0.06664000  0.19410000  1.0
  Cl  Cl90  1  0.90026000  0.43336000  0.69410000  1.0
  Cl  Cl91  1  0.59974000  0.93336000  0.80590000  1.0
  Cl  Cl92  1  0.08842000  0.40081000  0.09985000  1.0
  Cl  Cl93  1  0.41158000  0.90081000  0.40015000  1.0
  Cl  Cl94  1  0.91158000  0.59919000  0.90015000  1.0
  Cl  Cl95  1  0.58842000  0.09920000  0.59985000  1.0
  O  O96  1  0.48881000  0.37436000  0.09733000  1.0
  O  O97  1  0.01119000  0.87436000  0.40267000  1.0
  O  O98  1  0.51119000  0.62564000  0.90267000  1.0
  O  O99  1  0.98881000  0.12564000  0.59733000  1.0
  O  O100  1  0.61956000  0.35805000  0.25639000  1.0
  O  O101  1  0.88044000  0.85805000  0.24361000  1.0
  O  O102  1  0.38044000  0.64195000  0.74361000  1.0
  O  O103  1  0.11956000  0.14194000  0.75639000  1.0
  O  O104  1  0.41231000  0.36064000  0.37646000  1.0
  O  O105  1  0.08769000  0.86064000  0.12354000  1.0
  O  O106  1  0.58769000  0.63936000  0.62354000  1.0
  O  O107  1  0.91231000  0.13936000  0.87646000  1.0
