# generated using pymatgen
data_ZnH27C27N5O8
_symmetry_space_group_name_H-M   'P 1'
_cell_length_a   10.12200000
_cell_length_b   10.70740000
_cell_length_c   15.88050000
_cell_angle_alpha   84.85160000
_cell_angle_beta   89.42050000
_cell_angle_gamma   88.89830000
_symmetry_Int_Tables_number   1
_chemical_formula_structural   ZnH27C27N5O8
_chemical_formula_sum   'Zn2 H54 C54 N10 O16'
_cell_volume   1713.81199139
_cell_formula_units_Z   2
loop_
 _symmetry_equiv_pos_site_id
 _symmetry_equiv_pos_as_xyz
  1  'x, y, z'
loop_
 _atom_site_type_symbol
 _atom_site_label
 _atom_site_symmetry_multiplicity
 _atom_site_fract_x
 _atom_site_fract_y
 _atom_site_fract_z
 _atom_site_occupancy
  Zn  Zn0  1  0.35703000  0.49357000  0.50336000  1.0
  Zn  Zn1  1  0.65976000  0.48918000  0.49409000  1.0
  H  H2  1  0.39462000  0.85639000  0.59353000  1.0
  H  H3  1  0.30894000  0.11761000  0.46530000  1.0
  H  H4  1  0.73171000  0.09839000  0.48999000  1.0
  H  H5  1  0.72055000  0.88133000  0.48757000  1.0
  H  H6  1  0.66448000  0.90680000  0.38253000  1.0
  H  H7  1  0.41395000  0.14321000  0.37564000  1.0
  H  H8  1  0.90327000  0.30651000  0.53378000  1.0
  H  H9  1  0.11998000  0.37777000  0.40743000  1.0
  H  H10  1  0.88715000  0.69129000  0.47242000  1.0
  H  H11  1  0.11275000  0.69050000  0.47426000  1.0
  H  H12  1  0.35327000  0.71335000  0.93105000  1.0
  H  H13  1  0.25675000  0.51830000  0.04747000  1.0
  H  H14  1  0.38781000  0.06975000  0.59997000  1.0
  H  H15  1  0.56765000  0.84880000  0.60784000  1.0
  H  H16  1  0.73091000  0.29963000  0.97431000  1.0
  H  H17  1  0.61791000  0.18710000  0.02242000  1.0
  H  H18  1  0.76523000  0.16123000  0.15138000  1.0
  H  H19  1  0.84513000  0.11425000  0.05833000  1.0
  H  H20  1  0.88296000  0.26120000  0.09647000  1.0
  H  H21  1  0.98606000  0.42258000  0.31473000  1.0
  H  H22  1  0.83831000  0.35417000  0.28504000  1.0
  H  H23  1  0.03351000  0.22835000  0.24077000  1.0
  H  H24  1  0.08689000  0.20059000  0.34706000  1.0
  H  H25  1  0.93499000  0.13857000  0.31603000  1.0
  H  H26  1  0.90166000  0.77846000  0.32393000  1.0
  H  H27  1  0.73329000  0.73416000  0.34463000  1.0
  H  H28  1  0.74545000  0.59724000  0.22471000  1.0
  H  H29  1  0.77531000  0.75687000  0.18981000  1.0
  H  H30  1  0.91118000  0.64745000  0.20194000  1.0
  H  H31  1  0.76344000  0.51067000  0.72927000  1.0
  H  H32  1  0.92304000  0.46049000  0.76702000  1.0
  H  H33  1  0.74447000  0.33010000  0.83693000  1.0
  H  H34  1  0.69173000  0.28822000  0.73680000  1.0
  H  H35  1  0.84982000  0.23628000  0.77679000  1.0
  H  H36  1  0.04997000  0.27673000  0.71238000  1.0
  H  H37  1  0.11346000  0.40464000  0.76427000  1.0
  H  H38  1  0.34396000  0.32732000  0.74131000  1.0
  H  H39  1  0.24980000  0.20619000  0.79461000  1.0
  H  H40  1  0.28344000  0.20538000  0.68395000  1.0
  H  H41  1  0.22645000  0.58424000  0.72623000  1.0
  H  H42  1  0.05214000  0.61721000  0.73455000  1.0
  H  H43  1  0.09502000  0.84212000  0.67657000  1.0
  H  H44  1  0.17224000  0.79837000  0.77572000  1.0
  H  H45  1  0.26783000  0.80664000  0.68121000  1.0
  H  H46  1  0.84231000  0.50078000  0.04638000  1.0
  H  H47  1  0.81473000  0.66642000  0.03057000  1.0
  H  H48  1  0.96412000  0.67504000  0.90179000  1.0
  H  H49  1  0.04786000  0.61799000  0.99594000  1.0
  H  H50  1  0.99932000  0.51088000  0.92273000  1.0
  H  H51  1  0.76038000  0.12130000  0.63442000  1.0
  H  H52  1  0.72785000  0.96470000  0.61198000  1.0
  H  H53  1  0.68983000  0.89723000  0.76175000  1.0
  H  H54  1  0.84505000  0.97236000  0.75027000  1.0
  H  H55  1  0.70504000  0.05362000  0.78980000  1.0
  C  C56  1  0.51974000  0.25423000  0.51217000  1.0
  C  C57  1  0.47882000  0.54118000  0.08475000  1.0
  C  C58  1  0.41153000  0.63563000  0.96175000  1.0
  C  C59  1  0.49213000  0.53785000  0.91213000  1.0
  C  C60  1  0.53281000  0.65293000  0.02055000  1.0
  C  C61  1  0.61455000  0.55111000  0.97093000  1.0
  C  C62  1  0.47464000  0.53150000  0.17382000  1.0
  C  C63  1  0.49828000  0.53499000  0.82343000  1.0
  C  C64  1  0.48802000  0.03925000  0.58266000  1.0
  C  C65  1  0.48814000  0.89777000  0.57082000  1.0
  C  C66  1  0.40242000  0.08919000  0.43724000  1.0
  C  C67  1  0.47988000  0.48539000  0.34070000  1.0
  C  C68  1  0.64651000  0.07238000  0.45367000  1.0
  C  C69  1  0.51659000  0.11509000  0.49618000  1.0
  C  C70  1  0.51030000  0.87405000  0.47752000  1.0
  C  C71  1  0.39730000  0.94431000  0.42378000  1.0
  C  C72  1  0.64378000  0.92847000  0.44758000  1.0
  C  C73  1  0.93107000  0.37075000  0.47915000  1.0
  C  C74  1  0.08538000  0.37722000  0.47333000  1.0
  C  C75  1  0.92395000  0.60486000  0.44688000  1.0
  C  C76  1  0.92595000  0.50939000  0.59409000  1.0
  C  C77  1  0.08065000  0.60503000  0.44711000  1.0
  C  C78  1  0.51087000  0.73156000  0.47333000  1.0
  C  C79  1  0.08881000  0.50911000  0.59302000  1.0
  C  C80  1  0.50571000  0.52177000  0.65658000  1.0
  C  C81  1  0.43576000  0.42732000  0.97654000  1.0
  C  C82  1  0.56104000  0.44234000  0.03664000  1.0
  C  C83  1  0.47280000  0.50874000  0.25015000  1.0
  C  C84  1  0.50371000  0.53144000  0.74705000  1.0
  C  C85  1  0.35840000  0.52829000  0.02475000  1.0
  C  C86  1  0.69346000  0.25542000  0.03506000  1.0
  C  C87  1  0.80359000  0.19463000  0.08866000  1.0
  C  C88  1  0.26407000  0.90170000  0.44879000  1.0
  C  C89  1  0.65902000  0.13708000  0.36909000  1.0
  C  C90  1  0.41633000  0.92171000  0.33439000  1.0
  C  C91  1  0.92539000  0.33889000  0.32548000  1.0
  C  C92  1  0.99963000  0.21975000  0.30700000  1.0
  C  C93  1  0.38128000  0.31363000  0.95471000  1.0
  C  C94  1  0.13065000  0.26044000  0.51943000  1.0
  C  C95  1  0.82859000  0.70460000  0.31851000  1.0
  C  C96  1  0.81484000  0.67418000  0.22800000  1.0
  C  C97  1  0.13052000  0.61153000  0.36047000  1.0
  C  C98  1  0.87629000  0.63292000  0.61753000  1.0
  C  C99  1  0.83615000  0.43342000  0.73223000  1.0
  C  C100  1  0.77748000  0.31424000  0.77264000  1.0
  C  C101  1  0.13399000  0.33899000  0.71631000  1.0
  C  C102  1  0.26065000  0.26514000  0.73485000  1.0
  C  C103  1  0.14446000  0.64439000  0.70079000  1.0
  C  C104  1  0.17110000  0.78128000  0.70847000  1.0
  C  C105  1  0.84030000  0.58203000  0.99862000  1.0
  C  C106  1  0.97046000  0.59700000  0.95155000  1.0
  C  C107  1  0.58137000  0.77040000  0.04043000  1.0
  C  C108  1  0.70328000  0.03697000  0.65497000  1.0
  C  C109  1  0.73762000  0.98728000  0.74466000  1.0
  N  N110  1  0.87726000  0.49661000  0.50473000  1.0
  N  N111  1  0.13555000  0.49667000  0.50302000  1.0
  N  N112  1  0.15400000  0.88148000  0.46634000  1.0
  N  N113  1  0.66369000  0.18215000  0.29955000  1.0
  N  N114  1  0.43499000  0.90206000  0.26422000  1.0
  N  N115  1  0.33462000  0.21941000  0.93905000  1.0
  N  N116  1  0.14257000  0.15822000  0.55085000  1.0
  N  N117  1  0.15855000  0.62493000  0.28894000  1.0
  N  N118  1  0.83463000  0.72825000  0.63726000  1.0
  N  N119  1  0.62552000  0.86672000  0.05388000  1.0
  O  O120  1  0.41131000  0.30724000  0.53016000  1.0
  O  O121  1  0.63296000  0.30344000  0.50722000  1.0
  O  O122  1  0.37365000  0.45358000  0.38057000  1.0
  O  O123  1  0.59304000  0.49968000  0.37183000  1.0
  O  O124  1  0.40179000  0.68017000  0.46136000  1.0
  O  O125  1  0.62260000  0.67784000  0.48738000  1.0
  O  O126  1  0.39521000  0.54305000  0.62003000  1.0
  O  O127  1  0.61435000  0.49248000  0.62316000  1.0
  O  O128  1  0.63094000  0.35185000  0.08246000  1.0
  O  O129  1  0.86947000  0.32759000  0.41061000  1.0
  O  O130  1  0.87166000  0.59074000  0.36795000  1.0
  O  O131  1  0.87555000  0.40991000  0.64638000  1.0
  O  O132  1  0.15343000  0.40738000  0.63386000  1.0
  O  O133  1  0.13142000  0.62665000  0.61180000  1.0
  O  O134  1  0.73822000  0.56399000  0.93678000  1.0
  O  O135  1  0.56472000  0.07061000  0.65208000  1.0
