# generated using pymatgen
data_Cd3H16C20(NO6)2
_symmetry_space_group_name_H-M   'P 1'
_cell_length_a   7.73570000
_cell_length_b   8.96025000
_cell_length_c   9.50798000
_cell_angle_alpha   62.93670000
_cell_angle_beta   86.79400000
_cell_angle_gamma   70.04840000
_symmetry_Int_Tables_number   1
_chemical_formula_structural   Cd3H16C20(NO6)2
_chemical_formula_sum   'Cd3 H16 C20 N2 O12'
_cell_volume   547.75225410
_cell_formula_units_Z   1
loop_
 _symmetry_equiv_pos_site_id
 _symmetry_equiv_pos_as_xyz
  1  'x, y, z'
loop_
 _atom_site_type_symbol
 _atom_site_label
 _atom_site_symmetry_multiplicity
 _atom_site_fract_x
 _atom_site_fract_y
 _atom_site_fract_z
 _atom_site_occupancy
  Cd  Cd0  1  0.50000000  0.00000000  0.50000000  1.0
  Cd  Cd1  1  0.71703000  0.54984000  0.51484000  1.0
  Cd  Cd2  1  0.28297000  0.45016000  0.48516000  1.0
  H  H3  1  0.52609000  0.82780000  0.15868000  1.0
  H  H4  1  0.47390000  0.17220000  0.84132000  1.0
  H  H5  1  0.49345000  0.85022000  0.88663000  1.0
  H  H6  1  0.50655000  0.14978000  0.11338000  1.0
  H  H7  1  0.91734000  0.32694000  0.06785000  1.0
  H  H8  1  0.08267000  0.67306000  0.93216000  1.0
  H  H9  1  0.92462000  0.32035000  0.33510000  1.0
  H  H10  1  0.07538000  0.67966000  0.66490000  1.0
  H  H11  1  0.16597000  0.93676000  0.87057000  1.0
  H  H12  1  0.83402000  0.06324000  0.12942000  1.0
  H  H13  1  0.09323000  0.92432000  0.70594000  1.0
  H  H14  1  0.90677000  0.07568000  0.29406000  1.0
  H  H15  1  0.84606000  0.96860000  0.89094000  1.0
  H  H16  1  0.15394000  0.03141000  0.10906000  1.0
  H  H17  1  0.84644000  0.19019000  0.81943000  1.0
  H  H18  1  0.15356000  0.80981000  0.18056000  1.0
  C  C19  1  0.60684000  0.71827000  0.13399000  1.0
  C  C20  1  0.39316000  0.28172000  0.86601000  1.0
  C  C21  1  0.59007000  0.73079000  0.98387000  1.0
  C  C22  1  0.40993000  0.26921000  0.01613000  1.0
  C  C23  1  0.70066000  0.58647000  0.95923000  1.0
  C  C24  1  0.29934000  0.41353000  0.04077000  1.0
  C  C25  1  0.82580000  0.43821000  0.08546000  1.0
  C  C26  1  0.17421000  0.56179000  0.91454000  1.0
  C  C27  1  0.83089000  0.43473000  0.23297000  1.0
  C  C28  1  0.16912000  0.56527000  0.76703000  1.0
  C  C29  1  0.14029000  0.16271000  0.64768000  1.0
  C  C30  1  0.85972000  0.83729000  0.35232000  1.0
  C  C31  1  0.07277000  0.01509000  0.75864000  1.0
  C  C32  1  0.92723000  0.98492000  0.24136000  1.0
  C  C33  1  0.87147000  0.08074000  0.78917000  1.0
  C  C34  1  0.12853000  0.91926000  0.21083000  1.0
  C  C35  1  0.73189000  0.13887000  0.65052000  1.0
  C  C36  1  0.26810000  0.86114000  0.34948000  1.0
  C  C37  1  0.68375000  0.59077000  0.80072000  1.0
  C  C38  1  0.31626000  0.40923000  0.19928000  1.0
  N  N39  1  0.72231000  0.57186000  0.25748000  1.0
  N  N40  1  0.27769000  0.42814000  0.74252000  1.0
  O  O41  1  0.62013000  0.30199000  0.58092000  1.0
  O  O42  1  0.37987000  0.69801000  0.41908000  1.0
  O  O43  1  0.02816000  0.31770000  0.55726000  1.0
  O  O44  1  0.97183000  0.68231000  0.44274000  1.0
  O  O45  1  0.31660000  0.12584000  0.64884000  1.0
  O  O46  1  0.68339000  0.87417000  0.35115000  1.0
  O  O47  1  0.73470000  0.01587000  0.61719000  1.0
  O  O48  1  0.26530000  0.98413000  0.38280000  1.0
  O  O49  1  0.80270000  0.46734000  0.77774000  1.0
  O  O50  1  0.19731000  0.53266000  0.22227000  1.0
  O  O51  1  0.54903000  0.71506000  0.69768000  1.0
  O  O52  1  0.45097000  0.28493000  0.30232000  1.0
