# generated using pymatgen
data_CdH12C13N3O5
_symmetry_space_group_name_H-M   'P 1'
_cell_length_a   9.53133000
_cell_length_b   9.53136000
_cell_length_c   18.40680000
_cell_angle_alpha   100.33100000
_cell_angle_beta   100.33100000
_cell_angle_gamma   94.16770000
_symmetry_Int_Tables_number   1
_chemical_formula_structural   CdH12C13N3O5
_chemical_formula_sum   'Cd4 H48 C52 N12 O20'
_cell_volume   1608.89211415
_cell_formula_units_Z   4
loop_
 _symmetry_equiv_pos_site_id
 _symmetry_equiv_pos_as_xyz
  1  'x, y, z'
loop_
 _atom_site_type_symbol
 _atom_site_label
 _atom_site_symmetry_multiplicity
 _atom_site_fract_x
 _atom_site_fract_y
 _atom_site_fract_z
 _atom_site_occupancy
  Cd  Cd0  1  0.06779000  0.32115000  0.47309000  1.0
  Cd  Cd1  1  0.67885000  0.93221000  0.02690000  1.0
  Cd  Cd2  1  0.93221000  0.67885000  0.52690000  1.0
  Cd  Cd3  1  0.32115000  0.06779000  0.97310000  1.0
  H  H4  1  0.69813000  0.93490000  0.38164000  1.0
  H  H5  1  0.06509000  0.30187000  0.11836000  1.0
  H  H6  1  0.30187000  0.06509000  0.61836000  1.0
  H  H7  1  0.93491000  0.69813000  0.88164000  1.0
  H  H8  1  0.70438000  0.01432000  0.30088000  1.0
  H  H9  1  0.98568000  0.29561000  0.19912000  1.0
  H  H10  1  0.29561000  0.98568000  0.69912000  1.0
  H  H11  1  0.01432000  0.70439000  0.80088000  1.0
  H  H12  1  0.83195000  0.93641000  0.21536000  1.0
  H  H13  1  0.06360000  0.16805000  0.28464000  1.0
  H  H14  1  0.16805000  0.06360000  0.78464000  1.0
  H  H15  1  0.93640000  0.83195000  0.71536000  1.0
  H  H16  1  0.96305000  0.74651000  0.15523000  1.0
  H  H17  1  0.25350000  0.03695000  0.34477000  1.0
  H  H18  1  0.03695000  0.25350000  0.84477000  1.0
  H  H19  1  0.74650000  0.96305000  0.65523000  1.0
  H  H20  1  0.02927000  0.54612000  0.22551000  1.0
  H  H21  1  0.45389000  0.97073000  0.27449000  1.0
  H  H22  1  0.97074000  0.45389000  0.77449000  1.0
  H  H23  1  0.54611000  0.02927000  0.72551000  1.0
  H  H24  1  0.29341000  0.50347000  0.38557000  1.0
  H  H25  1  0.49653000  0.70659000  0.11443000  1.0
  H  H26  1  0.70659000  0.49653000  0.61443000  1.0
  H  H27  1  0.50347000  0.29341000  0.88557000  1.0
  H  H28  1  0.62313000  0.24575000  0.44472000  1.0
  H  H29  1  0.75425000  0.37687000  0.05528000  1.0
  H  H30  1  0.37687000  0.75426000  0.55529000  1.0
  H  H31  1  0.24574000  0.62313000  0.94471000  1.0
  H  H32  1  0.38590000  0.17842000  0.50880000  1.0
  H  H33  1  0.82158000  0.61410000  0.99120000  1.0
  H  H34  1  0.61410000  0.82158000  0.49120000  1.0
  H  H35  1  0.17842000  0.38589000  0.00880000  1.0
  H  H36  1  0.68194000  0.43658000  0.37613000  1.0
  H  H37  1  0.56342000  0.31806000  0.12387000  1.0
  H  H38  1  0.31806000  0.56343000  0.62387000  1.0
  H  H39  1  0.43658000  0.68194000  0.87613000  1.0
  H  H40  1  0.57073000  0.57677000  0.37265000  1.0
  H  H41  1  0.42323000  0.42927000  0.12735000  1.0
  H  H42  1  0.42927000  0.42323000  0.62735000  1.0
  H  H43  1  0.57677000  0.57073000  0.87265000  1.0
  H  H44  1  0.40143000  0.41343000  0.25994000  1.0
  H  H45  1  0.58658000  0.59856000  0.24006000  1.0
  H  H46  1  0.59857000  0.58657000  0.74006000  1.0
  H  H47  1  0.41343000  0.40143000  0.75994000  1.0
  H  H48  1  0.52871000  0.28786000  0.26107000  1.0
  H  H49  1  0.71214000  0.47128000  0.23893000  1.0
  H  H50  1  0.47129000  0.71214000  0.73893000  1.0
  H  H51  1  0.28786000  0.52871000  0.76107000  1.0
  C  C52  1  0.87769000  0.09334000  0.39551000  1.0
  C  C53  1  0.90666000  0.12230000  0.10449000  1.0
  C  C54  1  0.12230000  0.90666000  0.60449000  1.0
  C  C55  1  0.09334000  0.87770000  0.89551000  1.0
  C  C56  1  0.76842000  0.97278000  0.34661000  1.0
  C  C57  1  0.02722000  0.23158000  0.15339000  1.0
  C  C58  1  0.23158000  0.02722000  0.65339000  1.0
  C  C59  1  0.97278000  0.76842000  0.84661000  1.0
  C  C60  1  0.86828000  0.85074000  0.24338000  1.0
  C  C61  1  0.14926000  0.13172000  0.25662000  1.0
  C  C62  1  0.13172000  0.14926000  0.75662000  1.0
  C  C63  1  0.85074000  0.86828000  0.74338000  1.0
  C  C64  1  0.93969000  0.74403000  0.21062000  1.0
  C  C65  1  0.25598000  0.06031000  0.28938000  1.0
  C  C66  1  0.06031000  0.25598000  0.78938000  1.0
  C  C67  1  0.74402000  0.93969000  0.71062000  1.0
  C  C68  1  0.97663000  0.63555000  0.25011000  1.0
  C  C69  1  0.36446000  0.02337000  0.24989000  1.0
  C  C70  1  0.02337000  0.36446000  0.74989000  1.0
  C  C71  1  0.63554000  0.97663000  0.75011000  1.0
  C  C72  1  0.94638000  0.63494000  0.32117000  1.0
  C  C73  1  0.36506000  0.05362000  0.17883000  1.0
  C  C74  1  0.05362000  0.36506000  0.67883000  1.0
  C  C75  1  0.63494000  0.94638000  0.82117000  1.0
  C  C76  1  0.87477000  0.74897000  0.35605000  1.0
  C  C77  1  0.25104000  0.12522000  0.14395000  1.0
  C  C78  1  0.12522000  0.25103000  0.64395000  1.0
  C  C79  1  0.74896000  0.87477000  0.85605000  1.0
  C  C80  1  0.98667000  0.51042000  0.35704000  1.0
  C  C81  1  0.48958000  0.01333000  0.14296000  1.0
  C  C82  1  0.01333000  0.48958000  0.64296000  1.0
  C  C83  1  0.51042000  0.98666000  0.85704000  1.0
  C  C84  1  0.34914000  0.42392000  0.41108000  1.0
  C  C85  1  0.57608000  0.65086000  0.08892000  1.0
  C  C86  1  0.65086000  0.57608000  0.58892000  1.0
  C  C87  1  0.42392000  0.34914000  0.91108000  1.0
  C  C88  1  0.51927000  0.28730000  0.44298000  1.0
  C  C89  1  0.71270000  0.48074000  0.05702000  1.0
  C  C90  1  0.48074000  0.71271000  0.55702000  1.0
  C  C91  1  0.28730000  0.51926000  0.94297000  1.0
  C  C92  1  0.40247000  0.25609000  0.47394000  1.0
  C  C93  1  0.74391000  0.59752000  0.02606000  1.0
  C  C94  1  0.59753000  0.74391000  0.52606000  1.0
  C  C95  1  0.25609000  0.40247000  0.97394000  1.0
  C  C96  1  0.57132000  0.45977000  0.35832000  1.0
  C  C97  1  0.54023000  0.42868000  0.14167000  1.0
  C  C98  1  0.42868000  0.54023000  0.64168000  1.0
  C  C99  1  0.45977000  0.57132000  0.85832000  1.0
  C  C100  1  0.51717000  0.40308000  0.27395000  1.0
  C  C101  1  0.59692000  0.48282000  0.22605000  1.0
  C  C102  1  0.48283000  0.59692000  0.72605000  1.0
  C  C103  1  0.40308000  0.51717000  0.77395000  1.0
  N  N104  1  0.83604000  0.85192000  0.31225000  1.0
  N  N105  1  0.14808000  0.16395000  0.18775000  1.0
  N  N106  1  0.16395000  0.14808000  0.68775000  1.0
  N  N107  1  0.85192000  0.83604000  0.81225000  1.0
  N  N108  1  0.48358000  0.39443000  0.40354000  1.0
  N  N109  1  0.60557000  0.51642000  0.09646000  1.0
  N  N110  1  0.51642000  0.60558000  0.59646000  1.0
  N  N111  1  0.39443000  0.48358000  0.90354000  1.0
  N  N112  1  0.29728000  0.34218000  0.45370000  1.0
  N  N113  1  0.65782000  0.70272000  0.04630000  1.0
  N  N114  1  0.70272000  0.65782000  0.54630000  1.0
  N  N115  1  0.34218000  0.29728000  0.95370000  1.0
  O  O116  1  0.82741000  0.19795000  0.43200000  1.0
  O  O117  1  0.80205000  0.17259000  0.06800000  1.0
  O  O118  1  0.17259000  0.80205000  0.56800000  1.0
  O  O119  1  0.19795000  0.82741000  0.93200000  1.0
  O  O120  1  0.01003000  0.08675000  0.39561000  1.0
  O  O121  1  0.91325000  0.98997000  0.10439000  1.0
  O  O122  1  0.98997000  0.91324000  0.60439000  1.0
  O  O123  1  0.08675000  0.01003000  0.89561000  1.0
  O  O124  1  0.83844000  0.76446000  0.41944000  1.0
  O  O125  1  0.23554000  0.16155000  0.08056000  1.0
  O  O126  1  0.16155000  0.23554000  0.58056000  1.0
  O  O127  1  0.76446000  0.83844000  0.91944000  1.0
  O  O128  1  0.99784000  0.52374000  0.42921000  1.0
  O  O129  1  0.47626000  0.00216000  0.07079000  1.0
  O  O130  1  0.00216000  0.47626000  0.57079000  1.0
  O  O131  1  0.52374000  0.99784000  0.92921000  1.0
  O  O132  1  0.01111000  0.39814000  0.31635000  1.0
  O  O133  1  0.60186000  0.98889000  0.18365000  1.0
  O  O134  1  0.98889000  0.60186000  0.68365000  1.0
  O  O135  1  0.39814000  0.01111000  0.81635000  1.0
