# generated using pymatgen
data_Co3H24C28(NO9)2
_symmetry_space_group_name_H-M   'P 1'
_cell_length_a   7.41083000
_cell_length_b   8.74578000
_cell_length_c   12.39660000
_cell_angle_alpha   98.69900000
_cell_angle_beta   91.98280000
_cell_angle_gamma   102.98800000
_symmetry_Int_Tables_number   1
_chemical_formula_structural   Co3H24C28(NO9)2
_chemical_formula_sum   'Co3 H24 C28 N2 O18'
_cell_volume   771.94098615
_cell_formula_units_Z   1
loop_
 _symmetry_equiv_pos_site_id
 _symmetry_equiv_pos_as_xyz
  1  'x, y, z'
loop_
 _atom_site_type_symbol
 _atom_site_label
 _atom_site_symmetry_multiplicity
 _atom_site_fract_x
 _atom_site_fract_y
 _atom_site_fract_z
 _atom_site_occupancy
  Co  Co0  1  0.83301000  0.59911000  0.64942000  1.0
  Co  Co1  1  0.16717000  0.40085000  0.35046000  1.0
  Co  Co2  1  0.49981000  0.99983000  0.50001000  1.0
  H  H3  1  0.46952000  0.52057000  0.59656000  1.0
  H  H4  1  0.53065000  0.47940000  0.40304000  1.0
  H  H5  1  0.49718000  0.70476000  0.63168000  1.0
  H  H6  1  0.50298000  0.29511000  0.36830000  1.0
  H  H7  1  0.78086000  0.92179000  0.60539000  1.0
  H  H8  1  0.21910000  0.07806000  0.39460000  1.0
  H  H9  1  0.74802000  0.82013000  0.49001000  1.0
  H  H10  1  0.25184000  0.17973000  0.50996000  1.0
  H  H11  1  0.68859000  0.13788000  0.32734000  1.0
  H  H12  1  0.31211000  0.86276000  0.67320000  1.0
  H  H13  1  0.73095000  0.25344000  0.44210000  1.0
  H  H14  1  0.26822000  0.74635000  0.55897000  1.0
  H  H15  1  0.91782000  0.72333000  0.90060000  1.0
  H  H16  1  0.08217000  0.27671000  0.09932000  1.0
  H  H17  1  0.61713000  0.33351000  0.04904000  1.0
  H  H18  1  0.38280000  0.66659000  0.95091000  1.0
  H  H19  1  0.53988000  0.17577000  0.85983000  1.0
  H  H20  1  0.46011000  0.82427000  0.14013000  1.0
  H  H21  1  0.84791000  0.86960000  0.04849000  1.0
  H  H22  1  0.15203000  0.13047000  0.95146000  1.0
  H  H23  1  0.97098000  0.88915000  0.39194000  1.0
  H  H24  1  0.02890000  0.11084000  0.60801000  1.0
  H  H25  1  0.80609000  0.43545000  0.18448000  1.0
  H  H26  1  0.19397000  0.56458000  0.81542000  1.0
  C  C27  1  0.64577000  0.28313000  0.66915000  1.0
  C  C28  1  0.35440000  0.71677000  0.33081000  1.0
  C  C29  1  0.68286000  0.36878000  0.78419000  1.0
  C  C30  1  0.31721000  0.63122000  0.21575000  1.0
  C  C31  1  0.82892000  0.60466000  0.89661000  1.0
  C  C32  1  0.17107000  0.39538000  0.10332000  1.0
  C  C33  1  0.77316000  0.54353000  0.99175000  1.0
  C  C34  1  0.22681000  0.45656000  0.00818000  1.0
  C  C35  1  0.66643000  0.38606000  0.97813000  1.0
  C  C36  1  0.33354000  0.61402000  0.02181000  1.0
  C  C37  1  0.62214000  0.29786000  0.87387000  1.0
  C  C38  1  0.37786000  0.70219000  0.12607000  1.0
  C  C39  1  0.82660000  0.64038000  0.10100000  1.0
  C  C40  1  0.17337000  0.35968000  0.89893000  1.0
  C  C41  1  0.86517000  0.80759000  0.11678000  1.0
  C  C42  1  0.13475000  0.19247000  0.88316000  1.0
  C  C43  1  0.92090000  0.89750000  0.22069000  1.0
  C  C44  1  0.07899000  0.10254000  0.77926000  1.0
  C  C45  1  0.95110000  0.07611000  0.23941000  1.0
  C  C46  1  0.04882000  0.92394000  0.76064000  1.0
  C  C47  1  0.93042000  0.82019000  0.31062000  1.0
  C  C48  1  0.06946000  0.17981000  0.68932000  1.0
  C  C49  1  0.88248000  0.65417000  0.29678000  1.0
  C  C50  1  0.11748000  0.34583000  0.70314000  1.0
  C  C51  1  0.86929000  0.57150000  0.39413000  1.0
  C  C52  1  0.13085000  0.42851000  0.60580000  1.0
  C  C53  1  0.83532000  0.56473000  0.19257000  1.0
  C  C54  1  0.16466000  0.43530000  0.80734000  1.0
  N  N55  1  0.78396000  0.52041000  0.79602000  1.0
  N  N56  1  0.21609000  0.47960000  0.20389000  1.0
  O  O57  1  0.71766000  0.35971000  0.59474000  1.0
  O  O58  1  0.28289000  0.64008000  0.40523000  1.0
  O  O59  1  0.54884000  0.14184000  0.65207000  1.0
  O  O60  1  0.45109000  0.85815000  0.34789000  1.0
  O  O61  1  0.91436000  0.43879000  0.38980000  1.0
  O  O62  1  0.08598000  0.56132000  0.61017000  1.0
  O  O63  1  0.79917000  0.63705000  0.47695000  1.0
  O  O64  1  0.20088000  0.36290000  0.52300000  1.0
  O  O65  1  0.09729000  0.15551000  0.30060000  1.0
  O  O66  1  0.90278000  0.84445000  0.69936000  1.0
  O  O67  1  0.83102000  0.13604000  0.19858000  1.0
  O  O68  1  0.16880000  0.86408000  0.80164000  1.0
  O  O69  1  0.54428000  0.61130000  0.64690000  1.0
  O  O70  1  0.45580000  0.38847000  0.35291000  1.0
  O  O71  1  0.73575000  0.92529000  0.52936000  1.0
  O  O72  1  0.26400000  0.07452000  0.47065000  1.0
  O  O73  1  0.63631000  0.16665000  0.39781000  1.0
  O  O74  1  0.36348000  0.83340000  0.60253000  1.0
