# generated using pymatgen
data_NaH16C13SNO4
_symmetry_space_group_name_H-M   'P 1'
_cell_length_a   4.70630000
_cell_length_b   10.98520000
_cell_length_c   15.41500000
_cell_angle_alpha   69.57900000
_cell_angle_beta   89.99980000
_cell_angle_gamma   89.99990000
_symmetry_Int_Tables_number   1
_chemical_formula_structural   NaH16C13SNO4
_chemical_formula_sum   'Na2 H32 C26 S2 N2 O8'
_cell_volume   746.86506571
_cell_formula_units_Z   2
loop_
 _symmetry_equiv_pos_site_id
 _symmetry_equiv_pos_as_xyz
  1  'x, y, z'
loop_
 _atom_site_type_symbol
 _atom_site_label
 _atom_site_symmetry_multiplicity
 _atom_site_fract_x
 _atom_site_fract_y
 _atom_site_fract_z
 _atom_site_occupancy
  Na  Na0  1  0.61822000  0.62669000  0.95656000  1.0
  Na  Na1  1  0.11822000  0.37331000  0.04344000  1.0
  H  H2  1  0.01754000  0.39774000  0.34253000  1.0
  H  H3  1  0.51755000  0.60226000  0.65747000  1.0
  H  H4  1  0.23142000  0.57839000  0.23964000  1.0
  H  H5  1  0.73142000  0.42161000  0.76036000  1.0
  H  H6  1  0.20612000  0.98128000  0.34913000  1.0
  H  H7  1  0.70612000  0.01872000  0.65087000  1.0
  H  H8  1  0.84712000  0.18754000  0.44275000  1.0
  H  H9  1  0.34713000  0.81246000  0.55725000  1.0
  H  H10  1  0.54922000  0.99204000  0.46930000  1.0
  H  H11  1  0.04924000  0.00796000  0.53069000  1.0
  H  H12  1  0.61810000  0.64654000  0.30229000  1.0
  H  H13  1  0.11810000  0.35347000  0.69771000  1.0
  H  H14  1  0.66864000  0.81528000  0.27619000  1.0
  H  H15  1  0.16863000  0.18473000  0.72381000  1.0
  H  H16  1  0.08945000  0.80783000  0.17333000  1.0
  H  H17  1  0.58945000  0.19217000  0.82667000  1.0
  H  H18  1  0.75542000  0.76462000  0.13789000  1.0
  H  H19  1  0.25542000  0.23538000  0.86211000  1.0
  H  H20  1  0.64782000  0.59106000  0.48463000  1.0
  H  H21  1  0.14780000  0.40893000  0.51537000  1.0
  H  H22  1  0.66097000  0.76454000  0.45537000  1.0
  H  H23  1  0.16098000  0.23546000  0.54463000  1.0
  H  H24  1  0.91605000  0.66374000  0.53307000  1.0
  H  H25  1  0.41604000  0.33626000  0.46693000  1.0
  H  H26  1  0.81687000  0.04366000  0.25101000  1.0
  H  H27  1  0.31687000  0.95634000  0.74898000  1.0
  H  H28  1  0.10228000  0.98118000  0.20123000  1.0
  H  H29  1  0.60228000  0.01882000  0.79877000  1.0
  H  H30  1  0.84303000  0.08839000  0.12732000  1.0
  H  H31  1  0.34303000  0.91161000  0.87268000  1.0
  H  H32  1  0.69808000  0.49714000  0.16689000  1.0
  H  H33  1  0.19808000  0.50286000  0.83311000  1.0
  C  C34  1  0.85626000  0.39945000  0.29095000  1.0
  C  C35  1  0.35626000  0.60055000  0.70905000  1.0
  C  C36  1  0.05440000  0.60777000  0.19013000  1.0
  C  C37  1  0.55441000  0.39223000  0.80987000  1.0
  C  C38  1  0.33312000  0.06893000  0.33641000  1.0
  C  C39  1  0.83313000  0.93107000  0.66359000  1.0
  C  C40  1  0.30625000  0.17288000  0.25450000  1.0
  C  C41  1  0.80626000  0.82712000  0.74550000  1.0
  C  C42  1  0.67071000  0.29210000  0.30746000  1.0
  C  C43  1  0.17072000  0.70790000  0.69254000  1.0
  C  C44  1  0.17305000  0.63235000  0.09137000  1.0
  C  C45  1  0.67305000  0.36765000  0.90863000  1.0
  C  C46  1  0.47152000  0.29045000  0.23640000  1.0
  C  C47  1  0.97152000  0.70955000  0.76360000  1.0
  C  C48  1  0.69366000  0.18327000  0.39086000  1.0
  C  C49  1  0.19368000  0.81673000  0.60914000  1.0
  C  C50  1  0.52856000  0.07472000  0.40521000  1.0
  C  C51  1  0.02857000  0.92527000  0.59479000  1.0
  C  C52  1  0.77909000  0.72405000  0.28319000  1.0
  C  C53  1  0.27909000  0.27595000  0.71681000  1.0
  C  C54  1  0.91995000  0.73444000  0.19193000  1.0
  C  C55  1  0.41995000  0.26556000  0.80807000  1.0
  C  C56  1  0.78809000  0.67558000  0.47120000  1.0
  C  C57  1  0.28807000  0.32442000  0.52881000  1.0
  C  C58  1  0.96316000  0.06523000  0.19196000  1.0
  C  C59  1  0.46317000  0.93477000  0.80804000  1.0
  S  S60  1  0.03232000  0.69004000  0.37779000  1.0
  S  S61  1  0.53231000  0.30996000  0.62221000  1.0
  N  N62  1  0.85066000  0.50212000  0.21485000  1.0
  N  N63  1  0.35066000  0.49788000  0.78515000  1.0
  O  O64  1  0.03576000  0.58474000  0.04001000  1.0
  O  O65  1  0.53576000  0.41526000  0.95999000  1.0
  O  O66  1  0.12917000  0.17823000  0.18258000  1.0
  O  O67  1  0.62917000  0.82177000  0.81742000  1.0
  O  O68  1  0.44142000  0.38611000  0.16022000  1.0
  O  O69  1  0.94142000  0.61389000  0.83978000  1.0
  O  O70  1  0.39542000  0.70026000  0.06959000  1.0
  O  O71  1  0.89541000  0.29974000  0.93041000  1.0
