# generated using pymatgen
data_Cd2H20C24N2O11
_symmetry_space_group_name_H-M   'P 1'
_cell_length_a   12.10760000
_cell_length_b   14.03580000
_cell_length_c   17.59650000
_cell_angle_alpha   90.00020000
_cell_angle_beta   90.00040000
_cell_angle_gamma   74.66900000
_symmetry_Int_Tables_number   1
_chemical_formula_structural   Cd2H20C24N2O11
_chemical_formula_sum   'Cd8 H80 C96 N8 O44'
_cell_volume   2883.93365246
_cell_formula_units_Z   4
loop_
 _symmetry_equiv_pos_site_id
 _symmetry_equiv_pos_as_xyz
  1  'x, y, z'
loop_
 _atom_site_type_symbol
 _atom_site_label
 _atom_site_symmetry_multiplicity
 _atom_site_fract_x
 _atom_site_fract_y
 _atom_site_fract_z
 _atom_site_occupancy
  Cd  Cd0  1  0.45219000  0.17446000  0.56261000  1.0
  Cd  Cd1  1  0.04781000  0.32554000  0.06262000  1.0
  Cd  Cd2  1  0.54781000  0.82553000  0.43739000  1.0
  Cd  Cd3  1  0.95219000  0.67446000  0.93739000  1.0
  Cd  Cd4  1  0.15287000  0.02145000  0.11967000  1.0
  Cd  Cd5  1  0.34713000  0.47855000  0.61967000  1.0
  Cd  Cd6  1  0.84713000  0.97855000  0.88033000  1.0
  Cd  Cd7  1  0.65287000  0.52145000  0.38033000  1.0
  H  H8  1  0.03522000  0.88164000  0.01651000  1.0
  H  H9  1  0.46478000  0.61836000  0.51652000  1.0
  H  H10  1  0.96479000  0.11836000  0.98349000  1.0
  H  H11  1  0.53521000  0.38164000  0.48348000  1.0
  H  H12  1  0.13693000  0.91494000  0.98062000  1.0
  H  H13  1  0.36307000  0.58506000  0.48062000  1.0
  H  H14  1  0.86307000  0.08506000  0.01938000  1.0
  H  H15  1  0.63693000  0.41494000  0.51938000  1.0
  H  H16  1  0.65249000  0.22944000  0.54990000  1.0
  H  H17  1  0.84751000  0.27055000  0.04990000  1.0
  H  H18  1  0.34751000  0.77056000  0.45010000  1.0
  H  H19  1  0.15249000  0.72945000  0.95010000  1.0
  H  H20  1  0.60343000  0.27698000  0.62740000  1.0
  H  H21  1  0.89657000  0.22301000  0.12740000  1.0
  H  H22  1  0.39657000  0.72301000  0.37260000  1.0
  H  H23  1  0.10342000  0.77699000  0.87260000  1.0
  H  H24  1  0.69087000  0.19052000  0.39568000  1.0
  H  H25  1  0.80914000  0.30948000  0.89569000  1.0
  H  H26  1  0.30914000  0.80947000  0.60432000  1.0
  H  H27  1  0.19086000  0.69053000  0.10431000  1.0
  H  H28  1  0.93683000  0.46248000  0.35432000  1.0
  H  H29  1  0.56317000  0.03752000  0.85433000  1.0
  H  H30  1  0.06315000  0.53752000  0.64568000  1.0
  H  H31  1  0.43684000  0.96248000  0.14567000  1.0
  H  H32  1  0.68573000  0.31788000  0.31630000  1.0
  H  H33  1  0.81428000  0.18211000  0.81629000  1.0
  H  H34  1  0.31427000  0.68211000  0.68370000  1.0
  H  H35  1  0.18573000  0.81789000  0.18370000  1.0
  H  H36  1  0.03925000  0.14914000  0.30922000  1.0
  H  H37  1  0.46076000  0.35086000  0.80923000  1.0
  H  H38  1  0.96075000  0.85087000  0.69078000  1.0
  H  H39  1  0.53925000  0.64914000  0.19077000  1.0
  H  H40  1  0.09920000  0.39469000  0.43878000  1.0
  H  H41  1  0.40080000  0.10531000  0.93879000  1.0
  H  H42  1  0.90079000  0.60531000  0.56122000  1.0
  H  H43  1  0.59920000  0.89470000  0.06122000  1.0
  H  H44  1  0.45213000  0.26386000  0.38387000  1.0
  H  H45  1  0.04788000  0.23614000  0.88387000  1.0
  H  H46  1  0.54787000  0.73614000  0.61613000  1.0
  H  H47  1  0.95213000  0.76386000  0.11613000  1.0
  H  H48  1  0.39235000  0.18256000  0.27002000  1.0
  H  H49  1  0.10766000  0.31744000  0.77002000  1.0
  H  H50  1  0.60765000  0.81746000  0.72998000  1.0
  H  H51  1  0.89235000  0.68255000  0.22998000  1.0
  H  H52  1  0.84508000  0.90365000  0.22881000  1.0
  H  H53  1  0.65493000  0.59634000  0.72880000  1.0
  H  H54  1  0.15492000  0.09634000  0.77120000  1.0
  H  H55  1  0.34509000  0.40366000  0.27120000  1.0
  H  H56  1  0.67493000  0.90869000  0.30984000  1.0
  H  H57  1  0.82508000  0.59130000  0.80984000  1.0
  H  H58  1  0.32508000  0.09130000  0.69016000  1.0
  H  H59  1  0.17492000  0.40871000  0.19016000  1.0
  H  H60  1  0.33774000  0.06620000  0.44076000  1.0
  H  H61  1  0.16226000  0.43380000  0.94078000  1.0
  H  H62  1  0.66225000  0.93380000  0.55923000  1.0
  H  H63  1  0.83773000  0.56620000  0.05923000  1.0
  H  H64  1  0.16570000  0.92576000  0.44514000  1.0
  H  H65  1  0.33430000  0.57424000  0.94514000  1.0
  H  H66  1  0.83429000  0.07424000  0.55486000  1.0
  H  H67  1  0.66571000  0.42576000  0.05486000  1.0
  H  H68  1  0.24891000  0.97496000  0.38030000  1.0
  H  H69  1  0.25108000  0.52502000  0.88031000  1.0
  H  H70  1  0.75107000  0.02503000  0.61969000  1.0
  H  H71  1  0.74892000  0.47498000  0.11969000  1.0
  H  H72  1  0.09620000  0.01342000  0.37541000  1.0
  H  H73  1  0.40379000  0.48657000  0.87542000  1.0
  H  H74  1  0.90378000  0.98657000  0.62459000  1.0
  H  H75  1  0.59622000  0.51343000  0.12459000  1.0
  H  H76  1  0.07970000  0.17316000  0.54640000  1.0
  H  H77  1  0.42032000  0.32684000  0.04642000  1.0
  H  H78  1  0.92031000  0.82684000  0.45359000  1.0
  H  H79  1  0.57968000  0.67316000  0.95359000  1.0
  H  H80  1  0.06027000  0.05176000  0.55451000  1.0
  H  H81  1  0.43974000  0.44824000  0.05452000  1.0
  H  H82  1  0.93973000  0.94824000  0.44549000  1.0
  H  H83  1  0.56026000  0.55176000  0.94548000  1.0
  H  H84  1  0.99253000  0.13090000  0.47844000  1.0
  H  H85  1  0.50748000  0.36910000  0.97845000  1.0
  H  H86  1  0.00747000  0.86910000  0.52156000  1.0
  H  H87  1  0.49252000  0.63090000  0.02156000  1.0
  C  C88  1  0.57361000  0.05617000  0.41139000  1.0
  C  C89  1  0.92639000  0.44383000  0.91139000  1.0
  C  C90  1  0.42639000  0.94383000  0.58861000  1.0
  C  C91  1  0.07361000  0.55617000  0.08861000  1.0
  C  C92  1  0.67196000  0.05088000  0.35787000  1.0
  C  C93  1  0.82804000  0.44913000  0.85787000  1.0
  C  C94  1  0.32804000  0.94912000  0.64213000  1.0
  C  C95  1  0.17196000  0.55088000  0.14213000  1.0
  C  C96  1  0.72298000  0.12918000  0.35667000  1.0
  C  C97  1  0.77701000  0.37082000  0.85667000  1.0
  C  C98  1  0.27702000  0.87081000  0.64333000  1.0
  C  C99  1  0.22298000  0.62919000  0.14333000  1.0
  C  C100  1  0.81398000  0.13070000  0.30778000  1.0
  C  C101  1  0.68602000  0.36930000  0.80778000  1.0
  C  C102  1  0.18602000  0.86929000  0.69222000  1.0
  C  C103  1  0.31398000  0.63070000  0.19222000  1.0
  C  C104  1  0.85853000  0.04731000  0.26148000  1.0
  C  C105  1  0.64147000  0.45268000  0.76148000  1.0
  C  C106  1  0.14147000  0.95268000  0.73852000  1.0
  C  C107  1  0.35854000  0.54732000  0.23851000  1.0
  C  C108  1  0.95684000  0.03878000  0.20779000  1.0
  C  C109  1  0.54317000  0.46120000  0.70779000  1.0
  C  C110  1  0.04315000  0.96122000  0.79220000  1.0
  C  C111  1  0.45685000  0.53879000  0.29220000  1.0
  C  C112  1  0.18000000  0.20784000  0.21490000  1.0
  C  C113  1  0.32000000  0.29217000  0.71490000  1.0
  C  C114  1  0.81998000  0.79220000  0.78510000  1.0
  C  C115  1  0.68002000  0.70779000  0.28509000  1.0
  C  C116  1  0.21248000  0.24458000  0.28982000  1.0
  C  C117  1  0.28753000  0.25543000  0.78982000  1.0
  C  C118  1  0.78752000  0.75543000  0.71018000  1.0
  C  C119  1  0.71248000  0.74457000  0.21018000  1.0
  C  C120  1  0.12764000  0.30234000  0.33844000  1.0
  C  C121  1  0.37236000  0.19766000  0.83844000  1.0
  C  C122  1  0.87235000  0.69766000  0.66157000  1.0
  C  C123  1  0.62765000  0.80234000  0.16157000  1.0
  C  C124  1  0.00522000  0.30575000  0.32934000  1.0
  C  C125  1  0.49478000  0.19425000  0.82934000  1.0
  C  C126  1  0.99477000  0.69425000  0.67066000  1.0
  C  C127  1  0.50523000  0.80575000  0.17066000  1.0
  C  C128  1  0.91787000  0.39247000  0.34129000  1.0
  C  C129  1  0.58213000  0.10753000  0.84129000  1.0
  C  C130  1  0.08212000  0.60753000  0.65871000  1.0
  C  C131  1  0.41788000  0.89247000  0.15871000  1.0
  C  C132  1  0.77719000  0.31116000  0.32102000  1.0
  C  C133  1  0.72282000  0.18884000  0.82102000  1.0
  C  C134  1  0.22281000  0.68884000  0.67898000  1.0
  C  C135  1  0.27719000  0.81117000  0.17898000  1.0
  C  C136  1  0.85747000  0.21948000  0.31170000  1.0
  C  C137  1  0.64254000  0.28052000  0.81170000  1.0
  C  C138  1  0.14253000  0.78051000  0.68830000  1.0
  C  C139  1  0.35747000  0.71949000  0.18829000  1.0
  C  C140  1  0.97296000  0.21851000  0.31498000  1.0
  C  C141  1  0.52705000  0.28148000  0.81498000  1.0
  C  C142  1  0.02704000  0.78148000  0.68502000  1.0
  C  C143  1  0.47296000  0.71852000  0.18502000  1.0
  C  C144  1  0.16230000  0.35017000  0.39996000  1.0
  C  C145  1  0.33771000  0.14983000  0.89997000  1.0
  C  C146  1  0.83770000  0.64983000  0.60004000  1.0
  C  C147  1  0.66230000  0.85017000  0.10004000  1.0
  C  C148  1  0.27855000  0.33794000  0.41543000  1.0
  C  C149  1  0.22146000  0.16207000  0.91544000  1.0
  C  C150  1  0.72144000  0.66207000  0.58457000  1.0
  C  C151  1  0.77855000  0.83794000  0.08457000  1.0
  C  C152  1  0.31134000  0.38798000  0.48288000  1.0
  C  C153  1  0.18866000  0.11203000  0.98288000  1.0
  C  C154  1  0.68866000  0.61202000  0.51712000  1.0
  C  C155  1  0.81134000  0.88798000  0.01712000  1.0
  C  C156  1  0.36193000  0.27547000  0.37007000  1.0
  C  C157  1  0.13808000  0.22454000  0.87008000  1.0
  C  C158  1  0.63807000  0.72454000  0.62993000  1.0
  C  C159  1  0.86192000  0.77547000  0.12993000  1.0
  C  C160  1  0.32856000  0.22926000  0.30734000  1.0
  C  C161  1  0.17145000  0.27074000  0.80735000  1.0
  C  C162  1  0.67144000  0.77075000  0.69265000  1.0
  C  C163  1  0.82856000  0.72925000  0.19265000  1.0
  C  C164  1  0.80907000  0.96767000  0.26437000  1.0
  C  C165  1  0.69094000  0.53232000  0.76437000  1.0
  C  C166  1  0.19094000  0.03232000  0.73563000  1.0
  C  C167  1  0.30907000  0.46768000  0.23563000  1.0
  C  C168  1  0.71466000  0.96984000  0.31014000  1.0
  C  C169  1  0.78534000  0.53016000  0.81014000  1.0
  C  C170  1  0.28534000  0.03015000  0.68986000  1.0
  C  C171  1  0.21466000  0.46985000  0.18986000  1.0
  C  C172  1  0.26478000  0.10246000  0.47753000  1.0
  C  C173  1  0.23522000  0.39753000  0.97755000  1.0
  C  C174  1  0.73521000  0.89752000  0.52246000  1.0
  C  C175  1  0.76478000  0.60249000  0.02244000  1.0
  C  C176  1  0.17008000  0.99259000  0.41396000  1.0
  C  C177  1  0.32991000  0.50740000  0.91397000  1.0
  C  C178  1  0.82991000  0.00741000  0.58604000  1.0
  C  C179  1  0.67009000  0.49260000  0.08604000  1.0
  C  C180  1  0.06946000  0.10926000  0.51430000  1.0
  C  C181  1  0.43055000  0.39074000  0.01431000  1.0
  C  C182  1  0.93054000  0.89074000  0.48569000  1.0
  C  C183  1  0.56945000  0.60926000  0.98569000  1.0
  N  N184  1  0.80661000  0.39432000  0.33684000  1.0
  N  N185  1  0.69339000  0.10568000  0.83684000  1.0
  N  N186  1  0.19338000  0.60567000  0.66316000  1.0
  N  N187  1  0.30662000  0.89433000  0.16316000  1.0
  N  N188  1  0.16995000  0.07232000  0.46682000  1.0
  N  N189  1  0.33005000  0.42768000  0.96684000  1.0
  N  N190  1  0.83004000  0.92768000  0.53317000  1.0
  N  N191  1  0.66995000  0.57233000  0.03317000  1.0
  O  O192  1  0.55679000  0.12755000  0.45906000  1.0
  O  O193  1  0.94321000  0.37245000  0.95906000  1.0
  O  O194  1  0.44320000  0.87245000  0.54093000  1.0
  O  O195  1  0.05679000  0.62755000  0.04094000  1.0
  O  O196  1  0.51407000  0.99462000  0.40579000  1.0
  O  O197  1  0.98594000  0.50537000  0.90579000  1.0
  O  O198  1  0.48594000  0.00536000  0.59422000  1.0
  O  O199  1  0.01406000  0.49464000  0.09422000  1.0
  O  O200  1  0.95193000  0.10398000  0.15602000  1.0
  O  O201  1  0.54809000  0.39600000  0.65601000  1.0
  O  O202  1  0.04807000  0.89602000  0.84399000  1.0
  O  O203  1  0.45192000  0.60399000  0.34398000  1.0
  O  O204  1  0.04273000  0.96452000  0.21491000  1.0
  O  O205  1  0.45727000  0.53547000  0.71491000  1.0
  O  O206  1  0.95727000  0.03547000  0.78508000  1.0
  O  O207  1  0.54273000  0.46453000  0.28508000  1.0
  O  O208  1  0.23003000  0.12029000  0.19523000  1.0
  O  O209  1  0.26997000  0.37971000  0.69523000  1.0
  O  O210  1  0.76996000  0.87971000  0.80477000  1.0
  O  O211  1  0.73004000  0.62028000  0.30475000  1.0
  O  O212  1  0.10497000  0.27160000  0.17806000  1.0
  O  O213  1  0.39503000  0.22840000  0.67805000  1.0
  O  O214  1  0.89504000  0.72841000  0.82195000  1.0
  O  O215  1  0.60497000  0.77159000  0.32196000  1.0
  O  O216  1  0.40997000  0.35007000  0.51448000  1.0
  O  O217  1  0.09004000  0.14993000  0.01448000  1.0
  O  O218  1  0.59002000  0.64993000  0.48552000  1.0
  O  O219  1  0.90997000  0.85006000  0.98552000  1.0
  O  O220  1  0.24231000  0.46540000  0.50857000  1.0
  O  O221  1  0.25769000  0.03460000  0.00857000  1.0
  O  O222  1  0.75768000  0.53461000  0.49144000  1.0
  O  O223  1  0.74233000  0.96539000  0.99144000  1.0
  O  O224  1  0.11113000  0.89276000  0.02836000  1.0
  O  O225  1  0.38887000  0.60724000  0.52836000  1.0
  O  O226  1  0.88887000  0.10725000  0.97164000  1.0
  O  O227  1  0.61112000  0.39276000  0.47164000  1.0
  O  O228  1  0.27211000  0.16613000  0.52636000  1.0
  O  O229  1  0.22789000  0.33386000  0.02637000  1.0
  O  O230  1  0.72788000  0.83386000  0.47364000  1.0
  O  O231  1  0.77211000  0.66613000  0.97364000  1.0
  O  O232  1  0.62490000  0.21310000  0.59902000  1.0
  O  O233  1  0.87510000  0.28689000  0.09902000  1.0
  O  O234  1  0.37510000  0.78689000  0.40098000  1.0
  O  O235  1  0.12490000  0.71311000  0.90098000  1.0
