# generated using pymatgen
data_Al4H33C56Br3(NO5)4
_symmetry_space_group_name_H-M   'P 1'
_cell_length_a   6.66565000
_cell_length_b   17.12320000
_cell_length_c   19.26940000
_cell_angle_alpha   70.09800000
_cell_angle_beta   89.56550000
_cell_angle_gamma   88.90660000
_symmetry_Int_Tables_number   1
_chemical_formula_structural   Al4H33C56Br3(NO5)4
_chemical_formula_sum   'Al4 H33 C56 Br3 N4 O20'
_cell_volume   2067.62472122
_cell_formula_units_Z   1
loop_
 _symmetry_equiv_pos_site_id
 _symmetry_equiv_pos_as_xyz
  1  'x, y, z'
loop_
 _atom_site_type_symbol
 _atom_site_label
 _atom_site_symmetry_multiplicity
 _atom_site_fract_x
 _atom_site_fract_y
 _atom_site_fract_z
 _atom_site_occupancy
  Al  Al0  1  0.86257000  0.49867000  0.50197000  1.0
  Al  Al1  1  0.36370000  0.49830000  0.50276000  1.0
  Al  Al2  1  0.35789000  0.00117000  0.00452000  1.0
  Al  Al3  1  0.85742000  0.99782000  0.99954000  1.0
  H  H4  1  0.84255000  0.81796000  0.90810000  1.0
  H  H5  1  0.68066000  0.70852000  0.87281000  1.0
  H  H6  1  0.67412000  0.61929000  0.79603000  1.0
  H  H7  1  0.38808000  0.67530000  0.59791000  1.0
  H  H8  1  0.54997000  0.78597000  0.63313000  1.0
  H  H9  1  0.55671000  0.87519000  0.70976000  1.0
  H  H10  1  0.97101000  0.79320000  0.34846000  1.0
  H  H11  1  0.45480000  0.69450000  0.28185000  1.0
  H  H12  1  0.24942000  0.70177000  0.15260000  1.0
  H  H13  1  0.65415000  0.11683000  0.73618000  1.0
  H  H14  1  0.34272000  0.23473000  0.67144000  1.0
  H  H15  1  0.56085000  0.38582000  0.77035000  1.0
  H  H16  1  0.86665000  0.26638000  0.83651000  1.0
  H  H17  1  0.93671000  0.24732000  0.69620000  1.0
  H  H18  1  0.33493000  0.17707000  0.10307000  1.0
  H  H19  1  0.17218000  0.28913000  0.14137000  1.0
  H  H20  1  0.17060000  0.37614000  0.22080000  1.0
  H  H21  1  0.32903000  0.41553000  0.32083000  1.0
  H  H22  1  0.90445000  0.31241000  0.40836000  1.0
  H  H23  1  0.06603000  0.20211000  0.36849000  1.0
  H  H24  1  0.07426000  0.11934000  0.28763000  1.0
  H  H25  1  0.25200000  0.91148000  0.28769000  1.0
  H  H26  1  0.38984000  0.91301000  0.21609000  1.0
  H  H27  1  0.64793000  0.82885000  0.25244000  1.0
  H  H28  1  0.70648000  0.85178000  0.16181000  1.0
  H  H29  1  0.13620000  0.29447000  0.77990000  1.0
  H  H30  1  0.23517000  0.26468000  0.86366000  1.0
  H  H31  1  0.10274000  0.09823000  0.19333000  1.0
  H  H32  1  0.98082000  0.06059000  0.13228000  1.0
  H  H33  1  0.60779000  0.60296000  0.45209000  1.0
  H  H34  1  0.11764000  0.40376000  0.48827000  1.0
  H  H35  1  0.59847000  0.90732000  0.98329000  1.0
  H  H36  1  0.10283000  0.10197000  0.94909000  1.0
  C  C37  1  0.62267000  0.38204000  0.61524000  1.0
  C  C38  1  0.61234000  0.41788000  0.41965000  1.0
  C  C39  1  0.10682000  0.61558000  0.38796000  1.0
  C  C40  1  0.11247000  0.57364000  0.58765000  1.0
  C  C41  1  0.28032000  0.87725000  0.81524000  1.0
  C  C42  1  0.12347000  0.87328000  0.86552000  1.0
  C  C43  1  0.96456000  0.81968000  0.86970000  1.0
  C  C44  1  0.95972000  0.76823000  0.82690000  1.0
  C  C45  1  0.11764000  0.77289000  0.77530000  1.0
  C  C46  1  0.27988000  0.82900000  0.76845000  1.0
  C  C47  1  0.80086000  0.71129000  0.83331000  1.0
  C  C48  1  0.79707000  0.66185000  0.79085000  1.0
  C  C49  1  0.95120000  0.66544000  0.73763000  1.0
  C  C50  1  0.11320000  0.72165000  0.73048000  1.0
  C  C51  1  0.27115000  0.72605000  0.67893000  1.0
  C  C52  1  0.42970000  0.78315000  0.67262000  1.0
  C  C53  1  0.43374000  0.83262000  0.71511000  1.0
  C  C54  1  0.95071000  0.61671000  0.69130000  1.0
  C  C55  1  0.10657000  0.62097000  0.64056000  1.0
  C  C56  1  0.26607000  0.67439000  0.63619000  1.0
  C  C57  1  0.22463000  0.80958000  0.25753000  1.0
  C  C58  1  0.03296000  0.77383000  0.30390000  1.0
  C  C59  1  0.11222000  0.68287000  0.31527000  1.0
  C  C60  1  0.30203000  0.71859000  0.26824000  1.0
  C  C61  1  0.18798000  0.72170000  0.19670000  1.0
  C  C62  1  0.99652000  0.68654000  0.24323000  1.0
  C  C63  1  0.91624000  0.77847000  0.23206000  1.0
  C  C64  1  0.10892000  0.81264000  0.18493000  1.0
  C  C65  1  0.46046000  0.24142000  0.70815000  1.0
  C  C66  1  0.63377000  0.17739000  0.74287000  1.0
  C  C67  1  0.59754000  0.18957000  0.82008000  1.0
  C  C68  1  0.42304000  0.25364000  0.78408000  1.0
  C  C69  1  0.58205000  0.32549000  0.76314000  1.0
  C  C70  1  0.75311000  0.26096000  0.79802000  1.0
  C  C71  1  0.79075000  0.24867000  0.72209000  1.0
  C  C72  1  0.61761000  0.31245000  0.68639000  1.0
  C  C73  1  0.80154000  0.12471000  0.18028000  1.0
  C  C74  1  0.62728000  0.12507000  0.13724000  1.0
  C  C75  1  0.46148000  0.17625000  0.13893000  1.0
  C  C76  1  0.45825000  0.22789000  0.18155000  1.0
  C  C77  1  0.62439000  0.22256000  0.22993000  1.0
  C  C78  1  0.79207000  0.16930000  0.23118000  1.0
  C  C79  1  0.29675000  0.28529000  0.17894000  1.0
  C  C80  1  0.29557000  0.33333333  0.22276000  1.0
  C  C81  1  0.45594000  0.32739000  0.27377000  1.0
  C  C82  1  0.62139000  0.27166000  0.27661000  1.0
  C  C83  1  0.78384000  0.26562000  0.32636000  1.0
  C  C84  1  0.94443000  0.20815000  0.32932000  1.0
  C  C85  1  0.94851000  0.16237000  0.28340000  1.0
  C  C86  1  0.45527000  0.37386000  0.32130000  1.0
  C  C87  1  0.61666000  0.36841000  0.36911000  1.0
  C  C88  1  0.78017000  0.31556000  0.37102000  1.0
  C  C89  1  0.61703000  0.07566000  0.08760000  1.0
  C  C90  1  0.59624000  0.11926000  0.89038000  1.0
  C  C91  1  0.11297000  0.92124000  0.91772000  1.0
  C  C92  1  0.11572000  0.88243000  0.11461000  1.0
  Br  Br93  1  0.49609000  0.95170000  0.80610000  1.0
  Br  Br94  1  0.83487000  0.59977000  0.23242000  1.0
  Br  Br95  1  0.73743000  0.54115000  0.70197000  1.0
  N  N96  1  0.33892000  0.87537000  0.26641000  1.0
  N  N97  1  0.72136000  0.81042000  0.21396000  1.0
  N  N98  1  0.22996000  0.25195000  0.81561000  1.0
  N  N99  1  0.97277000  0.08176000  0.17569000  1.0
  O  O100  1  0.44095000  0.44423000  0.43281000  1.0
  O  O101  1  0.79165000  0.41443000  0.59257000  1.0
  O  O102  1  0.94881000  0.56545000  0.55802000  1.0
  O  O103  1  0.77919000  0.42868000  0.44694000  1.0
  O  O104  1  0.93529000  0.58605000  0.41141000  1.0
  O  O105  1  0.45480000  0.40460000  0.58264000  1.0
  O  O106  1  0.61082000  0.55007000  0.49229000  1.0
  O  O107  1  0.27369000  0.59410000  0.42174000  1.0
  O  O108  1  0.28458000  0.54876000  0.57425000  1.0
  O  O109  1  0.11513000  0.44890000  0.50790000  1.0
  O  O110  1  0.76610000  0.09538000  0.92173000  1.0
  O  O111  1  0.44725000  0.06804000  0.06041000  1.0
  O  O112  1  0.28291000  0.91954000  0.09638000  1.0
  O  O113  1  0.42743000  0.08708000  0.91439000  1.0
  O  O114  1  0.27303000  0.92923000  0.94984000  1.0
  O  O115  1  0.78053000  0.04301000  0.07380000  1.0
  O  O116  1  0.60762000  0.94794000  0.00805000  1.0
  O  O117  1  0.93848000  0.94741000  0.92804000  1.0
  O  O118  1  0.95460000  0.90182000  0.07689000  1.0
  O  O119  1  0.10369000  0.05147000  0.99221000  1.0
