# generated using pymatgen
data_KH5C2(N4O)2
_symmetry_space_group_name_H-M   'P 1'
_cell_length_a   7.23697000
_cell_length_b   7.55875000
_cell_length_c   7.90254000
_cell_angle_alpha   85.72820000
_cell_angle_beta   84.28540000
_cell_angle_gamma   86.37050000
_symmetry_Int_Tables_number   1
_chemical_formula_structural   KH5C2(N4O)2
_chemical_formula_sum   'K2 H10 C4 N16 O4'
_cell_volume   428.26403063
_cell_formula_units_Z   2
loop_
 _symmetry_equiv_pos_site_id
 _symmetry_equiv_pos_as_xyz
  1  'x, y, z'
loop_
 _atom_site_type_symbol
 _atom_site_label
 _atom_site_symmetry_multiplicity
 _atom_site_fract_x
 _atom_site_fract_y
 _atom_site_fract_z
 _atom_site_occupancy
  K  K0  1  0.61298000  0.35637000  0.67974000  1.0
  K  K1  1  0.38702000  0.64363000  0.32026000  1.0
  H  H2  1  0.16595000  0.37438000  0.60129000  1.0
  H  H3  1  0.83405000  0.62562000  0.39870000  1.0
  H  H4  1  0.95243000  0.52459000  0.78741000  1.0
  H  H5  1  0.04758000  0.47541000  0.21259000  1.0
  H  H6  1  0.78914000  0.94879000  0.33653000  1.0
  H  H7  1  0.21086000  0.05121000  0.66347000  1.0
  H  H8  1  0.25999000  0.26326000  0.44710000  1.0
  H  H9  1  0.74001000  0.73674000  0.55290000  1.0
  H  H10  1  0.02988000  0.32820000  0.84012000  1.0
  H  H11  1  0.97012000  0.67180000  0.15988000  1.0
  C  C12  1  0.76156000  0.97091000  0.97568000  1.0
  C  C13  1  0.23844000  0.02909000  0.02432000  1.0
  C  C14  1  0.73961000  0.07133000  0.27094000  1.0
  C  C15  1  0.26039000  0.92868000  0.72906000  1.0
  N  N16  1  0.62425000  0.33396000  0.20932000  1.0
  N  N17  1  0.37575000  0.66604000  0.79068000  1.0
  N  N18  1  0.85592000  0.81468000  0.00199000  1.0
  N  N19  1  0.14408000  0.18532000  0.99801000  1.0
  N  N20  1  0.71912000  0.09143000  0.10202000  1.0
  N  N21  1  0.28088000  0.90857000  0.89798000  1.0
  N  N22  1  0.78196000  0.85391000  0.74044000  1.0
  N  N23  1  0.21803000  0.14609000  0.25956000  1.0
  N  N24  1  0.71286000  0.00054000  0.81658000  1.0
  N  N25  1  0.28713000  0.99946000  0.18343000  1.0
  N  N26  1  0.68124000  0.22158000  0.33941000  1.0
  N  N27  1  0.31876000  0.77842000  0.66059000  1.0
  N  N28  1  0.86616000  0.74396000  0.85006000  1.0
  N  N29  1  0.13384000  0.25605000  0.14994000  1.0
  N  N30  1  0.64559000  0.25880000  0.06579000  1.0
  N  N31  1  0.35441000  0.74120000  0.93421000  1.0
  O  O32  1  0.97627000  0.40313000  0.74632000  1.0
  O  O33  1  0.02373000  0.59687000  0.25368000  1.0
  O  O34  1  0.28734000  0.33800000  0.53826000  1.0
  O  O35  1  0.71266000  0.66200000  0.46174000  1.0
