# generated using pymatgen
data_Zn4H20C40O29
_symmetry_space_group_name_H-M   'P 1'
_cell_length_a   23.79405311
_cell_length_b   23.79440000
_cell_length_c   23.79280000
_cell_angle_alpha   66.23340000
_cell_angle_beta   72.63014490
_cell_angle_gamma   107.36621911
_symmetry_Int_Tables_number   1
_chemical_formula_structural   Zn4H20C40O29
_chemical_formula_sum   'Zn8 H40 C80 O58'
_cell_volume   10325.45153283
_cell_formula_units_Z   2
loop_
 _symmetry_equiv_pos_site_id
 _symmetry_equiv_pos_as_xyz
  1  'x, y, z'
loop_
 _atom_site_type_symbol
 _atom_site_label
 _atom_site_symmetry_multiplicity
 _atom_site_fract_x
 _atom_site_fract_y
 _atom_site_fract_z
 _atom_site_occupancy
  Zn  Zn0  1  0.05630000  0.10008000  0.45621000  1.0
  Zn  Zn1  1  0.05630000  0.95622000  0.48747000  1.0
  Zn  Zn2  1  0.94369000  0.95621000  0.60009000  1.0
  Zn  Zn3  1  0.94371000  0.98749000  0.45621000  1.0
  Zn  Zn4  1  0.94370000  0.39992000  0.04379000  1.0
  Zn  Zn5  1  0.05631000  0.54379000  0.89991000  1.0
  Zn  Zn6  1  0.94370000  0.54378000  0.01252000  1.0
  Zn  Zn7  1  0.05629000  0.51251000  0.04379000  1.0
  H  H8  1  0.92363000  0.12542000  0.29822000  1.0
  H  H9  1  0.07637000  0.37458000  0.20178000  1.0
  H  H10  1  0.92363000  0.22185000  0.20179000  1.0
  H  H11  1  0.07637000  0.27815000  0.29821000  1.0
  H  H12  1  0.92363000  0.79820000  0.77817000  1.0
  H  H13  1  0.07637000  0.70180000  0.72183000  1.0
  H  H14  1  0.92364000  0.70178000  0.87459000  1.0
  H  H15  1  0.07637000  0.79822000  0.62540000  1.0
  H  H16  1  0.91904000  0.29106000  0.99497000  1.0
  H  H17  1  0.08096000  0.49498000  0.79103000  1.0
  H  H18  1  0.08064000  0.37970000  0.67670000  1.0
  H  H19  1  0.91935000  0.17673000  0.87969000  1.0
  H  H20  1  0.91938000  0.12030000  0.82330000  1.0
  H  H21  1  0.08058000  0.32329000  0.62028000  1.0
  H  H22  1  0.08091000  0.20896000  0.50501000  1.0
  H  H23  1  0.91904000  0.00503000  0.70897000  1.0
  H  H24  1  0.08097000  0.58602000  0.12796000  1.0
  H  H25  1  0.91905000  0.62803000  0.08596000  1.0
  H  H26  1  0.91936000  0.74265000  0.20095000  1.0
  H  H27  1  0.08064000  0.70097000  0.24262000  1.0
  H  H28  1  0.08058000  0.75729000  0.29911000  1.0
  H  H29  1  0.91939000  0.79909000  0.25732000  1.0
  H  H30  1  0.91904000  0.91401000  0.37200000  1.0
  H  H31  1  0.08091000  0.87195000  0.41407000  1.0
  H  H32  1  0.78602000  0.29105000  0.12802000  1.0
  H  H33  1  0.78601000  0.49498000  0.08597000  1.0
  H  H34  1  0.55640000  0.37969000  0.20092000  1.0
  H  H35  1  0.55641000  0.17672000  0.24269000  1.0
  H  H36  1  0.44360000  0.12031000  0.29906000  1.0
  H  H37  1  0.44359000  0.32326000  0.25740000  1.0
  H  H38  1  0.21398000  0.20893000  0.37205000  1.0
  H  H39  1  0.21399000  0.00502000  0.41404000  1.0
  H  H40  1  0.21399000  0.62805000  0.79104000  1.0
  H  H41  1  0.21398000  0.58597000  0.99500000  1.0
  H  H42  1  0.44359000  0.70091000  0.87971000  1.0
  H  H43  1  0.44360000  0.74272000  0.67671000  1.0
  H  H44  1  0.55642000  0.79908000  0.62029000  1.0
  H  H45  1  0.55640000  0.75738000  0.82327000  1.0
  H  H46  1  0.78601000  0.87202000  0.70894000  1.0
  H  H47  1  0.78602000  0.91404000  0.50500000  1.0
  C  C48  1  0.18400000  0.09199000  0.40801000  1.0
  C  C49  1  0.00000000  0.86092000  0.63909000  1.0
  C  C50  1  0.99998000  0.09199000  0.59201000  1.0
  C  C51  1  0.81600000  0.90801000  0.59198000  1.0
  C  C52  1  0.00001000  0.13910000  0.36090000  1.0
  C  C53  1  0.99999000  0.90799000  0.40801000  1.0
  C  C54  1  0.00000000  0.40801000  0.90799000  1.0
  C  C55  1  0.00001000  0.63909000  0.86090000  1.0
  C  C56  1  0.81600000  0.40801000  0.09201000  1.0
  C  C57  1  0.00000000  0.59202000  0.09199000  1.0
  C  C58  1  0.99999000  0.36091000  0.13910000  1.0
  C  C59  1  0.18400000  0.59201000  0.90801000  1.0
  C  C60  1  0.00000000  0.19642000  0.30358000  1.0
  C  C61  1  0.00000000  0.30358000  0.19642000  1.0
  C  C62  1  0.95680000  0.18008000  0.27672000  1.0
  C  C63  1  0.04321000  0.31993000  0.22327000  1.0
  C  C64  1  0.95679000  0.23351000  0.22329000  1.0
  C  C65  1  0.04321000  0.26649000  0.27671000  1.0
  C  C66  1  0.00000000  0.80358000  0.69642000  1.0
  C  C67  1  0.00001000  0.69643000  0.80357000  1.0
  C  C68  1  0.95680000  0.77672000  0.76649000  1.0
  C  C69  1  0.04321000  0.72329000  0.73350000  1.0
  C  C70  1  0.95680000  0.72328000  0.81993000  1.0
  C  C71  1  0.04321000  0.77673000  0.68006000  1.0
  C  C72  1  0.00000000  0.37147000  0.87144000  1.0
  C  C73  1  0.95585000  0.29779000  0.90918000  1.0
  C  C74  1  0.95618000  0.26318000  0.87366000  1.0
  C  C75  1  0.99999000  0.30084000  0.80083000  1.0
  C  C76  1  0.04381000  0.37367000  0.76315000  1.0
  C  C77  1  0.04415000  0.40919000  0.79776000  1.0
  C  C78  1  0.99999000  0.26544000  0.76542000  1.0
  C  C79  1  0.99999000  0.23458000  0.73455000  1.0
  C  C80  1  0.99997000  0.19916000  0.69917000  1.0
  C  C81  1  0.95617000  0.12634000  0.73685000  1.0
  C  C82  1  0.95584000  0.09082000  0.70222000  1.0
  C  C83  1  0.99997000  0.12854000  0.62855000  1.0
  C  C84  1  0.04411000  0.20222000  0.59081000  1.0
  C  C85  1  0.04377000  0.23683000  0.62633000  1.0
  C  C86  1  0.00001000  0.62858000  0.12852000  1.0
  C  C87  1  0.04416000  0.63500000  0.15804000  1.0
  C  C88  1  0.04382000  0.67018000  0.19299000  1.0
  C  C89  1  0.00001000  0.69919000  0.19914000  1.0
  C  C90  1  0.95620000  0.69305000  0.17013000  1.0
  C  C91  1  0.95586000  0.65810000  0.13494000  1.0
  C  C92  1  0.00000000  0.73458000  0.23456000  1.0
  C  C93  1  0.00000000  0.76543000  0.26543000  1.0
  C  C94  1  0.99998000  0.80082000  0.30086000  1.0
  C  C95  1  0.04377000  0.80694000  0.32989000  1.0
  C  C96  1  0.04411000  0.84189000  0.36508000  1.0
  C  C97  1  0.99997000  0.87142000  0.37149000  1.0
  C  C98  1  0.95584000  0.86502000  0.34194000  1.0
  C  C99  1  0.95618000  0.82984000  0.30699000  1.0
  C  C100  1  0.74291000  0.37146000  0.12855000  1.0
  C  C101  1  0.70697000  0.29779000  0.15808000  1.0
  C  C102  1  0.63683000  0.26318000  0.19304000  1.0
  C  C103  1  0.60167000  0.30084000  0.19918000  1.0
  C  C104  1  0.63682000  0.37366000  0.17015000  1.0
  C  C105  1  0.70696000  0.40919000  0.13496000  1.0
  C  C106  1  0.53086000  0.26542000  0.23459000  1.0
  C  C107  1  0.46914000  0.23455000  0.26546000  1.0
  C  C108  1  0.39832000  0.19914000  0.30088000  1.0
  C  C109  1  0.36317000  0.12633000  0.32988000  1.0
  C  C110  1  0.29304000  0.09081000  0.36507000  1.0
  C  C111  1  0.25709000  0.12853000  0.37149000  1.0
  C  C112  1  0.29303000  0.20220000  0.34197000  1.0
  C  C113  1  0.36317000  0.23681000  0.30702000  1.0
  C  C114  1  0.25709000  0.62856000  0.87147000  1.0
  C  C115  1  0.29304000  0.65811000  0.79779000  1.0
  C  C116  1  0.36318000  0.69307000  0.76317000  1.0
  C  C117  1  0.39832000  0.69918000  0.80085000  1.0
  C  C118  1  0.36317000  0.67015000  0.87368000  1.0
  C  C119  1  0.29303000  0.63496000  0.90921000  1.0
  C  C120  1  0.46913000  0.73458000  0.76543000  1.0
  C  C121  1  0.53087000  0.76546000  0.73454000  1.0
  C  C122  1  0.60168000  0.80087000  0.69914000  1.0
  C  C123  1  0.63683000  0.82987000  0.62632000  1.0
  C  C124  1  0.70697000  0.86506000  0.59079000  1.0
  C  C125  1  0.74291000  0.87148000  0.62852000  1.0
  C  C126  1  0.70696000  0.84194000  0.70220000  1.0
  C  C127  1  0.63682000  0.80700000  0.73682000  1.0
  O  O128  1  0.00000000  0.00000000  0.50000000  1.0
  O  O129  1  0.15250000  0.12702000  0.41367000  1.0
  O  O130  1  0.04042000  0.88328000  0.57631000  1.0
  O  O131  1  0.95930000  0.02547000  0.62704000  1.0
  O  O132  1  0.15250000  0.02547000  0.43383000  1.0
  O  O133  1  0.04068000  0.12702000  0.52547000  1.0
  O  O134  1  0.95957000  0.88326000  0.65716000  1.0
  O  O135  1  0.84749000  0.91366000  0.62702000  1.0
  O  O136  1  0.95959000  0.07632000  0.38327000  1.0
  O  O137  1  0.84750000  0.93384000  0.52545000  1.0
  O  O138  1  0.04042000  0.15715000  0.38326000  1.0
  O  O139  1  0.04068000  0.91365000  0.43385000  1.0
  O  O140  1  0.95931000  0.93384000  0.41365000  1.0
  O  O141  1  0.00000000  0.50000000  0.00000000  1.0
  O  O142  1  0.95930000  0.37298000  0.97453000  1.0
  O  O143  1  0.04043000  0.61674000  0.84284000  1.0
  O  O144  1  0.84750000  0.47454000  0.06617000  1.0
  O  O145  1  0.04070000  0.47453000  0.87296000  1.0
  O  O146  1  0.84750000  0.37298000  0.08635000  1.0
  O  O147  1  0.95959000  0.61673000  0.92368000  1.0
  O  O148  1  0.95930000  0.58634000  0.06616000  1.0
  O  O149  1  0.04040000  0.42368000  0.11674000  1.0
  O  O150  1  0.04068000  0.56617000  0.08634000  1.0
  O  O151  1  0.95958000  0.34285000  0.11673000  1.0
  O  O152  1  0.15251000  0.58636000  0.87298000  1.0
  O  O153  1  0.15250000  0.56617000  0.97455000  1.0
  O  O154  1  0.91283000  0.25844000  0.97861000  1.0
  O  O155  1  0.08717000  0.47861000  0.75841000  1.0
  O  O156  1  0.08668000  0.41163000  0.69290000  1.0
  O  O157  1  0.91331000  0.19294000  0.91163000  1.0
  O  O158  1  0.91332000  0.08837000  0.80710000  1.0
  O  O159  1  0.08662000  0.30708000  0.58835000  1.0
  O  O160  1  0.08711000  0.24158000  0.52137000  1.0
  O  O161  1  0.91283000  0.02139000  0.74159000  1.0
  O  O162  1  0.08720000  0.60862000  0.15434000  1.0
  O  O163  1  0.91284000  0.65443000  0.10853000  1.0
  O  O164  1  0.91332000  0.72041000  0.17504000  1.0
  O  O165  1  0.08669000  0.67508000  0.22037000  1.0
  O  O166  1  0.08663000  0.77955000  0.32500000  1.0
  O  O167  1  0.91332000  0.82495000  0.27960000  1.0
  O  O168  1  0.91282000  0.89143000  0.34560000  1.0
  O  O169  1  0.08712000  0.84554000  0.39150000  1.0
  O  O170  1  0.73704000  0.25843000  0.15443000  1.0
  O  O171  1  0.73703000  0.47862000  0.10853000  1.0
  O  O172  1  0.60454000  0.41163000  0.17504000  1.0
  O  O173  1  0.60455000  0.19292000  0.22044000  1.0
  O  O174  1  0.39545000  0.08836000  0.32498000  1.0
  O  O175  1  0.39545000  0.30706000  0.27965000  1.0
  O  O176  1  0.26296000  0.24155000  0.34566000  1.0
  O  O177  1  0.26297000  0.02139000  0.39147000  1.0
  O  O178  1  0.26297000  0.65446000  0.75842000  1.0
  O  O179  1  0.26296000  0.60854000  0.97864000  1.0
  O  O180  1  0.39545000  0.67504000  0.91165000  1.0
  O  O181  1  0.39546000  0.72046000  0.69291000  1.0
  O  O182  1  0.60456000  0.82498000  0.58834000  1.0
  O  O183  1  0.60454000  0.77962000  0.80707000  1.0
  O  O184  1  0.73703000  0.84562000  0.74156000  1.0
  O  O185  1  0.73705000  0.89148000  0.52135000  1.0
