# generated using pymatgen
data_Na3B5H2CO11
_symmetry_space_group_name_H-M   'P 1'
_cell_length_a   6.37039000
_cell_length_b   6.51140000
_cell_length_c   11.97690000
_cell_angle_alpha   90.00010000
_cell_angle_beta   90.00000000
_cell_angle_gamma   117.72600000
_symmetry_Int_Tables_number   1
_chemical_formula_structural   Na3B5H2CO11
_chemical_formula_sum   'Na6 B10 H4 C2 O22'
_cell_volume   439.76198683
_cell_formula_units_Z   2
loop_
 _symmetry_equiv_pos_site_id
 _symmetry_equiv_pos_as_xyz
  1  'x, y, z'
loop_
 _atom_site_type_symbol
 _atom_site_label
 _atom_site_symmetry_multiplicity
 _atom_site_fract_x
 _atom_site_fract_y
 _atom_site_fract_z
 _atom_site_occupancy
  Na  Na0  1  0.92565000  0.32753000  0.95063000  1.0
  Na  Na1  1  0.07435000  0.67247000  0.45063000  1.0
  Na  Na2  1  0.42317000  0.85088000  0.93466000  1.0
  Na  Na3  1  0.57683000  0.14912000  0.43466000  1.0
  Na  Na4  1  0.80356000  0.91312000  0.17081000  1.0
  Na  Na5  1  0.19644000  0.08688000  0.67081000  1.0
  B  B6  1  0.31204000  0.49666000  0.12281000  1.0
  B  B7  1  0.68796000  0.50334000  0.62281000  1.0
  B  B8  1  0.92163000  0.41316000  0.20983000  1.0
  B  B9  1  0.07837000  0.58684000  0.70983000  1.0
  B  B10  1  0.49244000  0.24154000  0.17521000  1.0
  B  B11  1  0.50756000  0.75846000  0.67521000  1.0
  B  B12  1  0.22882000  0.81092000  0.19426000  1.0
  B  B13  1  0.77118000  0.18908000  0.69426000  1.0
  B  B14  1  0.45685000  0.32828000  0.97547000  1.0
  B  B15  1  0.54315000  0.67172000  0.47547000  1.0
  H  H16  1  0.49830000  0.40306000  0.80760000  1.0
  H  H17  1  0.50170000  0.59694000  0.30760000  1.0
  H  H18  1  0.90562000  0.82857000  0.83207000  1.0
  H  H19  1  0.09438000  0.17143000  0.33207000  1.0
  C  C20  1  0.91398000  0.82716000  0.92458000  1.0
  C  C21  1  0.08602000  0.17284000  0.42458000  1.0
  O  O22  1  0.49773000  0.28966000  0.86589000  1.0
  O  O23  1  0.50227000  0.71034000  0.36589000  1.0
  O  O24  1  0.53429000  0.22346000  0.05315000  1.0
  O  O25  1  0.46571000  0.77654000  0.55315000  1.0
  O  O26  1  0.05643000  0.34227000  0.14859000  1.0
  O  O27  1  0.94357000  0.65773000  0.64859000  1.0
  O  O28  1  0.01242000  0.64503000  0.24245000  1.0
  O  O29  1  0.98758000  0.35497000  0.74244000  1.0
  O  O30  1  0.69595000  0.25206000  0.23980000  1.0
  O  O31  1  0.30405000  0.74794000  0.73980000  1.0
  O  O32  1  0.37032000  0.74320000  0.13581000  1.0
  O  O33  1  0.62968000  0.25680000  0.63581000  1.0
  O  O34  1  0.46846000  0.45101000  0.19467000  1.0
  O  O35  1  0.53154000  0.54899000  0.69467000  1.0
  O  O36  1  0.34452000  0.45795000  0.00239000  1.0
  O  O37  1  0.65548000  0.54205000  0.50239000  1.0
  O  O38  1  0.27735000  0.03382000  0.21191000  1.0
  O  O39  1  0.72265000  0.96618000  0.71191000  1.0
  O  O40  1  0.82241000  0.93723000  0.97546000  1.0
  O  O41  1  0.17758000  0.06277000  0.47546000  1.0
  O  O42  1  0.00871000  0.71547000  0.97048000  1.0
  O  O43  1  0.99128000  0.28453000  0.47048000  1.0
