# generated using pymatgen
data_AgH11C19SN3O4F3
_symmetry_space_group_name_H-M   'P 1'
_cell_length_a   8.53133000
_cell_length_b   10.85040000
_cell_length_c   11.17910000
_cell_angle_alpha   100.60400000
_cell_angle_beta   102.42300000
_cell_angle_gamma   105.92800000
_symmetry_Int_Tables_number   1
_chemical_formula_structural   AgH11C19SN3O4F3
_chemical_formula_sum   'Ag2 H22 C38 S2 N6 O8 F6'
_cell_volume   938.68758187
_cell_formula_units_Z   2
loop_
 _symmetry_equiv_pos_site_id
 _symmetry_equiv_pos_as_xyz
  1  'x, y, z'
loop_
 _atom_site_type_symbol
 _atom_site_label
 _atom_site_symmetry_multiplicity
 _atom_site_fract_x
 _atom_site_fract_y
 _atom_site_fract_z
 _atom_site_occupancy
  Ag  Ag0  1  0.42831000  0.61657000  0.24822000  1.0
  Ag  Ag1  1  0.57169000  0.38342000  0.75178000  1.0
  H  H2  1  0.36165000  0.55793000  0.79523000  1.0
  H  H3  1  0.63835000  0.44207000  0.20477000  1.0
  H  H4  1  0.08563000  0.73649000  0.44395000  1.0
  H  H5  1  0.91437000  0.26351000  0.55604000  1.0
  H  H6  1  0.02119000  0.57644000  0.21346000  1.0
  H  H7  1  0.97880000  0.42356000  0.78654000  1.0
  H  H8  1  0.12993000  0.37211000  0.23486000  1.0
  H  H9  1  0.87007000  0.62788000  0.76514000  1.0
  H  H10  1  0.35608000  0.31820000  0.28663000  1.0
  H  H11  1  0.64392000  0.68179000  0.71336000  1.0
  H  H12  1  0.38711000  0.10574000  0.19427000  1.0
  H  H13  1  0.61289000  0.89426000  0.80573000  1.0
  H  H14  1  0.27432000  0.95984000  0.51136000  1.0
  H  H15  1  0.72568000  0.04017000  0.48865000  1.0
  H  H16  1  0.24333000  0.17588000  0.60451000  1.0
  H  H17  1  0.75667000  0.82412000  0.39549000  1.0
  H  H18  1  0.33917000  0.72520000  0.92961000  1.0
  H  H19  1  0.66083000  0.27479000  0.07039000  1.0
  H  H20  1  0.30061000  0.96792000  0.98902000  1.0
  H  H21  1  0.69939000  0.03208000  0.01098000  1.0
  H  H22  1  0.19730000  0.02272000  0.75990000  1.0
  H  H23  1  0.80271000  0.97728000  0.24010000  1.0
  C  C24  1  0.20153000  0.59241000  0.51265000  1.0
  C  C25  1  0.79847000  0.40759000  0.48735000  1.0
  C  C26  1  0.12074000  0.64783000  0.42334000  1.0
  C  C27  1  0.87925000  0.35216000  0.57666000  1.0
  C  C28  1  0.08827000  0.56398000  0.30237000  1.0
  C  C29  1  0.91172000  0.43602000  0.69763000  1.0
  C  C30  1  0.14821000  0.45544000  0.31277000  1.0
  C  C31  1  0.85179000  0.54456000  0.68723000  1.0
  C  C32  1  0.21840000  0.46997000  0.44290000  1.0
  C  C33  1  0.78160000  0.53003000  0.55710000  1.0
  C  C34  1  0.28764000  0.39191000  0.51197000  1.0
  C  C35  1  0.71237000  0.60809000  0.48803000  1.0
  C  C36  1  0.30046000  0.26284000  0.45334000  1.0
  C  C37  1  0.69954000  0.73716000  0.54666000  1.0
  C  C38  1  0.33721000  0.24066000  0.33636000  1.0
  C  C39  1  0.66279000  0.75934000  0.66364000  1.0
  C  C40  1  0.35461000  0.12068000  0.28363000  1.0
  C  C41  1  0.64539000  0.87932000  0.71637000  1.0
  C  C42  1  0.33399000  0.01978000  0.34743000  1.0
  C  C43  1  0.66602000  0.98022000  0.65257000  1.0
  C  C44  1  0.35493000  0.89821000  0.29469000  1.0
  C  C45  1  0.64508000  0.10179000  0.70531000  1.0
  C  C46  1  0.29218000  0.03915000  0.46322000  1.0
  C  C47  1  0.70782000  0.96085000  0.53679000  1.0
  C  C48  1  0.27546000  0.15980000  0.51494000  1.0
  C  C49  1  0.72453000  0.84020000  0.48506000  1.0
  C  C50  1  0.25736000  0.62518000  0.64512000  1.0
  C  C51  1  0.74264000  0.37482000  0.35487000  1.0
  C  C52  1  0.25622000  0.74021000  0.73267000  1.0
  C  C53  1  0.74378000  0.25979000  0.26733000  1.0
  C  C54  1  0.29894000  0.77977000  0.86333000  1.0
  C  C55  1  0.70106000  0.22023000  0.13666000  1.0
  C  C56  1  0.27913000  0.90678000  0.89500000  1.0
  C  C57  1  0.72087000  0.09322000  0.10500000  1.0
  C  C58  1  0.22620000  0.93738000  0.78311000  1.0
  C  C59  1  0.77380000  0.06262000  0.21689000  1.0
  C  C60  1  0.08574000  0.23645000  0.93745000  1.0
  C  C61  1  0.91426000  0.76355000  0.06255000  1.0
  S  S62  1  0.30279000  0.35684000  0.97115000  1.0
  S  S63  1  0.69721000  0.64316000  0.02885000  1.0
  N  N64  1  0.37151000  0.79788000  0.25143000  1.0
  N  N65  1  0.62850000  0.20213000  0.74858000  1.0
  N  N66  1  0.34200000  0.42954000  0.63911000  1.0
  N  N67  1  0.65800000  0.57046000  0.36089000  1.0
  N  N68  1  0.32275000  0.54129000  0.69869000  1.0
  N  N69  1  0.67725000  0.45871000  0.30131000  1.0
  O  O70  1  0.21135000  0.83706000  0.68270000  1.0
  O  O71  1  0.78865000  0.16294000  0.31730000  1.0
  O  O72  1  0.36524000  0.38971000  0.11032000  1.0
  O  O73  1  0.63476000  0.61029000  0.88968000  1.0
  O  O74  1  0.38751000  0.27913000  0.90466000  1.0
  O  O75  1  0.61249000  0.72087000  0.09534000  1.0
  O  O76  1  0.27240000  0.46608000  0.92211000  1.0
  O  O77  1  0.72760000  0.53392000  0.07789000  1.0
  F  F78  1  0.98021000  0.29529000  0.98010000  1.0
  F  F79  1  0.01979000  0.70471000  0.01990000  1.0
  F  F80  1  0.01879000  0.18296000  0.80976000  1.0
  F  F81  1  0.98121000  0.81704000  0.19025000  1.0
  F  F82  1  0.08947000  0.13514000  0.99237000  1.0
  F  F83  1  0.91052000  0.86486000  0.00763000  1.0
