# generated using pymatgen
data_CuH10C14O5
_symmetry_space_group_name_H-M   'P 1'
_cell_length_a   14.35720000
_cell_length_b   18.68820000
_cell_length_c   18.69050000
_cell_angle_alpha   113.64100000
_cell_angle_beta   104.82300000
_cell_angle_gamma   104.89400000
_symmetry_Int_Tables_number   1
_chemical_formula_structural   CuH10C14O5
_chemical_formula_sum   'Cu6 H60 C84 O30'
_cell_volume   4058.44104986
_cell_formula_units_Z   6
loop_
 _symmetry_equiv_pos_site_id
 _symmetry_equiv_pos_as_xyz
  1  'x, y, z'
loop_
 _atom_site_type_symbol
 _atom_site_label
 _atom_site_symmetry_multiplicity
 _atom_site_fract_x
 _atom_site_fract_y
 _atom_site_fract_z
 _atom_site_occupancy
  Cu  Cu0  1  0.47364000  0.02632000  0.45015000  1.0
  Cu  Cu1  1  0.02359000  0.55015000  0.57663000  1.0
  Cu  Cu2  1  0.44678000  0.42333000  0.97353000  1.0
  Cu  Cu3  1  0.52634000  0.97367000  0.54980000  1.0
  Cu  Cu4  1  0.97641000  0.44983000  0.42334000  1.0
  Cu  Cu5  1  0.55319000  0.57664000  0.02647000  1.0
  H  H6  1  0.13751000  0.39092000  0.84505000  1.0
  H  H7  1  0.29206000  0.15486000  0.54555000  1.0
  H  H8  1  0.74693000  0.45412000  0.60927000  1.0
  H  H9  1  0.86248000  0.60906000  0.15495000  1.0
  H  H10  1  0.70795000  0.84513000  0.45444000  1.0
  H  H11  1  0.25305000  0.54589000  0.39076000  1.0
  H  H12  1  0.97875000  0.52769000  0.76078000  1.0
  H  H13  1  0.21795000  0.23946000  0.76673000  1.0
  H  H14  1  0.45087000  0.23336000  0.47264000  1.0
  H  H15  1  0.02125000  0.47231000  0.23921000  1.0
  H  H16  1  0.78208000  0.76053000  0.23327000  1.0
  H  H17  1  0.54913000  0.76663000  0.52734000  1.0
  H  H18  1  0.14514000  0.65692000  0.84219000  1.0
  H  H19  1  0.30285000  0.15814000  0.81463000  1.0
  H  H20  1  0.48779000  0.18545000  0.34342000  1.0
  H  H21  1  0.85487000  0.34307000  0.15781000  1.0
  H  H22  1  0.69715000  0.84183000  0.18535000  1.0
  H  H23  1  0.51225000  0.81455000  0.65658000  1.0
  H  H24  1  0.31021000  0.65330000  0.92472000  1.0
  H  H25  1  0.38494000  0.07526000  0.72820000  1.0
  H  H26  1  0.65664000  0.27161000  0.34697000  1.0
  H  H27  1  0.68979000  0.34668000  0.07528000  1.0
  H  H28  1  0.61506000  0.92471000  0.27178000  1.0
  H  H29  1  0.34341000  0.72841000  0.65306000  1.0
  H  H30  1  0.97218000  0.33086000  0.84133000  1.0
  H  H31  1  0.13124000  0.15896000  0.48949000  1.0
  H  H32  1  0.64145000  0.51052000  0.66920000  1.0
  H  H33  1  0.02778000  0.66909000  0.15862000  1.0
  H  H34  1  0.86877000  0.84107000  0.51053000  1.0
  H  H35  1  0.35848000  0.48947000  0.33080000  1.0
  H  H36  1  0.80983000  0.19603000  0.75270000  1.0
  H  H37  1  0.05794000  0.24764000  0.44331000  1.0
  H  H38  1  0.61383000  0.55669000  0.80378000  1.0
  H  H39  1  0.19012000  0.80393000  0.24722000  1.0
  H  H40  1  0.94208000  0.75242000  0.55675000  1.0
  H  H41  1  0.38612000  0.44329000  0.19622000  1.0
  H  H42  1  0.73667000  0.25896000  0.55376000  1.0
  H  H43  1  0.18284000  0.44633000  0.70510000  1.0
  H  H44  1  0.47756000  0.29486000  0.74126000  1.0
  H  H45  1  0.26334000  0.74105000  0.44621000  1.0
  H  H46  1  0.81723000  0.55372000  0.29496000  1.0
  H  H47  1  0.52242000  0.70512000  0.25875000  1.0
  H  H48  1  0.90051000  0.39316000  0.64083000  1.0
  H  H49  1  0.25917000  0.35916000  0.75215000  1.0
  H  H50  1  0.50723000  0.24781000  0.60724000  1.0
  H  H51  1  0.09950000  0.60685000  0.35916000  1.0
  H  H52  1  0.74088000  0.64087000  0.24787000  1.0
  H  H53  1  0.49275000  0.75217000  0.39276000  1.0
  H  H54  1  0.34599000  0.97993000  0.30088000  1.0
  H  H55  1  0.04479000  0.69936000  0.67908000  1.0
  H  H56  1  0.36549000  0.32049000  0.02036000  1.0
  H  H57  1  0.65401000  0.02006000  0.69908000  1.0
  H  H58  1  0.95523000  0.30069000  0.32097000  1.0
  H  H59  1  0.63450000  0.67949000  0.97964000  1.0
  H  H60  1  0.45865000  0.00889000  0.30510000  1.0
  H  H61  1  0.15338000  0.69565000  0.70443000  1.0
  H  H62  1  0.44905000  0.29572000  0.99134000  1.0
  H  H63  1  0.54135000  0.99109000  0.69487000  1.0
  H  H64  1  0.84666000  0.30442000  0.29563000  1.0
  H  H65  1  0.55094000  0.70426000  0.00865000  1.0
  C  C66  1  0.33151000  0.51566000  0.93283000  1.0
  C  C67  1  0.39798000  0.06710000  0.58255000  1.0
  C  C68  1  0.81598000  0.41713000  0.48451000  1.0
  C  C69  1  0.66847000  0.48434000  0.06719000  1.0
  C  C70  1  0.60200000  0.93288000  0.41742000  1.0
  C  C71  1  0.18403000  0.58290000  0.51553000  1.0
  C  C72  1  0.23296000  0.52171000  0.88992000  1.0
  C  C73  1  0.34243000  0.10998000  0.63142000  1.0
  C  C74  1  0.71126000  0.36830000  0.47852000  1.0
  C  C75  1  0.76703000  0.47828000  0.11008000  1.0
  C  C76  1  0.65756000  0.89001000  0.36856000  1.0
  C  C77  1  0.28875000  0.63172000  0.52151000  1.0
  C  C78  1  0.13770000  0.44943000  0.84556000  1.0
  C  C79  1  0.29167000  0.15437000  0.60354000  1.0
  C  C80  1  0.68843000  0.39621000  0.55081000  1.0
  C  C81  1  0.86228000  0.55055000  0.15443000  1.0
  C  C82  1  0.70834000  0.84564000  0.39646000  1.0
  C  C83  1  0.31156000  0.60380000  0.44921000  1.0
  C  C84  1  0.04530000  0.45026000  0.79831000  1.0
  C  C85  1  0.24677000  0.20176000  0.65171000  1.0
  C  C86  1  0.59511000  0.34818000  0.55000000  1.0
  C  C87  1  0.95469000  0.54973000  0.20169000  1.0
  C  C88  1  0.75327000  0.79826000  0.34830000  1.0
  C  C89  1  0.40487000  0.65182000  0.45001000  1.0
  C  C90  1  0.04971000  0.52600000  0.79770000  1.0
  C  C91  1  0.25188000  0.20247000  0.72810000  1.0
  C  C92  1  0.52361000  0.27188000  0.47430000  1.0
  C  C93  1  0.95028000  0.47399000  0.20229000  1.0
  C  C94  1  0.74814000  0.79752000  0.27190000  1.0
  C  C95  1  0.47639000  0.72811000  0.52569000  1.0
  C  C96  1  0.14392000  0.59903000  0.84375000  1.0
  C  C97  1  0.29986000  0.15636000  0.75504000  1.0
  C  C98  1  0.54459000  0.24492000  0.40125000  1.0
  C  C99  1  0.85608000  0.40096000  0.15625000  1.0
  C  C100  1  0.70015000  0.84362000  0.24495000  1.0
  C  C101  1  0.45544000  0.75508000  0.59876000  1.0
  C  C102  1  0.23577000  0.59721000  0.88965000  1.0
  C  C103  1  0.34556000  0.11031000  0.70718000  1.0
  C  C104  1  0.63835000  0.29264000  0.40304000  1.0
  C  C105  1  0.76422000  0.40277000  0.11035000  1.0
  C  C106  1  0.65445000  0.88968000  0.29280000  1.0
  C  C107  1  0.36168000  0.70738000  0.59698000  1.0
  C  C108  1  0.94742000  0.37150000  0.74729000  1.0
  C  C109  1  0.20012000  0.25288000  0.62407000  1.0
  C  C110  1  0.57594000  0.37586000  0.62870000  1.0
  C  C111  1  0.05256000  0.62849000  0.25269000  1.0
  C  C112  1  0.79993000  0.74715000  0.37595000  1.0
  C  C113  1  0.42402000  0.62412000  0.37130000  1.0
  C  C114  1  0.92124000  0.31483000  0.77788000  1.0
  C  C115  1  0.14372000  0.22239000  0.53689000  1.0
  C  C116  1  0.60647000  0.46307000  0.68522000  1.0
  C  C117  1  0.07872000  0.68513000  0.22207000  1.0
  C  C118  1  0.85632000  0.77765000  0.46315000  1.0
  C  C119  1  0.39348000  0.53691000  0.31477000  1.0
  C  C120  1  0.83033000  0.23968000  0.72884000  1.0
  C  C121  1  0.10208000  0.27146000  0.51078000  1.0
  C  C122  1  0.59062000  0.48918000  0.76028000  1.0
  C  C123  1  0.16964000  0.76029000  0.27110000  1.0
  C  C124  1  0.89797000  0.72859000  0.48928000  1.0
  C  C125  1  0.40933000  0.51079000  0.23971000  1.0
  C  C126  1  0.76328000  0.21966000  0.64802000  1.0
  C  C127  1  0.11571000  0.35224000  0.57154000  1.0
  C  C128  1  0.54355000  0.42845000  0.78045000  1.0
  C  C129  1  0.23670000  0.78034000  0.35192000  1.0
  C  C130  1  0.88435000  0.64783000  0.42852000  1.0
  C  C131  1  0.45642000  0.57153000  0.21956000  1.0
  C  C132  1  0.78880000  0.27564000  0.61696000  1.0
  C  C133  1  0.17190000  0.38321000  0.65856000  1.0
  C  C134  1  0.51308000  0.34142000  0.72460000  1.0
  C  C135  1  0.21120000  0.72437000  0.38301000  1.0
  C  C136  1  0.82817000  0.61684000  0.34149000  1.0
  C  C137  1  0.48689000  0.65856000  0.27540000  1.0
  C  C138  1  0.87987000  0.35072000  0.66606000  1.0
  C  C139  1  0.21369000  0.33406000  0.68452000  1.0
  C  C140  1  0.52912000  0.31545000  0.64959000  1.0
  C  C141  1  0.12013000  0.64929000  0.33393000  1.0
  C  C142  1  0.78637000  0.66597000  0.31551000  1.0
  C  C143  1  0.47084000  0.68452000  0.35041000  1.0
  C  C144  1  0.66574000  0.13966000  0.59494000  1.0
  C  C145  1  0.07124000  0.40535000  0.54452000  1.0
  C  C146  1  0.52622000  0.45548000  0.86064000  1.0
  C  C147  1  0.33423000  0.86034000  0.40499000  1.0
  C  C148  1  0.92881000  0.59471000  0.45554000  1.0
  C  C149  1  0.47376000  0.54450000  0.13937000  1.0
  O  O150  1  0.40846000  0.03116000  0.32167000  1.0
  O  O151  1  0.08637000  0.67876000  0.70979000  1.0
  O  O152  1  0.37655000  0.29002000  0.96910000  1.0
  O  O153  1  0.59154000  0.96882000  0.67829000  1.0
  O  O154  1  0.91367000  0.32132000  0.29028000  1.0
  O  O155  1  0.62344000  0.70998000  0.03090000  1.0
  O  O156  1  0.32261000  0.44278000  0.92515000  1.0
  O  O157  1  0.39718000  0.07481000  0.51741000  1.0
  O  O158  1  0.88006000  0.48227000  0.55735000  1.0
  O  O159  1  0.67736000  0.55721000  0.07487000  1.0
  O  O160  1  0.60280000  0.92518000  0.48256000  1.0
  O  O161  1  0.11993000  0.51776000  0.44267000  1.0
  O  O162  1  0.41758000  0.58273000  0.97251000  1.0
  O  O163  1  0.44416000  0.02715000  0.60967000  1.0
  O  O164  1  0.83488000  0.38971000  0.41745000  1.0
  O  O165  1  0.58242000  0.41726000  0.02750000  1.0
  O  O166  1  0.55582000  0.97283000  0.39029000  1.0
  O  O167  1  0.16514000  0.61031000  0.58258000  1.0
  O  O168  1  0.65184000  0.08484000  0.62028000  1.0
  O  O169  1  0.03204000  0.37970000  0.46441000  1.0
  O  O170  1  0.56728000  0.53561000  0.91511000  1.0
  O  O171  1  0.34812000  0.91515000  0.37965000  1.0
  O  O172  1  0.96801000  0.62035000  0.53564000  1.0
  O  O173  1  0.43269000  0.46436000  0.08491000  1.0
  O  O174  1  0.60201000  0.13100000  0.52711000  1.0
  O  O175  1  0.07556000  0.47312000  0.60375000  1.0
  O  O176  1  0.47136000  0.39616000  0.86925000  1.0
  O  O177  1  0.39797000  0.86900000  0.47283000  1.0
  O  O178  1  0.92447000  0.52692000  0.39629000  1.0
  O  O179  1  0.52861000  0.60381000  0.13074000  1.0
