# generated using pymatgen
data_CuH12C17N2O3
_symmetry_space_group_name_H-M   'P 1'
_cell_length_a   10.54280000
_cell_length_b   19.13820000
_cell_length_c   19.13950000
_cell_angle_alpha   116.70800000
_cell_angle_beta   100.56500000
_cell_angle_gamma   100.57600000
_symmetry_Int_Tables_number   1
_chemical_formula_structural   CuH12C17N2O3
_chemical_formula_sum   'Cu6 H72 C102 N12 O18'
_cell_volume   3232.02813197
_cell_formula_units_Z   6
loop_
 _symmetry_equiv_pos_site_id
 _symmetry_equiv_pos_as_xyz
  1  'x, y, z'
loop_
 _atom_site_type_symbol
 _atom_site_label
 _atom_site_symmetry_multiplicity
 _atom_site_fract_x
 _atom_site_fract_y
 _atom_site_fract_z
 _atom_site_occupancy
  Cu  Cu0  1  0.95107000  0.76890000  0.40213000  1.0
  Cu  Cu1  1  0.54875000  0.59761000  0.36657000  1.0
  Cu  Cu2  1  0.18233000  0.63332000  0.23113000  1.0
  Cu  Cu3  1  0.45125000  0.40239000  0.63343000  1.0
  Cu  Cu4  1  0.81766000  0.36668000  0.76888000  1.0
  Cu  Cu5  1  0.04894000  0.23110000  0.59787000  1.0
  H  H6  1  0.59029000  0.28191000  0.61553000  1.0
  H  H7  1  0.97452000  0.38432000  0.66637000  1.0
  H  H8  1  0.30866000  0.33380000  0.71801000  1.0
  H  H9  1  0.02548000  0.61568000  0.33363000  1.0
  H  H10  1  0.69134000  0.66620000  0.28198000  1.0
  H  H11  1  0.40971000  0.71809000  0.38447000  1.0
  H  H12  1  0.40970000  0.14803000  0.53148000  1.0
  H  H13  1  0.87784000  0.46833000  0.61651000  1.0
  H  H14  1  0.26108000  0.38352000  0.85169000  1.0
  H  H15  1  0.12217000  0.53167000  0.38349000  1.0
  H  H16  1  0.73891000  0.61648000  0.14830000  1.0
  H  H17  1  0.59030000  0.85197000  0.46852000  1.0
  H  H18  1  0.58083000  0.07574000  0.70231000  1.0
  H  H19  1  0.87901000  0.29768000  0.37350000  1.0
  H  H20  1  0.50571000  0.62656000  0.92454000  1.0
  H  H21  1  0.12098000  0.70232000  0.62650000  1.0
  H  H22  1  0.49428000  0.37344000  0.07546000  1.0
  H  H23  1  0.41917000  0.92425000  0.29768000  1.0
  H  H24  1  0.75741000  0.21262000  0.77804000  1.0
  H  H25  1  0.97981000  0.22193000  0.43467000  1.0
  H  H26  1  0.54608000  0.56552000  0.78781000  1.0
  H  H27  1  0.02019000  0.77807000  0.56533000  1.0
  H  H28  1  0.45392000  0.43448000  0.21219000  1.0
  H  H29  1  0.24258000  0.78738000  0.22196000  1.0
  H  H30  1  0.27207000  0.82135000  0.51028000  1.0
  H  H31  1  0.76216000  0.48949000  0.31096000  1.0
  H  H32  1  0.45121000  0.68877000  0.17859000  1.0
  H  H33  1  0.23784000  0.51051000  0.68904000  1.0
  H  H34  1  0.54879000  0.31123000  0.82141000  1.0
  H  H35  1  0.72793000  0.17865000  0.48972000  1.0
  H  H36  1  0.47163000  0.94576000  0.58869000  1.0
  H  H37  1  0.88329000  0.41112000  0.35711000  1.0
  H  H38  1  0.52585000  0.64268000  0.05393000  1.0
  H  H39  1  0.11671000  0.58888000  0.64289000  1.0
  H  H40  1  0.47415000  0.35731000  0.94607000  1.0
  H  H41  1  0.52837000  0.05424000  0.41131000  1.0
  H  H42  1  0.21891000  0.07766000  0.52727000  1.0
  H  H43  1  0.69137000  0.47253000  0.55019000  1.0
  H  H44  1  0.14058000  0.45003000  0.92233000  1.0
  H  H45  1  0.30863000  0.52747000  0.44981000  1.0
  H  H46  1  0.85941000  0.54997000  0.07767000  1.0
  H  H47  1  0.78109000  0.92234000  0.47273000  1.0
  H  H48  1  0.03234000  0.94487000  0.44695000  1.0
  H  H49  1  0.58545000  0.55299000  0.49773000  1.0
  H  H50  1  0.08751000  0.50237000  0.05541000  1.0
  H  H51  1  0.41455000  0.44702000  0.50227000  1.0
  H  H52  1  0.91249000  0.49764000  0.94459000  1.0
  H  H53  1  0.96766000  0.05513000  0.55305000  1.0
  H  H54  1  0.39160000  0.71491000  0.57815000  1.0
  H  H55  1  0.81378000  0.42146000  0.13657000  1.0
  H  H56  1  0.67685000  0.86326000  0.28483000  1.0
  H  H57  1  0.18622000  0.57855000  0.86343000  1.0
  H  H58  1  0.32315000  0.13674000  0.71517000  1.0
  H  H59  1  0.60840000  0.28509000  0.42185000  1.0
  H  H60  1  0.48119000  0.85604000  0.69787000  1.0
  H  H61  1  0.78378000  0.30184000  0.15816000  1.0
  H  H62  1  0.62521000  0.84168000  0.14362000  1.0
  H  H63  1  0.21622000  0.69816000  0.84184000  1.0
  H  H64  1  0.37479000  0.15832000  0.85638000  1.0
  H  H65  1  0.51881000  0.14396000  0.30213000  1.0
  H  H66  1  0.70077000  0.95087000  0.71737000  1.0
  H  H67  1  0.98383000  0.28245000  0.23364000  1.0
  H  H68  1  0.75002000  0.76636000  0.04879000  1.0
  H  H69  1  0.01617000  0.71755000  0.76636000  1.0
  H  H70  1  0.24998000  0.23364000  0.95121000  1.0
  H  H71  1  0.29923000  0.04913000  0.28263000  1.0
  H  H72  1  0.82256000  0.90096000  0.61292000  1.0
  H  H73  1  0.21001000  0.38684000  0.28797000  1.0
  H  H74  1  0.92178000  0.71192000  0.09873000  1.0
  H  H75  1  0.78999000  0.61317000  0.71203000  1.0
  H  H76  1  0.07822000  0.28807000  0.90127000  1.0
  H  H77  1  0.17744000  0.09904000  0.38708000  1.0
  C  C78  1  0.58443000  0.23425000  0.63220000  1.0
  C  C79  1  0.95206000  0.36766000  0.60205000  1.0
  C  C80  1  0.35036000  0.39810000  0.76573000  1.0
  C  C81  1  0.04795000  0.63233000  0.39795000  1.0
  C  C82  1  0.64964000  0.60190000  0.23427000  1.0
  C  C83  1  0.41557000  0.76575000  0.36780000  1.0
  C  C84  1  0.48291000  0.15969000  0.58646000  1.0
  C  C85  1  0.89622000  0.41337000  0.57321000  1.0
  C  C86  1  0.32295000  0.42686000  0.84017000  1.0
  C  C87  1  0.10379000  0.58663000  0.42679000  1.0
  C  C88  1  0.67705000  0.57314000  0.15983000  1.0
  C  C89  1  0.51709000  0.84031000  0.41353000  1.0
  C  C90  1  0.47642000  0.10027000  0.61042000  1.0
  C  C91  1  0.86603000  0.38946000  0.48986000  1.0
  C  C92  1  0.37596000  0.51020000  0.89965000  1.0
  C  C93  1  0.13397000  0.61054000  0.51014000  1.0
  C  C94  1  0.62404000  0.48980000  0.10035000  1.0
  C  C95  1  0.52358000  0.89973000  0.38958000  1.0
  C  C96  1  0.57891000  0.11906000  0.68007000  1.0
  C  C97  1  0.89909000  0.31987000  0.43903000  1.0
  C  C98  1  0.46025000  0.56106000  0.88110000  1.0
  C  C99  1  0.10091000  0.68013000  0.56097000  1.0
  C  C100  1  0.53974000  0.43894000  0.11890000  1.0
  C  C101  1  0.42109000  0.88094000  0.31993000  1.0
  C  C102  1  0.67734000  0.19526000  0.72308000  1.0
  C  C103  1  0.95451000  0.27686000  0.47224000  1.0
  C  C104  1  0.48287000  0.52793000  0.80500000  1.0
  C  C105  1  0.04549000  0.72314000  0.52776000  1.0
  C  C106  1  0.51713000  0.47207000  0.19500000  1.0
  C  C107  1  0.32266000  0.80474000  0.27692000  1.0
  C  C108  1  0.26434000  0.87942000  0.51517000  1.0
  C  C109  1  0.74948000  0.48466000  0.36416000  1.0
  C  C110  1  0.38518000  0.63569000  0.12055000  1.0
  C  C111  1  0.25053000  0.51534000  0.63584000  1.0
  C  C112  1  0.61483000  0.36431000  0.87945000  1.0
  C  C113  1  0.73566000  0.12058000  0.48483000  1.0
  C  C114  1  0.37601000  0.94962000  0.55964000  1.0
  C  C115  1  0.81665000  0.44021000  0.38997000  1.0
  C  C116  1  0.42636000  0.60995000  0.05023000  1.0
  C  C117  1  0.18335000  0.55979000  0.61003000  1.0
  C  C118  1  0.57364000  0.39005000  0.94977000  1.0
  C  C119  1  0.62399000  0.05038000  0.44036000  1.0
  C  C120  1  0.36337000  0.02316000  0.56426000  1.0
  C  C121  1  0.79921000  0.43561000  0.45886000  1.0
  C  C122  1  0.33989000  0.54117000  0.97672000  1.0
  C  C123  1  0.20079000  0.56439000  0.54114000  1.0
  C  C124  1  0.66011000  0.45883000  0.02328000  1.0
  C  C125  1  0.63663000  0.97684000  0.43574000  1.0
  C  C126  1  0.23708000  0.02192000  0.52332000  1.0
  C  C127  1  0.71374000  0.47655000  0.49848000  1.0
  C  C128  1  0.21476000  0.50164000  0.97806000  1.0
  C  C129  1  0.28626000  0.52345000  0.50152000  1.0
  C  C130  1  0.78524000  0.49836000  0.02194000  1.0
  C  C131  1  0.76292000  0.97807000  0.47668000  1.0
  C  C132  1  0.13176000  0.94870000  0.48009000  1.0
  C  C133  1  0.65178000  0.51981000  0.46846000  1.0
  C  C134  1  0.18303000  0.53159000  0.05141000  1.0
  C  C135  1  0.34822000  0.48019000  0.53154000  1.0
  C  C136  1  0.81697000  0.46842000  0.94859000  1.0
  C  C137  1  0.86824000  0.05129000  0.51991000  1.0
  C  C138  1  0.75264000  0.75975000  0.47692000  1.0
  C  C139  1  0.27582000  0.52286000  0.28283000  1.0
  C  C140  1  0.99300000  0.71714000  0.23997000  1.0
  C  C141  1  0.72418000  0.47715000  0.71717000  1.0
  C  C142  1  0.00700000  0.28286000  0.76002000  1.0
  C  C143  1  0.24736000  0.24025000  0.52308000  1.0
  C  C144  1  0.67788000  0.78134000  0.53775000  1.0
  C  C145  1  0.14034000  0.46199000  0.24352000  1.0
  C  C146  1  0.89664000  0.75635000  0.21836000  1.0
  C  C147  1  0.85965000  0.53801000  0.75649000  1.0
  C  C148  1  0.10336000  0.24365000  0.78164000  1.0
  C  C149  1  0.32212000  0.21866000  0.46225000  1.0
  C  C150  1  0.55411000  0.72605000  0.52657000  1.0
  C  C151  1  0.02778000  0.47318000  0.19943000  1.0
  C  C152  1  0.82815000  0.80047000  0.27367000  1.0
  C  C153  1  0.97222000  0.52682000  0.80057000  1.0
  C  C154  1  0.17185000  0.19953000  0.72633000  1.0
  C  C155  1  0.44589000  0.27395000  0.47344000  1.0
  C  C156  1  0.48628000  0.75657000  0.58692000  1.0
  C  C157  1  0.89969000  0.41276000  0.16951000  1.0
  C  C158  1  0.72980000  0.83029000  0.24314000  1.0
  C  C159  1  0.10030000  0.58725000  0.83049000  1.0
  C  C160  1  0.27020000  0.16971000  0.75686000  1.0
  C  C161  1  0.51372000  0.24343000  0.41308000  1.0
  C  C162  1  0.53730000  0.83543000  0.65357000  1.0
  C  C163  1  0.88413000  0.34613000  0.18178000  1.0
  C  C164  1  0.70194000  0.81803000  0.16425000  1.0
  C  C165  1  0.11587000  0.65387000  0.81822000  1.0
  C  C166  1  0.29806000  0.18197000  0.83575000  1.0
  C  C167  1  0.46270000  0.16457000  0.34643000  1.0
  C  C168  1  0.65975000  0.88896000  0.66455000  1.0
  C  C169  1  0.99561000  0.33519000  0.22438000  1.0
  C  C170  1  0.77091000  0.77548000  0.11072000  1.0
  C  C171  1  0.00439000  0.66481000  0.77562000  1.0
  C  C172  1  0.22909000  0.22452000  0.88928000  1.0
  C  C173  1  0.34025000  0.11104000  0.33546000  1.0
  C  C174  1  0.72797000  0.86112000  0.60692000  1.0
  C  C175  1  0.12139000  0.39280000  0.25413000  1.0
  C  C176  1  0.86699000  0.74573000  0.13857000  1.0
  C  C177  1  0.87861000  0.60720000  0.74587000  1.0
  C  C178  1  0.13301000  0.25427000  0.86143000  1.0
  C  C179  1  0.27203000  0.13888000  0.39309000  1.0
  N  N180  1  0.67972000  0.25267000  0.70039000  1.0
  N  N181  1  0.97936000  0.29951000  0.55231000  1.0
  N  N182  1  0.42764000  0.44789000  0.74749000  1.0
  N  N183  1  0.02064000  0.70049000  0.44769000  1.0
  N  N184  1  0.57236000  0.55212000  0.25251000  1.0
  N  N185  1  0.32028000  0.74733000  0.29961000  1.0
  N  N186  1  0.14402000  0.87844000  0.47602000  1.0
  N  N187  1  0.66825000  0.52386000  0.40228000  1.0
  N  N188  1  0.26588000  0.59762000  0.12167000  1.0
  N  N189  1  0.33175000  0.47614000  0.59772000  1.0
  N  N190  1  0.73412000  0.40238000  0.87833000  1.0
  N  N191  1  0.85598000  0.12156000  0.52398000  1.0
  O  O192  1  0.86468000  0.81212000  0.49294000  1.0
  O  O193  1  0.37183000  0.50680000  0.31916000  1.0
  O  O194  1  0.05281000  0.68081000  0.18765000  1.0
  O  O195  1  0.62817000  0.49320000  0.68084000  1.0
  O  O196  1  0.94719000  0.31919000  0.81235000  1.0
  O  O197  1  0.13532000  0.18788000  0.50706000  1.0
  O  O198  1  0.70882000  0.69172000  0.40848000  1.0
  O  O199  1  0.30039000  0.59135000  0.28333000  1.0
  O  O200  1  0.01709000  0.71675000  0.30801000  1.0
  O  O201  1  0.69961000  0.40865000  0.71667000  1.0
  O  O202  1  0.98291000  0.28325000  0.69199000  1.0
  O  O203  1  0.29118000  0.30828000  0.59152000  1.0
  O  O204  1  0.49757000  0.65038000  0.46571000  1.0
  O  O205  1  0.03204000  0.53414000  0.18476000  1.0
  O  O206  1  0.84729000  0.81533000  0.34936000  1.0
  O  O207  1  0.96796000  0.46586000  0.81524000  1.0
  O  O208  1  0.15271000  0.18467000  0.65064000  1.0
  O  O209  1  0.50244000  0.34962000  0.53429000  1.0
