# generated using pymatgen
data_ZnH10C11I2N4O
_symmetry_space_group_name_H-M   'P 1'
_cell_length_a   8.66183000
_cell_length_b   10.16210000
_cell_length_c   16.77400000
_cell_angle_alpha   89.99990000
_cell_angle_beta   89.99990000
_cell_angle_gamma   104.70200000
_symmetry_Int_Tables_number   1
_chemical_formula_structural   ZnH10C11I2N4O
_chemical_formula_sum   'Zn4 H40 C44 I8 N16 O4'
_cell_volume   1428.14561499
_cell_formula_units_Z   4
loop_
 _symmetry_equiv_pos_site_id
 _symmetry_equiv_pos_as_xyz
  1  'x, y, z'
loop_
 _atom_site_type_symbol
 _atom_site_label
 _atom_site_symmetry_multiplicity
 _atom_site_fract_x
 _atom_site_fract_y
 _atom_site_fract_z
 _atom_site_occupancy
  Zn  Zn0  1  0.72225000  0.26411000  0.89394000  1.0
  Zn  Zn1  1  0.77775000  0.73589000  0.39394000  1.0
  Zn  Zn2  1  0.27776000  0.73589000  0.10606000  1.0
  Zn  Zn3  1  0.22225000  0.26412000  0.60606000  1.0
  H  H4  1  0.59137000  0.49258000  0.84163000  1.0
  H  H5  1  0.90864000  0.50742000  0.34163000  1.0
  H  H6  1  0.40864000  0.50742000  0.15837000  1.0
  H  H7  1  0.09136000  0.49258000  0.65837000  1.0
  H  H8  1  0.43741000  0.17205000  0.99968000  1.0
  H  H9  1  0.06260000  0.82795000  0.49968000  1.0
  H  H10  1  0.56261000  0.82795000  0.00032000  1.0
  H  H11  1  0.93740000  0.17205000  0.50032000  1.0
  H  H12  1  0.55347000  0.97334000  0.87732000  1.0
  H  H13  1  0.94652000  0.02667000  0.37732000  1.0
  H  H14  1  0.44652000  0.02666000  0.12269000  1.0
  H  H15  1  0.05347000  0.97333000  0.62268000  1.0
  H  H16  1  0.71029000  0.28750000  0.71544000  1.0
  H  H17  1  0.78970000  0.71251000  0.21544000  1.0
  H  H18  1  0.28969000  0.71250000  0.28456000  1.0
  H  H19  1  0.21031000  0.28749000  0.78455000  1.0
  H  H20  1  0.26875000  0.75390000  0.75028000  1.0
  H  H21  1  0.23125000  0.24610000  0.25027000  1.0
  H  H22  1  0.73125000  0.24610000  0.24973000  1.0
  H  H23  1  0.76875000  0.75390000  0.74972000  1.0
  H  H24  1  0.19633000  0.25474000  0.03795000  1.0
  H  H25  1  0.30367000  0.74526000  0.53796000  1.0
  H  H26  1  0.80368000  0.74526000  0.96205000  1.0
  H  H27  1  0.69633000  0.25475000  0.46205000  1.0
  H  H28  1  0.15410000  0.46283000  0.97275000  1.0
  H  H29  1  0.34590000  0.53716000  0.47276000  1.0
  H  H30  1  0.84590000  0.53716000  0.02725000  1.0
  H  H31  1  0.65411000  0.46285000  0.52725000  1.0
  H  H32  1  0.39171000  0.91229000  0.63343000  1.0
  H  H33  1  0.10829000  0.08771000  0.13343000  1.0
  H  H34  1  0.60828000  0.08771000  0.36657000  1.0
  H  H35  1  0.89171000  0.91229000  0.86656000  1.0
  H  H36  1  0.55411000  0.14797000  0.60426000  1.0
  H  H37  1  0.94588000  0.85203000  0.10426000  1.0
  H  H38  1  0.44588000  0.85203000  0.39574000  1.0
  H  H39  1  0.05412000  0.14797000  0.89574000  1.0
  H  H40  1  0.22445000  0.61571000  0.86568000  1.0
  H  H41  1  0.27555000  0.38429000  0.36568000  1.0
  H  H42  1  0.77555000  0.38428000  0.13432000  1.0
  H  H43  1  0.72445000  0.61571000  0.63432000  1.0
  C  C44  1  0.46413000  0.92249000  0.75716000  1.0
  C  C45  1  0.03587000  0.07751000  0.25716000  1.0
  C  C46  1  0.53587000  0.07751000  0.24284000  1.0
  C  C47  1  0.96413000  0.92249000  0.74284000  1.0
  C  C48  1  0.49947000  0.44192000  0.88335000  1.0
  C  C49  1  0.00054000  0.55809000  0.38335000  1.0
  C  C50  1  0.50054000  0.55809000  0.11666000  1.0
  C  C51  1  0.99946000  0.44191000  0.61665000  1.0
  C  C52  1  0.41318000  0.26252000  0.97303000  1.0
  C  C53  1  0.08683000  0.73749000  0.47303000  1.0
  C  C54  1  0.58683000  0.73748000  0.02697000  1.0
  C  C55  1  0.91318000  0.26252000  0.52697000  1.0
  C  C56  1  0.55261000  0.00762000  0.81575000  1.0
  C  C57  1  0.94738000  0.99239000  0.31575000  1.0
  C  C58  1  0.44738000  0.99239000  0.18425000  1.0
  C  C59  1  0.05262000  0.00761000  0.68424000  1.0
  C  C60  1  0.63909000  0.18365000  0.72486000  1.0
  C  C61  1  0.86090000  0.81636000  0.22486000  1.0
  C  C62  1  0.36090000  0.81636000  0.27514000  1.0
  C  C63  1  0.13910000  0.18364000  0.77513000  1.0
  C  C64  1  0.36694000  0.49269000  0.89990000  1.0
  C  C65  1  0.13307000  0.50731000  0.39990000  1.0
  C  C66  1  0.63306000  0.50731000  0.10010000  1.0
  C  C67  1  0.86694000  0.49269000  0.60010000  1.0
  C  C68  1  0.44733000  0.70677000  0.82197000  1.0
  C  C69  1  0.05269000  0.29324000  0.32197000  1.0
  C  C70  1  0.55268000  0.29323000  0.17803000  1.0
  C  C71  1  0.94732000  0.70676000  0.67803000  1.0
  C  C72  1  0.27997000  0.30811000  0.99318000  1.0
  C  C73  1  0.22004000  0.69189000  0.49318000  1.0
  C  C74  1  0.72004000  0.69188000  0.00682000  1.0
  C  C75  1  0.77997000  0.30812000  0.50682000  1.0
  C  C76  1  0.25654000  0.42438000  0.95691000  1.0
  C  C77  1  0.24346000  0.57562000  0.45692000  1.0
  C  C78  1  0.74347000  0.57562000  0.04308000  1.0
  C  C79  1  0.75654000  0.42439000  0.54308000  1.0
  C  C80  1  0.46195000  0.97441000  0.68009000  1.0
  C  C81  1  0.03804000  0.02559000  0.18009000  1.0
  C  C82  1  0.53804000  0.02559000  0.31991000  1.0
  C  C83  1  0.96196000  0.97441000  0.81991000  1.0
  C  C84  1  0.55215000  0.10596000  0.66403000  1.0
  C  C85  1  0.94784000  0.89405000  0.16403000  1.0
  C  C86  1  0.44784000  0.89404000  0.33597000  1.0
  C  C87  1  0.05216000  0.10595000  0.83597000  1.0
  I  I88  1  0.92035000  0.47643000  0.83728000  1.0
  I  I89  1  0.57965000  0.52356000  0.33729000  1.0
  I  I90  1  0.07965000  0.52356000  0.16272000  1.0
  I  I91  1  0.42035000  0.47644000  0.66271000  1.0
  I  I92  1  0.78686000  0.13225000  0.01443000  1.0
  I  I93  1  0.71312000  0.86773000  0.51444000  1.0
  I  I94  1  0.21312000  0.86773000  0.98557000  1.0
  I  I95  1  0.28687000  0.13227000  0.48556000  1.0
  N  N96  1  0.63694000  0.13484000  0.79980000  1.0
  N  N97  1  0.86304000  0.86517000  0.29980000  1.0
  N  N98  1  0.36304000  0.86517000  0.20020000  1.0
  N  N99  1  0.13695000  0.13483000  0.70020000  1.0
  N  N100  1  0.52067000  0.32996000  0.91972000  1.0
  N  N101  1  0.97934000  0.67005000  0.41972000  1.0
  N  N102  1  0.47934000  0.67005000  0.08028000  1.0
  N  N103  1  0.02067000  0.32996000  0.58028000  1.0
  N  N104  1  0.37723000  0.79122000  0.77792000  1.0
  N  N105  1  0.12276000  0.20879000  0.27792000  1.0
  N  N106  1  0.62276000  0.20878000  0.22209000  1.0
  N  N107  1  0.87724000  0.79121000  0.72208000  1.0
  N  N108  1  0.33860000  0.60557000  0.86125000  1.0
  N  N109  1  0.16140000  0.39443000  0.36125000  1.0
  N  N110  1  0.66140000  0.39443000  0.13875000  1.0
  N  N111  1  0.83860000  0.60557000  0.63875000  1.0
  O  O112  1  0.59447000  0.72359000  0.82693000  1.0
  O  O113  1  0.90552000  0.27642000  0.32693000  1.0
  O  O114  1  0.40553000  0.27641000  0.17307000  1.0
  O  O115  1  0.09448000  0.72358000  0.67307000  1.0
