# generated using pymatgen
data_Zn2H24C19N2O7
_symmetry_space_group_name_H-M   'P 1'
_cell_length_a   13.05550000
_cell_length_b   20.12070000
_cell_length_c   20.11940000
_cell_angle_alpha   83.97160000
_cell_angle_beta   71.08980000
_cell_angle_gamma   71.06500000
_symmetry_Int_Tables_number   1
_chemical_formula_structural   Zn2H24C19N2O7
_chemical_formula_sum   'Zn16 H192 C152 N16 O56'
_cell_volume   4729.27815166
_cell_formula_units_Z   8
loop_
 _symmetry_equiv_pos_site_id
 _symmetry_equiv_pos_as_xyz
  1  'x, y, z'
loop_
 _atom_site_type_symbol
 _atom_site_label
 _atom_site_symmetry_multiplicity
 _atom_site_fract_x
 _atom_site_fract_y
 _atom_site_fract_z
 _atom_site_occupancy
  Zn  Zn0  1  0.43782000  0.15922000  0.11160000  1.0
  Zn  Zn1  1  0.20870000  0.34080000  0.38847000  1.0
  Zn  Zn2  1  0.54955000  0.88849000  0.65909000  1.0
  Zn  Zn3  1  0.59690000  0.61152000  0.84091000  1.0
  Zn  Zn4  1  0.56218000  0.84077000  0.88840000  1.0
  Zn  Zn5  1  0.79130000  0.65920000  0.61153000  1.0
  Zn  Zn6  1  0.45044000  0.11151000  0.34092000  1.0
  Zn  Zn7  1  0.40309000  0.38848000  0.15909000  1.0
  Zn  Zn8  1  0.26613000  0.20076000  0.02986000  1.0
  Zn  Zn9  1  0.99704000  0.29924000  0.47027000  1.0
  Zn  Zn10  1  0.29640000  0.97012000  0.70081000  1.0
  Zn  Zn11  1  0.46678000  0.52986000  0.79933000  1.0
  Zn  Zn12  1  0.73387000  0.79924000  0.97014000  1.0
  Zn  Zn13  1  0.00296000  0.70076000  0.52973000  1.0
  Zn  Zn14  1  0.70360000  0.02988000  0.29919000  1.0
  Zn  Zn15  1  0.53322000  0.47014000  0.20067000  1.0
  H  H16  1  0.86450000  0.15638000  0.76431000  1.0
  H  H17  1  0.28530000  0.34377000  0.73607000  1.0
  H  H18  1  0.62855000  0.23617000  0.65625000  1.0
  H  H19  1  0.02084000  0.26386000  0.84367000  1.0
  H  H20  1  0.13550000  0.84362000  0.23569000  1.0
  H  H21  1  0.71471000  0.65623000  0.26393000  1.0
  H  H22  1  0.37145000  0.76383000  0.34375000  1.0
  H  H23  1  0.97916000  0.73614000  0.15633000  1.0
  H  H24  1  0.76739000  0.17565000  0.71448000  1.0
  H  H25  1  0.15754000  0.32455000  0.78563000  1.0
  H  H26  1  0.48158000  0.28576000  0.67550000  1.0
  H  H27  1  0.94264000  0.21430000  0.82440000  1.0
  H  H28  1  0.23261000  0.82435000  0.28552000  1.0
  H  H29  1  0.84246000  0.67544000  0.21437000  1.0
  H  H30  1  0.51842000  0.71424000  0.32450000  1.0
  H  H31  1  0.05735000  0.78570000  0.17560000  1.0
  H  H32  1  0.81517000  0.09030000  0.74748000  1.0
  H  H33  1  0.15312000  0.40990000  0.75266000  1.0
  H  H34  1  0.56243000  0.25280000  0.59015000  1.0
  H  H35  1  0.90534000  0.24721000  0.90977000  1.0
  H  H36  1  0.18482000  0.90970000  0.25252000  1.0
  H  H37  1  0.84688000  0.59011000  0.24734000  1.0
  H  H38  1  0.43757000  0.74720000  0.40985000  1.0
  H  H39  1  0.09465000  0.75279000  0.09023000  1.0
  H  H40  1  0.56107000  0.18553000  0.77755000  1.0
  H  H41  1  0.02467000  0.31467000  0.72254000  1.0
  H  H42  1  0.33880000  0.22256000  0.68546000  1.0
  H  H43  1  0.74662000  0.27746000  0.81457000  1.0
  H  H44  1  0.43893000  0.81447000  0.22245000  1.0
  H  H45  1  0.97533000  0.68533000  0.27746000  1.0
  H  H46  1  0.66120000  0.77744000  0.31454000  1.0
  H  H47  1  0.25338000  0.72254000  0.18543000  1.0
  H  H48  1  0.79810000  0.15436000  0.89256000  1.0
  H  H49  1  0.34543000  0.34582000  0.60752000  1.0
  H  H50  1  0.69091000  0.10779000  0.65404000  1.0
  H  H51  1  0.95238000  0.39239000  0.84591000  1.0
  H  H52  1  0.20190000  0.84564000  0.10744000  1.0
  H  H53  1  0.65457000  0.65418000  0.39248000  1.0
  H  H54  1  0.30909000  0.89221000  0.34596000  1.0
  H  H55  1  0.04761000  0.60761000  0.15408000  1.0
  H  H56  1  0.73445000  0.18994000  0.00778000  1.0
  H  H57  1  0.43248000  0.31007000  0.49227000  1.0
  H  H58  1  0.74255000  0.99237000  0.68976000  1.0
  H  H59  1  0.92436000  0.50760000  0.81016000  1.0
  H  H60  1  0.26555000  0.81005000  0.99222000  1.0
  H  H61  1  0.56752000  0.68993000  0.50773000  1.0
  H  H62  1  0.25746000  0.00763000  0.31024000  1.0
  H  H63  1  0.07564000  0.49240000  0.18984000  1.0
  H  H64  1  0.59180000  0.24632000  0.04140000  1.0
  H  H65  1  0.37962000  0.25378000  0.45867000  1.0
  H  H66  1  0.63333000  0.95889000  0.74613000  1.0
  H  H67  1  0.83802000  0.54115000  0.75379000  1.0
  H  H68  1  0.40820000  0.75368000  0.95861000  1.0
  H  H69  1  0.62038000  0.74622000  0.54133000  1.0
  H  H70  1  0.36667000  0.04111000  0.25387000  1.0
  H  H71  1  0.16198000  0.45885000  0.24620000  1.0
  H  H72  1  0.77689000  0.06548000  0.04093000  1.0
  H  H73  1  0.38359000  0.43462000  0.45907000  1.0
  H  H74  1  0.81798000  0.95906000  0.56524000  1.0
  H  H75  1  0.84235000  0.54102000  0.93460000  1.0
  H  H76  1  0.22311000  0.93452000  0.95907000  1.0
  H  H77  1  0.61641000  0.56538000  0.54093000  1.0
  H  H78  1  0.18203000  0.04094000  0.43476000  1.0
  H  H79  1  0.15765000  0.45898000  0.06540000  1.0
  H  H80  1  0.66935000  0.06323000  0.00604000  1.0
  H  H81  1  0.23899000  0.43686000  0.49407000  1.0
  H  H82  1  0.67553000  0.99409000  0.56310000  1.0
  H  H83  1  0.73287000  0.50591000  0.93681000  1.0
  H  H84  1  0.33065000  0.93677000  0.99396000  1.0
  H  H85  1  0.76101000  0.56314000  0.50592000  1.0
  H  H86  1  0.32447000  0.00591000  0.43690000  1.0
  H  H87  1  0.26713000  0.49409000  0.06319000  1.0
  H  H88  1  0.56526000  0.02134000  0.12240000  1.0
  H  H89  1  0.20905000  0.47865000  0.37772000  1.0
  H  H90  1  0.68734000  0.87782000  0.52118000  1.0
  H  H91  1  0.58642000  0.62216000  0.97867000  1.0
  H  H92  1  0.43474000  0.97866000  0.87760000  1.0
  H  H93  1  0.79095000  0.52135000  0.62228000  1.0
  H  H94  1  0.31266000  0.12218000  0.47883000  1.0
  H  H95  1  0.41358000  0.37784000  0.02133000  1.0
  H  H96  1  0.67781000  0.01681000  0.15508000  1.0
  H  H97  1  0.34962000  0.48329000  0.34500000  1.0
  H  H98  1  0.83248000  0.84497000  0.51669000  1.0
  H  H99  1  0.69413000  0.65507000  0.98322000  1.0
  H  H100  1  0.32220000  0.98319000  0.84492000  1.0
  H  H101  1  0.65038000  0.51671000  0.65500000  1.0
  H  H102  1  0.16752000  0.15503000  0.48331000  1.0
  H  H103  1  0.30587000  0.34493000  0.01678000  1.0
  H  H104  1  0.72781000  0.94237000  0.01795000  1.0
  H  H105  1  0.18788000  0.55777000  0.48206000  1.0
  H  H106  1  0.74582000  0.98214000  0.44225000  1.0
  H  H107  1  0.67008000  0.51787000  0.05762000  1.0
  H  H108  1  0.27219000  0.05763000  0.98205000  1.0
  H  H109  1  0.81212000  0.44223000  0.51794000  1.0
  H  H110  1  0.25418000  0.01786000  0.55776000  1.0
  H  H111  1  0.32992000  0.48213000  0.94238000  1.0
  H  H112  1  0.80989000  0.92415000  0.07575000  1.0
  H  H113  1  0.30959000  0.57602000  0.42442000  1.0
  H  H114  1  0.88561000  0.92427000  0.42413000  1.0
  H  H115  1  0.73422000  0.57557000  0.07572000  1.0
  H  H116  1  0.19011000  0.07585000  0.92425000  1.0
  H  H117  1  0.69042000  0.42398000  0.57558000  1.0
  H  H118  1  0.11439000  0.07573000  0.57587000  1.0
  H  H119  1  0.26578000  0.42443000  0.92428000  1.0
  H  H120  1  0.32629000  0.27878000  0.90585000  1.0
  H  H121  1  0.01132000  0.22125000  0.59434000  1.0
  H  H122  1  0.23261000  0.09420000  0.77880000  1.0
  H  H123  1  0.60510000  0.40580000  0.72126000  1.0
  H  H124  1  0.67371000  0.72122000  0.09415000  1.0
  H  H125  1  0.98868000  0.77875000  0.40566000  1.0
  H  H126  1  0.76740000  0.90579000  0.22120000  1.0
  H  H127  1  0.39489000  0.59420000  0.27874000  1.0
  H  H128  1  0.37312000  0.22925000  0.82763000  1.0
  H  H129  1  0.93048000  0.27081000  0.67254000  1.0
  H  H130  1  0.20100000  0.17240000  0.72928000  1.0
  H  H131  1  0.60234000  0.32757000  0.77074000  1.0
  H  H132  1  0.62688000  0.77075000  0.17237000  1.0
  H  H133  1  0.06952000  0.72920000  0.32746000  1.0
  H  H134  1  0.79900000  0.82759000  0.27072000  1.0
  H  H135  1  0.39766000  0.67243000  0.22926000  1.0
  H  H136  1  0.72675000  0.13221000  0.14160000  1.0
  H  H137  1  0.50064000  0.36786000  0.35843000  1.0
  H  H138  1  0.86846000  0.85857000  0.63197000  1.0
  H  H139  1  0.85883000  0.64147000  0.86791000  1.0
  H  H140  1  0.27325000  0.86779000  0.85841000  1.0
  H  H141  1  0.49936000  0.63214000  0.64157000  1.0
  H  H142  1  0.13154000  0.14143000  0.36803000  1.0
  H  H143  1  0.14117000  0.35853000  0.13209000  1.0
  H  H144  1  0.62900000  0.21767000  0.14027000  1.0
  H  H145  1  0.48704000  0.28239000  0.35983000  1.0
  H  H146  1  0.76959000  0.85999000  0.71750000  1.0
  H  H147  1  0.84680000  0.64001000  0.78238000  1.0
  H  H148  1  0.37099000  0.78232000  0.85973000  1.0
  H  H149  1  0.51296000  0.71761000  0.64017000  1.0
  H  H150  1  0.23041000  0.14001000  0.28250000  1.0
  H  H151  1  0.15320000  0.36000000  0.21762000  1.0
  H  H152  1  0.12407000  0.18622000  0.93459000  1.0
  H  H153  1  0.74543000  0.31348000  0.56533000  1.0
  H  H154  1  0.05900000  0.06509000  0.68644000  1.0
  H  H155  1  0.31024000  0.43469000  0.81358000  1.0
  H  H156  1  0.87593000  0.81377000  0.06541000  1.0
  H  H157  1  0.25457000  0.68652000  0.43467000  1.0
  H  H158  1  0.94100000  0.93491000  0.31356000  1.0
  H  H159  1  0.68976000  0.56531000  0.18642000  1.0
  H  H160  1  0.18203000  0.23481000  0.86101000  1.0
  H  H161  1  0.77822000  0.26507000  0.63905000  1.0
  H  H162  1  0.04320000  0.13887000  0.73486000  1.0
  H  H163  1  0.41681000  0.36104000  0.76508000  1.0
  H  H164  1  0.81797000  0.76519000  0.13899000  1.0
  H  H165  1  0.22178000  0.73493000  0.36096000  1.0
  H  H166  1  0.95680000  0.86112000  0.26514000  1.0
  H  H167  1  0.58319000  0.63896000  0.23493000  1.0
  H  H168  1  0.15808000  0.03377000  0.18296000  1.0
  H  H169  1  0.87448000  0.46620000  0.31713000  1.0
  H  H170  1  0.34078000  0.81712000  0.53372000  1.0
  H  H171  1  0.19146000  0.68297000  0.96655000  1.0
  H  H172  1  0.84192000  0.96623000  0.81704000  1.0
  H  H173  1  0.12552000  0.53380000  0.68287000  1.0
  H  H174  1  0.65922000  0.18288000  0.46628000  1.0
  H  H175  1  0.80853000  0.31703000  0.03345000  1.0
  H  H176  1  0.30149000  0.97794000  0.17372000  1.0
  H  H177  1  0.95277000  0.52208000  0.32637000  1.0
  H  H178  1  0.47486000  0.82637000  0.47783000  1.0
  H  H179  1  0.27917000  0.67367000  0.02235000  1.0
  H  H180  1  0.69851000  0.02206000  0.82627000  1.0
  H  H181  1  0.04723000  0.47792000  0.67363000  1.0
  H  H182  1  0.52514000  0.17363000  0.52217000  1.0
  H  H183  1  0.72083000  0.32633000  0.97765000  1.0
  H  H184  1  0.23815000  0.98522000  0.10587000  1.0
  H  H185  1  0.82908000  0.51466000  0.39427000  1.0
  H  H186  1  0.34368000  0.89424000  0.48524000  1.0
  H  H187  1  0.22345000  0.60577000  0.01481000  1.0
  H  H188  1  0.76185000  0.01478000  0.89413000  1.0
  H  H189  1  0.17093000  0.48534000  0.60573000  1.0
  H  H190  1  0.65632000  0.10576000  0.51477000  1.0
  H  H191  1  0.77655000  0.39423000  0.98519000  1.0
  H  H192  1  0.57141000  0.90862000  0.10941000  1.0
  H  H193  1  0.08954000  0.59135000  0.39037000  1.0
  H  H194  1  0.68080000  0.89062000  0.40853000  1.0
  H  H195  1  0.48005000  0.60955000  0.09145000  1.0
  H  H196  1  0.42859000  0.09139000  0.89059000  1.0
  H  H197  1  0.91046000  0.40865000  0.60963000  1.0
  H  H198  1  0.31920000  0.10938000  0.59147000  1.0
  H  H199  1  0.51995000  0.39045000  0.90855000  1.0
  H  H200  1  0.65450000  0.88312000  0.16688000  1.0
  H  H201  1  0.20459000  0.61691000  0.33304000  1.0
  H  H202  1  0.82136000  0.83319000  0.38301000  1.0
  H  H203  1  0.53797000  0.66686000  0.11691000  1.0
  H  H204  1  0.34551000  0.11688000  0.83312000  1.0
  H  H205  1  0.79541000  0.38309000  0.66696000  1.0
  H  H206  1  0.17864000  0.16681000  0.61699000  1.0
  H  H207  1  0.46202000  0.33314000  0.88309000  1.0
  C  C208  1  0.78932000  0.14653000  0.75982000  1.0
  C  C209  1  0.19586000  0.35366000  0.74036000  1.0
  C  C210  1  0.54898000  0.24047000  0.64637000  1.0
  C  C211  1  0.93570000  0.25955000  0.85355000  1.0
  C  C212  1  0.21067000  0.85347000  0.24018000  1.0
  C  C213  1  0.80414000  0.64634000  0.25965000  1.0
  C  C214  1  0.45102000  0.75953000  0.35363000  1.0
  C  C215  1  0.06429000  0.74045000  0.14645000  1.0
  C  C216  1  0.69213000  0.16549000  0.82685000  1.0
  C  C217  1  0.18491000  0.33467000  0.67324000  1.0
  C  C218  1  0.51912000  0.17336000  0.66532000  1.0
  C  C219  1  0.85762000  0.32668000  0.83464000  1.0
  C  C220  1  0.30787000  0.83451000  0.17315000  1.0
  C  C221  1  0.81509000  0.66534000  0.32676000  1.0
  C  C222  1  0.48087000  0.82664000  0.33468000  1.0
  C  C223  1  0.14237000  0.67332000  0.16536000  1.0
  C  C224  1  0.57931000  0.18341000  0.82710000  1.0
  C  C225  1  0.09027000  0.31675000  0.67298000  1.0
  C  C226  1  0.40659000  0.17303000  0.68330000  1.0
  C  C227  1  0.76268000  0.32700000  0.81672000  1.0
  C  C228  1  0.42068000  0.81659000  0.17290000  1.0
  C  C229  1  0.90973000  0.68326000  0.32702000  1.0
  C  C230  1  0.59341000  0.82697000  0.31670000  1.0
  C  C231  1  0.23731000  0.67300000  0.18328000  1.0
  C  C232  1  0.48746000  0.19852000  0.88891000  1.0
  C  C233  1  0.07528000  0.30154000  0.61121000  1.0
  C  C234  1  0.37662000  0.11120000  0.69842000  1.0
  C  C235  1  0.68588000  0.38880000  0.80160000  1.0
  C  C236  1  0.51254000  0.80148000  0.11109000  1.0
  C  C237  1  0.92472000  0.69846000  0.38879000  1.0
  C  C238  1  0.62338000  0.88880000  0.30158000  1.0
  C  C239  1  0.31412000  0.61120000  0.19839000  1.0
  C  C240  1  0.50829000  0.19466000  0.95418000  1.0
  C  C241  1  0.15750000  0.30537000  0.54595000  1.0
  C  C242  1  0.46284000  0.04597000  0.69450000  1.0
  C  C243  1  0.70286000  0.45406000  0.80551000  1.0
  C  C244  1  0.49171000  0.80534000  0.04582000  1.0
  C  C245  1  0.84250000  0.69463000  0.45405000  1.0
  C  C246  1  0.53717000  0.95403000  0.30550000  1.0
  C  C247  1  0.29714000  0.54595000  0.19449000  1.0
  C  C248  1  0.62135000  0.18246000  0.95439000  1.0
  C  C249  1  0.25857000  0.31758000  0.54574000  1.0
  C  C250  1  0.57611000  0.04583000  0.68221000  1.0
  C  C251  1  0.80374000  0.45421000  0.81773000  1.0
  C  C252  1  0.37865000  0.81754000  0.04561000  1.0
  C  C253  1  0.74143000  0.68242000  0.45425000  1.0
  C  C254  1  0.42389000  0.95417000  0.31779000  1.0
  C  C255  1  0.19626000  0.54579000  0.18226000  1.0
  C  C256  1  0.71080000  0.16648000  0.89144000  1.0
  C  C257  1  0.26915000  0.33366000  0.60868000  1.0
  C  C258  1  0.60253000  0.10883000  0.66623000  1.0
  C  C259  1  0.87725000  0.39125000  0.83373000  1.0
  C  C260  1  0.28920000  0.83352000  0.10856000  1.0
  C  C261  1  0.73085000  0.66635000  0.39132000  1.0
  C  C262  1  0.39747000  0.89117000  0.33377000  1.0
  C  C263  1  0.12275000  0.60875000  0.16626000  1.0
  C  C264  1  0.64400000  0.19345000  0.02047000  1.0
  C  C265  1  0.35814000  0.30662000  0.47962000  1.0
  C  C266  1  0.66474000  0.97975000  0.69326000  1.0
  C  C267  1  0.83739000  0.52028000  0.80668000  1.0
  C  C268  1  0.35600000  0.80655000  0.97953000  1.0
  C  C269  1  0.64186000  0.69338000  0.52038000  1.0
  C  C270  1  0.33527000  0.02025000  0.30674000  1.0
  C  C271  1  0.16261000  0.47972000  0.19332000  1.0
  C  C272  1  0.68561000  0.07015000  0.05475000  1.0
  C  C273  1  0.31072000  0.42996000  0.44534000  1.0
  C  C274  1  0.74040000  0.94535000  0.57000000  1.0
  C  C275  1  0.75577000  0.55469000  0.92990000  1.0
  C  C276  1  0.31439000  0.92985000  0.94525000  1.0
  C  C277  1  0.68928000  0.57004000  0.55466000  1.0
  C  C278  1  0.25961000  0.05465000  0.43000000  1.0
  C  C279  1  0.24423000  0.44531000  0.07010000  1.0
  C  C280  1  0.65724000  0.01349000  0.10695000  1.0
  C  C281  1  0.27768000  0.48660000  0.39314000  1.0
  C  C282  1  0.76392000  0.89316000  0.51336000  1.0
  C  C283  1  0.67052000  0.60685000  0.98653000  1.0
  C  C284  1  0.34276000  0.98651000  0.89305000  1.0
  C  C285  1  0.72233000  0.51340000  0.60686000  1.0
  C  C286  1  0.23608000  0.10684000  0.48664000  1.0
  C  C287  1  0.32948000  0.39315000  0.01347000  1.0
  C  C288  1  0.72188000  0.94043000  0.07383000  1.0
  C  C289  1  0.23604000  0.55969000  0.42621000  1.0
  C  C290  1  0.79568000  0.92624000  0.44032000  1.0
  C  C291  1  0.66232000  0.57374000  0.05956000  1.0
  C  C292  1  0.27812000  0.05957000  0.92617000  1.0
  C  C293  1  0.76396000  0.44031000  0.57379000  1.0
  C  C294  1  0.20432000  0.07376000  0.55968000  1.0
  C  C295  1  0.33768000  0.42626000  0.94044000  1.0
  C  C296  1  0.36876000  0.22541000  0.88364000  1.0
  C  C297  1  0.97817000  0.27464000  0.61651000  1.0
  C  C298  1  0.25269000  0.11639000  0.72542000  1.0
  C  C299  1  0.59412000  0.38358000  0.77462000  1.0
  C  C300  1  0.63124000  0.77459000  0.11636000  1.0
  C  C301  1  0.02183000  0.72536000  0.38349000  1.0
  C  C302  1  0.74731000  0.88360000  0.27458000  1.0
  C  C303  1  0.40588000  0.61642000  0.22537000  1.0
  C  C304  1  0.63937000  0.16111000  0.14117000  1.0
  C  C305  1  0.44173000  0.33896000  0.35891000  1.0
  C  C306  1  0.78070000  0.85902000  0.66096000  1.0
  C  C307  1  0.80047000  0.64100000  0.83892000  1.0
  C  C308  1  0.36063000  0.83889000  0.85883000  1.0
  C  C309  1  0.55828000  0.66104000  0.64109000  1.0
  C  C310  1  0.21930000  0.14099000  0.33904000  1.0
  C  C311  1  0.19953000  0.35900000  0.16107000  1.0
  C  C312  1  0.55567000  0.14792000  0.20975000  1.0
  C  C313  1  0.41331000  0.35210000  0.29034000  1.0
  C  C314  1  0.76552000  0.79038000  0.64790000  1.0
  C  C315  1  0.70361000  0.70963000  0.85196000  1.0
  C  C316  1  0.44433000  0.85208000  0.79025000  1.0
  C  C317  1  0.58669000  0.64790000  0.70966000  1.0
  C  C318  1  0.23447000  0.20962000  0.35210000  1.0
  C  C319  1  0.29639000  0.29037000  0.14804000  1.0
  C  C320  1  0.17800000  0.22068000  0.91604000  1.0
  C  C321  1  0.81519000  0.27912000  0.58404000  1.0
  C  C322  1  0.09430000  0.08384000  0.72084000  1.0
  C  C323  1  0.39866000  0.41607000  0.77919000  1.0
  C  C324  1  0.82200000  0.77932000  0.08396000  1.0
  C  C325  1  0.18481000  0.72088000  0.41596000  1.0
  C  C326  1  0.90570000  0.91615000  0.27916000  1.0
  C  C327  1  0.60134000  0.58393000  0.22081000  1.0
  C  C328  1  0.11951000  0.28811000  0.96161000  1.0
  C  C329  1  0.87001000  0.21167000  0.53855000  1.0
  C  C330  1  0.08166000  0.03841000  0.78833000  1.0
  C  C331  1  0.40782000  0.46161000  0.71177000  1.0
  C  C332  1  0.88050000  0.71188000  0.03839000  1.0
  C  C333  1  0.12999000  0.78833000  0.46145000  1.0
  C  C334  1  0.91834000  0.96159000  0.21167000  1.0
  C  C335  1  0.59218000  0.53838000  0.28823000  1.0
  C  C336  1  0.28772000  0.07472000  0.11483000  1.0
  C  C337  1  0.97729000  0.42523000  0.38516000  1.0
  C  C338  1  0.40254000  0.88518000  0.57467000  1.0
  C  C339  1  0.36229000  0.61501000  0.92540000  1.0
  C  C340  1  0.71229000  0.92527000  0.88517000  1.0
  C  C341  1  0.02271000  0.57477000  0.61484000  1.0
  C  C342  1  0.59746000  0.11482000  0.42533000  1.0
  C  C343  1  0.63771000  0.38499000  0.07460000  1.0
  C  C344  1  0.24492000  0.01405000  0.14686000  1.0
  C  C345  1  0.90558000  0.48589000  0.35322000  1.0
  C  C346  1  0.39150000  0.85323000  0.51401000  1.0
  C  C347  1  0.25878000  0.64688000  0.98612000  1.0
  C  C348  1  0.75508000  0.98595000  0.85314000  1.0
  C  C349  1  0.09442000  0.51411000  0.64678000  1.0
  C  C350  1  0.60850000  0.14677000  0.48599000  1.0
  C  C351  1  0.74122000  0.35312000  0.01388000  1.0
  C  C352  1  0.65970000  0.88822000  0.11073000  1.0
  C  C353  1  0.15859000  0.61184000  0.38917000  1.0
  C  C354  1  0.77035000  0.88934000  0.38810000  1.0
  C  C355  1  0.54805000  0.61074000  0.11182000  1.0
  C  C356  1  0.34030000  0.11178000  0.88927000  1.0
  C  C357  1  0.84141000  0.38816000  0.61083000  1.0
  C  C358  1  0.22965000  0.11066000  0.61190000  1.0
  C  C359  1  0.45195000  0.38926000  0.88818000  1.0
  N  N360  1  0.61662000  0.14327000  0.07883000  1.0
  N  N361  1  0.33885000  0.35683000  0.42127000  1.0
  N  N362  1  0.69557000  0.92133000  0.64313000  1.0
  N  N363  1  0.75985000  0.57870000  0.85679000  1.0
  N  N364  1  0.38338000  0.85673000  0.92118000  1.0
  N  N365  1  0.66115000  0.64317000  0.57872000  1.0
  N  N366  1  0.30443000  0.07867000  0.35687000  1.0
  N  N367  1  0.24015000  0.42130000  0.14321000  1.0
  N  N368  1  0.29260000  0.18282000  0.92112000  1.0
  N  N369  1  0.89679000  0.31713000  0.57901000  1.0
  N  N370  1  0.21390000  0.07884000  0.68292000  1.0
  N  N371  1  0.47531000  0.42110000  0.81715000  1.0
  N  N372  1  0.70740000  0.81718000  0.07888000  1.0
  N  N373  1  0.10321000  0.68287000  0.42099000  1.0
  N  N374  1  0.78610000  0.92116000  0.31708000  1.0
  N  N375  1  0.52469000  0.57890000  0.18285000  1.0
  O  O376  1  0.42293000  0.20533000  0.01535000  1.0
  O  O377  1  0.14389000  0.29465000  0.48480000  1.0
  O  O378  1  0.43864000  0.98482000  0.70527000  1.0
  O  O379  1  0.62816000  0.51524000  0.79482000  1.0
  O  O380  1  0.57707000  0.79467000  0.98465000  1.0
  O  O381  1  0.85610000  0.70535000  0.51520000  1.0
  O  O382  1  0.56136000  0.01518000  0.29473000  1.0
  O  O383  1  0.37184000  0.48476000  0.20518000  1.0
  O  O384  1  0.46127000  0.14265000  0.20985000  1.0
  O  O385  1  0.31367000  0.35745000  0.29027000  1.0
  O  O386  1  0.67124000  0.79029000  0.64255000  1.0
  O  O387  1  0.60388000  0.70972000  0.85736000  1.0
  O  O388  1  0.53873000  0.85735000  0.79015000  1.0
  O  O389  1  0.68633000  0.64255000  0.70973000  1.0
  O  O390  1  0.32876000  0.20971000  0.35745000  1.0
  O  O391  1  0.39612000  0.29028000  0.14264000  1.0
  O  O392  1  0.58274000  0.14369000  0.26592000  1.0
  O  O393  1  0.49229000  0.35619000  0.23416000  1.0
  O  O394  1  0.84863000  0.73420000  0.64378000  1.0
  O  O395  1  0.72650000  0.76579000  0.85606000  1.0
  O  O396  1  0.41725000  0.85631000  0.73408000  1.0
  O  O397  1  0.50771000  0.64381000  0.76584000  1.0
  O  O398  1  0.15137000  0.26580000  0.35622000  1.0
  O  O399  1  0.27350000  0.23421000  0.14394000  1.0
  O  O400  1  0.05022000  0.33792000  0.94235000  1.0
  O  O401  1  0.83154000  0.16175000  0.55782000  1.0
  O  O402  1  0.99335000  0.05776000  0.83826000  1.0
  O  O403  1  0.38865000  0.44232000  0.66184000  1.0
  O  O404  1  0.94978000  0.66208000  0.05765000  1.0
  O  O405  1  0.16846000  0.83825000  0.44217000  1.0
  O  O406  1  0.00665000  0.94224000  0.16174000  1.0
  O  O407  1  0.61137000  0.55767000  0.33816000  1.0
  O  O408  1  0.14679000  0.28647000  0.01893000  1.0
  O  O409  1  0.95291000  0.21338000  0.48126000  1.0
  O  O410  1  0.16625000  0.98106000  0.78659000  1.0
  O  O411  1  0.43341000  0.51891000  0.71354000  1.0
  O  O412  1  0.85320000  0.71353000  0.98107000  1.0
  O  O413  1  0.04709000  0.78662000  0.51873000  1.0
  O  O414  1  0.83375000  0.01893000  0.21341000  1.0
  O  O415  1  0.56659000  0.48108000  0.28646000  1.0
  O  O416  1  0.22482000  0.12204000  0.08501000  1.0
  O  O417  1  0.93204000  0.37790000  0.41509000  1.0
  O  O418  1  0.30996000  0.91517000  0.62197000  1.0
  O  O419  1  0.34687000  0.58515000  0.87804000  1.0
  O  O420  1  0.77518000  0.87796000  0.91499000  1.0
  O  O421  1  0.06796000  0.62210000  0.58491000  1.0
  O  O422  1  0.69004000  0.08484000  0.37803000  1.0
  O  O423  1  0.65313000  0.41485000  0.12196000  1.0
  O  O424  1  0.38334000  0.07491000  0.11864000  1.0
  O  O425  1  0.07694000  0.42510000  0.38122000  1.0
  O  O426  1  0.50210000  0.88113000  0.57483000  1.0
  O  O427  1  0.45801000  0.61897000  0.92525000  1.0
  O  O428  1  0.61666000  0.92509000  0.88136000  1.0
  O  O429  1  0.92306000  0.57490000  0.61878000  1.0
  O  O430  1  0.49790000  0.11887000  0.42518000  1.0
  O  O431  1  0.54199000  0.38103000  0.07475000  1.0
