# generated using pymatgen
data_Cu3MoH12C17S3N6O
_symmetry_space_group_name_H-M   'P 1'
_cell_length_a   9.11420000
_cell_length_b   11.09620000
_cell_length_c   15.60140000
_cell_angle_alpha   95.52950000
_cell_angle_beta   93.94450000
_cell_angle_gamma   113.93100000
_symmetry_Int_Tables_number   1
_chemical_formula_structural   Cu3MoH12C17S3N6O
_chemical_formula_sum   'Cu6 Mo2 H24 C34 S6 N12 O2'
_cell_volume   1425.34080263
_cell_formula_units_Z   2
loop_
 _symmetry_equiv_pos_site_id
 _symmetry_equiv_pos_as_xyz
  1  'x, y, z'
loop_
 _atom_site_type_symbol
 _atom_site_label
 _atom_site_symmetry_multiplicity
 _atom_site_fract_x
 _atom_site_fract_y
 _atom_site_fract_z
 _atom_site_occupancy
  Cu  Cu0  1  0.36579000  0.82587000  0.73494000  1.0
  Cu  Cu1  1  0.63422000  0.17413000  0.26506000  1.0
  Cu  Cu2  1  0.75177000  0.83499000  0.66355000  1.0
  Cu  Cu3  1  0.24823000  0.16502000  0.33645000  1.0
  Cu  Cu4  1  0.64551000  0.12792000  0.65464000  1.0
  Cu  Cu5  1  0.35449000  0.87208000  0.34536000  1.0
  Mo  Mo6  1  0.50677000  0.87420000  0.58883000  1.0
  Mo  Mo7  1  0.49324000  0.12580000  0.41117000  1.0
  H  H8  1  0.39625000  0.73164000  0.90364000  1.0
  H  H9  1  0.60375000  0.26836000  0.09636000  1.0
  H  H10  1  0.59116000  0.79500000  0.03680000  1.0
  H  H11  1  0.40885000  0.20500000  0.96320000  1.0
  H  H12  1  0.84315000  0.17609000  0.94801000  1.0
  H  H13  1  0.15685000  0.82391000  0.05199000  1.0
  H  H14  1  0.64243000  0.09299000  0.81690000  1.0
  H  H15  1  0.35757000  0.90701000  0.18310000  1.0
  H  H16  1  0.70977000  0.88868000  0.16073000  1.0
  H  H17  1  0.29023000  0.11132000  0.83927000  1.0
  H  H18  1  0.24378000  0.25259000  0.16127000  1.0
  H  H19  1  0.75621000  0.74740000  0.83873000  1.0
  H  H20  1  0.04700000  0.19258000  0.02979000  1.0
  H  H21  1  0.95300000  0.80741000  0.97021000  1.0
  H  H22  1  0.92516000  0.95472000  0.28301000  1.0
  H  H23  1  0.07483000  0.04528000  0.71699000  1.0
  H  H24  1  0.64212000  0.54331000  0.61782000  1.0
  H  H25  1  0.35788000  0.45670000  0.38218000  1.0
  H  H26  1  0.74700000  0.38764000  0.55334000  1.0
  H  H27  1  0.25301000  0.61237000  0.44666000  1.0
  H  H28  1  0.15199000  0.73084000  0.49164000  1.0
  H  H29  1  0.84802000  0.26916000  0.50837000  1.0
  H  H30  1  0.03007000  0.87076000  0.55905000  1.0
  H  H31  1  0.96994000  0.12925000  0.44095000  1.0
  C  C32  1  0.49833000  0.82914000  0.91623000  1.0
  C  C33  1  0.50167000  0.17086000  0.08377000  1.0
  C  C34  1  0.60720000  0.86597000  0.99080000  1.0
  C  C35  1  0.39279000  0.13402000  0.00920000  1.0
  C  C36  1  0.73767000  0.99223000  0.00501000  1.0
  C  C37  1  0.26232000  0.00776000  0.99499000  1.0
  C  C38  1  0.74811000  0.07550000  0.94115000  1.0
  C  C39  1  0.25188000  0.92450000  0.05884000  1.0
  C  C40  1  0.63490000  0.03032000  0.86788000  1.0
  C  C41  1  0.36510000  0.96968000  0.13212000  1.0
  C  C42  1  0.85889000  0.03289000  0.08194000  1.0
  C  C43  1  0.14111000  0.96711000  0.91806000  1.0
  C  C44  1  0.82760000  0.96733000  0.15568000  1.0
  C  C45  1  0.17240000  0.03267000  0.84432000  1.0
  C  C46  1  0.04000000  0.61754000  0.77641000  1.0
  C  C47  1  0.95999000  0.38246000  0.22357000  1.0
  C  C48  1  0.12452000  0.17099000  0.15748000  1.0
  C  C49  1  0.87549000  0.82901000  0.84252000  1.0
  C  C50  1  0.01245000  0.13760000  0.08463000  1.0
  C  C51  1  0.98756000  0.86240000  0.91537000  1.0
  C  C52  1  0.94690000  0.00509000  0.22551000  1.0
  C  C53  1  0.05310000  0.99491000  0.77450000  1.0
  C  C54  1  0.75626000  0.58055000  0.58992000  1.0
  C  C55  1  0.24375000  0.41946000  0.41008000  1.0
  C  C56  1  0.81682000  0.49382000  0.55364000  1.0
  C  C57  1  0.18318000  0.50618000  0.44637000  1.0
  C  C58  1  0.96424000  0.54435000  0.51831000  1.0
  C  C59  1  0.03577000  0.45566000  0.48169000  1.0
  C  C60  1  0.03956000  0.68289000  0.51923000  1.0
  C  C61  1  0.96045000  0.31711000  0.48077000  1.0
  C  C62  1  0.97116000  0.76294000  0.55711000  1.0
  C  C63  1  0.02885000  0.23706000  0.44289000  1.0
  C  C64  1  0.83236000  0.40792000  0.75212000  1.0
  C  C65  1  0.16763000  0.59209000  0.24788000  1.0
  S  S66  1  0.38400000  0.99252000  0.65778000  1.0
  S  S67  1  0.61600000  0.00748000  0.34222000  1.0
  S  S68  1  0.48511000  0.70543000  0.66600000  1.0
  S  S69  1  0.51489000  0.29456000  0.33400000  1.0
  S  S70  1  0.77373000  0.01106000  0.59410000  1.0
  S  S71  1  0.22627000  0.98895000  0.40590000  1.0
  N  N72  1  0.51136000  0.90884000  0.85470000  1.0
  N  N73  1  0.48864000  0.09115000  0.14530000  1.0
  N  N74  1  0.16051000  0.70840000  0.76789000  1.0
  N  N75  1  0.83949000  0.29160000  0.23209000  1.0
  N  N76  1  0.09435000  0.10542000  0.22717000  1.0
  N  N77  1  0.90565000  0.89458000  0.77283000  1.0
  N  N78  1  0.83238000  0.71380000  0.59329000  1.0
  N  N79  1  0.16762000  0.28620000  0.40671000  1.0
  N  N80  1  0.75456000  0.29720000  0.71986000  1.0
  N  N81  1  0.24542000  0.70280000  0.28014000  1.0
  N  N82  1  0.90533000  0.52703000  0.79335000  1.0
  N  N83  1  0.09466000  0.47298000  0.20664000  1.0
  O  O84  1  0.42021000  0.81446000  0.48250000  1.0
  O  O85  1  0.57980000  0.18553000  0.51749000  1.0
