# generated using pymatgen
data_H13RhC18NO4
_symmetry_space_group_name_H-M   'P 1'
_cell_length_a   10.15670000
_cell_length_b   11.58470000
_cell_length_c   15.59550000
_cell_angle_alpha   94.02000000
_cell_angle_beta   89.99920000
_cell_angle_gamma   89.99950000
_symmetry_Int_Tables_number   1
_chemical_formula_structural   H13RhC18NO4
_chemical_formula_sum   'H52 Rh4 C72 N4 O16'
_cell_volume   1830.48798254
_cell_formula_units_Z   4
loop_
 _symmetry_equiv_pos_site_id
 _symmetry_equiv_pos_as_xyz
  1  'x, y, z'
loop_
 _atom_site_type_symbol
 _atom_site_label
 _atom_site_symmetry_multiplicity
 _atom_site_fract_x
 _atom_site_fract_y
 _atom_site_fract_z
 _atom_site_occupancy
  H  H0  1  0.32784000  0.34753000  0.23242000  1.0
  H  H1  1  0.17217000  0.84755000  0.73241000  1.0
  H  H2  1  0.67218000  0.65245000  0.76759000  1.0
  H  H3  1  0.82782000  0.15245000  0.26760000  1.0
  H  H4  1  0.34727000  0.26244000  0.08090000  1.0
  H  H5  1  0.15272000  0.76246000  0.58089000  1.0
  H  H6  1  0.65273000  0.73754000  0.91911000  1.0
  H  H7  1  0.84727000  0.23753000  0.41912000  1.0
  H  H8  1  0.56994000  0.22818000  0.01688000  1.0
  H  H9  1  0.93006000  0.72819000  0.51688000  1.0
  H  H10  1  0.43007000  0.77183000  0.98313000  1.0
  H  H11  1  0.06993000  0.27181000  0.48313000  1.0
  H  H12  1  0.76956000  0.26599000  0.10463000  1.0
  H  H13  1  0.73044000  0.76600000  0.60464000  1.0
  H  H14  1  0.23045000  0.73401000  0.89537000  1.0
  H  H15  1  0.26955000  0.23401000  0.39536000  1.0
  H  H16  1  0.74875000  0.35143000  0.25659000  1.0
  H  H17  1  0.75127000  0.85144000  0.75660000  1.0
  H  H18  1  0.25128000  0.64857000  0.74341000  1.0
  H  H19  1  0.24872000  0.14856000  0.24341000  1.0
  H  H20  1  0.23207000  0.18458000  0.57119000  1.0
  H  H21  1  0.26793000  0.68458000  0.07120000  1.0
  H  H22  1  0.76790000  0.81541000  0.42880000  1.0
  H  H23  1  0.73209000  0.31541000  0.92880000  1.0
  H  H24  1  0.19389000  0.98364000  0.61167000  1.0
  H  H25  1  0.30612000  0.48365000  0.11167000  1.0
  H  H26  1  0.80607000  0.01635000  0.38831000  1.0
  H  H27  1  0.69393000  0.51635000  0.88831000  1.0
  H  H28  1  0.38503000  0.85825000  0.64425000  1.0
  H  H29  1  0.11497000  0.35825000  0.14424000  1.0
  H  H30  1  0.61493000  0.14176000  0.35575000  1.0
  H  H31  1  0.88506000  0.64176000  0.85575000  1.0
  H  H32  1  0.61308000  0.93573000  0.63554000  1.0
  H  H33  1  0.88692000  0.43572000  0.13554000  1.0
  H  H34  1  0.38688000  0.06429000  0.36447000  1.0
  H  H35  1  0.11312000  0.56429000  0.86447000  1.0
  H  H36  1  0.64984000  0.13693000  0.59450000  1.0
  H  H37  1  0.85016000  0.63692000  0.09451000  1.0
  H  H38  1  0.35013000  0.86309000  0.40550000  1.0
  H  H39  1  0.14987000  0.36308000  0.90550000  1.0
  H  H40  1  0.22363000  0.58184000  0.34414000  1.0
  H  H41  1  0.27637000  0.08184000  0.84413000  1.0
  H  H42  1  0.77638000  0.41814000  0.65585000  1.0
  H  H43  1  0.72361000  0.91812000  0.15584000  1.0
  H  H44  1  0.99483000  0.59124000  0.28654000  1.0
  H  H45  1  0.50516000  0.09124000  0.78654000  1.0
  H  H46  1  0.00517000  0.40874000  0.71346000  1.0
  H  H47  1  0.49482000  0.90874000  0.21345000  1.0
  H  H48  1  0.80504000  0.53652000  0.37984000  1.0
  H  H49  1  0.69495000  0.03653000  0.87983000  1.0
  H  H50  1  0.19496000  0.46347000  0.62017000  1.0
  H  H51  1  0.30504000  0.96349000  0.12016000  1.0
  Rh  Rh52  1  0.38225000  0.51040000  0.48941000  1.0
  Rh  Rh53  1  0.11775000  0.01039000  0.98941000  1.0
  Rh  Rh54  1  0.61775000  0.48960000  0.51059000  1.0
  Rh  Rh55  1  0.88225000  0.98961000  0.01059000  1.0
  C  C56  1  0.52366000  0.40634000  0.34240000  1.0
  C  C57  1  0.97635000  0.90634000  0.84240000  1.0
  C  C58  1  0.47635000  0.59366000  0.65761000  1.0
  C  C59  1  0.02364000  0.09366000  0.15761000  1.0
  C  C60  1  0.53684000  0.35506000  0.25277000  1.0
  C  C61  1  0.96318000  0.85507000  0.75277000  1.0
  C  C62  1  0.46319000  0.64493000  0.74723000  1.0
  C  C63  1  0.03681000  0.14493000  0.24724000  1.0
  C  C64  1  0.42381000  0.32968000  0.20339000  1.0
  C  C65  1  0.07621000  0.82969000  0.70339000  1.0
  C  C66  1  0.57621000  0.67031000  0.79661000  1.0
  C  C67  1  0.92379000  0.17031000  0.29662000  1.0
  C  C68  1  0.43544000  0.28329000  0.11885000  1.0
  C  C69  1  0.06455000  0.78329000  0.61885000  1.0
  C  C70  1  0.56457000  0.71672000  0.88116000  1.0
  C  C71  1  0.93544000  0.21671000  0.38116000  1.0
  C  C72  1  0.56026000  0.26306000  0.08322000  1.0
  C  C73  1  0.93975000  0.76307000  0.58322000  1.0
  C  C74  1  0.43976000  0.73695000  0.91679000  1.0
  C  C75  1  0.06025000  0.23694000  0.41679000  1.0
  C  C76  1  0.67326000  0.28607000  0.13259000  1.0
  C  C77  1  0.82674000  0.78607000  0.63260000  1.0
  C  C78  1  0.32676000  0.71395000  0.86741000  1.0
  C  C79  1  0.17324000  0.21394000  0.36741000  1.0
  C  C80  1  0.66185000  0.33233000  0.21717000  1.0
  C  C81  1  0.83816000  0.83233000  0.71718000  1.0
  C  C82  1  0.33817000  0.66768000  0.78282000  1.0
  C  C83  1  0.16183000  0.16769000  0.28282000  1.0
  C  C84  1  0.46460000  0.29225000  0.55393000  1.0
  C  C85  1  0.03540000  0.79225000  0.05394000  1.0
  C  C86  1  0.53539000  0.70775000  0.44607000  1.0
  C  C87  1  0.96462000  0.20776000  0.94607000  1.0
  C  C88  1  0.44307000  0.17322000  0.58100000  1.0
  C  C89  1  0.05693000  0.67322000  0.08100000  1.0
  C  C90  1  0.55691000  0.82678000  0.41899000  1.0
  C  C91  1  0.94309000  0.32678000  0.91899000  1.0
  C  C92  1  0.31472000  0.12959000  0.58597000  1.0
  C  C93  1  0.18528000  0.62959000  0.08598000  1.0
  C  C94  1  0.68525000  0.87042000  0.41401000  1.0
  C  C95  1  0.81475000  0.37041000  0.91401000  1.0
  C  C96  1  0.29398000  0.01689000  0.60866000  1.0
  C  C97  1  0.20603000  0.51689000  0.10866000  1.0
  C  C98  1  0.70599000  0.98311000  0.39133000  1.0
  C  C99  1  0.79401000  0.48310000  0.89133000  1.0
  C  C100  1  0.40103000  0.94673000  0.62676000  1.0
  C  C101  1  0.09897000  0.44673000  0.12675000  1.0
  C  C102  1  0.59893000  0.05328000  0.37325000  1.0
  C  C103  1  0.90107000  0.55328000  0.87325000  1.0
  C  C104  1  0.52914000  0.99001000  0.62201000  1.0
  C  C105  1  0.97086000  0.49001000  0.12201000  1.0
  C  C106  1  0.47082000  0.00999000  0.37800000  1.0
  C  C107  1  0.02917000  0.51000000  0.87800000  1.0
  C  C108  1  0.55042000  0.10271000  0.59928000  1.0
  C  C109  1  0.94958000  0.60271000  0.09928000  1.0
  C  C110  1  0.44955000  0.89729000  0.40072000  1.0
  C  C111  1  0.05045000  0.39729000  0.90072000  1.0
  C  C112  1  0.13974000  0.56017000  0.38357000  1.0
  C  C113  1  0.36026000  0.06018000  0.88357000  1.0
  C  C114  1  0.86027000  0.43981000  0.61643000  1.0
  C  C115  1  0.63972000  0.93980000  0.11641000  1.0
  C  C116  1  0.01054000  0.56515000  0.35149000  1.0
  C  C117  1  0.48945000  0.06515000  0.85149000  1.0
  C  C118  1  0.98946000  0.43484000  0.64849000  1.0
  C  C119  1  0.51053000  0.93484000  0.14849000  1.0
  C  C120  1  0.90645000  0.53510000  0.40214000  1.0
  C  C121  1  0.59355000  0.03511000  0.90214000  1.0
  C  C122  1  0.09357000  0.46489000  0.59785000  1.0
  C  C123  1  0.40643000  0.96490000  0.09785000  1.0
  C  C124  1  0.06704000  0.49881000  0.51421000  1.0
  C  C125  1  0.43295000  0.99881000  0.01420000  1.0
  C  C126  1  0.93296000  0.50118000  0.48580000  1.0
  C  C127  1  0.56703000  0.00119000  0.98579000  1.0
  N  N128  1  0.16851000  0.52786000  0.46164000  1.0
  N  N129  1  0.33148000  0.02786000  0.96164000  1.0
  N  N130  1  0.83151000  0.47214000  0.53835000  1.0
  N  N131  1  0.66849000  0.97214000  0.03834000  1.0
  O  O132  1  0.40798000  0.43722000  0.36773000  1.0
  O  O133  1  0.09203000  0.93722000  0.86773000  1.0
  O  O134  1  0.59203000  0.56276000  0.63228000  1.0
  O  O135  1  0.90797000  0.06276000  0.13228000  1.0
  O  O136  1  0.62908000  0.41583000  0.38777000  1.0
  O  O137  1  0.87093000  0.91583000  0.88777000  1.0
  O  O138  1  0.37093000  0.58418000  0.61224000  1.0
  O  O139  1  0.12906000  0.08418000  0.11224000  1.0
  O  O140  1  0.36198000  0.34847000  0.53255000  1.0
  O  O141  1  0.13802000  0.84847000  0.03256000  1.0
  O  O142  1  0.63801000  0.65154000  0.46746000  1.0
  O  O143  1  0.86199000  0.15154000  0.96745000  1.0
  O  O144  1  0.58347000  0.32957000  0.55291000  1.0
  O  O145  1  0.91653000  0.82957000  0.05291000  1.0
  O  O146  1  0.41652000  0.67042000  0.44709000  1.0
  O  O147  1  0.08348000  0.17043000  0.94709000  1.0
