# generated using pymatgen
data_MnH12(C2N)8
_symmetry_space_group_name_H-M   'P 1'
_cell_length_a   9.54684320
_cell_length_b   9.56041000
_cell_length_c   11.79450000
_cell_angle_alpha   84.75310000
_cell_angle_beta   66.27507082
_cell_angle_gamma   60.08932704
_symmetry_Int_Tables_number   1
_chemical_formula_structural   MnH12(C2N)8
_chemical_formula_sum   'Mn2 H24 C32 N16'
_cell_volume   846.13395985
_cell_formula_units_Z   2
loop_
 _symmetry_equiv_pos_site_id
 _symmetry_equiv_pos_as_xyz
  1  'x, y, z'
loop_
 _atom_site_type_symbol
 _atom_site_label
 _atom_site_symmetry_multiplicity
 _atom_site_fract_x
 _atom_site_fract_y
 _atom_site_fract_z
 _atom_site_occupancy
  Mn  Mn0  1  0.50000000  0.00000000  0.50000000  1.0
  Mn  Mn1  1  0.49933000  0.50011000  0.99983000  1.0
  H  H2  1  0.41211000  0.75081000  0.44193000  1.0
  H  H3  1  0.10848000  0.74967000  0.06047000  1.0
  H  H4  1  0.58789000  0.24919000  0.55807000  1.0
  H  H5  1  0.89153000  0.25037000  0.93957000  1.0
  H  H6  1  0.18017000  0.67257000  0.53153000  1.0
  H  H7  1  0.88723000  0.82539000  0.97244000  1.0
  H  H8  1  0.81983000  0.32742000  0.46847000  1.0
  H  H9  1  0.11290000  0.17453000  0.02762000  1.0
  H  H10  1  0.85406000  0.11454000  0.79402000  1.0
  H  H11  1  0.26270000  0.38157000  0.71160000  1.0
  H  H12  1  0.14594000  0.88546000  0.20598000  1.0
  H  H13  1  0.73737000  0.61841000  0.28849000  1.0
  H  H14  1  0.09981000  0.17561000  0.69101000  1.0
  H  H15  1  0.46820000  0.32275000  0.81173000  1.0
  H  H16  1  0.90019000  0.82439000  0.30898000  1.0
  H  H17  1  0.53188000  0.67721000  0.18826000  1.0
  H  H18  1  0.79151000  0.85135000  0.67765000  1.0
  H  H19  1  0.82153000  0.64390000  0.82812000  1.0
  H  H20  1  0.20851000  0.14862000  0.32237000  1.0
  H  H21  1  0.17849000  0.35610000  0.17189000  1.0
  H  H22  1  0.75809000  0.92159000  0.82426000  1.0
  H  H23  1  0.00351000  0.57381000  0.68151000  1.0
  H  H24  1  0.24191000  0.07842000  0.17574000  1.0
  H  H25  1  0.99652000  0.42618000  0.31852000  1.0
  C  C26  1  0.28623000  0.82767000  0.52053000  1.0
  C  C27  1  0.13721000  0.67181000  0.98289000  1.0
  C  C28  1  0.71377000  0.17232000  0.47947000  1.0
  C  C29  1  0.86292000  0.32818000  0.01714000  1.0
  C  C30  1  0.15690000  0.78425000  0.57169000  1.0
  C  C31  1  0.01533000  0.71346000  0.93233000  1.0
  C  C32  1  0.84310000  0.21575000  0.42831000  1.0
  C  C33  1  0.98482000  0.28647000  0.06770000  1.0
  C  C34  1  0.99844000  0.88436000  0.67431000  1.0
  C  C35  1  0.05811000  0.61266000  0.83046000  1.0
  C  C36  1  0.00157000  0.11563000  0.32570000  1.0
  C  C37  1  0.94195000  0.38734000  0.16957000  1.0
  C  C38  1  0.97624000  0.02941000  0.71647000  1.0
  C  C39  1  0.22262000  0.46777000  0.78847000  1.0
  C  C40  1  0.02376000  0.97059000  0.28353000  1.0
  C  C41  1  0.77746000  0.53224000  0.21161000  1.0
  C  C42  1  0.11213000  0.06444000  0.65972000  1.0
  C  C43  1  0.33834000  0.43337000  0.84380000  1.0
  C  C44  1  0.88787000  0.93556000  0.34028000  1.0
  C  C45  1  0.66180000  0.56663000  0.15623000  1.0
  C  C46  1  0.85974000  0.83657000  0.73803000  1.0
  C  C47  1  0.93450000  0.65927000  0.76741000  1.0
  C  C48  1  0.14028000  0.16342000  0.26199000  1.0
  C  C49  1  0.06555000  0.34071000  0.23262000  1.0
  C  C50  1  0.57557000  0.98196000  0.20518000  1.0
  C  C51  1  0.27744000  0.51393000  0.27997000  1.0
  C  C52  1  0.42446000  0.01806000  0.79482000  1.0
  C  C53  1  0.72246000  0.48607000  0.71996000  1.0
  C  C54  1  0.57853000  0.15215000  0.05653000  1.0
  C  C55  1  0.26890000  0.36845000  0.44462000  1.0
  C  C56  1  0.42132000  0.84790000  0.94344000  1.0
  C  C57  1  0.73116000  0.63156000  0.55536000  1.0
  N  N58  1  0.26687000  0.96394000  0.56479000  1.0
  N  N59  1  0.29881000  0.53555000  0.93784000  1.0
  N  N60  1  0.73313000  0.03606000  0.43521000  1.0
  N  N61  1  0.70154000  0.46446000  0.06220000  1.0
  N  N62  1  0.55467000  0.94202000  0.30578000  1.0
  N  N63  1  0.33806000  0.53933000  0.17694000  1.0
  N  N64  1  0.44532000  0.05798000  0.69422000  1.0
  N  N65  1  0.66157000  0.46071000  0.82296000  1.0
  N  N66  1  0.60210000  0.01235000  0.09146000  1.0
  N  N67  1  0.19915000  0.49751000  0.39479000  1.0
  N  N68  1  0.39800000  0.98764000  0.90854000  1.0
  N  N69  1  0.80095000  0.50250000  0.60520000  1.0
  N  N70  1  0.56407000  0.27302000  0.01446000  1.0
  N  N71  1  0.32190000  0.25808000  0.49968000  1.0
  N  N72  1  0.43556000  0.72702000  0.98542000  1.0
  N  N73  1  0.67811000  0.74192000  0.50032000  1.0
