# generated using pymatgen
data_AlH7C16O5F2
_symmetry_space_group_name_H-M   'P 1'
_cell_length_a   6.65196000
_cell_length_b   24.57770000
_cell_length_c   25.04270000
_cell_angle_alpha   89.98130000
_cell_angle_beta   88.52280000
_cell_angle_gamma   87.85480000
_symmetry_Int_Tables_number   1
_chemical_formula_structural   AlH7C16O5F2
_chemical_formula_sum   'Al4 H28 C64 O20 F8'
_cell_volume   4089.99806543
_cell_formula_units_Z   4
loop_
 _symmetry_equiv_pos_site_id
 _symmetry_equiv_pos_as_xyz
  1  'x, y, z'
loop_
 _atom_site_type_symbol
 _atom_site_label
 _atom_site_symmetry_multiplicity
 _atom_site_fract_x
 _atom_site_fract_y
 _atom_site_fract_z
 _atom_site_occupancy
  Al  Al0  1  0.98682000  0.00112000  0.49808000  1.0
  Al  Al1  1  0.48655000  0.99958000  0.49960000  1.0
  Al  Al2  1  0.01379000  0.50049000  0.00027000  1.0
  Al  Al3  1  0.51347000  0.49902000  0.00183000  1.0
  H  H4  1  0.22950000  0.06985000  0.51593000  1.0
  H  H5  1  0.75049000  0.93182000  0.51789000  1.0
  H  H6  1  0.27102000  0.43014000  0.98416000  1.0
  H  H7  1  0.74998000  0.56831000  0.98205000  1.0
  H  H8  1  0.45992000  0.40405000  0.13111000  1.0
  H  H9  1  0.44463000  0.33357000  0.20279000  1.0
  H  H10  1  0.07939000  0.29553000  0.17491000  1.0
  H  H11  1  0.42073000  0.20436000  0.32479000  1.0
  H  H12  1  0.04032000  0.09601000  0.36876000  1.0
  H  H13  1  0.05558000  0.16644000  0.29701000  1.0
  H  H14  1  0.95834000  0.59707000  0.86651000  1.0
  H  H15  1  0.94828000  0.66749000  0.79483000  1.0
  H  H16  1  0.56518000  0.70329000  0.82760000  1.0
  H  H17  1  0.93501000  0.79700000  0.67254000  1.0
  H  H18  1  0.54196000  0.90314000  0.63344000  1.0
  H  H19  1  0.55211000  0.83278000  0.70516000  1.0
  H  H20  1  0.55730000  0.59549000  0.13049000  1.0
  H  H21  1  0.56367000  0.66666667  0.20139000  1.0
  H  H22  1  0.93113000  0.70327000  0.17706000  1.0
  H  H23  1  0.56890000  0.79687000  0.32272000  1.0
  H  H24  1  0.94274000  0.90461000  0.36946000  1.0
  H  H25  1  0.93625000  0.83344000  0.29856000  1.0
  H  H26  1  0.46897000  0.40606000  0.87029000  1.0
  H  H27  1  0.45329000  0.33572000  0.79905000  1.0
  H  H28  1  0.07859000  0.29088000  0.82516000  1.0
  H  H29  1  0.42056000  0.20844000  0.67542000  1.0
  H  H30  1  0.03077000  0.09360000  0.63006000  1.0
  H  H31  1  0.04580000  0.16361000  0.70162000  1.0
  C  C32  1  0.72574000  0.06793000  0.57033000  1.0
  C  C33  1  0.72496000  0.06633000  0.42796000  1.0
  C  C34  1  0.24689000  0.93447000  0.42777000  1.0
  C  C35  1  0.24131000  0.93292000  0.57027000  1.0
  C  C36  1  0.77450000  0.43200000  0.92971000  1.0
  C  C37  1  0.77535000  0.43375000  0.07191000  1.0
  C  C38  1  0.25335000  0.56566000  0.07211000  1.0
  C  C39  1  0.25893000  0.56722000  0.92966000  1.0
  C  C40  1  0.77575000  0.39137000  0.11454000  1.0
  C  C41  1  0.59472000  0.38057000  0.14214000  1.0
  C  C42  1  0.58593000  0.34108000  0.18159000  1.0
  C  C43  1  0.76042000  0.30965000  0.19428000  1.0
  C  C44  1  0.94286000  0.31963000  0.16682000  1.0
  C  C45  1  0.94765000  0.35998000  0.12817000  1.0
  C  C46  1  0.75293000  0.26809000  0.23323000  1.0
  C  C47  1  0.74703000  0.23185000  0.26651000  1.0
  C  C48  1  0.73975000  0.19030000  0.30549000  1.0
  C  C49  1  0.55730000  0.18031000  0.33295000  1.0
  C  C50  1  0.55255000  0.13999000  0.37163000  1.0
  C  C51  1  0.72455000  0.10865000  0.38528000  1.0
  C  C52  1  0.90556000  0.11946000  0.35769000  1.0
  C  C53  1  0.91434000  0.15892000  0.31822000  1.0
  C  C54  1  0.26418000  0.60926000  0.88657000  1.0
  C  C55  1  0.09057000  0.62038000  0.85688000  1.0
  C  C56  1  0.08462000  0.65976000  0.81726000  1.0
  C  C57  1  0.25544000  0.69065000  0.80593000  1.0
  C  C58  1  0.43111000  0.68004000  0.83495000  1.0
  C  C59  1  0.43287000  0.64007000  0.87401000  1.0
  C  C60  1  0.25142000  0.73209000  0.76677000  1.0
  C  C61  1  0.24896000  0.76827000  0.73335000  1.0
  C  C62  1  0.24491000  0.80963000  0.69413000  1.0
  C  C63  1  0.06917000  0.82021000  0.66511000  1.0
  C  C64  1  0.06736000  0.86015000  0.62603000  1.0
  C  C65  1  0.23609000  0.89094000  0.61343000  1.0
  C  C66  1  0.40975000  0.87985000  0.64311000  1.0
  C  C67  1  0.41575000  0.84049000  0.68273000  1.0
  C  C68  1  0.24437000  0.60797000  0.11491000  1.0
  C  C69  1  0.42120000  0.61905000  0.14197000  1.0
  C  C70  1  0.42493000  0.65887000  0.18104000  1.0
  C  C71  1  0.24840000  0.69020000  0.19450000  1.0
  C  C72  1  0.06966000  0.67969000  0.16802000  1.0
  C  C73  1  0.07023000  0.63931000  0.12934000  1.0
  C  C74  1  0.24970000  0.73189000  0.23334000  1.0
  C  C75  1  0.25007000  0.76825000  0.26652000  1.0
  C  C76  1  0.25161000  0.80995000  0.30535000  1.0
  C  C77  1  0.43042000  0.82046000  0.33179000  1.0
  C  C78  1  0.42990000  0.86082000  0.37047000  1.0
  C  C79  1  0.25584000  0.89216000  0.38496000  1.0
  C  C80  1  0.07894000  0.88107000  0.35795000  1.0
  C  C81  1  0.07510000  0.84125000  0.31887000  1.0
  C  C82  1  0.77937000  0.38968000  0.88679000  1.0
  C  C83  1  0.60170000  0.38091000  0.85919000  1.0
  C  C84  1  0.59266000  0.34160000  0.81984000  1.0
  C  C85  1  0.76430000  0.30826000  0.80666000  1.0
  C  C86  1  0.94383000  0.31621000  0.83377000  1.0
  C  C87  1  0.94851000  0.35632000  0.87264000  1.0
  C  C88  1  0.75511000  0.26728000  0.76731000  1.0
  C  C89  1  0.74334000  0.23199000  0.73337000  1.0
  C  C90  1  0.73465000  0.19107000  0.69395000  1.0
  C  C91  1  0.55533000  0.18318000  0.66666667  1.0
  C  C92  1  0.55098000  0.14321000  0.62772000  1.0
  C  C93  1  0.72039000  0.10999000  0.61349000  1.0
  C  C94  1  0.89790000  0.11867000  0.64121000  1.0
  C  C95  1  0.90652000  0.15781000  0.68075000  1.0
  O  O96  1  0.89997000  0.04845000  0.55689000  1.0
  O  O97  1  0.55948000  0.04511000  0.44074000  1.0
  O  O98  1  0.40909000  0.94533000  0.45056000  1.0
  O  O99  1  0.07660000  0.94559000  0.54794000  1.0
  O  O100  1  0.07402000  0.95614000  0.43896000  1.0
  O  O101  1  0.41238000  0.95230000  0.55886000  1.0
  O  O102  1  0.56032000  0.05511000  0.55019000  1.0
  O  O103  1  0.89435000  0.05497000  0.44867000  1.0
  O  O104  1  0.23299000  0.03365000  0.50052000  1.0
  O  O105  1  0.74215000  0.96706000  0.50050000  1.0
  O  O106  1  0.94005000  0.44493000  0.94969000  1.0
  O  O107  1  0.60585000  0.44520000  0.05129000  1.0
  O  O108  1  0.42630000  0.54403000  0.06091000  1.0
  O  O109  1  0.08795000  0.54777000  0.94103000  1.0
  O  O110  1  0.09123000  0.55476000  0.04930000  1.0
  O  O111  1  0.42367000  0.55453000  0.95198000  1.0
  O  O112  1  0.60033000  0.45155000  0.94313000  1.0
  O  O113  1  0.94091000  0.45490000  0.05909000  1.0
  O  O114  1  0.26734000  0.46644000  0.99934000  1.0
  O  O115  1  0.75823000  0.53306000  0.99943000  1.0
  F  F116  1  0.12663000  0.36681000  0.10221000  1.0
  F  F117  1  0.37361000  0.13315000  0.39759000  1.0
  F  F118  1  0.60762000  0.63284000  0.90059000  1.0
  F  F119  1  0.89257000  0.86740000  0.59947000  1.0
  F  F120  1  0.89308000  0.63196000  0.10518000  1.0
  F  F121  1  0.60713000  0.86816000  0.39463000  1.0
  F  F122  1  0.12613000  0.36125000  0.89758000  1.0
  F  F123  1  0.37353000  0.13834000  0.60271000  1.0
