# generated using pymatgen
data_ZnH6C11NO8
_symmetry_space_group_name_H-M   'P 1'
_cell_length_a   7.99186000
_cell_length_b   9.18567000
_cell_length_c   10.88820000
_cell_angle_alpha   93.82420000
_cell_angle_beta   91.55610000
_cell_angle_gamma   91.25420000
_symmetry_Int_Tables_number   1
_chemical_formula_structural   ZnH6C11NO8
_chemical_formula_sum   'Zn2 H12 C22 N2 O16'
_cell_volume   797.01021750
_cell_formula_units_Z   2
loop_
 _symmetry_equiv_pos_site_id
 _symmetry_equiv_pos_as_xyz
  1  'x, y, z'
loop_
 _atom_site_type_symbol
 _atom_site_label
 _atom_site_symmetry_multiplicity
 _atom_site_fract_x
 _atom_site_fract_y
 _atom_site_fract_z
 _atom_site_occupancy
  Zn  Zn0  1  0.66320000  0.49490000  0.50425000  1.0
  Zn  Zn1  1  0.33782000  0.48707000  0.49266000  1.0
  H  H2  1  0.76040000  0.44787000  0.87709000  1.0
  H  H3  1  0.23783000  0.52112000  0.92991000  1.0
  H  H4  1  0.76135000  0.55140000  0.07381000  1.0
  H  H5  1  0.24751000  0.42609000  0.11565000  1.0
  H  H6  1  0.74036000  0.18090000  0.93497000  1.0
  H  H7  1  0.29398000  0.21834000  0.80944000  1.0
  H  H8  1  0.73301000  0.24835000  0.16724000  1.0
  H  H9  1  0.27129000  0.16592000  0.03532000  1.0
  H  H10  1  0.79102000  0.66516000  0.91470000  1.0
  H  H11  1  0.38788000  0.75254000  0.77177000  1.0
  H  H12  1  0.55958000  0.88705000  0.12431000  1.0
  H  H13  1  0.18917000  0.64683000  0.08455000  1.0
  C  C14  1  0.49779000  0.21255000  0.49400000  1.0
  C  C15  1  0.49347000  0.49069000  0.73891000  1.0
  C  C16  1  0.51262000  0.48951000  0.26045000  1.0
  C  C17  1  0.49744000  0.76948000  0.50738000  1.0
  C  C18  1  0.49728000  0.05648000  0.49757000  1.0
  C  C19  1  0.65011000  0.40949000  0.92621000  1.0
  C  C20  1  0.32622000  0.43109000  0.92842000  1.0
  C  C21  1  0.68211000  0.45196000  0.06518000  1.0
  C  C22  1  0.36121000  0.39647000  0.06465000  1.0
  C  C23  1  0.49615000  0.92518000  0.50282000  1.0
  C  C24  1  0.50636000  0.65294000  0.93558000  1.0
  C  C25  1  0.47822000  0.65429000  0.08028000  1.0
  C  C26  1  0.49387000  0.48984000  0.87942000  1.0
  C  C27  1  0.51071000  0.49394000  0.11999000  1.0
  C  C28  1  0.64954000  0.24839000  0.88567000  1.0
  C  C29  1  0.22556000  0.31144000  0.85200000  1.0
  C  C30  1  0.79321000  0.34488000  0.12984000  1.0
  C  C31  1  0.36969000  0.23582000  0.08627000  1.0
  C  C32  1  0.67482000  0.72864000  0.90700000  1.0
  C  C33  1  0.37761000  0.74817000  0.87295000  1.0
  C  C34  1  0.59628000  0.77476000  0.14422000  1.0
  C  C35  1  0.30359000  0.70507000  0.12387000  1.0
  N  N36  1  0.06821000  0.48752000  0.48640000  1.0
  N  N37  1  0.93251000  0.49595000  0.50193000  1.0
  O  O38  1  0.63824000  0.27910000  0.51595000  1.0
  O  O39  1  0.35782000  0.27003000  0.47036000  1.0
  O  O40  1  0.63219000  0.52380000  0.69190000  1.0
  O  O41  1  0.35459000  0.46547000  0.68111000  1.0
  O  O42  1  0.65005000  0.46523000  0.31543000  1.0
  O  O43  1  0.37278000  0.51014000  0.31131000  1.0
  O  O44  1  0.63745000  0.70904000  0.48953000  1.0
  O  O45  1  0.35902000  0.70519000  0.52938000  1.0
  O  O46  1  0.56451000  0.19512000  0.79855000  1.0
  O  O47  1  0.07324000  0.31879000  0.84148000  1.0
  O  O48  1  0.94545000  0.36446000  0.13523000  1.0
  O  O49  1  0.46669000  0.18301000  0.15861000  1.0
  O  O50  1  0.67953000  0.85488000  0.87879000  1.0
  O  O51  1  0.27120000  0.81633000  0.92856000  1.0
  O  O52  1  0.72002000  0.75210000  0.20686000  1.0
  O  O53  1  0.29668000  0.79580000  0.21051000  1.0
