# generated using pymatgen
data_YH9C5(NO4)2
_symmetry_space_group_name_H-M   'P 1'
_cell_length_a   6.55504000
_cell_length_b   6.70202000
_cell_length_c   6.70190000
_cell_angle_alpha   64.32190000
_cell_angle_beta   73.28610000
_cell_angle_gamma   73.28690000
_symmetry_Int_Tables_number   1
_chemical_formula_structural   YH9C5(NO4)2
_chemical_formula_sum   'Y1 H9 C5 N2 O8'
_cell_volume   249.57036914
_cell_formula_units_Z   1
loop_
 _symmetry_equiv_pos_site_id
 _symmetry_equiv_pos_as_xyz
  1  'x, y, z'
loop_
 _atom_site_type_symbol
 _atom_site_label
 _atom_site_symmetry_multiplicity
 _atom_site_fract_x
 _atom_site_fract_y
 _atom_site_fract_z
 _atom_site_occupancy
  Y  Y0  1  0.00000000  0.94370000  0.05630000  1.0
  H  H1  1  0.59870000  0.14932000  0.41483000  1.0
  H  H2  1  0.40131000  0.58515000  0.85068000  1.0
  H  H3  1  0.47038000  0.44045000  0.31541000  1.0
  H  H4  1  0.52964000  0.68453000  0.55956000  1.0
  H  H5  1  0.86928000  0.42332000  0.19437000  1.0
  H  H6  1  0.13070000  0.80564000  0.57666000  1.0
  H  H7  1  0.17697000  0.39315000  0.58877000  1.0
  H  H8  1  0.82306000  0.41118000  0.60688000  1.0
  H  H9  1  0.50000000  0.02518000  0.97482000  1.0
  C  C10  1  0.03892000  0.41758000  0.10028000  1.0
  C  C11  1  0.96108000  0.89972000  0.58240000  1.0
  C  C12  1  0.29664000  0.23953000  0.58683000  1.0
  C  C13  1  0.70340000  0.41314000  0.76050000  1.0
  C  C14  1  0.49999000  0.87123000  0.12878000  1.0
  N  N15  1  0.46865000  0.27706000  0.42502000  1.0
  N  N16  1  0.53136000  0.57496000  0.72294000  1.0
  O  O17  1  0.66800000  0.79267000  0.21825000  1.0
  O  O18  1  0.33197000  0.78176000  0.20733000  1.0
  O  O19  1  0.12735000  0.58136000  0.06042000  1.0
  O  O20  1  0.87264000  0.93959000  0.41866000  1.0
  O  O21  1  0.26506000  0.04782000  0.73011000  1.0
  O  O22  1  0.73493000  0.26990000  0.95220000  1.0
  O  O23  1  0.13133000  0.25524000  0.03975000  1.0
  O  O24  1  0.86864000  0.96027000  0.74479000  1.0
