# generated using pymatgen
data_CoPH15C10(NO3)2
_symmetry_space_group_name_H-M   'P 1'
_cell_length_a   7.23769000
_cell_length_b   11.35130000
_cell_length_c   11.35500000
_cell_angle_alpha   63.63310000
_cell_angle_beta   73.76230000
_cell_angle_gamma   73.73250000
_symmetry_Int_Tables_number   1
_chemical_formula_structural   CoPH15C10(NO3)2
_chemical_formula_sum   'Co2 P2 H30 C20 N4 O12'
_cell_volume   789.20719450
_cell_formula_units_Z   2
loop_
 _symmetry_equiv_pos_site_id
 _symmetry_equiv_pos_as_xyz
  1  'x, y, z'
loop_
 _atom_site_type_symbol
 _atom_site_label
 _atom_site_symmetry_multiplicity
 _atom_site_fract_x
 _atom_site_fract_y
 _atom_site_fract_z
 _atom_site_occupancy
  Co  Co0  1  0.26263000  0.27241000  0.32977000  1.0
  Co  Co1  1  0.73710000  0.67029000  0.72762000  1.0
  P  P2  1  0.68108000  0.35592000  0.19523000  1.0
  P  P3  1  0.31853000  0.80491000  0.64381000  1.0
  H  H4  1  0.23833000  0.08257000  0.60742000  1.0
  H  H5  1  0.75931000  0.39275000  0.91790000  1.0
  H  H6  1  0.23992000  0.06301000  0.83142000  1.0
  H  H7  1  0.75783000  0.16864000  0.93736000  1.0
  H  H8  1  0.24579000  0.48812000  0.65574000  1.0
  H  H9  1  0.75818000  0.34378000  0.51152000  1.0
  H  H10  1  0.26434000  0.48488000  0.43675000  1.0
  H  H11  1  0.73980000  0.56285000  0.51469000  1.0
  H  H12  1  0.18127000  0.07173000  0.23272000  1.0
  H  H13  1  0.81868000  0.76710000  0.92823000  1.0
  H  H14  1  0.16245000  0.07241000  0.01880000  1.0
  H  H15  1  0.83817000  0.98099000  0.92752000  1.0
  H  H16  1  0.33425000  0.46100000  0.82313000  1.0
  H  H17  1  0.66535000  0.17709000  0.53929000  1.0
  H  H18  1  0.34533000  0.44286000  0.04425000  1.0
  H  H19  1  0.65358000  0.95607000  0.55742000  1.0
  H  H20  1  0.50455000  0.02854000  0.35540000  1.0
  H  H21  1  0.49527000  0.64433000  0.97141000  1.0
  H  H22  1  0.61356000  0.13695000  0.35617000  1.0
  H  H23  1  0.38625000  0.64387000  0.86283000  1.0
  H  H24  1  0.94984000  0.45950000  0.21923000  1.0
  H  H25  1  0.04950000  0.78095000  0.54032000  1.0
  H  H26  1  0.12428000  0.51851000  0.22170000  1.0
  H  H27  1  0.87397000  0.77907000  0.48186000  1.0
  H  H28  1  0.11048000  0.04248000  0.46323000  1.0
  H  H29  1  0.88950000  0.53661000  0.95752000  1.0
  H  H30  1  0.95224000  0.17061000  0.37930000  1.0
  H  H31  1  0.04757000  0.62068000  0.82945000  1.0
  H  H32  1  0.69848000  0.30605000  0.09748000  1.0
  H  H33  1  0.30115000  0.90280000  0.69353000  1.0
  C  C34  1  0.24230000  0.16966000  0.62240000  1.0
  C  C35  1  0.75693000  0.37759000  0.83060000  1.0
  C  C36  1  0.24077000  0.16044000  0.74837000  1.0
  C  C37  1  0.75850000  0.25158000  0.83979000  1.0
  C  C38  1  0.24475000  0.27421000  0.76606000  1.0
  C  C39  1  0.75594000  0.23382000  0.72581000  1.0
  C  C40  1  0.24953000  0.39388000  0.65072000  1.0
  C  C41  1  0.75276000  0.34900000  0.60593000  1.0
  C  C42  1  0.25621000  0.39372000  0.52728000  1.0
  C  C43  1  0.74626000  0.47245000  0.60608000  1.0
  C  C44  1  0.21434000  0.15631000  0.13921000  1.0
  C  C45  1  0.78549000  0.86069000  0.84373000  1.0
  C  C46  1  0.20467000  0.15770000  0.01802000  1.0
  C  C47  1  0.79560000  0.98182000  0.84235000  1.0
  C  C48  1  0.24692000  0.26793000  0.89817000  1.0
  C  C49  1  0.75329000  0.10175000  0.73220000  1.0
  C  C50  1  0.29714000  0.37219000  0.90995000  1.0
  C  C51  1  0.70248000  0.09017000  0.62808000  1.0
  C  C52  1  0.30208000  0.36372000  0.03457000  1.0
  C  C53  1  0.69725000  0.96557000  0.63650000  1.0
  N  N54  1  0.25317000  0.28313000  0.51197000  1.0
  N  N55  1  0.74764000  0.48789000  0.71691000  1.0
  N  N56  1  0.26192000  0.25801000  0.14893000  1.0
  N  N57  1  0.73755000  0.85109000  0.74210000  1.0
  O  O58  1  0.45886000  0.40337000  0.23226000  1.0
  O  O59  1  0.54078000  0.76773000  0.59665000  1.0
  O  O60  1  0.80202000  0.46784000  0.13064000  1.0
  O  O61  1  0.19774000  0.86934000  0.53182000  1.0
  O  O62  1  0.76156000  0.23240000  0.31231000  1.0
  O  O63  1  0.23816000  0.68791000  0.76738000  1.0
  O  O64  1  0.48898000  0.09696000  0.38852000  1.0
  O  O65  1  0.51085000  0.61141000  0.90286000  1.0
  O  O66  1  0.04009000  0.45279000  0.27744000  1.0
  O  O67  1  0.95897000  0.72292000  0.54704000  1.0
  O  O68  1  0.07104000  0.14202000  0.42222000  1.0
  O  O69  1  0.92887000  0.57774000  0.85805000  1.0
