# generated using pymatgen
data_AgH2C3(NO)3
_symmetry_space_group_name_H-M   'P 1'
_cell_length_a   3.58453000
_cell_length_b   9.57784000
_cell_length_c   15.63920000
_cell_angle_alpha   90.00060000
_cell_angle_beta   90.00150000
_cell_angle_gamma   99.35510000
_symmetry_Int_Tables_number   1
_chemical_formula_structural   AgH2C3(NO)3
_chemical_formula_sum   'Ag4 H8 C12 N12 O12'
_cell_volume   529.78467653
_cell_formula_units_Z   4
loop_
 _symmetry_equiv_pos_site_id
 _symmetry_equiv_pos_as_xyz
  1  'x, y, z'
loop_
 _atom_site_type_symbol
 _atom_site_label
 _atom_site_symmetry_multiplicity
 _atom_site_fract_x
 _atom_site_fract_y
 _atom_site_fract_z
 _atom_site_occupancy
  Ag  Ag0  1  0.75427000  0.67337000  0.42449000  1.0
  Ag  Ag1  1  0.24571000  0.82662000  0.92449000  1.0
  Ag  Ag2  1  0.24573000  0.32663000  0.57551000  1.0
  Ag  Ag3  1  0.75429000  0.17338000  0.07551000  1.0
  H  H4  1  0.42105000  0.46201000  0.06796000  1.0
  H  H5  1  0.57896000  0.03799000  0.56796000  1.0
  H  H6  1  0.57897000  0.53800000  0.93204000  1.0
  H  H7  1  0.42102000  0.96201000  0.43204000  1.0
  H  H8  1  0.50750000  0.52306000  0.17471000  1.0
  H  H9  1  0.49251000  0.97695000  0.67470000  1.0
  H  H10  1  0.49249000  0.47695000  0.82528000  1.0
  H  H11  1  0.50748000  0.02305000  0.32529000  1.0
  C  C12  1  0.92416000  0.76370000  0.14424000  1.0
  C  C13  1  0.07587000  0.73630000  0.64424000  1.0
  C  C14  1  0.07582000  0.23630000  0.85575000  1.0
  C  C15  1  0.92414000  0.26370000  0.35576000  1.0
  C  C16  1  0.11335000  0.89361000  0.11514000  1.0
  C  C17  1  0.88668000  0.60639000  0.61516000  1.0
  C  C18  1  0.88664000  0.10638000  0.88486000  1.0
  C  C19  1  0.11334000  0.39362000  0.38485000  1.0
  C  C20  1  0.75695000  0.65585000  0.08285000  1.0
  C  C21  1  0.24310000  0.84416000  0.58287000  1.0
  C  C22  1  0.24305000  0.34415000  0.91714000  1.0
  C  C23  1  0.75691000  0.15584000  0.41714000  1.0
  N  N24  1  0.90000000  0.74956000  0.23278000  1.0
  N  N25  1  0.10003000  0.75046000  0.73277000  1.0
  N  N26  1  0.10000000  0.25045000  0.76722000  1.0
  N  N27  1  0.89997000  0.24954000  0.26723000  1.0
  N  N28  1  0.25427000  0.00518000  0.08945000  1.0
  N  N29  1  0.74576000  0.49483000  0.58946000  1.0
  N  N30  1  0.74573000  0.99483000  0.91055000  1.0
  N  N31  1  0.25424000  0.50516000  0.41054000  1.0
  N  N32  1  0.54460000  0.53797000  0.11053000  1.0
  N  N33  1  0.45539000  0.96202000  0.61052000  1.0
  N  N34  1  0.45538000  0.46202000  0.88947000  1.0
  N  N35  1  0.54460000  0.03797000  0.38948000  1.0
  O  O36  1  0.70490000  0.64008000  0.26565000  1.0
  O  O37  1  0.29507000  0.85990000  0.76565000  1.0
  O  O38  1  0.29510000  0.35993000  0.73436000  1.0
  O  O39  1  0.70491000  0.14009000  0.23435000  1.0
  O  O40  1  0.07043000  0.84634000  0.27971000  1.0
  O  O41  1  0.92966000  0.65370000  0.77972000  1.0
  O  O42  1  0.92956000  0.15366000  0.72030000  1.0
  O  O43  1  0.07036000  0.34630000  0.22029000  1.0
  O  O44  1  0.81064000  0.67809000  0.00257000  1.0
  O  O45  1  0.18938000  0.82191000  0.50258000  1.0
  O  O46  1  0.18935000  0.32191000  0.99744000  1.0
  O  O47  1  0.81062000  0.17809000  0.49743000  1.0
