# generated using pymatgen
data_Ag2H5C9(NO2)2
_symmetry_space_group_name_H-M   'P 1'
_cell_length_a   6.69589000
_cell_length_b   9.00930000
_cell_length_c   9.41838000
_cell_angle_alpha   63.80100000
_cell_angle_beta   72.34130000
_cell_angle_gamma   78.99510000
_symmetry_Int_Tables_number   1
_chemical_formula_structural   Ag2H5C9(NO2)2
_chemical_formula_sum   'Ag4 H10 C18 N4 O8'
_cell_volume   484.69550820
_cell_formula_units_Z   2
loop_
 _symmetry_equiv_pos_site_id
 _symmetry_equiv_pos_as_xyz
  1  'x, y, z'
loop_
 _atom_site_type_symbol
 _atom_site_label
 _atom_site_symmetry_multiplicity
 _atom_site_fract_x
 _atom_site_fract_y
 _atom_site_fract_z
 _atom_site_occupancy
  Ag  Ag0  1  0.79347000  0.93732000  0.19570000  1.0
  Ag  Ag1  1  0.20653000  0.06268000  0.80430000  1.0
  Ag  Ag2  1  0.74887000  0.62010000  0.48467000  1.0
  Ag  Ag3  1  0.25113000  0.37990000  0.51533000  1.0
  H  H4  1  0.70863000  0.70207000  0.79819000  1.0
  H  H5  1  0.29137000  0.29793000  0.20181000  1.0
  H  H6  1  0.15143000  0.58942000  0.93637000  1.0
  H  H7  1  0.84857000  0.41058000  0.06363000  1.0
  H  H8  1  0.76317000  0.22950000  0.32848000  1.0
  H  H9  1  0.23683000  0.77050000  0.67151000  1.0
  H  H10  1  0.69646000  0.95647000  0.84854000  1.0
  H  H11  1  0.30354000  0.04353000  0.15146000  1.0
  H  H12  1  0.73192000  0.23349000  0.59927000  1.0
  H  H13  1  0.26808000  0.76651000  0.40073000  1.0
  C  C14  1  0.19227000  0.69881000  0.14816000  1.0
  C  C15  1  0.80773000  0.30119000  0.85184000  1.0
  C  C16  1  0.71882000  0.82519000  0.69934000  1.0
  C  C17  1  0.28118000  0.17481000  0.30066000  1.0
  C  C18  1  0.62155000  0.62258000  0.19895000  1.0
  C  C19  1  0.37845000  0.37741000  0.80105000  1.0
  C  C20  1  0.30614000  0.55172000  0.96201000  1.0
  C  C21  1  0.69386000  0.44828000  0.03799000  1.0
  C  C22  1  0.55395000  0.55198000  0.10374000  1.0
  C  C23  1  0.44605000  0.44802000  0.89626000  1.0
  C  C24  1  0.35692000  0.60283000  0.06653000  1.0
  C  C25  1  0.64308000  0.39718000  0.93347000  1.0
  C  C26  1  0.75113000  0.11525000  0.43905000  1.0
  C  C27  1  0.24887000  0.88475000  0.56095000  1.0
  C  C28  1  0.71341000  0.96714000  0.72559000  1.0
  C  C29  1  0.28660000  0.03286000  0.27441000  1.0
  C  C30  1  0.73107000  0.11752000  0.59006000  1.0
  C  C31  1  0.26894000  0.88248000  0.40994000  1.0
  N  N32  1  0.73569000  0.82965000  0.55247000  1.0
  N  N33  1  0.26432000  0.17035000  0.44753000  1.0
  N  N34  1  0.75172000  0.97606000  0.42091000  1.0
  N  N35  1  0.24828000  0.02394000  0.57909000  1.0
  O  O36  1  0.14837000  0.64135000  0.30298000  1.0
  O  O37  1  0.85163000  0.35865000  0.69702000  1.0
  O  O38  1  0.60855000  0.77936000  0.14228000  1.0
  O  O39  1  0.39145000  0.22064000  0.85773000  1.0
  O  O40  1  0.68775000  0.51938000  0.32336000  1.0
  O  O41  1  0.31225000  0.48062000  0.67664000  1.0
  O  O42  1  0.09974000  0.82708000  0.05775000  1.0
  O  O43  1  0.90026000  0.17293000  0.94225000  1.0
