# generated using pymatgen
data_Cd3H8(C6N5)2
_symmetry_space_group_name_H-M   'P 1'
_cell_length_a   13.10160000
_cell_length_b   14.15140000
_cell_length_c   14.27010000
_cell_angle_alpha   90.00000000
_cell_angle_beta   90.00000000
_cell_angle_gamma   105.45000000
_symmetry_Int_Tables_number   1
_chemical_formula_structural   Cd3H8(C6N5)2
_chemical_formula_sum   'Cd12 H32 C48 N40'
_cell_volume   2550.15279156
_cell_formula_units_Z   4
loop_
 _symmetry_equiv_pos_site_id
 _symmetry_equiv_pos_as_xyz
  1  'x, y, z'
loop_
 _atom_site_type_symbol
 _atom_site_label
 _atom_site_symmetry_multiplicity
 _atom_site_fract_x
 _atom_site_fract_y
 _atom_site_fract_z
 _atom_site_occupancy
  Cd  Cd0  1  0.65724000  0.11533000  0.66624000  1.0
  Cd  Cd1  1  0.15723000  0.61534000  0.83376000  1.0
  Cd  Cd2  1  0.34276000  0.88466000  0.33377000  1.0
  Cd  Cd3  1  0.84276000  0.38466000  0.16623000  1.0
  Cd  Cd4  1  0.67934000  0.86062000  0.95427000  1.0
  Cd  Cd5  1  0.17935000  0.36063000  0.54573000  1.0
  Cd  Cd6  1  0.32066000  0.13938000  0.04573000  1.0
  Cd  Cd7  1  0.82065000  0.63937000  0.45427000  1.0
  Cd  Cd8  1  0.79228000  0.00832000  0.31811000  1.0
  Cd  Cd9  1  0.29228000  0.50832000  0.18189000  1.0
  Cd  Cd10  1  0.20772000  0.99168000  0.68189000  1.0
  Cd  Cd11  1  0.70771000  0.49168000  0.81811000  1.0
  H  H12  1  0.48464000  0.94580000  0.85070000  1.0
  H  H13  1  0.98465000  0.44580000  0.64930000  1.0
  H  H14  1  0.51534000  0.05420000  0.14930000  1.0
  H  H15  1  0.01535000  0.55420000  0.35070000  1.0
  H  H16  1  0.29754000  0.91932000  0.91181000  1.0
  H  H17  1  0.79755000  0.41933000  0.58819000  1.0
  H  H18  1  0.70245000  0.08068000  0.08820000  1.0
  H  H19  1  0.20245000  0.58068000  0.41181000  1.0
  H  H20  1  0.26553000  0.81660000  0.06319000  1.0
  H  H21  1  0.76554000  0.31660000  0.43681000  1.0
  H  H22  1  0.73447000  0.18341000  0.93681000  1.0
  H  H23  1  0.23446000  0.68341000  0.56319000  1.0
  H  H24  1  0.45728000  0.77424000  0.09686000  1.0
  H  H25  1  0.95728000  0.27424000  0.40314000  1.0
  H  H26  1  0.54272000  0.22576000  0.90314000  1.0
  H  H27  1  0.04271000  0.72576000  0.59686000  1.0
  H  H28  1  0.01020000  0.95738000  0.41381000  1.0
  H  H29  1  0.51020000  0.45738000  0.08620000  1.0
  H  H30  1  0.98980000  0.04262000  0.58620000  1.0
  H  H31  1  0.48980000  0.54261000  0.91380000  1.0
  H  H32  1  0.19803000  0.06483000  0.40886000  1.0
  H  H33  1  0.69804000  0.56483000  0.09115000  1.0
  H  H34  1  0.80197000  0.93517000  0.59115000  1.0
  H  H35  1  0.30196000  0.43516000  0.90885000  1.0
  H  H36  1  0.21577000  0.21774000  0.30429000  1.0
  H  H37  1  0.71578000  0.71774000  0.19572000  1.0
  H  H38  1  0.78423000  0.78226000  0.69572000  1.0
  H  H39  1  0.28423000  0.28225000  0.80428000  1.0
  H  H40  1  0.01066000  0.19954000  0.24107000  1.0
  H  H41  1  0.51068000  0.69955000  0.25893000  1.0
  H  H42  1  0.98934000  0.80047000  0.75893000  1.0
  H  H43  1  0.48933000  0.30045000  0.74107000  1.0
  C  C44  1  0.73668000  0.08106000  0.54155000  1.0
  C  C45  1  0.23668000  0.58110000  0.95846000  1.0
  C  C46  1  0.26333000  0.91892000  0.45847000  1.0
  C  C47  1  0.76333000  0.41891000  0.04153000  1.0
  C  C48  1  0.70526000  0.26230000  0.72798000  1.0
  C  C49  1  0.20525000  0.76229000  0.77199000  1.0
  C  C50  1  0.29475000  0.73769000  0.27203000  1.0
  C  C51  1  0.79475000  0.23769000  0.22798000  1.0
  C  C52  1  0.48364000  0.06567000  0.67324000  1.0
  C  C53  1  0.98364000  0.56568000  0.82675000  1.0
  C  C54  1  0.51635000  0.93434000  0.32675000  1.0
  C  C55  1  0.01635000  0.43435000  0.17325000  1.0
  C  C56  1  0.71055000  0.96659000  0.83663000  1.0
  C  C57  1  0.21056000  0.46661000  0.66337000  1.0
  C  C58  1  0.28944000  0.03340000  0.16337000  1.0
  C  C59  1  0.78944000  0.53340000  0.33663000  1.0
  C  C60  1  0.75157000  0.91940000  0.08776000  1.0
  C  C61  1  0.25157000  0.41941000  0.41224000  1.0
  C  C62  1  0.24844000  0.08062000  0.91223000  1.0
  C  C63  1  0.74843000  0.58061000  0.58777000  1.0
  C  C64  1  0.68853000  0.71639000  0.90741000  1.0
  C  C65  1  0.18852000  0.21638000  0.59258000  1.0
  C  C66  1  0.31149000  0.28362000  0.09258000  1.0
  C  C67  1  0.81149000  0.78362000  0.40741000  1.0
  C  C68  1  0.45323000  0.90470000  0.91323000  1.0
  C  C69  1  0.95325000  0.40471000  0.58676000  1.0
  C  C70  1  0.54676000  0.09530000  0.08677000  1.0
  C  C71  1  0.04676000  0.59530000  0.41323000  1.0
  C  C72  1  0.33950000  0.83667000  0.02492000  1.0
  C  C73  1  0.83951000  0.33667000  0.47508000  1.0
  C  C74  1  0.66049000  0.16333000  0.97509000  1.0
  C  C75  1  0.16049000  0.66334000  0.52491000  1.0
  C  C76  1  0.43505000  0.81670000  0.04095000  1.0
  C  C77  1  0.93505000  0.31670000  0.45905000  1.0
  C  C78  1  0.56495000  0.18331000  0.95905000  1.0
  C  C79  1  0.06495000  0.68331000  0.54095000  1.0
  C  C80  1  0.03626000  0.02566000  0.37538000  1.0
  C  C81  1  0.53626000  0.52566000  0.12462000  1.0
  C  C82  1  0.96375000  0.97434000  0.62463000  1.0
  C  C83  1  0.46374000  0.47433000  0.87538000  1.0
  C  C84  1  0.14262000  0.16205000  0.31766000  1.0
  C  C85  1  0.64263000  0.66205000  0.18235000  1.0
  C  C86  1  0.85738000  0.83795000  0.68235000  1.0
  C  C87  1  0.35737000  0.33795000  0.81765000  1.0
  C  C88  1  0.04071000  0.15193000  0.28682000  1.0
  C  C89  1  0.54072000  0.65194000  0.21318000  1.0
  C  C90  1  0.95929000  0.84807000  0.71318000  1.0
  C  C91  1  0.45928000  0.34806000  0.78682000  1.0
  N  N92  1  0.77824000  0.05528000  0.47766000  1.0
  N  N93  1  0.27823000  0.55529000  0.02233000  1.0
  N  N94  1  0.22177000  0.94472000  0.52234000  1.0
  N  N95  1  0.72177000  0.44472000  0.97767000  1.0
  N  N96  1  0.71891000  0.33913000  0.76327000  1.0
  N  N97  1  0.21890000  0.83913000  0.73674000  1.0
  N  N98  1  0.28109000  0.66087000  0.23673000  1.0
  N  N99  1  0.78110000  0.16086000  0.26326000  1.0
  N  N100  1  0.39160000  0.04397000  0.68071000  1.0
  N  N101  1  0.89159000  0.54396000  0.81928000  1.0
  N  N102  1  0.60841000  0.95603000  0.31928000  1.0
  N  N103  1  0.10840000  0.45605000  0.18071000  1.0
  N  N104  1  0.70772000  0.01957000  0.77452000  1.0
  N  N105  1  0.20772000  0.51958000  0.72549000  1.0
  N  N106  1  0.29228000  0.98042000  0.22549000  1.0
  N  N107  1  0.79228000  0.48042000  0.27451000  1.0
  N  N108  1  0.78238000  0.95633000  0.15933000  1.0
  N  N109  1  0.28238000  0.45633000  0.34066000  1.0
  N  N110  1  0.21762000  0.04368000  0.84066000  1.0
  N  N111  1  0.71761000  0.54367000  0.65934000  1.0
  N  N112  1  0.69436000  0.64207000  0.87546000  1.0
  N  N113  1  0.19436000  0.14207000  0.62453000  1.0
  N  N114  1  0.30564000  0.35793000  0.12454000  1.0
  N  N115  1  0.80564000  0.85793000  0.37546000  1.0
  N  N116  1  0.50518000  0.85952000  0.97085000  1.0
  N  N117  1  0.00519000  0.35952000  0.52915000  1.0
  N  N118  1  0.49481000  0.14048000  0.02915000  1.0
  N  N119  1  0.99481000  0.64048000  0.47085000  1.0
  N  N120  1  0.35298000  0.89222000  0.94424000  1.0
  N  N121  1  0.85299000  0.39222000  0.55576000  1.0
  N  N122  1  0.64701000  0.10778000  0.05576000  1.0
  N  N123  1  0.14701000  0.60778000  0.44424000  1.0
  N  N124  1  0.97532000  0.06667000  0.32344000  1.0
  N  N125  1  0.47532000  0.56668000  0.17657000  1.0
  N  N126  1  0.02469000  0.93333000  0.67657000  1.0
  N  N127  1  0.52468000  0.43332000  0.82344000  1.0
  N  N128  1  0.13767000  0.08155000  0.37357000  1.0
  N  N129  1  0.63767000  0.58155000  0.12644000  1.0
  N  N130  1  0.86234000  0.91845000  0.62644000  1.0
  N  N131  1  0.36233000  0.41844000  0.87356000  1.0
