# generated using pymatgen
data_CuH7C10INO2
_symmetry_space_group_name_H-M   'P 1'
_cell_length_a   4.23424000
_cell_length_b   14.82620000
_cell_length_c   15.82590000
_cell_angle_alpha   90.00010000
_cell_angle_beta   90.00010000
_cell_angle_gamma   90.90260000
_symmetry_Int_Tables_number   1
_chemical_formula_structural   CuH7C10INO2
_chemical_formula_sum   'Cu4 H28 C40 I4 N4 O8'
_cell_volume   993.39015327
_cell_formula_units_Z   4
loop_
 _symmetry_equiv_pos_site_id
 _symmetry_equiv_pos_as_xyz
  1  'x, y, z'
loop_
 _atom_site_type_symbol
 _atom_site_label
 _atom_site_symmetry_multiplicity
 _atom_site_fract_x
 _atom_site_fract_y
 _atom_site_fract_z
 _atom_site_occupancy
  Cu  Cu0  1  0.32695000  0.98468000  0.06575000  1.0
  Cu  Cu1  1  0.17305000  0.51532000  0.56575000  1.0
  Cu  Cu2  1  0.67305000  0.01532000  0.93425000  1.0
  Cu  Cu3  1  0.82695000  0.48468000  0.43425000  1.0
  H  H4  1  0.89948000  0.04155000  0.44648000  1.0
  H  H5  1  0.60050000  0.45845000  0.94648000  1.0
  H  H6  1  0.10051000  0.95845000  0.55353000  1.0
  H  H7  1  0.39950000  0.54155000  0.05352000  1.0
  H  H8  1  0.09248000  0.00348000  0.23771000  1.0
  H  H9  1  0.40752000  0.49652000  0.73770000  1.0
  H  H10  1  0.90752000  0.99652000  0.76230000  1.0
  H  H11  1  0.59248000  0.50348000  0.26229000  1.0
  H  H12  1  0.53591000  0.80100000  0.39159000  1.0
  H  H13  1  0.96408000  0.69900000  0.89159000  1.0
  H  H14  1  0.46406000  0.19899000  0.60841000  1.0
  H  H15  1  0.03593000  0.30100000  0.10841000  1.0
  H  H16  1  0.86332000  0.68568000  0.31798000  1.0
  H  H17  1  0.63668000  0.81432000  0.81798000  1.0
  H  H18  1  0.13666000  0.31431000  0.68202000  1.0
  H  H19  1  0.36332000  0.18569000  0.18202000  1.0
  H  H20  1  0.08318000  0.62446000  0.18523000  1.0
  H  H21  1  0.41684000  0.87554000  0.68522000  1.0
  H  H22  1  0.91682000  0.37554000  0.81477000  1.0
  H  H23  1  0.58318000  0.12446000  0.31478000  1.0
  H  H24  1  0.96289000  0.69765000  0.04753000  1.0
  H  H25  1  0.53712000  0.80235000  0.54753000  1.0
  H  H26  1  0.03710000  0.30236000  0.95247000  1.0
  H  H27  1  0.46289000  0.19765000  0.45247000  1.0
  H  H28  1  0.62328000  0.83295000  0.04223000  1.0
  H  H29  1  0.87673000  0.66705000  0.54223000  1.0
  H  H30  1  0.37672000  0.16705000  0.95777000  1.0
  H  H31  1  0.12328000  0.33296000  0.45777000  1.0
  C  C32  1  0.24105000  0.94436000  0.24378000  1.0
  C  C33  1  0.25895000  0.55564000  0.74377000  1.0
  C  C34  1  0.75895000  0.05564000  0.75623000  1.0
  C  C35  1  0.74105000  0.44436000  0.25622000  1.0
  C  C36  1  0.30027000  0.90687000  0.32445000  1.0
  C  C37  1  0.19974000  0.59313000  0.82445000  1.0
  C  C38  1  0.69973000  0.09313000  0.67555000  1.0
  C  C39  1  0.80028000  0.40687000  0.17555000  1.0
  C  C40  1  0.48818000  0.83147000  0.33026000  1.0
  C  C41  1  0.01182000  0.66853000  0.83026000  1.0
  C  C42  1  0.51180000  0.16853000  0.66974000  1.0
  C  C43  1  0.98819000  0.33147000  0.16974000  1.0
  C  C44  1  0.61383000  0.79378000  0.25607000  1.0
  C  C45  1  0.88616000  0.70622000  0.75606000  1.0
  C  C46  1  0.38615000  0.20622000  0.74394000  1.0
  C  C47  1  0.11385000  0.29378000  0.24393000  1.0
  C  C48  1  0.54550000  0.83598000  0.17678000  1.0
  C  C49  1  0.95450000  0.66402000  0.67678000  1.0
  C  C50  1  0.45450000  0.16403000  0.82322000  1.0
  C  C51  1  0.04551000  0.33598000  0.32322000  1.0
  C  C52  1  0.80811000  0.71671000  0.25738000  1.0
  C  C53  1  0.69189000  0.78329000  0.75738000  1.0
  C  C54  1  0.19187000  0.28328000  0.74262000  1.0
  C  C55  1  0.30812000  0.21671000  0.24262000  1.0
  C  C56  1  0.92964000  0.68275000  0.18344000  1.0
  C  C57  1  0.57036000  0.81725000  0.68344000  1.0
  C  C58  1  0.07035000  0.31725000  0.81656000  1.0
  C  C59  1  0.42965000  0.18275000  0.31656000  1.0
  C  C60  1  0.86154000  0.72458000  0.10541000  1.0
  C  C61  1  0.63846000  0.77542000  0.60541000  1.0
  C  C62  1  0.13845000  0.27542000  0.89459000  1.0
  C  C63  1  0.36155000  0.22459000  0.39459000  1.0
  C  C64  1  0.67348000  0.79976000  0.10207000  1.0
  C  C65  1  0.82651000  0.70025000  0.60206000  1.0
  C  C66  1  0.32650000  0.20025000  0.89793000  1.0
  C  C67  1  0.17349000  0.29976000  0.39793000  1.0
  C  C68  1  0.16646000  0.94686000  0.40186000  1.0
  C  C69  1  0.33352000  0.55313000  0.90186000  1.0
  C  C70  1  0.83352000  0.05313000  0.59815000  1.0
  C  C71  1  0.66647000  0.44686000  0.09814000  1.0
  I  I72  1  0.17203000  0.90622000  0.92145000  1.0
  I  I73  1  0.32799000  0.59378000  0.42146000  1.0
  I  I74  1  0.82799000  0.09378000  0.07855000  1.0
  I  I75  1  0.67203000  0.40622000  0.57855000  1.0
  N  N76  1  0.35972000  0.91162000  0.17260000  1.0
  N  N77  1  0.14028000  0.58838000  0.67260000  1.0
  N  N78  1  0.64027000  0.08838000  0.82741000  1.0
  N  N79  1  0.85973000  0.41162000  0.32740000  1.0
  O  O80  1  0.97834000  0.01573000  0.38932000  1.0
  O  O81  1  0.52167000  0.48427000  0.88932000  1.0
  O  O82  1  0.02167000  0.98427000  0.61069000  1.0
  O  O83  1  0.47835000  0.51573000  0.11068000  1.0
  O  O84  1  0.23126000  0.91646000  0.47347000  1.0
  O  O85  1  0.26873000  0.58354000  0.97346000  1.0
  O  O86  1  0.76872000  0.08353000  0.52654000  1.0
  O  O87  1  0.73126000  0.41646000  0.02653000  1.0
