# generated using pymatgen
data_GdH24C24(NO2)6
_symmetry_space_group_name_H-M   'P 1'
_cell_length_a   15.89970000
_cell_length_b   15.89970000
_cell_length_c   16.44040000
_cell_angle_alpha   89.99980000
_cell_angle_beta   89.99980000
_cell_angle_gamma   60.00000000
_symmetry_Int_Tables_number   1
_chemical_formula_structural   GdH24C24(NO2)6
_chemical_formula_sum   'Gd4 H96 C96 N24 O48'
_cell_volume   3599.32341407
_cell_formula_units_Z   4
loop_
 _symmetry_equiv_pos_site_id
 _symmetry_equiv_pos_as_xyz
  1  'x, y, z'
loop_
 _atom_site_type_symbol
 _atom_site_label
 _atom_site_symmetry_multiplicity
 _atom_site_fract_x
 _atom_site_fract_y
 _atom_site_fract_z
 _atom_site_occupancy
  Gd  Gd0  1  0.33333333  0.33333333  0.66690000  1.0
  Gd  Gd1  1  0.66666667  0.66666667  0.83310000  1.0
  Gd  Gd2  1  0.66666667  0.66666667  0.33310000  1.0
  Gd  Gd3  1  0.33333333  0.33333333  0.16690000  1.0
  H  H4  1  0.50719000  0.74889000  0.01328000  1.0
  H  H5  1  0.74890000  0.74391000  0.01328000  1.0
  H  H6  1  0.74392000  0.50718000  0.01328000  1.0
  H  H7  1  0.25608000  0.25111000  0.48672000  1.0
  H  H8  1  0.49281000  0.25609000  0.48672000  1.0
  H  H9  1  0.25110000  0.49282000  0.48672000  1.0
  H  H10  1  0.49281000  0.25111000  0.98672000  1.0
  H  H11  1  0.25111000  0.25608000  0.98672000  1.0
  H  H12  1  0.25609000  0.49281000  0.98672000  1.0
  H  H13  1  0.74392000  0.74889000  0.51328000  1.0
  H  H14  1  0.50719000  0.74392000  0.51328000  1.0
  H  H15  1  0.74890000  0.50718000  0.51328000  1.0
  H  H16  1  0.31462000  0.59088000  0.94026000  1.0
  H  H17  1  0.59087000  0.09451000  0.94026000  1.0
  H  H18  1  0.09450000  0.31463000  0.94026000  1.0
  H  H19  1  0.90550000  0.40912000  0.55974000  1.0
  H  H20  1  0.68537000  0.90550000  0.55974000  1.0
  H  H21  1  0.40913000  0.68537000  0.55974000  1.0
  H  H22  1  0.68538000  0.40913000  0.05974000  1.0
  H  H23  1  0.40913000  0.90549000  0.05974000  1.0
  H  H24  1  0.90550000  0.68537000  0.05974000  1.0
  H  H25  1  0.09450000  0.59088000  0.44026000  1.0
  H  H26  1  0.31462000  0.09451000  0.44026000  1.0
  H  H27  1  0.59087000  0.31463000  0.44026000  1.0
  H  H28  1  0.56973000  0.33869000  0.80375000  1.0
  H  H29  1  0.33869000  0.09158000  0.80375000  1.0
  H  H30  1  0.09158000  0.56973000  0.80374000  1.0
  H  H31  1  0.90842000  0.66131000  0.69625000  1.0
  H  H32  1  0.43027000  0.90842000  0.69626000  1.0
  H  H33  1  0.66131000  0.43027000  0.69625000  1.0
  H  H34  1  0.43027000  0.66131000  0.19625000  1.0
  H  H35  1  0.66131000  0.90842000  0.19626000  1.0
  H  H36  1  0.90842000  0.43027000  0.19625000  1.0
  H  H37  1  0.09158000  0.33869000  0.30375000  1.0
  H  H38  1  0.56973000  0.09158000  0.30375000  1.0
  H  H39  1  0.33869000  0.56973000  0.30375000  1.0
  H  H40  1  0.68662000  0.32392000  0.82068000  1.0
  H  H41  1  0.32392000  0.98946000  0.82068000  1.0
  H  H42  1  0.98946000  0.68662000  0.82068000  1.0
  H  H43  1  0.01054000  0.67608000  0.67932000  1.0
  H  H44  1  0.31338000  0.01054000  0.67932000  1.0
  H  H45  1  0.67608000  0.31338000  0.67932000  1.0
  H  H46  1  0.31338000  0.67608000  0.17932000  1.0
  H  H47  1  0.67608000  0.01054000  0.17932000  1.0
  H  H48  1  0.01054000  0.31338000  0.17932000  1.0
  H  H49  1  0.98946000  0.32392000  0.32068000  1.0
  H  H50  1  0.68662000  0.98946000  0.32068000  1.0
  H  H51  1  0.32392000  0.68662000  0.32068000  1.0
  H  H52  1  0.34122000  0.81176000  0.06986000  1.0
  H  H53  1  0.81176000  0.84702000  0.06986000  1.0
  H  H54  1  0.84702000  0.34122000  0.06986000  1.0
  H  H55  1  0.15298000  0.18824000  0.43014000  1.0
  H  H56  1  0.65878000  0.15298000  0.43014000  1.0
  H  H57  1  0.18824000  0.65878000  0.43014000  1.0
  H  H58  1  0.65878000  0.18824000  0.93014000  1.0
  H  H59  1  0.18824000  0.15298000  0.93014000  1.0
  H  H60  1  0.15298000  0.65879000  0.93014000  1.0
  H  H61  1  0.84702000  0.81176000  0.56986000  1.0
  H  H62  1  0.34122000  0.84702000  0.56986000  1.0
  H  H63  1  0.81176000  0.34122000  0.56986000  1.0
  H  H64  1  0.24227000  0.73521000  0.03198000  1.0
  H  H65  1  0.73521000  0.02252000  0.03197000  1.0
  H  H66  1  0.02252000  0.24227000  0.03198000  1.0
  H  H67  1  0.97748000  0.26479000  0.46803000  1.0
  H  H68  1  0.75773000  0.97748000  0.46802000  1.0
  H  H69  1  0.26479000  0.75773000  0.46802000  1.0
  H  H70  1  0.75773000  0.26479000  0.96802000  1.0
  H  H71  1  0.26479000  0.97748000  0.96803000  1.0
  H  H72  1  0.97748000  0.75773000  0.96802000  1.0
  H  H73  1  0.02252000  0.73521000  0.53197000  1.0
  H  H74  1  0.24227000  0.02252000  0.53198000  1.0
  H  H75  1  0.73521000  0.24227000  0.53198000  1.0
  H  H76  1  0.44080000  0.47241000  0.86375000  1.0
  H  H77  1  0.47240000  0.08680000  0.86376000  1.0
  H  H78  1  0.08679000  0.44081000  0.86375000  1.0
  H  H79  1  0.91321000  0.52760000  0.63624000  1.0
  H  H80  1  0.55919000  0.91321000  0.63624000  1.0
  H  H81  1  0.52760000  0.55919000  0.63624000  1.0
  H  H82  1  0.55920000  0.52759000  0.13624000  1.0
  H  H83  1  0.52760000  0.91321000  0.13625000  1.0
  H  H84  1  0.91321000  0.55919000  0.13625000  1.0
  H  H85  1  0.08679000  0.47241000  0.36375000  1.0
  H  H86  1  0.44081000  0.08679000  0.36376000  1.0
  H  H87  1  0.47240000  0.44081000  0.36375000  1.0
  H  H88  1  0.61348000  0.49531000  0.85273000  1.0
  H  H89  1  0.49531000  0.89121000  0.85273000  1.0
  H  H90  1  0.89121000  0.61347000  0.85273000  1.0
  H  H91  1  0.10879000  0.50469000  0.64727000  1.0
  H  H92  1  0.38652000  0.10880000  0.64727000  1.0
  H  H93  1  0.50469000  0.38652000  0.64727000  1.0
  H  H94  1  0.38653000  0.50468000  0.14727000  1.0
  H  H95  1  0.50469000  0.10879000  0.14727000  1.0
  H  H96  1  0.10879000  0.38652000  0.14727000  1.0
  H  H97  1  0.89121000  0.49531000  0.35273000  1.0
  H  H98  1  0.61348000  0.89120000  0.35273000  1.0
  H  H99  1  0.49531000  0.61348000  0.35272000  1.0
  C  C100  1  0.44970000  0.58927000  0.92451000  1.0
  C  C101  1  0.58928000  0.96102000  0.92451000  1.0
  C  C102  1  0.96103000  0.44969000  0.92451000  1.0
  C  C103  1  0.03897000  0.41073000  0.57549000  1.0
  C  C104  1  0.55030000  0.03897000  0.57549000  1.0
  C  C105  1  0.41072000  0.55031000  0.57549000  1.0
  C  C106  1  0.55030000  0.41073000  0.07549000  1.0
  C  C107  1  0.41073000  0.03897000  0.07549000  1.0
  C  C108  1  0.03898000  0.55030000  0.07549000  1.0
  C  C109  1  0.96103000  0.58927000  0.42451000  1.0
  C  C110  1  0.44970000  0.96102000  0.42451000  1.0
  C  C111  1  0.58928000  0.44969000  0.42451000  1.0
  C  C112  1  0.50614000  0.63487000  0.94377000  1.0
  C  C113  1  0.63487000  0.85899000  0.94377000  1.0
  C  C114  1  0.85899000  0.50614000  0.94377000  1.0
  C  C115  1  0.14101000  0.36513000  0.55623000  1.0
  C  C116  1  0.49386000  0.14101000  0.55623000  1.0
  C  C117  1  0.36513000  0.49386000  0.55623000  1.0
  C  C118  1  0.49386000  0.36513000  0.05623000  1.0
  C  C119  1  0.36514000  0.14100000  0.05623000  1.0
  C  C120  1  0.14101000  0.49386000  0.05623000  1.0
  C  C121  1  0.85899000  0.63487000  0.44377000  1.0
  C  C122  1  0.50614000  0.85899000  0.44377000  1.0
  C  C123  1  0.63487000  0.50614000  0.44377000  1.0
  C  C124  1  0.46421000  0.71500000  0.99798000  1.0
  C  C125  1  0.71500000  0.82079000  0.99797000  1.0
  C  C126  1  0.82079000  0.46421000  0.99798000  1.0
  C  C127  1  0.17921000  0.28500000  0.50202000  1.0
  C  C128  1  0.53579000  0.17921000  0.50202000  1.0
  C  C129  1  0.28500000  0.53579000  0.50202000  1.0
  C  C130  1  0.53579000  0.28500000  0.00202000  1.0
  C  C131  1  0.28500000  0.17921000  0.00202000  1.0
  C  C132  1  0.17921000  0.53579000  0.00202000  1.0
  C  C133  1  0.82079000  0.71500000  0.49798000  1.0
  C  C134  1  0.46421000  0.82079000  0.49798000  1.0
  C  C135  1  0.71500000  0.46421000  0.49798000  1.0
  C  C136  1  0.35510000  0.62676000  0.95713000  1.0
  C  C137  1  0.62676000  0.01814000  0.95713000  1.0
  C  C138  1  0.01814000  0.35510000  0.95713000  1.0
  C  C139  1  0.98186000  0.37324000  0.54287000  1.0
  C  C140  1  0.64489000  0.98187000  0.54287000  1.0
  C  C141  1  0.37324000  0.64490000  0.54287000  1.0
  C  C142  1  0.64490000  0.37324000  0.04287000  1.0
  C  C143  1  0.37324000  0.98186000  0.04287000  1.0
  C  C144  1  0.98186000  0.64490000  0.04287000  1.0
  C  C145  1  0.01814000  0.62676000  0.45713000  1.0
  C  C146  1  0.35510000  0.01814000  0.45713000  1.0
  C  C147  1  0.62676000  0.35510000  0.45713000  1.0
  C  C148  1  0.61431000  0.37278000  0.79530000  1.0
  C  C149  1  0.37278000  0.01291000  0.79530000  1.0
  C  C150  1  0.01291000  0.61431000  0.79530000  1.0
  C  C151  1  0.98709000  0.62722000  0.70470000  1.0
  C  C152  1  0.38569000  0.98709000  0.70470000  1.0
  C  C153  1  0.62722000  0.38569000  0.70470000  1.0
  C  C154  1  0.38569000  0.62722000  0.20470000  1.0
  C  C155  1  0.62722000  0.98709000  0.20470000  1.0
  C  C156  1  0.98709000  0.38569000  0.20470000  1.0
  C  C157  1  0.01291000  0.37278000  0.29530000  1.0
  C  C158  1  0.61431000  0.01291000  0.29530000  1.0
  C  C159  1  0.37278000  0.61431000  0.29530000  1.0
  C  C160  1  0.37124000  0.75004000  0.02827000  1.0
  C  C161  1  0.75004000  0.87872000  0.02827000  1.0
  C  C162  1  0.87872000  0.37124000  0.02827000  1.0
  C  C163  1  0.12128000  0.24996000  0.47173000  1.0
  C  C164  1  0.62876000  0.12128000  0.47173000  1.0
  C  C165  1  0.24996000  0.62876000  0.47173000  1.0
  C  C166  1  0.62876000  0.24996000  0.97173000  1.0
  C  C167  1  0.24996000  0.12128000  0.97173000  1.0
  C  C168  1  0.12128000  0.62876000  0.97173000  1.0
  C  C169  1  0.87872000  0.75003000  0.52827000  1.0
  C  C170  1  0.37124000  0.87872000  0.52827000  1.0
  C  C171  1  0.75004000  0.37124000  0.52827000  1.0
  C  C172  1  0.31534000  0.70667000  0.00768000  1.0
  C  C173  1  0.70668000  0.97798000  0.00768000  1.0
  C  C174  1  0.97799000  0.31533000  0.00768000  1.0
  C  C175  1  0.02202000  0.29332000  0.49232000  1.0
  C  C176  1  0.68466000  0.02202000  0.49232000  1.0
  C  C177  1  0.29332000  0.68467000  0.49232000  1.0
  C  C178  1  0.68467000  0.29332000  0.99232000  1.0
  C  C179  1  0.29332000  0.02202000  0.99232000  1.0
  C  C180  1  0.02202000  0.68466000  0.99232000  1.0
  C  C181  1  0.97798000  0.70668000  0.50768000  1.0
  C  C182  1  0.31534000  0.97798000  0.50768000  1.0
  C  C183  1  0.70668000  0.31533000  0.50768000  1.0
  C  C184  1  0.48612000  0.50513000  0.87491000  1.0
  C  C185  1  0.50513000  0.00875000  0.87491000  1.0
  C  C186  1  0.00875000  0.48611000  0.87491000  1.0
  C  C187  1  0.99125000  0.49487000  0.62509000  1.0
  C  C188  1  0.51388000  0.99125000  0.62509000  1.0
  C  C189  1  0.49487000  0.51388000  0.62509000  1.0
  C  C190  1  0.51389000  0.49486000  0.12509000  1.0
  C  C191  1  0.49487000  0.99125000  0.12509000  1.0
  C  C192  1  0.99125000  0.51388000  0.12509000  1.0
  C  C193  1  0.00875000  0.50513000  0.37491000  1.0
  C  C194  1  0.48612000  0.00875000  0.37491000  1.0
  C  C195  1  0.50513000  0.48612000  0.37491000  1.0
  N  N196  1  0.57240000  0.46266000  0.84124000  1.0
  N  N197  1  0.46266000  0.96494000  0.84124000  1.0
  N  N198  1  0.96494000  0.57240000  0.84124000  1.0
  N  N199  1  0.03506000  0.53734000  0.65876000  1.0
  N  N200  1  0.42760000  0.03506000  0.65876000  1.0
  N  N201  1  0.53734000  0.42760000  0.65876000  1.0
  N  N202  1  0.42760000  0.53734000  0.15876000  1.0
  N  N203  1  0.53734000  0.03506000  0.15876000  1.0
  N  N204  1  0.03506000  0.42760000  0.15876000  1.0
  N  N205  1  0.96494000  0.46266000  0.34124000  1.0
  N  N206  1  0.57240000  0.96494000  0.34124000  1.0
  N  N207  1  0.46266000  0.57240000  0.34124000  1.0
  N  N208  1  0.51115000  0.20947000  0.76083000  1.0
  N  N209  1  0.20946000  0.27939000  0.76083000  1.0
  N  N210  1  0.27938000  0.51116000  0.76083000  1.0
  N  N211  1  0.72062000  0.79053000  0.73917000  1.0
  N  N212  1  0.48885000  0.72061000  0.73917000  1.0
  N  N213  1  0.79054000  0.48884000  0.73917000  1.0
  N  N214  1  0.48885000  0.79054000  0.23917000  1.0
  N  N215  1  0.79054000  0.72061000  0.23917000  1.0
  N  N216  1  0.72062000  0.48884000  0.23917000  1.0
  N  N217  1  0.27938000  0.20947000  0.26083000  1.0
  N  N218  1  0.51116000  0.27938000  0.26083000  1.0
  N  N219  1  0.20947000  0.51114000  0.26083000  1.0
  O  O220  1  0.51186000  0.25798000  0.69869000  1.0
  O  O221  1  0.25799000  0.23015000  0.69869000  1.0
  O  O222  1  0.23016000  0.51185000  0.69870000  1.0
  O  O223  1  0.76984000  0.74202000  0.80130000  1.0
  O  O224  1  0.48814000  0.76985000  0.80131000  1.0
  O  O225  1  0.74201000  0.48815000  0.80130000  1.0
  O  O226  1  0.48815000  0.74201000  0.30131000  1.0
  O  O227  1  0.74202000  0.76984000  0.30131000  1.0
  O  O228  1  0.76984000  0.48815000  0.30130000  1.0
  O  O229  1  0.23016000  0.25798000  0.19869000  1.0
  O  O230  1  0.51186000  0.23015000  0.19870000  1.0
  O  O231  1  0.25799000  0.51185000  0.19869000  1.0
  O  O232  1  0.59270000  0.60278000  0.91253000  1.0
  O  O233  1  0.60278000  0.80452000  0.91253000  1.0
  O  O234  1  0.80452000  0.59270000  0.91253000  1.0
  O  O235  1  0.19548000  0.39722000  0.58747000  1.0
  O  O236  1  0.40730000  0.19548000  0.58747000  1.0
  O  O237  1  0.39722000  0.40730000  0.58747000  1.0
  O  O238  1  0.40730000  0.39722000  0.08747000  1.0
  O  O239  1  0.39722000  0.19548000  0.08747000  1.0
  O  O240  1  0.19549000  0.40730000  0.08747000  1.0
  O  O241  1  0.80452000  0.60278000  0.41253000  1.0
  O  O242  1  0.59270000  0.80452000  0.41253000  1.0
  O  O243  1  0.60278000  0.59270000  0.41253000  1.0
  O  O244  1  0.58417000  0.16151000  0.80305000  1.0
  O  O245  1  0.16151000  0.25432000  0.80306000  1.0
  O  O246  1  0.25432000  0.58417000  0.80306000  1.0
  O  O247  1  0.74568000  0.83849000  0.69694000  1.0
  O  O248  1  0.41583000  0.74568000  0.69694000  1.0
  O  O249  1  0.83849000  0.41583000  0.69694000  1.0
  O  O250  1  0.41583000  0.83849000  0.19694000  1.0
  O  O251  1  0.83849000  0.74568000  0.19694000  1.0
  O  O252  1  0.74568000  0.41583000  0.19694000  1.0
  O  O253  1  0.25431000  0.16151000  0.30305000  1.0
  O  O254  1  0.58417000  0.25432000  0.30306000  1.0
  O  O255  1  0.16151000  0.58417000  0.30305000  1.0
  O  O256  1  0.42951000  0.21410000  0.77672000  1.0
  O  O257  1  0.21409000  0.35640000  0.77672000  1.0
  O  O258  1  0.35640000  0.42951000  0.77672000  1.0
  O  O259  1  0.64360000  0.78591000  0.72328000  1.0
  O  O260  1  0.57049000  0.64360000  0.72328000  1.0
  O  O261  1  0.78591000  0.57049000  0.72328000  1.0
  O  O262  1  0.57049000  0.78591000  0.22328000  1.0
  O  O263  1  0.78591000  0.64360000  0.22328000  1.0
  O  O264  1  0.64361000  0.57048000  0.22328000  1.0
  O  O265  1  0.35639000  0.21409000  0.27672000  1.0
  O  O266  1  0.42952000  0.35639000  0.27672000  1.0
  O  O267  1  0.21409000  0.42951000  0.27672000  1.0
