# generated using pymatgen
data_AgH8C9(NO)2
_symmetry_space_group_name_H-M   'P 1'
_cell_length_a   5.77108000
_cell_length_b   8.05773000
_cell_length_c   18.48390000
_cell_angle_alpha   90.48370000
_cell_angle_beta   89.99960000
_cell_angle_gamma   89.99990000
_symmetry_Int_Tables_number   1
_chemical_formula_structural   AgH8C9(NO)2
_chemical_formula_sum   'Ag4 H32 C36 N8 O8'
_cell_volume   859.50407387
_cell_formula_units_Z   4
loop_
 _symmetry_equiv_pos_site_id
 _symmetry_equiv_pos_as_xyz
  1  'x, y, z'
loop_
 _atom_site_type_symbol
 _atom_site_label
 _atom_site_symmetry_multiplicity
 _atom_site_fract_x
 _atom_site_fract_y
 _atom_site_fract_z
 _atom_site_occupancy
  Ag  Ag0  1  0.71499000  0.03491000  0.93187000  1.0
  Ag  Ag1  1  0.78502000  0.53491000  0.43188000  1.0
  Ag  Ag2  1  0.28506000  0.96511000  0.06813000  1.0
  Ag  Ag3  1  0.21498000  0.46509000  0.56812000  1.0
  H  H4  1  0.66395000  0.14659000  0.80650000  1.0
  H  H5  1  0.83604000  0.64656000  0.30650000  1.0
  H  H6  1  0.33605000  0.85342000  0.19351000  1.0
  H  H7  1  0.16393000  0.35342000  0.69350000  1.0
  H  H8  1  0.78635000  0.16179000  0.71884000  1.0
  H  H9  1  0.71364000  0.66177000  0.21885000  1.0
  H  H10  1  0.21362000  0.83821000  0.28116000  1.0
  H  H11  1  0.28635000  0.33821000  0.78116000  1.0
  H  H12  1  0.13930000  0.03347000  0.68659000  1.0
  H  H13  1  0.36068000  0.53347000  0.18661000  1.0
  H  H14  1  0.86064000  0.96651000  0.31340000  1.0
  H  H15  1  0.63931000  0.46653000  0.81340000  1.0
  H  H16  1  0.47397000  0.85537000  0.72442000  1.0
  H  H17  1  0.02602000  0.35535000  0.22444000  1.0
  H  H18  1  0.52599000  0.14463000  0.27556000  1.0
  H  H19  1  0.97397000  0.64463000  0.77556000  1.0
  H  H20  1  0.48256000  0.74751000  0.85252000  1.0
  H  H21  1  0.01748000  0.24749000  0.35254000  1.0
  H  H22  1  0.51748000  0.25250000  0.14746000  1.0
  H  H23  1  0.98254000  0.75249000  0.64746000  1.0
  H  H24  1  0.15810000  0.82166000  0.93498000  1.0
  H  H25  1  0.34194000  0.32163000  0.43499000  1.0
  H  H26  1  0.84197000  0.17837000  0.06501000  1.0
  H  H27  1  0.65806000  0.67834000  0.56501000  1.0
  H  H28  1  0.94659000  0.38347000  0.87603000  1.0
  H  H29  1  0.55342000  0.88347000  0.37603000  1.0
  H  H30  1  0.05341000  0.61652000  0.12397000  1.0
  H  H31  1  0.44657000  0.11654000  0.62397000  1.0
  H  H32  1  0.34771000  0.42081000  0.07092000  1.0
  H  H33  1  0.15228000  0.92083000  0.57092000  1.0
  H  H34  1  0.65229000  0.57919000  0.92908000  1.0
  H  H35  1  0.84772000  0.07919000  0.42909000  1.0
  C  C36  1  0.97367000  0.02283000  0.79075000  1.0
  C  C37  1  0.52637000  0.52283000  0.29077000  1.0
  C  C38  1  0.02633000  0.97717000  0.20924000  1.0
  C  C39  1  0.47366000  0.47717000  0.70924000  1.0
  C  C40  1  0.15264000  0.98353000  0.74094000  1.0
  C  C41  1  0.34736000  0.48351000  0.24095000  1.0
  C  C42  1  0.84735000  0.01647000  0.25905000  1.0
  C  C43  1  0.65265000  0.51647000  0.75906000  1.0
  C  C44  1  0.33550000  0.88563000  0.76238000  1.0
  C  C45  1  0.16449000  0.38560000  0.26240000  1.0
  C  C46  1  0.66447000  0.11438000  0.23761000  1.0
  C  C47  1  0.83550000  0.61437000  0.73761000  1.0
  C  C48  1  0.34204000  0.82551000  0.83359000  1.0
  C  C49  1  0.15795000  0.32549000  0.33361000  1.0
  C  C50  1  0.65797000  0.17450000  0.16639000  1.0
  C  C51  1  0.84204000  0.67449000  0.66639000  1.0
  C  C52  1  0.16161000  0.86649000  0.87953000  1.0
  C  C53  1  0.33842000  0.36648000  0.37953000  1.0
  C  C54  1  0.83843000  0.13352000  0.12046000  1.0
  C  C55  1  0.66158000  0.63351000  0.62046000  1.0
  C  C56  1  0.34232000  0.27405000  0.93934000  1.0
  C  C57  1  0.15769000  0.77404000  0.43934000  1.0
  C  C58  1  0.65769000  0.72597000  0.06066000  1.0
  C  C59  1  0.84232000  0.22596000  0.56067000  1.0
  C  C60  1  0.16470000  0.39026000  0.97052000  1.0
  C  C61  1  0.33530000  0.89025000  0.47053000  1.0
  C  C62  1  0.83532000  0.60974000  0.02948000  1.0
  C  C63  1  0.66470000  0.10975000  0.52949000  1.0
  C  C64  1  0.19374000  0.45568000  0.04052000  1.0
  C  C65  1  0.30625000  0.95569000  0.54052000  1.0
  C  C66  1  0.80628000  0.54432000  0.95948000  1.0
  C  C67  1  0.69373000  0.04432000  0.45949000  1.0
  C  C68  1  0.96921000  0.43550000  0.93017000  1.0
  C  C69  1  0.53078000  0.93551000  0.43018000  1.0
  C  C70  1  0.03080000  0.56449000  0.06982000  1.0
  C  C71  1  0.46919000  0.06451000  0.56983000  1.0
  N  N72  1  0.98080000  0.96261000  0.85942000  1.0
  N  N73  1  0.51921000  0.46258000  0.35943000  1.0
  N  N74  1  0.01922000  0.03741000  0.14058000  1.0
  N  N75  1  0.48078000  0.53740000  0.64057000  1.0
  N  N76  1  0.79516000  0.12056000  0.77111000  1.0
  N  N77  1  0.70486000  0.62055000  0.27112000  1.0
  N  N78  1  0.20483000  0.87943000  0.22889000  1.0
  N  N79  1  0.29514000  0.37945000  0.72888000  1.0
  O  O80  1  0.45725000  0.18765000  0.98592000  1.0
  O  O81  1  0.04276000  0.68765000  0.48592000  1.0
  O  O82  1  0.54278000  0.81237000  0.01408000  1.0
  O  O83  1  0.95723000  0.31236000  0.51408000  1.0
  O  O84  1  0.37372000  0.26605000  0.87199000  1.0
  O  O85  1  0.12628000  0.76605000  0.37200000  1.0
  O  O86  1  0.62629000  0.73396000  0.12801000  1.0
  O  O87  1  0.87372000  0.23396000  0.62801000  1.0
