# generated using pymatgen
data_EuH15(C7O4)3
_symmetry_space_group_name_H-M   'P 1'
_cell_length_a   9.00950000
_cell_length_b   15.30910000
_cell_length_c   15.91740000
_cell_angle_alpha   89.99900000
_cell_angle_beta   89.99960000
_cell_angle_gamma   75.52200000
_symmetry_Int_Tables_number   1
_chemical_formula_structural   EuH15(C7O4)3
_chemical_formula_sum   'Eu4 H60 C84 O48'
_cell_volume   2125.72540562
_cell_formula_units_Z   4
loop_
 _symmetry_equiv_pos_site_id
 _symmetry_equiv_pos_as_xyz
  1  'x, y, z'
loop_
 _atom_site_type_symbol
 _atom_site_label
 _atom_site_symmetry_multiplicity
 _atom_site_fract_x
 _atom_site_fract_y
 _atom_site_fract_z
 _atom_site_occupancy
  Eu  Eu0  1  0.43434000  0.95055000  0.89612000  1.0
  Eu  Eu1  1  0.06566000  0.04945000  0.39612000  1.0
  Eu  Eu2  1  0.56566000  0.04945000  0.10388000  1.0
  Eu  Eu3  1  0.93434000  0.95055000  0.60388000  1.0
  H  H4  1  0.98384000  0.13773000  0.97501000  1.0
  H  H5  1  0.51615000  0.86227000  0.47501000  1.0
  H  H6  1  0.01615000  0.86227000  0.02499000  1.0
  H  H7  1  0.48385000  0.13773000  0.52499000  1.0
  H  H8  1  0.95583000  0.08567000  0.07116000  1.0
  H  H9  1  0.54418000  0.91433000  0.57116000  1.0
  H  H10  1  0.04417000  0.91433000  0.92884000  1.0
  H  H11  1  0.45582000  0.08567000  0.42884000  1.0
  H  H12  1  0.15221000  0.20912000  0.93108000  1.0
  H  H13  1  0.34778000  0.79088000  0.43108000  1.0
  H  H14  1  0.84779000  0.79088000  0.06892000  1.0
  H  H15  1  0.65221000  0.20912000  0.56892000  1.0
  H  H16  1  0.25512000  0.33395000  0.88459000  1.0
  H  H17  1  0.24487000  0.66605000  0.38459000  1.0
  H  H18  1  0.74488000  0.66605000  0.11541000  1.0
  H  H19  1  0.75513000  0.33395000  0.61541000  1.0
  H  H20  1  0.12196000  0.47193000  0.11949000  1.0
  H  H21  1  0.37804000  0.52807000  0.61949000  1.0
  H  H22  1  0.87804000  0.52807000  0.88051000  1.0
  H  H23  1  0.62196000  0.47193000  0.38051000  1.0
  H  H24  1  0.01232000  0.34933000  0.16449000  1.0
  H  H25  1  0.48768000  0.65067000  0.66449000  1.0
  H  H26  1  0.98768000  0.65067000  0.83551000  1.0
  H  H27  1  0.51232000  0.34933000  0.33551000  1.0
  H  H28  1  0.12770000  0.58766000  0.05578000  1.0
  H  H29  1  0.37230000  0.41234000  0.55577000  1.0
  H  H30  1  0.87230000  0.41234000  0.94423000  1.0
  H  H31  1  0.62769000  0.58766000  0.44423000  1.0
  H  H32  1  0.67835000  0.63025000  0.75487000  1.0
  H  H33  1  0.82165000  0.36975000  0.25487000  1.0
  H  H34  1  0.32165000  0.36975000  0.24513000  1.0
  H  H35  1  0.17835000  0.63025000  0.74513000  1.0
  H  H36  1  0.58335000  0.49431000  0.78709000  1.0
  H  H37  1  0.91665000  0.50569000  0.28709000  1.0
  H  H38  1  0.41665000  0.50569000  0.21291000  1.0
  H  H39  1  0.08335000  0.49431000  0.71291000  1.0
  H  H40  1  0.45200000  0.72188000  0.07217000  1.0
  H  H41  1  0.04800000  0.27812000  0.57217000  1.0
  H  H42  1  0.54800000  0.27812000  0.92783000  1.0
  H  H43  1  0.95200000  0.72188000  0.42784000  1.0
  H  H44  1  0.26627000  0.79849000  0.07158000  1.0
  H  H45  1  0.23373000  0.20151000  0.57158000  1.0
  H  H46  1  0.73373000  0.20151000  0.92842000  1.0
  H  H47  1  0.76627000  0.79849000  0.42842000  1.0
  H  H48  1  0.64756000  0.75767000  0.70956000  1.0
  H  H49  1  0.85244000  0.24233000  0.20956000  1.0
  H  H50  1  0.35244000  0.24233000  0.29044000  1.0
  H  H51  1  0.14756000  0.75767000  0.79044000  1.0
  H  H52  1  0.79631000  0.76424000  0.78318000  1.0
  H  H53  1  0.70369000  0.23576000  0.28318000  1.0
  H  H54  1  0.20369000  0.23576000  0.21682000  1.0
  H  H55  1  0.29631000  0.76424000  0.71682000  1.0
  H  H56  1  0.21580000  0.08467000  0.77258000  1.0
  H  H57  1  0.28420000  0.91533000  0.27258000  1.0
  H  H58  1  0.78420000  0.91533000  0.22742000  1.0
  H  H59  1  0.71580000  0.08467000  0.72742000  1.0
  H  H60  1  0.36625000  0.11441000  0.80159000  1.0
  H  H61  1  0.13375000  0.88559000  0.30159000  1.0
  H  H62  1  0.63375000  0.88559000  0.19841000  1.0
  H  H63  1  0.86624000  0.11441000  0.69841000  1.0
  C  C64  1  0.19238000  0.06693000  0.03539000  1.0
  C  C65  1  0.30762000  0.93307000  0.53539000  1.0
  C  C66  1  0.80761000  0.93307000  0.96461000  1.0
  C  C67  1  0.69238000  0.06693000  0.46461000  1.0
  C  C68  1  0.02735000  0.12414000  0.03954000  1.0
  C  C69  1  0.47265000  0.87585000  0.53954000  1.0
  C  C70  1  0.97265000  0.87586000  0.96046000  1.0
  C  C71  1  0.52735000  0.12414000  0.46046000  1.0
  C  C72  1  0.07403000  0.27046000  0.05224000  1.0
  C  C73  1  0.42597000  0.72954000  0.55224000  1.0
  C  C74  1  0.92597000  0.72954000  0.94776000  1.0
  C  C75  1  0.57403000  0.27046000  0.44776000  1.0
  C  C76  1  0.14213000  0.26676000  0.97283000  1.0
  C  C77  1  0.35787000  0.73324000  0.47283000  1.0
  C  C78  1  0.85787000  0.73324000  0.02717000  1.0
  C  C79  1  0.64213000  0.26676000  0.52717000  1.0
  C  C80  1  0.20182000  0.33810000  0.94621000  1.0
  C  C81  1  0.29818000  0.66190000  0.44620000  1.0
  C  C82  1  0.79818000  0.66190000  0.05379000  1.0
  C  C83  1  0.70182000  0.33810000  0.55380000  1.0
  C  C84  1  0.19796000  0.41384000  0.99735000  1.0
  C  C85  1  0.30204000  0.58616000  0.49735000  1.0
  C  C86  1  0.80204000  0.58616000  0.00265000  1.0
  C  C87  1  0.69796000  0.41384000  0.50265000  1.0
  C  C88  1  0.12720000  0.41590000  0.07646000  1.0
  C  C89  1  0.37280000  0.58410000  0.57646000  1.0
  C  C90  1  0.87280000  0.58410000  0.92354000  1.0
  C  C91  1  0.62720000  0.41590000  0.42354000  1.0
  C  C92  1  0.06568000  0.34634000  0.10296000  1.0
  C  C93  1  0.43431000  0.65366000  0.60296000  1.0
  C  C94  1  0.93432000  0.65366000  0.89704000  1.0
  C  C95  1  0.56569000  0.34634000  0.39704000  1.0
  C  C96  1  0.38170000  0.47758000  0.90507000  1.0
  C  C97  1  0.11830000  0.52242000  0.40507000  1.0
  C  C98  1  0.61830000  0.52242000  0.09493000  1.0
  C  C99  1  0.88170000  0.47758000  0.59493000  1.0
  C  C100  1  0.26461000  0.48833000  0.97092000  1.0
  C  C101  1  0.23539000  0.51167000  0.47092000  1.0
  C  C102  1  0.73539000  0.51167000  0.02908000  1.0
  C  C103  1  0.76461000  0.48833000  0.52908000  1.0
  C  C104  1  0.21727000  0.57100000  0.00838000  1.0
  C  C105  1  0.28273000  0.42899000  0.50838000  1.0
  C  C106  1  0.78273000  0.42900000  0.99162000  1.0
  C  C107  1  0.71727000  0.57101000  0.49162000  1.0
  C  C108  1  0.37871000  0.63933000  0.93083000  1.0
  C  C109  1  0.12129000  0.36067000  0.43083000  1.0
  C  C110  1  0.62129000  0.36067000  0.06917000  1.0
  C  C111  1  0.87871000  0.63933000  0.56917000  1.0
  C  C112  1  0.43278000  0.71651000  0.91549000  1.0
  C  C113  1  0.06722000  0.28349000  0.41548000  1.0
  C  C114  1  0.56722000  0.28349000  0.08452000  1.0
  C  C115  1  0.93278000  0.71651000  0.58452000  1.0
  C  C116  1  0.53500000  0.71346000  0.84834000  1.0
  C  C117  1  0.96500000  0.28654000  0.34834000  1.0
  C  C118  1  0.46500000  0.28654000  0.15166000  1.0
  C  C119  1  0.03500000  0.71346000  0.65166000  1.0
  C  C120  1  0.59064000  0.63354000  0.80250000  1.0
  C  C121  1  0.90936000  0.36646000  0.30250000  1.0
  C  C122  1  0.40936000  0.36646000  0.19750000  1.0
  C  C123  1  0.09064000  0.63354000  0.69750000  1.0
  C  C124  1  0.53969000  0.55759000  0.82067000  1.0
  C  C125  1  0.96031000  0.44241000  0.32067000  1.0
  C  C126  1  0.46031000  0.44241000  0.17933000  1.0
  C  C127  1  0.03969000  0.55759000  0.67933000  1.0
  C  C128  1  0.43173000  0.55942000  0.88444000  1.0
  C  C129  1  0.06827000  0.44058000  0.38444000  1.0
  C  C130  1  0.56827000  0.44058000  0.11556000  1.0
  C  C131  1  0.93173000  0.55942000  0.61556000  1.0
  C  C132  1  0.38576000  0.78874000  0.05123000  1.0
  C  C133  1  0.11424000  0.21126000  0.55123000  1.0
  C  C134  1  0.61424000  0.21126000  0.94877000  1.0
  C  C135  1  0.88576000  0.78874000  0.44877000  1.0
  C  C136  1  0.45266000  0.85931000  0.09294000  1.0
  C  C137  1  0.04734000  0.14069000  0.59294000  1.0
  C  C138  1  0.54734000  0.14069000  0.90706000  1.0
  C  C139  1  0.95266000  0.85931000  0.40706000  1.0
  C  C140  1  0.67769000  0.79405000  0.76386000  1.0
  C  C141  1  0.82231000  0.20595000  0.26386000  1.0
  C  C142  1  0.32231000  0.20595000  0.23614000  1.0
  C  C143  1  0.17769000  0.79405000  0.73614000  1.0
  C  C144  1  0.66015000  0.89046000  0.73498000  1.0
  C  C145  1  0.83986000  0.10954000  0.23499000  1.0
  C  C146  1  0.33985000  0.10954000  0.26502000  1.0
  C  C147  1  0.16015000  0.89046000  0.76501000  1.0
  O  O148  1  0.21583000  0.00483000  0.98010000  1.0
  O  O149  1  0.28417000  0.99517000  0.48010000  1.0
  O  O150  1  0.78417000  0.99517000  0.01990000  1.0
  O  O151  1  0.71583000  0.00483000  0.51990000  1.0
  O  O152  1  0.28988000  0.08446000  0.08532000  1.0
  O  O153  1  0.21012000  0.91554000  0.58532000  1.0
  O  O154  1  0.71012000  0.91555000  0.91468000  1.0
  O  O155  1  0.78987000  0.08445000  0.41468000  1.0
  O  O156  1  0.01063000  0.20593000  0.08589000  1.0
  O  O157  1  0.48937000  0.79407000  0.58589000  1.0
  O  O158  1  0.98937000  0.79407000  0.91411000  1.0
  O  O159  1  0.51063000  0.20593000  0.41411000  1.0
  O  O160  1  0.43898000  0.40514000  0.86794000  1.0
  O  O161  1  0.06102000  0.59486000  0.36794000  1.0
  O  O162  1  0.56103000  0.59486000  0.13206000  1.0
  O  O163  1  0.93898000  0.40514000  0.63206000  1.0
  O  O164  1  0.27192000  0.64412000  0.99280000  1.0
  O  O165  1  0.22808000  0.35588000  0.49280000  1.0
  O  O166  1  0.72808000  0.35588000  0.00720000  1.0
  O  O167  1  0.77192000  0.64412000  0.50720000  1.0
  O  O168  1  0.39013000  0.79572000  0.96015000  1.0
  O  O169  1  0.10987000  0.20428000  0.46015000  1.0
  O  O170  1  0.60987000  0.20428000  0.03985000  1.0
  O  O171  1  0.89012000  0.79572000  0.53985000  1.0
  O  O172  1  0.45531000  0.85831000  0.17148000  1.0
  O  O173  1  0.04468000  0.14169000  0.67148000  1.0
  O  O174  1  0.54469000  0.14169000  0.82852000  1.0
  O  O175  1  0.95532000  0.85831000  0.32852000  1.0
  O  O176  1  0.50438000  0.91388000  0.04569000  1.0
  O  O177  1  0.99562000  0.08612000  0.54570000  1.0
  O  O178  1  0.49562000  0.08612000  0.95431000  1.0
  O  O179  1  0.00438000  0.91388000  0.45430000  1.0
  O  O180  1  0.57580000  0.79186000  0.83299000  1.0
  O  O181  1  0.92421000  0.20814000  0.33299000  1.0
  O  O182  1  0.42421000  0.20814000  0.16701000  1.0
  O  O183  1  0.07579000  0.79186000  0.66701000  1.0
  O  O184  1  0.75759000  0.89840000  0.68031000  1.0
  O  O185  1  0.74240000  0.10160000  0.18031000  1.0
  O  O186  1  0.24241000  0.10160000  0.31969000  1.0
  O  O187  1  0.25760000  0.89840000  0.81969000  1.0
  O  O188  1  0.55153000  0.95265000  0.76228000  1.0
  O  O189  1  0.94847000  0.04735000  0.26227000  1.0
  O  O190  1  0.44847000  0.04735000  0.23772000  1.0
  O  O191  1  0.05153000  0.95265000  0.73772000  1.0
  O  O192  1  0.28375000  0.08644000  0.82017000  1.0
  O  O193  1  0.21625000  0.91356000  0.32017000  1.0
  O  O194  1  0.71625000  0.91356000  0.17983000  1.0
  O  O195  1  0.78375000  0.08644000  0.67983000  1.0
