# generated using pymatgen
data_Zn4H21C36O15F
_symmetry_space_group_name_H-M   'P 1'
_cell_length_a   15.19300000
_cell_length_b   15.21880000
_cell_length_c   15.93000000
_cell_angle_alpha   90.30290000
_cell_angle_beta   89.99090000
_cell_angle_gamma   89.54430000
_symmetry_Int_Tables_number   1
_chemical_formula_structural   Zn4H21C36O15F
_chemical_formula_sum   'Zn4 H21 C36 O15 F1'
_cell_volume   3683.15426633
_cell_formula_units_Z   1
loop_
 _symmetry_equiv_pos_site_id
 _symmetry_equiv_pos_as_xyz
  1  'x, y, z'
loop_
 _atom_site_type_symbol
 _atom_site_label
 _atom_site_symmetry_multiplicity
 _atom_site_fract_x
 _atom_site_fract_y
 _atom_site_fract_z
 _atom_site_occupancy
  Zn  Zn0  1  0.56701000  0.57719000  0.57438000  1.0
  Zn  Zn1  1  0.58203000  0.43128000  0.43141000  1.0
  Zn  Zn2  1  0.41744000  0.57530000  0.43569000  1.0
  Zn  Zn3  1  0.42625000  0.41525000  0.56083000  1.0
  H  H4  1  0.43315000  0.43450000  0.00539000  1.0
  H  H5  1  0.61483000  0.85212000  0.50729000  1.0
  H  H6  1  0.85445000  0.38840000  0.47000000  1.0
  H  H7  1  0.67600000  0.60744000  0.08376000  1.0
  H  H8  1  0.58920000  0.68739000  0.08376000  1.0
  H  H9  1  0.64584000  0.74767000  0.94708000  1.0
  H  H10  1  0.72867000  0.75136000  0.02612000  1.0
  H  H11  1  0.73249000  0.66807000  0.94722000  1.0
  H  H12  1  0.66813000  0.18232000  0.34332000  1.0
  H  H13  1  0.74830000  0.10115000  0.37241000  1.0
  H  H14  1  0.84715000  0.22350000  0.42481000  1.0
  H  H15  1  0.83355000  0.65845000  0.54845000  1.0
  H  H16  1  0.82341000  0.23351000  0.31569000  1.0
  H  H17  1  0.76741000  0.30211000  0.38977000  1.0
  H  H18  1  0.00174000  0.31795000  0.45445000  1.0
  H  H19  1  0.99683000  0.67347000  0.54159000  1.0
  H  H20  1  0.16542000  0.32944000  0.45892000  1.0
  H  H21  1  0.14454000  0.60658000  0.51114000  1.0
  H  H22  1  0.39442000  0.14725000  0.51487000  1.0
  H  H23  1  0.68671000  0.99898000  0.48642000  1.0
  H  H24  1  0.33115000  0.83850000  0.51705000  1.0
  C  C25  1  0.52251000  0.26141000  0.49094000  1.0
  C  C26  1  0.54640000  0.97822000  0.50269000  1.0
  C  C27  1  0.46216000  0.02146000  0.50836000  1.0
  C  C28  1  0.48060000  0.73847000  0.51231000  1.0
  C  C29  1  0.45761000  0.11403000  0.50662000  1.0
  C  C30  1  0.61574000  0.12077000  0.48337000  1.0
  C  C31  1  0.62205000  0.03046000  0.49047000  1.0
  C  C32  1  0.83511000  0.52240000  0.50765000  1.0
  C  C33  1  0.16354000  0.46951000  0.48455000  1.0
  C  C34  1  0.03327000  0.38058000  0.46835000  1.0
  C  C35  1  0.12357000  0.38683000  0.46995000  1.0
  C  C36  1  0.47945000  0.48374000  0.88713000  1.0
  C  C37  1  0.11257000  0.54362000  0.50024000  1.0
  C  C38  1  0.01976000  0.53795000  0.50424000  1.0
  C  C39  1  0.97919000  0.45513000  0.48580000  1.0
  C  C40  1  0.73735000  0.51471000  0.50784000  1.0
  C  C41  1  0.88634000  0.45013000  0.48600000  1.0
  C  C42  1  0.87538000  0.60324000  0.52978000  1.0
  C  C43  1  0.96553000  0.61103000  0.52647000  1.0
  C  C44  1  0.26133000  0.47697000  0.48520000  1.0
  C  C45  1  0.51011000  0.51942000  0.27964000  1.0
  C  C46  1  0.48411000  0.49237000  0.72109000  1.0
  C  C47  1  0.52105000  0.53017000  0.11304000  1.0
  C  C48  1  0.51567000  0.52675000  0.18926000  1.0
  C  C49  1  0.52698000  0.53448000  0.02447000  1.0
  C  C50  1  0.47682000  0.48066000  0.97441000  1.0
  C  C51  1  0.63421000  0.64894000  0.04342000  1.0
  C  C52  1  0.68839000  0.70734000  0.98735000  1.0
  C  C53  1  0.72309000  0.16789000  0.38641000  1.0
  C  C54  1  0.79454000  0.23597000  0.37893000  1.0
  C  C55  1  0.48116000  0.48715000  0.81048000  1.0
  C  C56  1  0.53239000  0.16361000  0.49326000  1.0
  C  C57  1  0.47490000  0.83644000  0.51335000  1.0
  C  C58  1  0.38669000  0.96760000  0.51494000  1.0
  C  C59  1  0.39078000  0.87765000  0.51505000  1.0
  C  C60  1  0.55104000  0.88543000  0.50865000  1.0
  O  O61  1  0.49873000  0.50028000  0.49903000  1.0
  O  O62  1  0.56649000  0.46802000  0.31289000  1.0
  O  O63  1  0.43056000  0.44326000  0.68042000  1.0
  O  O64  1  0.44979000  0.56481000  0.31517000  1.0
  O  O65  1  0.54010000  0.54599000  0.69017000  1.0
  O  O66  1  0.58248000  0.59253000  0.98885000  1.0
  O  O67  1  0.69005000  0.17021000  0.47183000  1.0
  O  O68  1  0.69423000  0.57078000  0.55152000  1.0
  O  O69  1  0.30493000  0.41302000  0.51656000  1.0
  O  O70  1  0.56574000  0.30349000  0.43565000  1.0
  O  O71  1  0.41987000  0.69873000  0.47209000  1.0
  O  O72  1  0.46928000  0.29430000  0.54465000  1.0
  O  O73  1  0.54536000  0.70287000  0.55030000  1.0
  O  O74  1  0.70450000  0.45243000  0.46383000  1.0
  O  O75  1  0.29342000  0.54730000  0.45480000  1.0
  F  F76  1  0.30648000  0.00839000  0.51955000  1.0
