# generated using pymatgen
data_HgH28C28I2(NO)2
_symmetry_space_group_name_H-M   'P 1'
_cell_length_a   6.96988000
_cell_length_b   13.94570000
_cell_length_c   14.36300000
_cell_angle_alpha   90.00000000
_cell_angle_beta   90.00000000
_cell_angle_gamma   90.00000000
_symmetry_Int_Tables_number   1
_chemical_formula_structural   HgH28C28I2(NO)2
_chemical_formula_sum   'Hg2 H56 C56 I4 N4 O4'
_cell_volume   1396.08152478
_cell_formula_units_Z   2
loop_
 _symmetry_equiv_pos_site_id
 _symmetry_equiv_pos_as_xyz
  1  'x, y, z'
loop_
 _atom_site_type_symbol
 _atom_site_label
 _atom_site_symmetry_multiplicity
 _atom_site_fract_x
 _atom_site_fract_y
 _atom_site_fract_z
 _atom_site_occupancy
  Hg  Hg0  1  0.76041000  0.00000000  0.00000000  1.0
  Hg  Hg1  1  0.23959000  0.50000000  0.50000000  1.0
  H  H2  1  0.84577000  0.01764000  0.78008000  1.0
  H  H3  1  0.84576000  0.98235000  0.21991000  1.0
  H  H4  1  0.15424000  0.48236000  0.28009000  1.0
  H  H5  1  0.15424000  0.51765000  0.71991000  1.0
  H  H6  1  0.09821000  0.99794000  0.65941000  1.0
  H  H7  1  0.09821000  0.00205000  0.34059000  1.0
  H  H8  1  0.90179000  0.50205000  0.15941000  1.0
  H  H9  1  0.90179000  0.49795000  0.84059000  1.0
  H  H10  1  0.46586000  0.88313000  0.87509000  1.0
  H  H11  1  0.46585000  0.11687000  0.12492000  1.0
  H  H12  1  0.53415000  0.61688000  0.37508000  1.0
  H  H13  1  0.53414000  0.38313000  0.62492000  1.0
  H  H14  1  0.19830000  0.90147000  0.98395000  1.0
  H  H15  1  0.19830000  0.09853000  0.01605000  1.0
  H  H16  1  0.80170000  0.59853000  0.48395000  1.0
  H  H17  1  0.80169000  0.40147000  0.51605000  1.0
  H  H18  1  0.59084000  0.80946000  0.76190000  1.0
  H  H19  1  0.59084000  0.19054000  0.23811000  1.0
  H  H20  1  0.40916000  0.69054000  0.26190000  1.0
  H  H21  1  0.40916000  0.30946000  0.73810000  1.0
  H  H22  1  0.85857000  0.72073000  0.72076000  1.0
  H  H23  1  0.85857000  0.27927000  0.27924000  1.0
  H  H24  1  0.14144000  0.77927000  0.22076000  1.0
  H  H25  1  0.14144000  0.22073000  0.77924000  1.0
  H  H26  1  0.04024000  0.78683000  0.66198000  1.0
  H  H27  1  0.04024000  0.21317000  0.33802000  1.0
  H  H28  1  0.95975000  0.71317000  0.16198000  1.0
  H  H29  1  0.95976000  0.28683000  0.83802000  1.0
  H  H30  1  0.89483000  0.70685000  0.59932000  1.0
  H  H31  1  0.89483000  0.29315000  0.40068000  1.0
  H  H32  1  0.10518000  0.79315000  0.09931000  1.0
  H  H33  1  0.10518000  0.20685000  0.90068000  1.0
  H  H34  1  0.90430000  0.91812000  0.42460000  1.0
  H  H35  1  0.90431000  0.08187000  0.57540000  1.0
  H  H36  1  0.09570000  0.58188000  0.92461000  1.0
  H  H37  1  0.09570000  0.41812000  0.07540000  1.0
  H  H38  1  0.90952000  0.79715000  0.46347000  1.0
  H  H39  1  0.90952000  0.20284000  0.53652000  1.0
  H  H40  1  0.09047000  0.70284000  0.96348000  1.0
  H  H41  1  0.09047000  0.29716000  0.03653000  1.0
  H  H42  1  0.06312000  0.88246000  0.51474000  1.0
  H  H43  1  0.06312000  0.11754000  0.48525000  1.0
  H  H44  1  0.93688000  0.61754000  0.01475000  1.0
  H  H45  1  0.93688000  0.38246000  0.98525000  1.0
  H  H46  1  0.30233000  0.20083000  0.61499000  1.0
  H  H47  1  0.30233000  0.79917000  0.38501000  1.0
  H  H48  1  0.69767000  0.29917000  0.11499000  1.0
  H  H49  1  0.69767000  0.70083000  0.88501000  1.0
  H  H50  1  0.55221000  0.17473000  0.60273000  1.0
  H  H51  1  0.55221000  0.82527000  0.39727000  1.0
  H  H52  1  0.44779000  0.32527000  0.10273000  1.0
  H  H53  1  0.44780000  0.67473000  0.89727000  1.0
  H  H54  1  0.42986000  0.14153000  0.70834000  1.0
  H  H55  1  0.42986000  0.85847000  0.29166000  1.0
  H  H56  1  0.57014000  0.35847000  0.20834000  1.0
  H  H57  1  0.57014000  0.64153000  0.79166000  1.0
  C  C58  1  0.98520000  0.98693000  0.79768000  1.0
  C  C59  1  0.98520000  0.01307000  0.20232000  1.0
  C  C60  1  0.01480000  0.51307000  0.29769000  1.0
  C  C61  1  0.01480000  0.48693000  0.70232000  1.0
  C  C62  1  0.12743000  0.97689000  0.73075000  1.0
  C  C63  1  0.12742000  0.02311000  0.26925000  1.0
  C  C64  1  0.87258000  0.52311000  0.23075000  1.0
  C  C65  1  0.87257000  0.47689000  0.76925000  1.0
  C  C66  1  0.30833000  0.93989000  0.75550000  1.0
  C  C67  1  0.30833000  0.06011000  0.24450000  1.0
  C  C68  1  0.69167000  0.56011000  0.25550000  1.0
  C  C69  1  0.69167000  0.43989000  0.74450000  1.0
  C  C70  1  0.33067000  0.91168000  0.84895000  1.0
  C  C71  1  0.33066000  0.08833000  0.15105000  1.0
  C  C72  1  0.66933000  0.58832000  0.34895000  1.0
  C  C73  1  0.66933000  0.41168000  0.65105000  1.0
  C  C74  1  0.18012000  0.92238000  0.91125000  1.0
  C  C75  1  0.18011000  0.07761000  0.08875000  1.0
  C  C76  1  0.81989000  0.57762000  0.41125000  1.0
  C  C77  1  0.81988000  0.42238000  0.58875000  1.0
  C  C78  1  0.46596000  0.92827000  0.68794000  1.0
  C  C79  1  0.46596000  0.07173000  0.31206000  1.0
  C  C80  1  0.53404000  0.57173000  0.18794000  1.0
  C  C81  1  0.53404000  0.42827000  0.81206000  1.0
  C  C82  1  0.48599000  0.98572000  0.60790000  1.0
  C  C83  1  0.48599000  0.01428000  0.39210000  1.0
  C  C84  1  0.51400000  0.51428000  0.10790000  1.0
  C  C85  1  0.51400000  0.48573000  0.89210000  1.0
  C  C86  1  0.63278000  0.96923000  0.54259000  1.0
  C  C87  1  0.63278000  0.03077000  0.45740000  1.0
  C  C88  1  0.36722000  0.53077000  0.04259000  1.0
  C  C89  1  0.36722000  0.46923000  0.95741000  1.0
  C  C90  1  0.76542000  0.89451000  0.55676000  1.0
  C  C91  1  0.76542000  0.10548000  0.44323000  1.0
  C  C92  1  0.23458000  0.60548000  0.05677000  1.0
  C  C93  1  0.23458000  0.39452000  0.94324000  1.0
  C  C94  1  0.75171000  0.83825000  0.63843000  1.0
  C  C95  1  0.75171000  0.16175000  0.36157000  1.0
  C  C96  1  0.24829000  0.66175000  0.13843000  1.0
  C  C97  1  0.24829000  0.33825000  0.86157000  1.0
  C  C98  1  0.60350000  0.85577000  0.70114000  1.0
  C  C99  1  0.60350000  0.14423000  0.29886000  1.0
  C  C100  1  0.39650000  0.64424000  0.20114000  1.0
  C  C101  1  0.39649000  0.35577000  0.79886000  1.0
  C  C102  1  0.89286000  0.75930000  0.65643000  1.0
  C  C103  1  0.89286000  0.24070000  0.34357000  1.0
  C  C104  1  0.10714000  0.74070000  0.15643000  1.0
  C  C105  1  0.10714000  0.25930000  0.84357000  1.0
  C  C106  1  0.91806000  0.87244000  0.48618000  1.0
  C  C107  1  0.91806000  0.12755000  0.51382000  1.0
  C  C108  1  0.08194000  0.62755000  0.98618000  1.0
  C  C109  1  0.08194000  0.37245000  0.01383000  1.0
  C  C110  1  0.41550000  0.14919000  0.63223000  1.0
  C  C111  1  0.41550000  0.85081000  0.36777000  1.0
  C  C112  1  0.58450000  0.35081000  0.13223000  1.0
  C  C113  1  0.58450000  0.64919000  0.86777000  1.0
  I  I114  1  0.60663000  0.15823000  0.91888000  1.0
  I  I115  1  0.60663000  0.84177000  0.08112000  1.0
  I  I116  1  0.39336000  0.34177000  0.41889000  1.0
  I  I117  1  0.39337000  0.65823000  0.58112000  1.0
  N  N118  1  0.01007000  0.96060000  0.88692000  1.0
  N  N119  1  0.01007000  0.03941000  0.11308000  1.0
  N  N120  1  0.98993000  0.53941000  0.38692000  1.0
  N  N121  1  0.98993000  0.46060000  0.61308000  1.0
  O  O122  1  0.35899000  0.05987000  0.59043000  1.0
  O  O123  1  0.35899000  0.94013000  0.40956000  1.0
  O  O124  1  0.64101000  0.44013000  0.09044000  1.0
  O  O125  1  0.64101000  0.55987000  0.90957000  1.0
