# generated using pymatgen
data_AgH40C45Br(NO2)2
_symmetry_space_group_name_H-M   'P 1'
_cell_length_a   4.10789000
_cell_length_b   12.25600000
_cell_length_c   35.55540000
_cell_angle_alpha   89.99990000
_cell_angle_beta   88.08310000
_cell_angle_gamma   89.99990000
_symmetry_Int_Tables_number   1
_chemical_formula_structural   AgH40C45Br(NO2)2
_chemical_formula_sum   'Ag2 H80 C90 Br2 N4 O8'
_cell_volume   1789.08108643
_cell_formula_units_Z   2
loop_
 _symmetry_equiv_pos_site_id
 _symmetry_equiv_pos_as_xyz
  1  'x, y, z'
loop_
 _atom_site_type_symbol
 _atom_site_label
 _atom_site_symmetry_multiplicity
 _atom_site_fract_x
 _atom_site_fract_y
 _atom_site_fract_z
 _atom_site_occupancy
  Ag  Ag0  1  0.00000000  0.13101000  0.25000000  1.0
  Ag  Ag1  1  0.00001000  0.86899000  0.75000000  1.0
  H  H2  1  0.70770000  0.09774000  0.08078000  1.0
  H  H3  1  0.29229000  0.09773000  0.41922000  1.0
  H  H4  1  0.29230000  0.90226000  0.91922000  1.0
  H  H5  1  0.70770000  0.90226000  0.58078000  1.0
  H  H6  1  0.26837000  0.13993000  0.18016000  1.0
  H  H7  1  0.73163000  0.13993000  0.31984000  1.0
  H  H8  1  0.73164000  0.86007000  0.81984000  1.0
  H  H9  1  0.26838000  0.86007000  0.68016000  1.0
  H  H10  1  0.10427000  0.81644000  0.13685000  1.0
  H  H11  1  0.89571000  0.81644000  0.36315000  1.0
  H  H12  1  0.89572000  0.18356000  0.86315000  1.0
  H  H13  1  0.10427000  0.18356000  0.63685000  1.0
  H  H14  1  0.28410000  0.72960000  0.06330000  1.0
  H  H15  1  0.71591000  0.72960000  0.43670000  1.0
  H  H16  1  0.71589000  0.27040000  0.93670000  1.0
  H  H17  1  0.28410000  0.27040000  0.56330000  1.0
  H  H18  1  0.83077000  0.89449000  0.97501000  1.0
  H  H19  1  0.16924000  0.89448000  0.52499000  1.0
  H  H20  1  0.16923000  0.10552000  0.02499000  1.0
  H  H21  1  0.83076000  0.10551000  0.47501000  1.0
  H  H22  1  0.06417000  0.42590000  0.08714000  1.0
  H  H23  1  0.93582000  0.42590000  0.41286000  1.0
  H  H24  1  0.93582000  0.57410000  0.91286000  1.0
  H  H25  1  0.06417000  0.57410000  0.58714000  1.0
  H  H26  1  0.19116000  0.57367000  0.02019000  1.0
  H  H27  1  0.80886000  0.57367000  0.47981000  1.0
  H  H28  1  0.80885000  0.42633000  0.97981000  1.0
  H  H29  1  0.19116000  0.42633000  0.52019000  1.0
  H  H30  1  0.75575000  0.44728000  0.20374000  1.0
  H  H31  1  0.24425000  0.44728000  0.29626000  1.0
  H  H32  1  0.24423000  0.55272000  0.79626000  1.0
  H  H33  1  0.75576000  0.55272000  0.70374000  1.0
  H  H34  1  0.59316000  0.71755000  0.12863000  1.0
  H  H35  1  0.40684000  0.71754000  0.37137000  1.0
  H  H36  1  0.40684000  0.28246000  0.87137000  1.0
  H  H37  1  0.59316000  0.28246000  0.62863000  1.0
  H  H38  1  0.40742000  0.58028000  0.95400000  1.0
  H  H39  1  0.59261000  0.58028000  0.54600000  1.0
  H  H40  1  0.59260000  0.41973000  0.04600000  1.0
  H  H41  1  0.40742000  0.41972000  0.45400000  1.0
  H  H42  1  0.84546000  0.61232000  0.07605000  1.0
  H  H43  1  0.15453000  0.61232000  0.42395000  1.0
  H  H44  1  0.15454000  0.38768000  0.92395000  1.0
  H  H45  1  0.84545000  0.38768000  0.57605000  1.0
  H  H46  1  0.72612000  0.74214000  0.93139000  1.0
  H  H47  1  0.27391000  0.74214000  0.56862000  1.0
  H  H48  1  0.27390000  0.25787000  0.06862000  1.0
  H  H49  1  0.72611000  0.25786000  0.43139000  1.0
  H  H50  1  0.55760000  0.63561000  0.19327000  1.0
  H  H51  1  0.44240000  0.63560000  0.30673000  1.0
  H  H52  1  0.44240000  0.36440000  0.80673000  1.0
  H  H53  1  0.55761000  0.36440000  0.69327000  1.0
  H  H54  1  0.53071000  0.85842000  0.18574000  1.0
  H  H55  1  0.46929000  0.85841000  0.31426000  1.0
  H  H56  1  0.46929000  0.14158000  0.81426000  1.0
  H  H57  1  0.53071000  0.14158000  0.68574000  1.0
  H  H58  1  0.54110000  0.99070000  0.20595000  1.0
  H  H59  1  0.45889000  0.99070000  0.29406000  1.0
  H  H60  1  0.45889000  0.00930000  0.79406000  1.0
  H  H61  1  0.54110000  0.00930000  0.70594000  1.0
  H  H62  1  0.39528000  0.95473000  0.05823000  1.0
  H  H63  1  0.60471000  0.95473000  0.44177000  1.0
  H  H64  1  0.60470000  0.04527000  0.94177000  1.0
  H  H65  1  0.39529000  0.04527000  0.55823000  1.0
  H  H66  1  0.31664000  0.30786000  0.15017000  1.0
  H  H67  1  0.68336000  0.30786000  0.34983000  1.0
  H  H68  1  0.68335000  0.69214000  0.84983000  1.0
  H  H69  1  0.31666000  0.69214000  0.65017000  1.0
  H  H70  1  0.77356000  0.97881000  0.03358000  1.0
  H  H71  1  0.22644000  0.97881000  0.46642000  1.0
  H  H72  1  0.22643000  0.02119000  0.96642000  1.0
  H  H73  1  0.77356000  0.02119000  0.53358000  1.0
  H  H74  1  0.20464000  0.71534000  0.21817000  1.0
  H  H75  1  0.79537000  0.71534000  0.28183000  1.0
  H  H76  1  0.79536000  0.28465000  0.78183000  1.0
  H  H77  1  0.20464000  0.28465000  0.71817000  1.0
  H  H78  1  0.97746000  0.28601000  0.18216000  1.0
  H  H79  1  0.02253000  0.28601000  0.31784000  1.0
  H  H80  1  0.02252000  0.71399000  0.81784000  1.0
  H  H81  1  0.97749000  0.71399000  0.68216000  1.0
  C  C82  1  0.00000000  0.95917000  0.25000000  1.0
  C  C83  1  0.99999000  0.04083000  0.75000000  1.0
  C  C84  1  0.84758000  0.06111000  0.10294000  1.0
  C  C85  1  0.15241000  0.06110000  0.39706000  1.0
  C  C86  1  0.15241000  0.93889000  0.89706000  1.0
  C  C87  1  0.84759000  0.93890000  0.60294000  1.0
  C  C88  1  0.19733000  0.97397000  0.16215000  1.0
  C  C89  1  0.80267000  0.97397000  0.33785000  1.0
  C  C90  1  0.80266000  0.02603000  0.83785000  1.0
  C  C91  1  0.19733000  0.02603000  0.66215000  1.0
  C  C92  1  0.56178000  0.82262000  0.02191000  1.0
  C  C93  1  0.43823000  0.82262000  0.47809000  1.0
  C  C94  1  0.43821000  0.17738000  0.97809000  1.0
  C  C95  1  0.56178000  0.17738000  0.52191000  1.0
  C  C96  1  0.97541000  0.12996000  0.13041000  1.0
  C  C97  1  0.02458000  0.12996000  0.36959000  1.0
  C  C98  1  0.02459000  0.87004000  0.86959000  1.0
  C  C99  1  0.97542000  0.87004000  0.63041000  1.0
  C  C100  1  0.89783000  0.94876000  0.10555000  1.0
  C  C101  1  0.10215000  0.94876000  0.39445000  1.0
  C  C102  1  0.10216000  0.05124000  0.89445000  1.0
  C  C103  1  0.89784000  0.05124000  0.60555000  1.0
  C  C104  1  0.92529000  0.42478000  0.14623000  1.0
  C  C105  1  0.07472000  0.42478000  0.35377000  1.0
  C  C106  1  0.07470000  0.57522000  0.85377000  1.0
  C  C107  1  0.92530000  0.57522000  0.64623000  1.0
  C  C108  1  0.62376000  0.91589000  0.04802000  1.0
  C  C109  1  0.37623000  0.91589000  0.45199000  1.0
  C  C110  1  0.37623000  0.08411000  0.95199000  1.0
  C  C111  1  0.62377000  0.08411000  0.54802000  1.0
  C  C112  1  0.15513000  0.08721000  0.15969000  1.0
  C  C113  1  0.84487000  0.08721000  0.34031000  1.0
  C  C114  1  0.84487000  0.91279000  0.84031000  1.0
  C  C115  1  0.15514000  0.91279000  0.65969000  1.0
  C  C116  1  0.10295000  0.78227000  0.23456000  1.0
  C  C117  1  0.89706000  0.78227000  0.26544000  1.0
  C  C118  1  0.89704000  0.21773000  0.76544000  1.0
  C  C119  1  0.10295000  0.21773000  0.73456000  1.0
  C  C120  1  0.07055000  0.90455000  0.13543000  1.0
  C  C121  1  0.92943000  0.90454000  0.36458000  1.0
  C  C122  1  0.92944000  0.09545000  0.86457000  1.0
  C  C123  1  0.07056000  0.09545000  0.63542000  1.0
  C  C124  1  0.38267000  0.73155000  0.03448000  1.0
  C  C125  1  0.61734000  0.73155000  0.46552000  1.0
  C  C126  1  0.61733000  0.26845000  0.96552000  1.0
  C  C127  1  0.38267000  0.26845000  0.53448000  1.0
  C  C128  1  0.68432000  0.82511000  0.98476000  1.0
  C  C129  1  0.31569000  0.82511000  0.51524000  1.0
  C  C130  1  0.31568000  0.17489000  0.01524000  1.0
  C  C131  1  0.68432000  0.17489000  0.48476000  1.0
  C  C132  1  0.95159000  0.47199000  0.11035000  1.0
  C  C133  1  0.04840000  0.47199000  0.38965000  1.0
  C  C134  1  0.04839000  0.52801000  0.88965000  1.0
  C  C135  1  0.95160000  0.52801000  0.61035000  1.0
  C  C136  1  0.04902000  0.31188000  0.15341000  1.0
  C  C137  1  0.95098000  0.31188000  0.34659000  1.0
  C  C138  1  0.95097000  0.68812000  0.84659000  1.0
  C  C139  1  0.04904000  0.68812000  0.65341000  1.0
  C  C140  1  0.33001000  0.64445000  0.01023000  1.0
  C  C141  1  0.67002000  0.64445000  0.48977000  1.0
  C  C142  1  0.67000000  0.35555000  0.98977000  1.0
  C  C143  1  0.33000000  0.35555000  0.51023000  1.0
  C  C144  1  0.78218000  0.48467000  0.17593000  1.0
  C  C145  1  0.21782000  0.48466000  0.32407000  1.0
  C  C146  1  0.21780000  0.51534000  0.82407000  1.0
  C  C147  1  0.78219000  0.51534000  0.67593000  1.0
  C  C148  1  0.68778000  0.63605000  0.13387000  1.0
  C  C149  1  0.31222000  0.63605000  0.36613000  1.0
  C  C150  1  0.31221000  0.36395000  0.86613000  1.0
  C  C151  1  0.68778000  0.36395000  0.63387000  1.0
  C  C152  1  0.45104000  0.64806000  0.97303000  1.0
  C  C153  1  0.54899000  0.64806000  0.52697000  1.0
  C  C154  1  0.54898000  0.35194000  0.02697000  1.0
  C  C155  1  0.45104000  0.35194000  0.47303000  1.0
  C  C156  1  0.83085000  0.57652000  0.10413000  1.0
  C  C157  1  0.16915000  0.57652000  0.39587000  1.0
  C  C158  1  0.16914000  0.42348000  0.89587000  1.0
  C  C159  1  0.83085000  0.42348000  0.60413000  1.0
  C  C160  1  0.62730000  0.73885000  0.96020000  1.0
  C  C161  1  0.37273000  0.73885000  0.53980000  1.0
  C  C162  1  0.37271000  0.26116000  0.03980000  1.0
  C  C163  1  0.62729000  0.26115000  0.46020000  1.0
  C  C164  1  0.66700000  0.59009000  0.16976000  1.0
  C  C165  1  0.33300000  0.59009000  0.33024000  1.0
  C  C166  1  0.33299000  0.40991000  0.83024000  1.0
  C  C167  1  0.66701000  0.40991000  0.66976000  1.0
  C  C168  1  0.37991000  0.92821000  0.19465000  1.0
  C  C169  1  0.62009000  0.92821000  0.30535000  1.0
  C  C170  1  0.62009000  0.07179000  0.80535000  1.0
  C  C171  1  0.37991000  0.07179000  0.69465000  1.0
  Br  Br172  1  0.50000000  0.27023000  0.25000000  1.0
  Br  Br173  1  0.50000000  0.72977000  0.75000000  1.0
  N  N174  1  0.16437000  0.89065000  0.22587000  1.0
  N  N175  1  0.83563000  0.89065000  0.27413000  1.0
  N  N176  1  0.83562000  0.10934000  0.77413000  1.0
  N  N177  1  0.16437000  0.10935000  0.72587000  1.0
  O  O178  1  0.79131000  0.87443000  0.07999000  1.0
  O  O179  1  0.20868000  0.87443000  0.42002000  1.0
  O  O180  1  0.20868000  0.12557000  0.92002000  1.0
  O  O181  1  0.79131000  0.12557000  0.57998000  1.0
  O  O182  1  0.90956000  0.23847000  0.12630000  1.0
  O  O183  1  0.09044000  0.23846000  0.37370000  1.0
  O  O184  1  0.09044000  0.76153000  0.87370000  1.0
  O  O185  1  0.90957000  0.76154000  0.62630000  1.0
