# generated using pymatgen
data_ZnH9C24Br2N(O2F)2
_symmetry_space_group_name_H-M   'P 1'
_cell_length_a   21.57190000
_cell_length_b   21.68130000
_cell_length_c   21.90710000
_cell_angle_alpha   60.41080000
_cell_angle_beta   63.72390000
_cell_angle_gamma   89.99550000
_symmetry_Int_Tables_number   1
_chemical_formula_structural   ZnH9C24Br2N(O2F)2
_chemical_formula_sum   'Zn4 H36 C96 Br8 N4 O16 F8'
_cell_volume   7669.10072950
_cell_formula_units_Z   4
loop_
 _symmetry_equiv_pos_site_id
 _symmetry_equiv_pos_as_xyz
  1  'x, y, z'
loop_
 _atom_site_type_symbol
 _atom_site_label
 _atom_site_symmetry_multiplicity
 _atom_site_fract_x
 _atom_site_fract_y
 _atom_site_fract_z
 _atom_site_occupancy
  Zn  Zn0  1  0.53867000  0.04267000  0.91435000  1.0
  Zn  Zn1  1  0.46133000  0.95723000  0.08561000  1.0
  Zn  Zn2  1  0.96258000  0.45758000  0.08469000  1.0
  Zn  Zn3  1  0.03738000  0.54212000  0.91543000  1.0
  H  H4  1  0.80898000  0.39329000  0.21386000  1.0
  H  H5  1  0.73268000  0.31753000  0.36564000  1.0
  H  H6  1  0.56962000  0.18766000  0.62569000  1.0
  H  H7  1  0.77058000  0.18569000  0.62833000  1.0
  H  H8  1  0.82105000  0.25035000  0.49942000  1.0
  H  H9  1  0.67909000  0.25174000  0.49725000  1.0
  H  H10  1  0.19019000  0.60671000  0.78650000  1.0
  H  H11  1  0.26691000  0.68267000  0.63446000  1.0
  H  H12  1  0.43018000  0.81259000  0.37495000  1.0
  H  H13  1  0.22930000  0.81380000  0.37226000  1.0
  H  H14  1  0.17891000  0.74969000  0.50048000  1.0
  H  H15  1  0.32057000  0.74823000  0.50337000  1.0
  H  H16  1  0.57933000  0.07398000  0.13066000  1.0
  H  H17  1  0.61432000  0.10557000  0.20745000  1.0
  H  H18  1  0.69784000  0.20338000  0.86945000  1.0
  H  H19  1  0.91941000  0.42549000  0.87106000  1.0
  H  H20  1  0.88438000  0.39382000  0.79401000  1.0
  H  H21  1  0.80100000  0.29525000  0.13234000  1.0
  H  H22  1  0.30113000  0.79489000  0.13154000  1.0
  H  H23  1  0.19674000  0.68695000  0.20668000  1.0
  H  H24  1  0.42105000  0.92620000  0.87035000  1.0
  H  H25  1  0.20064000  0.70628000  0.86588000  1.0
  H  H26  1  0.30480000  0.81374000  0.79100000  1.0
  H  H27  1  0.08093000  0.57411000  0.12717000  1.0
  H  H28  1  0.30058000  0.07328000  0.13197000  1.0
  H  H29  1  0.19566000  0.10583000  0.20690000  1.0
  H  H30  1  0.42117000  0.20282000  0.87080000  1.0
  H  H31  1  0.20050000  0.42702000  0.86572000  1.0
  H  H32  1  0.30489000  0.39436000  0.79104000  1.0
  H  H33  1  0.08017000  0.29826000  0.12699000  1.0
  H  H34  1  0.57869000  0.79498000  0.13091000  1.0
  H  H35  1  0.61321000  0.68635000  0.20775000  1.0
  H  H36  1  0.69725000  0.92607000  0.86970000  1.0
  H  H37  1  0.91857000  0.70202000  0.87162000  1.0
  H  H38  1  0.88357000  0.81056000  0.79447000  1.0
  H  H39  1  0.80004000  0.57162000  0.13291000  1.0
  C  C40  1  0.41431000  0.91358000  0.00132000  1.0
  C  C41  1  0.41421000  0.08477000  0.00183000  1.0
  C  C42  1  0.58519000  0.08563000  0.99988000  1.0
  C  C43  1  0.58479000  0.91398000  0.00017000  1.0
  C  C44  1  0.08796000  0.41692000  0.99494000  1.0
  C  C45  1  0.08803000  0.58759000  0.99519000  1.0
  C  C46  1  0.91245000  0.58332000  0.00349000  1.0
  C  C47  1  0.91298000  0.41299000  0.00292000  1.0
  C  C48  1  0.83261000  0.37382000  0.25260000  1.0
  C  C49  1  0.79110000  0.33181000  0.33677000  1.0
  C  C50  1  0.82425000  0.30785000  0.38450000  1.0
  C  C51  1  0.89968000  0.32935000  0.34111000  1.0
  C  C52  1  0.93776000  0.37185000  0.25593000  1.0
  C  C53  1  0.78638000  0.26356000  0.47318000  1.0
  C  C54  1  0.71413000  0.23871000  0.52312000  1.0
  C  C55  1  0.60094000  0.17238000  0.65590000  1.0
  C  C56  1  0.67664000  0.19420000  0.61200000  1.0
  C  C57  1  0.71226000  0.17161000  0.65671000  1.0
  C  C58  1  0.67063000  0.12935000  0.74093000  1.0
  C  C59  1  0.56577000  0.13003000  0.74037000  1.0
  C  C60  1  0.16685000  0.62621000  0.74747000  1.0
  C  C61  1  0.20849000  0.66826000  0.66332000  1.0
  C  C62  1  0.17541000  0.69216000  0.61554000  1.0
  C  C63  1  0.10001000  0.67062000  0.65871000  1.0
  C  C64  1  0.06185000  0.62804000  0.74388000  1.0
  C  C65  1  0.21341000  0.73645000  0.52693000  1.0
  C  C66  1  0.28568000  0.76127000  0.47731000  1.0
  C  C67  1  0.39892000  0.82773000  0.34467000  1.0
  C  C68  1  0.32325000  0.80573000  0.38849000  1.0
  C  C69  1  0.28762000  0.82808000  0.34381000  1.0
  C  C70  1  0.32929000  0.87027000  0.25961000  1.0
  C  C71  1  0.43405000  0.87006000  0.26020000  1.0
  C  C72  1  0.62352000  0.12068000  0.07387000  1.0
  C  C73  1  0.66879000  0.16586000  0.07513000  1.0
  C  C74  1  0.65840000  0.15219000  0.15047000  1.0
  C  C75  1  0.69066000  0.19398000  0.92606000  1.0
  C  C76  1  0.73724000  0.24063000  0.92434000  1.0
  C  C77  1  0.79612000  0.30272000  0.85055000  1.0
  C  C78  1  0.87520000  0.37874000  0.92782000  1.0
  C  C79  1  0.83001000  0.33362000  0.92637000  1.0
  C  C80  1  0.84037000  0.34717000  0.85106000  1.0
  C  C81  1  0.80803000  0.30504000  0.07565000  1.0
  C  C82  1  0.76154000  0.25856000  0.07718000  1.0
  C  C83  1  0.70273000  0.19651000  0.15098000  1.0
  C  C84  1  0.63429000  0.13465000  0.99999000  1.0
  C  C85  1  0.72652000  0.22682000  0.99999000  1.0
  C  C86  1  0.86429000  0.36452000  0.00189000  1.0
  C  C87  1  0.77226000  0.27258000  0.00146000  1.0
  C  C88  1  0.30899000  0.80509000  0.07429000  1.0
  C  C89  1  0.26304000  0.75914000  0.07449000  1.0
  C  C90  1  0.20497000  0.69768000  0.14912000  1.0
  C  C91  1  0.37677000  0.87930000  0.92649000  1.0
  C  C92  1  0.33227000  0.83496000  0.92368000  1.0
  C  C93  1  0.34105000  0.84715000  0.84918000  1.0
  C  C94  1  0.19294000  0.69565000  0.92321000  1.0
  C  C95  1  0.23877000  0.74148000  0.92318000  1.0
  C  C96  1  0.29676000  0.80294000  0.84851000  1.0
  C  C97  1  0.12520000  0.62103000  0.07103000  1.0
  C  C98  1  0.16963000  0.66536000  0.07397000  1.0
  C  C99  1  0.16085000  0.65323000  0.14849000  1.0
  C  C100  1  0.36541000  0.86461000  0.00092000  1.0
  C  C101  1  0.27418000  0.77352000  0.99874000  1.0
  C  C102  1  0.13663000  0.63595000  0.99645000  1.0
  C  C103  1  0.22766000  0.72690000  0.99898000  1.0
  C  C104  1  0.30855000  0.12022000  0.07468000  1.0
  C  C105  1  0.26250000  0.16588000  0.07475000  1.0
  C  C106  1  0.20407000  0.15263000  0.14932000  1.0
  C  C107  1  0.37671000  0.19365000  0.92687000  1.0
  C  C108  1  0.33213000  0.24072000  0.92395000  1.0
  C  C109  1  0.34110000  0.30293000  0.84938000  1.0
  C  C110  1  0.19266000  0.38037000  0.92309000  1.0
  C  C111  1  0.23847000  0.33454000  0.92318000  1.0
  C  C112  1  0.29670000  0.34771000  0.84858000  1.0
  C  C113  1  0.12456000  0.30736000  0.07090000  1.0
  C  C114  1  0.16887000  0.25997000  0.07397000  1.0
  C  C115  1  0.15976000  0.19754000  0.14855000  1.0
  C  C116  1  0.36521000  0.13404000  0.00135000  1.0
  C  C117  1  0.27379000  0.22711000  0.99894000  1.0
  C  C118  1  0.13629000  0.36703000  0.99626000  1.0
  C  C119  1  0.22717000  0.27341000  0.99904000  1.0
  C  C120  1  0.62287000  0.80486000  0.07414000  1.0
  C  C121  1  0.66798000  0.75827000  0.07545000  1.0
  C  C122  1  0.65738000  0.69661000  0.15081000  1.0
  C  C123  1  0.69001000  0.87897000  0.92634000  1.0
  C  C124  1  0.73647000  0.83389000  0.92466000  1.0
  C  C125  1  0.79534000  0.84533000  0.85091000  1.0
  C  C126  1  0.87433000  0.69215000  0.92836000  1.0
  C  C127  1  0.82911000  0.73871000  0.92685000  1.0
  C  C128  1  0.83954000  0.80031000  0.85149000  1.0
  C  C129  1  0.80707000  0.61835000  0.07619000  1.0
  C  C130  1  0.76049000  0.66324000  0.07766000  1.0
  C  C131  1  0.70153000  0.65160000  0.15140000  1.0
  C  C132  1  0.63373000  0.86467000  0.00024000  1.0
  C  C133  1  0.72569000  0.77219000  0.00034000  1.0
  C  C134  1  0.86347000  0.63255000  0.00246000  1.0
  C  C135  1  0.77133000  0.72485000  0.00190000  1.0
  Br  Br136  1  0.68545000  0.17446000  0.25403000  1.0
  Br  Br137  1  0.81361000  0.32466000  0.74751000  1.0
  Br  Br138  1  0.08514000  0.57206000  0.25070000  1.0
  Br  Br139  1  0.41722000  0.92785000  0.74694000  1.0
  Br  Br140  1  0.08310000  0.17602000  0.25064000  1.0
  Br  Br141  1  0.41774000  0.32451000  0.74725000  1.0
  Br  Br142  1  0.68358000  0.57037000  0.25455000  1.0
  Br  Br143  1  0.81296000  0.92618000  0.74778000  1.0
  N  N144  1  0.90559000  0.39364000  0.21257000  1.0
  N  N145  1  0.59850000  0.10801000  0.78386000  1.0
  N  N146  1  0.09392000  0.60634000  0.78726000  1.0
  N  N147  1  0.40136000  0.89179000  0.21673000  1.0
  O  O148  1  0.46423000  0.96711000  0.93225000  1.0
  O  O149  1  0.40171000  0.89761000  0.07078000  1.0
  O  O150  1  0.40154000  0.03143000  0.07130000  1.0
  O  O151  1  0.46428000  0.10029000  0.93277000  1.0
  O  O152  1  0.53511000  0.03229000  0.06916000  1.0
  O  O153  1  0.59768000  0.10131000  0.93063000  1.0
  O  O154  1  0.59723000  0.96739000  0.93094000  1.0
  O  O155  1  0.53489000  0.89833000  0.06948000  1.0
  O  O156  1  0.03654000  0.40067000  0.06370000  1.0
  O  O157  1  0.10205000  0.47151000  0.92534000  1.0
  O  O158  1  0.10210000  0.60244000  0.92559000  1.0
  O  O159  1  0.03639000  0.53546000  0.06393000  1.0
  O  O160  1  0.96420000  0.60016000  0.93453000  1.0
  O  O161  1  0.89867000  0.52878000  0.07287000  1.0
  O  O162  1  0.89920000  0.39823000  0.07232000  1.0
  O  O163  1  0.96445000  0.46528000  0.93395000  1.0
  F  F164  1  0.00957000  0.39153000  0.21619000  1.0
  F  F165  1  0.93698000  0.30958000  0.38048000  1.0
  F  F166  1  0.70329000  0.10717000  0.78459000  1.0
  F  F167  1  0.49381000  0.10882000  0.78310000  1.0
  F  F168  1  0.98999000  0.60829000  0.78342000  1.0
  F  F169  1  0.06286000  0.69044000  0.61916000  1.0
  F  F170  1  0.29649000  0.89208000  0.21604000  1.0
  F  F171  1  0.50605000  0.89148000  0.21759000  1.0
