# generated using pymatgen
data_ZnH12C18(N3O2)2
_symmetry_space_group_name_H-M   'P 1'
_cell_length_a   8.71326000
_cell_length_b   10.24000000
_cell_length_c   12.31450000
_cell_angle_alpha   74.88060000
_cell_angle_beta   82.00660000
_cell_angle_gamma   79.60620000
_symmetry_Int_Tables_number   1
_chemical_formula_structural   ZnH12C18(N3O2)2
_chemical_formula_sum   'Zn2 H24 C36 N12 O8'
_cell_volume   1038.39853145
_cell_formula_units_Z   2
loop_
 _symmetry_equiv_pos_site_id
 _symmetry_equiv_pos_as_xyz
  1  'x, y, z'
loop_
 _atom_site_type_symbol
 _atom_site_label
 _atom_site_symmetry_multiplicity
 _atom_site_fract_x
 _atom_site_fract_y
 _atom_site_fract_z
 _atom_site_occupancy
  Zn  Zn0  1  0.85527000  0.38995000  0.96482000  1.0
  Zn  Zn1  1  0.14473000  0.61005000  0.03518000  1.0
  H  H2  1  0.86070000  0.18480000  0.19236000  1.0
  H  H3  1  0.13931000  0.81520000  0.80764000  1.0
  H  H4  1  0.35352000  0.62347000  0.24795000  1.0
  H  H5  1  0.64648000  0.37653000  0.75205000  1.0
  H  H6  1  0.55289000  0.53611000  0.11583000  1.0
  H  H7  1  0.44711000  0.46389000  0.88417000  1.0
  H  H8  1  0.69062000  0.17947000  0.38458000  1.0
  H  H9  1  0.30938000  0.82053000  0.61542000  1.0
  H  H10  1  0.31447000  0.25118000  0.67925000  1.0
  H  H11  1  0.68554000  0.74882000  0.32075000  1.0
  H  H12  1  0.13984000  0.22571000  0.86255000  1.0
  H  H13  1  0.86017000  0.77429000  0.13745000  1.0
  H  H14  1  0.87084000  0.60057000  0.74661000  1.0
  H  H15  1  0.12916000  0.39942000  0.25339000  1.0
  H  H16  1  0.03387000  0.64210000  0.56050000  1.0
  H  H17  1  0.96614000  0.35790000  0.43950000  1.0
  H  H18  1  0.52593000  0.76436000  0.84355000  1.0
  H  H19  1  0.47408000  0.23564000  0.15645000  1.0
  H  H20  1  0.36955000  0.99888000  0.79875000  1.0
  H  H21  1  0.63045000  0.00112000  0.20125000  1.0
  H  H22  1  0.47208000  0.19425000  0.83632000  1.0
  H  H23  1  0.52793000  0.80575000  0.16367000  1.0
  H  H24  1  0.88585000  0.92428000  0.95276000  1.0
  H  H25  1  0.11415000  0.07572000  0.04724000  1.0
  C  C26  1  0.60746000  0.44170000  0.16884000  1.0
  C  C27  1  0.39254000  0.55830000  0.83115000  1.0
  C  C28  1  0.67585000  0.25867000  0.30726000  1.0
  C  C29  1  0.32415000  0.74134000  0.69274000  1.0
  C  C30  1  0.56984000  0.38003000  0.28440000  1.0
  C  C31  1  0.43016000  0.61997000  0.71560000  1.0
  C  C32  1  0.44768000  0.43328000  0.36049000  1.0
  C  C33  1  0.55232000  0.56672000  0.63951000  1.0
  C  C34  1  0.28273000  0.46877000  0.49706000  1.0
  C  C35  1  0.71727000  0.53123000  0.50294000  1.0
  C  C36  1  0.18845000  0.44968000  0.60573000  1.0
  C  C37  1  0.81155000  0.55032000  0.39427000  1.0
  C  C38  1  0.21750000  0.33082000  0.69228000  1.0
  C  C39  1  0.78250000  0.66919000  0.30772000  1.0
  C  C40  1  0.12159000  0.31670000  0.79341000  1.0
  C  C41  1  0.87841000  0.68330000  0.20659000  1.0
  C  C42  1  0.97182000  0.52689000  0.72892000  1.0
  C  C43  1  0.02818000  0.47311000  0.27108000  1.0
  C  C44  1  0.06196000  0.54933000  0.62598000  1.0
  C  C45  1  0.93804000  0.45067000  0.37402000  1.0
  C  C46  1  0.80863000  0.68939000  0.92521000  1.0
  C  C47  1  0.19137000  0.31061000  0.07479000  1.0
  C  C48  1  0.71501000  0.83011000  0.89944000  1.0
  C  C49  1  0.28499000  0.16988000  0.10056000  1.0
  C  C50  1  0.56927000  0.85179000  0.85649000  1.0
  C  C51  1  0.43073000  0.14821000  0.14351000  1.0
  C  C52  1  0.48314000  0.98279000  0.83170000  1.0
  C  C53  1  0.51686000  0.01721000  0.16829000  1.0
  C  C54  1  0.54017000  0.09206000  0.85206000  1.0
  C  C55  1  0.45984000  0.90794000  0.14794000  1.0
  C  C56  1  0.68462000  0.07092000  0.89672000  1.0
  C  C57  1  0.31538000  0.92909000  0.10328000  1.0
  C  C58  1  0.77287000  0.94005000  0.91892000  1.0
  C  C59  1  0.22713000  0.05995000  0.08108000  1.0
  C  C60  1  0.74303000  0.18629000  0.92345000  1.0
  C  C61  1  0.25697000  0.81370000  0.07655000  1.0
  N  N62  1  0.72682000  0.36358000  0.12528000  1.0
  N  N63  1  0.27318000  0.63642000  0.87472000  1.0
  N  N64  1  0.76641000  0.25339000  0.20966000  1.0
  N  N65  1  0.23359000  0.74661000  0.79034000  1.0
  N  N66  1  0.40215000  0.37375000  0.46757000  1.0
  N  N67  1  0.59785000  0.62625000  0.53243000  1.0
  N  N68  1  0.25301000  0.58268000  0.41446000  1.0
  N  N69  1  0.74699000  0.41732000  0.58554000  1.0
  N  N70  1  0.35900000  0.55853000  0.32930000  1.0
  N  N71  1  0.64100000  0.44147000  0.67070000  1.0
  N  N72  1  0.00047000  0.41306000  0.81226000  1.0
  N  N73  1  0.99953000  0.58694000  0.18774000  1.0
  O  O74  1  0.73769000  0.58851000  0.93088000  1.0
  O  O75  1  0.26231000  0.41149000  0.06912000  1.0
  O  O76  1  0.95294000  0.67969000  0.93657000  1.0
  O  O77  1  0.04706000  0.32031000  0.06343000  1.0
  O  O78  1  0.85815000  0.16216000  0.98211000  1.0
  O  O79  1  0.14185000  0.83784000  0.01789000  1.0
  O  O80  1  0.67454000  0.30954000  0.88659000  1.0
  O  O81  1  0.32546000  0.69046000  0.11341000  1.0
