# generated using pymatgen
data_NiPH7C8N3ClO3
_symmetry_space_group_name_H-M   'P 1'
_cell_length_a   7.44982000
_cell_length_b   7.60123000
_cell_length_c   10.68920413
_cell_angle_alpha   85.40388953
_cell_angle_beta   70.07172851
_cell_angle_gamma   85.56060000
_symmetry_Int_Tables_number   1
_chemical_formula_structural   NiPH7C8N3ClO3
_chemical_formula_sum   'Ni2 P2 H14 C16 N6 Cl2 O6'
_cell_volume   566.41946648
_cell_formula_units_Z   2
loop_
 _symmetry_equiv_pos_site_id
 _symmetry_equiv_pos_as_xyz
  1  'x, y, z'
loop_
 _atom_site_type_symbol
 _atom_site_label
 _atom_site_symmetry_multiplicity
 _atom_site_fract_x
 _atom_site_fract_y
 _atom_site_fract_z
 _atom_site_occupancy
  Ni  Ni0  1  0.50000000  0.50003000  0.49999000  1.0
  Ni  Ni1  1  1.00000000  0.49999000  0.50000000  1.0
  P  P2  1  0.76540000  0.84472000  0.41513000  1.0
  P  P3  1  0.23461000  0.15529000  0.58487000  1.0
  H  H4  1  0.61847000  0.11304000  0.47570000  1.0
  H  H5  1  0.38156000  0.88695000  0.52430000  1.0
  H  H6  1  0.57661000  0.81053000  0.21750000  1.0
  H  H7  1  0.84947000  0.18521000  0.77658000  1.0
  H  H8  1  0.42341000  0.18963000  0.78248000  1.0
  H  H9  1  0.15055000  0.81466000  0.22343000  1.0
  H  H10  1  0.70147000  0.74537000  0.97987000  1.0
  H  H11  1  0.72101000  0.24601000  0.01545000  1.0
  H  H12  1  0.29852000  0.25479000  0.02011000  1.0
  H  H13  1  0.27899000  0.75383000  0.98458000  1.0
  H  H14  1  0.37930000  0.64374000  0.79276000  1.0
  H  H15  1  0.18591000  0.32392000  0.22186000  1.0
  H  H16  1  0.62070000  0.35640000  0.20719000  1.0
  H  H17  1  0.81405000  0.67592000  0.77820000  1.0
  C  C18  1  0.85521000  0.82102000  0.23593000  1.0
  C  C19  1  0.14481000  0.17899000  0.76406000  1.0
  C  C20  1  0.73059000  0.80380000  0.16516000  1.0
  C  C21  1  0.94722000  0.19444000  0.83169000  1.0
  C  C22  1  0.26942000  0.19629000  0.83482000  1.0
  C  C23  1  0.05277000  0.80547000  0.16833000  1.0
  C  C24  1  0.80117000  0.76473000  0.03144000  1.0
  C  C25  1  0.87511000  0.23193000  0.96576000  1.0
  C  C26  1  0.19884000  0.23534000  0.96855000  1.0
  C  C27  1  0.12489000  0.76798000  0.03426000  1.0
  C  C28  1  0.99873000  0.74391000  0.96633000  1.0
  C  C29  1  0.00126000  0.25609000  0.03367000  1.0
  C  C30  1  0.25562000  0.63702000  0.76251000  1.0
  C  C31  1  0.03324000  0.34597000  0.24522000  1.0
  C  C32  1  0.74438000  0.36301000  0.23746000  1.0
  C  C33  1  0.96674000  0.65394000  0.75480000  1.0
  N  N34  1  0.26255000  0.57459000  0.64951000  1.0
  N  N35  1  0.91922000  0.41514000  0.35491000  1.0
  N  N36  1  0.73745000  0.42544000  0.35047000  1.0
  N  N37  1  0.08076000  0.58482000  0.64510000  1.0
  N  N38  1  0.07070000  0.68775000  0.83333000  1.0
  N  N39  1  0.92928000  0.31223000  0.16667000  1.0
  Cl  Cl40  1  0.67621000  0.44927000  0.65482000  1.0
  Cl  Cl41  1  0.32378000  0.55074000  0.34517000  1.0
  O  O42  1  0.56360000  0.77216000  0.46944000  1.0
  O  O43  1  0.08720000  0.24174000  0.52883000  1.0
  O  O44  1  0.43640000  0.22787000  0.53056000  1.0
  O  O45  1  0.91281000  0.75825000  0.47116000  1.0
  O  O46  1  0.74963000  0.04955000  0.43077000  1.0
  O  O47  1  0.25039000  0.95046000  0.56925000  1.0
