# generated using pymatgen
data_MoH12C15(NO3)2
_symmetry_space_group_name_H-M   'P 1'
_cell_length_a   3.95194000
_cell_length_b   10.23360000
_cell_length_c   20.83713414
_cell_angle_alpha   89.99933540
_cell_angle_beta   88.47061539
_cell_angle_gamma   89.99970000
_symmetry_Int_Tables_number   1
_chemical_formula_structural   MoH12C15(NO3)2
_chemical_formula_sum   'Mo2 H24 C30 N4 O12'
_cell_volume   842.40712357
_cell_formula_units_Z   2
loop_
 _symmetry_equiv_pos_site_id
 _symmetry_equiv_pos_as_xyz
  1  'x, y, z'
loop_
 _atom_site_type_symbol
 _atom_site_label
 _atom_site_symmetry_multiplicity
 _atom_site_fract_x
 _atom_site_fract_y
 _atom_site_fract_z
 _atom_site_occupancy
  Mo  Mo0  1  0.89976000  0.99499000  0.19572000  1.0
  Mo  Mo1  1  0.10023000  0.49498000  0.80429000  1.0
  H  H2  1  0.53909000  0.27820000  0.45568000  1.0
  H  H3  1  0.46091000  0.77820000  0.54432000  1.0
  H  H4  1  0.62485000  0.49336000  0.40259000  1.0
  H  H5  1  0.37518000  0.99335000  0.59740000  1.0
  H  H6  1  0.85413000  0.50470000  0.29015000  1.0
  H  H7  1  0.14588000  0.00469000  0.70984000  1.0
  H  H8  1  0.08719000  0.40338000  0.19579000  1.0
  H  H9  1  0.91281000  0.90337000  0.80421000  1.0
  H  H10  1  0.05015000  0.93180000  0.98941000  1.0
  H  H11  1  0.94981000  0.43180000  0.01059000  1.0
  H  H12  1  0.31321000  0.92609000  0.88054000  1.0
  H  H13  1  0.68675000  0.42609000  0.11946000  1.0
  H  H14  1  0.69218000  0.31744000  0.90664000  1.0
  H  H15  1  0.30784000  0.81745000  0.09336000  1.0
  H  H16  1  0.43908000  0.32041000  0.01621000  1.0
  H  H17  1  0.56092000  0.82042000  0.98380000  1.0
  H  H18  1  0.49895000  0.92815000  0.46905000  1.0
  H  H19  1  0.50107000  0.42815000  0.53095000  1.0
  H  H20  1  0.66327000  0.07881000  0.49907000  1.0
  H  H21  1  0.33675000  0.57880000  0.50092000  1.0
  H  H22  1  0.26675000  0.07619000  0.45838000  1.0
  H  H23  1  0.73325000  0.57619000  0.54162000  1.0
  H  H24  1  0.78823000  0.19330000  0.81557000  1.0
  H  H25  1  0.21177000  0.69330000  0.18443000  1.0
  C  C26  1  0.90078000  0.29552000  0.28009000  1.0
  C  C27  1  0.09923000  0.79551000  0.71990000  1.0
  C  C28  1  0.85958000  0.17313000  0.31069000  1.0
  C  C29  1  0.14042000  0.67313000  0.68931000  1.0
  C  C30  1  0.73091000  0.16741000  0.37462000  1.0
  C  C31  1  0.26910000  0.66740000  0.62538000  1.0
  C  C32  1  0.64628000  0.28289000  0.40707000  1.0
  C  C33  1  0.35375000  0.78288000  0.59292000  1.0
  C  C34  1  0.69410000  0.40409000  0.37694000  1.0
  C  C35  1  0.30588000  0.90408000  0.62305000  1.0
  C  C36  1  0.82236000  0.41095000  0.31443000  1.0
  C  C37  1  0.17770000  0.91094000  0.68556000  1.0
  C  C38  1  0.01278000  0.30677000  0.21398000  1.0
  C  C39  1  0.98722000  0.80676000  0.78602000  1.0
  C  C40  1  0.11081000  0.12698000  0.07716000  1.0
  C  C41  1  0.88918000  0.62698000  0.92284000  1.0
  C  C42  1  0.23121000  0.12620000  0.01084000  1.0
  C  C43  1  0.76877000  0.62621000  0.98916000  1.0
  C  C44  1  0.19224000  0.01584000  0.97144000  1.0
  C  C45  1  0.80774000  0.51585000  0.02856000  1.0
  C  C46  1  0.33485000  0.01312000  0.91002000  1.0
  C  C47  1  0.66513000  0.51312000  0.08998000  1.0
  C  C48  1  0.51712000  0.12119000  0.88594000  1.0
  C  C49  1  0.48285000  0.62119000  0.11406000  1.0
  C  C50  1  0.54822000  0.23360000  0.92429000  1.0
  C  C51  1  0.45179000  0.73360000  0.07571000  1.0
  C  C52  1  0.40722000  0.23529000  0.98573000  1.0
  C  C53  1  0.59277000  0.73529000  0.01427000  1.0
  C  C54  1  0.52130000  0.03317000  0.46010000  1.0
  C  C55  1  0.47871000  0.53316000  0.53990000  1.0
  N  N56  1  0.02077000  0.20844000  0.17407000  1.0
  N  N57  1  0.97922000  0.70843000  0.82593000  1.0
  N  N58  1  0.13055000  0.23324000  0.11260000  1.0
  N  N59  1  0.86945000  0.73323000  0.88739000  1.0
  O  O60  1  0.46099000  0.01167000  0.19374000  1.0
  O  O61  1  0.53901000  0.51167000  0.80626000  1.0
  O  O62  1  0.93984000  0.05955000  0.28177000  1.0
  O  O63  1  0.06016000  0.55954000  0.71824000  1.0
  O  O64  1  0.99311000  0.01450000  0.10240000  1.0
  O  O65  1  0.00686000  0.51450000  0.89761000  1.0
  O  O66  1  0.69586000  0.04474000  0.39967000  1.0
  O  O67  1  0.30414000  0.54473000  0.60033000  1.0
  O  O68  1  0.65867000  0.11205000  0.82628000  1.0
  O  O69  1  0.34133000  0.61206000  0.17372000  1.0
  O  O70  1  0.97739000  0.82925000  0.20254000  1.0
  O  O71  1  0.02261000  0.32925000  0.79747000  1.0
