# generated using pymatgen
data_ZnH18C23(NO4)2
_symmetry_space_group_name_H-M   'P 1'
_cell_length_a   8.63207000
_cell_length_b   12.59560000
_cell_length_c   12.61170000
_cell_angle_alpha   107.13800000
_cell_angle_beta   108.33400000
_cell_angle_gamma   108.62700000
_symmetry_Int_Tables_number   1
_chemical_formula_structural   ZnH18C23(NO4)2
_chemical_formula_sum   'Zn2 H36 C46 N4 O16'
_cell_volume   1108.05281533
_cell_formula_units_Z   2
loop_
 _symmetry_equiv_pos_site_id
 _symmetry_equiv_pos_as_xyz
  1  'x, y, z'
loop_
 _atom_site_type_symbol
 _atom_site_label
 _atom_site_symmetry_multiplicity
 _atom_site_fract_x
 _atom_site_fract_y
 _atom_site_fract_z
 _atom_site_occupancy
  Zn  Zn0  1  0.83363000  0.92901000  0.04038000  1.0
  Zn  Zn1  1  0.33271000  0.04074000  0.92863000  1.0
  H  H2  1  0.40343000  0.97535000  0.23233000  1.0
  H  H3  1  0.90182000  0.23095000  0.97496000  1.0
  H  H4  1  0.56620000  0.62344000  0.81913000  1.0
  H  H5  1  0.06598000  0.81906000  0.62296000  1.0
  H  H6  1  0.93997000  0.10779000  0.57166000  1.0
  H  H7  1  0.43887000  0.57184000  0.10784000  1.0
  H  H8  1  0.37280000  0.96490000  0.49251000  1.0
  H  H9  1  0.87171000  0.49124000  0.96466000  1.0
  H  H10  1  0.93841000  0.00225000  0.30441000  1.0
  H  H11  1  0.43955000  0.30504000  0.00308000  1.0
  H  H12  1  0.20911000  0.16002000  0.50819000  1.0
  H  H13  1  0.71057000  0.50917000  0.16097000  1.0
  H  H14  1  0.44951000  0.31900000  0.30374000  1.0
  H  H15  1  0.94761000  0.30306000  0.31791000  1.0
  H  H16  1  0.16846000  0.16037000  0.11120000  1.0
  H  H17  1  0.66666667  0.11014000  0.15894000  1.0
  H  H18  1  0.51041000  0.31278000  0.61654000  1.0
  H  H19  1  0.01187000  0.61738000  0.31342000  1.0
  H  H20  1  0.51370000  0.43535000  0.57631000  1.0
  H  H21  1  0.01306000  0.57634000  0.43513000  1.0
  H  H22  1  0.70495000  0.28692000  0.48793000  1.0
  H  H23  1  0.20480000  0.48794000  0.28701000  1.0
  H  H24  1  0.74939000  0.44166000  0.51477000  1.0
  H  H25  1  0.24765000  0.51409000  0.44106000  1.0
  H  H26  1  0.82997000  0.49120000  0.74459000  1.0
  H  H27  1  0.33048000  0.74486000  0.49157000  1.0
  H  H28  1  0.81791000  0.34122000  0.71069000  1.0
  H  H29  1  0.31979000  0.71161000  0.34223000  1.0
  H  H30  1  0.09191000  0.31587000  0.73074000  1.0
  H  H31  1  0.59339000  0.73110000  0.31652000  1.0
  H  H32  1  0.42493000  0.42237000  0.79419000  1.0
  H  H33  1  0.92611000  0.79438000  0.42254000  1.0
  H  H34  1  0.40353000  0.74212000  0.77726000  1.0
  H  H35  1  0.90197000  0.77684000  0.74114000  1.0
  H  H36  1  0.06613000  0.64771000  0.70859000  1.0
  H  H37  1  0.56492000  0.70842000  0.64722000  1.0
  C  C38  1  0.65174000  0.03637000  0.51902000  1.0
  C  C39  1  0.15066000  0.51865000  0.03632000  1.0
  C  C40  1  0.83347000  0.07542000  0.59972000  1.0
  C  C41  1  0.33268000  0.59983000  0.07556000  1.0
  C  C42  1  0.87996000  0.06928000  0.71355000  1.0
  C  C43  1  0.37971000  0.71402000  0.06958000  1.0
  C  C44  1  0.74155000  0.02648000  0.74895000  1.0
  C  C45  1  0.24156000  0.74918000  0.02687000  1.0
  C  C46  1  0.55948000  0.99217000  0.66980000  1.0
  C  C47  1  0.05906000  0.66950000  0.99220000  1.0
  C  C48  1  0.51480000  0.99496000  0.55474000  1.0
  C  C49  1  0.01385000  0.55404000  0.99481000  1.0
  C  C50  1  0.60731000  0.03686000  0.39491000  1.0
  C  C51  1  0.10573000  0.39416000  0.03654000  1.0
  C  C52  1  0.07748000  0.10445000  0.79139000  1.0
  C  C53  1  0.57741000  0.79223000  0.10453000  1.0
  C  C54  1  0.78234000  0.01354000  0.86831000  1.0
  C  C55  1  0.28298000  0.86915000  0.01476000  1.0
  C  C56  1  0.41217000  0.95611000  0.70997000  1.0
  C  C57  1  0.91218000  0.70970000  0.95611000  1.0
  C  C58  1  0.05515000  0.07467000  0.30954000  1.0
  C  C59  1  0.55569000  0.30991000  0.07508000  1.0
  C  C60  1  0.20642000  0.16266000  0.42191000  1.0
  C  C61  1  0.70708000  0.42248000  0.16316000  1.0
  C  C62  1  0.35510000  0.25284000  0.42413000  1.0
  C  C63  1  0.85485000  0.42428000  0.25282000  1.0
  C  C64  1  0.34065000  0.25135000  0.30984000  1.0
  C  C65  1  0.83946000  0.30944000  0.25066000  1.0
  C  C66  1  0.18463000  0.16160000  0.20073000  1.0
  C  C67  1  0.68343000  0.20013000  0.16076000  1.0
  C  C68  1  0.52019000  0.34589000  0.54614000  1.0
  C  C69  1  0.02024000  0.54641000  0.34599000  1.0
  C  C70  1  0.70878000  0.37152000  0.54908000  1.0
  C  C71  1  0.20842000  0.54900000  0.37149000  1.0
  C  C72  1  0.84939000  0.41841000  0.68417000  1.0
  C  C73  1  0.35004000  0.68452000  0.41886000  1.0
  C  C74  1  0.04697000  0.47213000  0.71113000  1.0
  C  C75  1  0.54724000  0.71127000  0.47230000  1.0
  C  C76  1  0.15101000  0.40851000  0.73531000  1.0
  C  C77  1  0.65187000  0.73551000  0.40881000  1.0
  C  C78  1  0.33694000  0.46606000  0.77158000  1.0
  C  C79  1  0.83756000  0.77167000  0.46607000  1.0
  C  C80  1  0.32481000  0.64674000  0.76014000  1.0
  C  C81  1  0.82391000  0.75988000  0.64611000  1.0
  C  C82  1  0.13786000  0.59217000  0.72186000  1.0
  C  C83  1  0.63715000  0.72173000  0.59184000  1.0
  N  N84  1  0.04458000  0.07379000  0.20023000  1.0
  N  N85  1  0.54420000  0.20006000  0.07353000  1.0
  N  N86  1  0.41952000  0.58272000  0.78379000  1.0
  N  N87  1  0.91925000  0.78369000  0.58230000  1.0
  O  O88  1  0.42873000  0.97569000  0.31934000  1.0
  O  O89  1  0.92711000  0.31823000  0.97549000  1.0
  O  O90  1  0.72689000  0.08899000  0.36818000  1.0
  O  O91  1  0.22495000  0.36739000  0.08829000  1.0
  O  O92  1  0.20195000  0.18215000  0.78449000  1.0
  O  O93  1  0.70142000  0.78522000  0.18176000  1.0
  O  O94  1  0.09862000  0.04428000  0.85825000  1.0
  O  O95  1  0.59925000  0.85933000  0.04456000  1.0
  O  O96  1  0.86224000  0.10833000  0.97181000  1.0
  O  O97  1  0.36282000  0.97248000  0.10974000  1.0
  O  O98  1  0.72984000  0.90287000  0.86004000  1.0
  O  O99  1  0.23052000  0.86117000  0.90448000  1.0
  O  O100  1  0.45665000  0.02880000  0.82044000  1.0
  O  O101  1  0.95682000  0.82049000  0.02864000  1.0
  O  O102  1  0.26088000  0.86053000  0.63266000  1.0
  O  O103  1  0.76111000  0.63225000  0.86074000  1.0
