# generated using pymatgen
data_CuH17C22(NO2)2
_symmetry_space_group_name_H-M   'P 1'
_cell_length_a   9.58288000
_cell_length_b   10.19710000
_cell_length_c   11.08860000
_cell_angle_alpha   114.83800000
_cell_angle_beta   102.43200000
_cell_angle_gamma   98.31110000
_symmetry_Int_Tables_number   1
_chemical_formula_structural   CuH17C22(NO2)2
_chemical_formula_sum   'Cu2 H34 C44 N4 O8'
_cell_volume   925.89555277
_cell_formula_units_Z   2
loop_
 _symmetry_equiv_pos_site_id
 _symmetry_equiv_pos_as_xyz
  1  'x, y, z'
loop_
 _atom_site_type_symbol
 _atom_site_label
 _atom_site_symmetry_multiplicity
 _atom_site_fract_x
 _atom_site_fract_y
 _atom_site_fract_z
 _atom_site_occupancy
  Cu  Cu0  1  0.95540000  0.59627000  0.60301000  1.0
  Cu  Cu1  1  0.04460000  0.40374000  0.39700000  1.0
  H  H2  1  0.05317000  0.60106000  0.90431000  1.0
  H  H3  1  0.94683000  0.39894000  0.09569000  1.0
  H  H4  1  0.11428000  0.68216000  0.16103000  1.0
  H  H5  1  0.88572000  0.31784000  0.83897000  1.0
  H  H6  1  0.02762000  0.88989000  0.31290000  1.0
  H  H7  1  0.97237000  0.11010000  0.68710000  1.0
  H  H8  1  0.87396000  0.01991000  0.21310000  1.0
  H  H9  1  0.12603000  0.98008000  0.78690000  1.0
  H  H10  1  0.72653000  0.77270000  0.56757000  1.0
  H  H11  1  0.27347000  0.22730000  0.43243000  1.0
  H  H12  1  0.71611000  0.95534000  0.68007000  1.0
  H  H13  1  0.28389000  0.04466000  0.31993000  1.0
  H  H14  1  0.57649000  0.79491000  0.63772000  1.0
  H  H15  1  0.42351000  0.20508000  0.36228000  1.0
  H  H16  1  0.66534000  0.06058000  0.88417000  1.0
  H  H17  1  0.33466000  0.93941000  0.11582000  1.0
  H  H18  1  0.75534000  0.11176000  0.05975000  1.0
  H  H19  1  0.24465000  0.88823000  0.94024000  1.0
  H  H20  1  0.56930000  0.88946000  0.03748000  1.0
  H  H21  1  0.43069000  0.11054000  0.96251000  1.0
  H  H22  1  0.47452000  0.85270000  0.86687000  1.0
  H  H23  1  0.52548000  0.14729000  0.13312000  1.0
  H  H24  1  0.64795000  0.30402000  0.64745000  1.0
  H  H25  1  0.35205000  0.69599000  0.35255000  1.0
  H  H26  1  0.78368000  0.97693000  0.33187000  1.0
  H  H27  1  0.21631000  0.02308000  0.66813000  1.0
  H  H28  1  0.57273000  0.77619000  0.29100000  1.0
  H  H29  1  0.42727000  0.22382000  0.70900000  1.0
  H  H30  1  0.28317000  0.46554000  0.12454000  1.0
  H  H31  1  0.71684000  0.53447000  0.87547000  1.0
  H  H32  1  0.20207000  0.48514000  0.90664000  1.0
  H  H33  1  0.79794000  0.51486000  0.09336000  1.0
  H  H34  1  0.48478000  0.46750000  0.30908000  1.0
  H  H35  1  0.51522000  0.53251000  0.69092000  1.0
  C  C36  1  0.92382000  0.75942000  0.91450000  1.0
  C  C37  1  0.07618000  0.24058000  0.08550000  1.0
  C  C38  1  0.01240000  0.68898000  0.97139000  1.0
  C  C39  1  0.98760000  0.31102000  0.02861000  1.0
  C  C40  1  0.04630000  0.73609000  0.11446000  1.0
  C  C41  1  0.95369000  0.26391000  0.88554000  1.0
  C  C42  1  0.99595000  0.85339000  0.20088000  1.0
  C  C43  1  0.00404000  0.14660000  0.79911000  1.0
  C  C44  1  0.90718000  0.92454000  0.14598000  1.0
  C  C45  1  0.09281000  0.07545000  0.85401000  1.0
  C  C46  1  0.86900000  0.87245000  0.00212000  1.0
  C  C47  1  0.13099000  0.12754000  0.99787000  1.0
  C  C48  1  0.78268000  0.82695000  0.78147000  1.0
  C  C49  1  0.21732000  0.17305000  0.21853000  1.0
  C  C50  1  0.69620000  0.83828000  0.66015000  1.0
  C  C51  1  0.30380000  0.16171000  0.33985000  1.0
  C  C52  1  0.68806000  0.01612000  0.95884000  1.0
  C  C53  1  0.31193000  0.98387000  0.04115000  1.0
  C  C54  1  0.54336000  0.94311000  0.97050000  1.0
  C  C55  1  0.45664000  0.05688000  0.02949000  1.0
  C  C56  1  0.51193000  0.07555000  0.55269000  1.0
  C  C57  1  0.48806000  0.92447000  0.44732000  1.0
  C  C58  1  0.63199000  0.18806000  0.57160000  1.0
  C  C59  1  0.36802000  0.81195000  0.42840000  1.0
  C  C60  1  0.72666000  0.15359000  0.49125000  1.0
  C  C61  1  0.27334000  0.84642000  0.50875000  1.0
  C  C62  1  0.70612000  0.00313000  0.39117000  1.0
  C  C63  1  0.29388000  0.99687000  0.60883000  1.0
  C  C64  1  0.58881000  0.89157000  0.36864000  1.0
  C  C65  1  0.41119000  0.10845000  0.63136000  1.0
  C  C66  1  0.84248000  0.27835000  0.50375000  1.0
  C  C67  1  0.15753000  0.72166000  0.49626000  1.0
  C  C68  1  0.39607000  0.47691000  0.11857000  1.0
  C  C69  1  0.60394000  0.52310000  0.88144000  1.0
  C  C70  1  0.42599000  0.49275000  0.00455000  1.0
  C  C71  1  0.57401000  0.50725000  0.99545000  1.0
  C  C72  1  0.31474000  0.49723000  0.90051000  1.0
  C  C73  1  0.68526000  0.50277000  0.09949000  1.0
  C  C74  1  0.34668000  0.51230000  0.79036000  1.0
  C  C75  1  0.65333000  0.48770000  0.20964000  1.0
  C  C76  1  0.22439000  0.51364000  0.68161000  1.0
  C  C77  1  0.77561000  0.48636000  0.31840000  1.0
  C  C78  1  0.50751000  0.47656000  0.22026000  1.0
  C  C79  1  0.49249000  0.52344000  0.77975000  1.0
  N  N80  1  0.77876000  0.91219000  0.91486000  1.0
  N  N81  1  0.22124000  0.08781000  0.08514000  1.0
  N  N82  1  0.87050000  0.73566000  0.77761000  1.0
  N  N83  1  0.12950000  0.26434000  0.22239000  1.0
  O  O84  1  0.21562000  0.43326000  0.55471000  1.0
  O  O85  1  0.78438000  0.56673000  0.44528000  1.0
  O  O86  1  0.13928000  0.59464000  0.72705000  1.0
  O  O87  1  0.86073000  0.40535000  0.27295000  1.0
  O  O88  1  0.91837000  0.24421000  0.41864000  1.0
  O  O89  1  0.08164000  0.75579000  0.58136000  1.0
  O  O90  1  0.85043000  0.40929000  0.59580000  1.0
  O  O91  1  0.14957000  0.59072000  0.40419000  1.0
