# generated using pymatgen
data_Zr6H23C50N7O46
_symmetry_space_group_name_H-M   'P 1'
_cell_length_a   14.75740000
_cell_length_b   14.76430000
_cell_length_c   14.77332078
_cell_angle_alpha   89.86793891
_cell_angle_beta   60.07364619
_cell_angle_gamma   60.07870000
_symmetry_Int_Tables_number   1
_chemical_formula_structural   Zr6H23C50N7O46
_chemical_formula_sum   'Zr6 H23 C50 N7 O46'
_cell_volume   2283.89373725
_cell_formula_units_Z   1
loop_
 _symmetry_equiv_pos_site_id
 _symmetry_equiv_pos_as_xyz
  1  'x, y, z'
loop_
 _atom_site_type_symbol
 _atom_site_label
 _atom_site_symmetry_multiplicity
 _atom_site_fract_x
 _atom_site_fract_y
 _atom_site_fract_z
 _atom_site_occupancy
  Zr  Zr0  1  0.50692000  0.12029000  0.61202000  1.0
  Zr  Zr1  1  0.50541000  0.87870000  0.37640000  1.0
  Zr  Zr2  1  0.26755000  0.11815000  0.61312000  1.0
  Zr  Zr3  1  0.74493000  0.87993000  0.37663000  1.0
  Zr  Zr4  1  0.50766000  0.11732000  0.37252000  1.0
  Zr  Zr5  1  0.50550000  0.88097000  0.61608000  1.0
  H  H6  1  0.31946000  0.28186000  0.58463000  1.0
  H  H7  1  0.69509000  0.90177000  0.21202000  1.0
  H  H8  1  0.31752000  0.90462000  0.58876000  1.0
  H  H9  1  0.69367000  0.90763000  0.59032000  1.0
  H  H10  1  0.60544000  0.36459000  0.57391000  1.0
  H  H11  1  0.42369000  0.45688000  0.40227000  1.0
  H  H12  1  0.60177000  0.53657000  0.57704000  1.0
  H  H13  1  0.50462000  0.14940000  0.91416000  1.0
  H  H14  1  0.46822000  0.87728000  0.92323000  1.0
  H  H15  1  0.50427000  0.14314000  0.08406000  1.0
  H  H16  1  0.77848000  0.14779000  0.08183000  1.0
  H  H17  1  0.06597000  0.85484000  0.08377000  1.0
  H  H18  1  0.94974000  0.14480000  0.91137000  1.0
  H  H19  1  0.77722000  0.57127000  0.63283000  1.0
  H  H20  1  0.06079000  0.58440000  0.34780000  1.0
  H  H21  1  0.95101000  0.39951000  0.62665000  1.0
  H  H22  1  0.31129000  0.37975000  0.93915000  1.0
  H  H23  1  0.29061000  0.46696000  0.85739000  1.0
  H  H24  1  0.12208000  0.63449000  0.03009000  1.0
  H  H25  1  0.14454000  0.54703000  0.11145000  1.0
  H  H26  1  0.06794000  0.86097000  0.34291000  1.0
  H  H27  1  0.77454000  0.14771000  0.63621000  1.0
  H  H28  1  0.23484000  0.86206000  0.34678000  1.0
  C  C29  1  0.51668000  0.29839000  0.48592000  1.0
  C  C30  1  0.49659000  0.00152000  0.19505000  1.0
  C  C31  1  0.50786000  0.69496000  0.49700000  1.0
  C  C32  1  0.49448000  0.01025000  0.80366000  1.0
  C  C33  1  0.20382000  0.29817000  0.80045000  1.0
  C  C34  1  0.81062000  0.00371000  0.48959000  1.0
  C  C35  1  0.81026000  0.68546000  0.20495000  1.0
  C  C36  1  0.20231000  0.00291000  0.49146000  1.0
  C  C37  1  0.20369000  0.29649000  0.48730000  1.0
  C  C38  1  0.20293000  0.00159000  0.80120000  1.0
  C  C39  1  0.80752000  0.69276000  0.49500000  1.0
  C  C40  1  0.81114000  0.00068000  0.19313000  1.0
  C  C41  1  0.50480000  0.59530000  0.49794000  1.0
  C  C42  1  0.51716000  0.39932000  0.48644000  1.0
  C  C43  1  0.45254000  0.57212000  0.45169000  1.0
  C  C44  1  0.56507000  0.42264000  0.53750000  1.0
  C  C45  1  0.46242000  0.47375000  0.44105000  1.0
  C  C46  1  0.56166000  0.51861000  0.54055000  1.0
  C  C47  1  0.48804000  0.00660000  0.09825000  1.0
  C  C48  1  0.48853000  0.01264000  0.90763000  1.0
  C  C49  1  0.47596000  0.93370000  0.05213000  1.0
  C  C50  1  0.49686000  0.08880000  0.95359000  1.0
  C  C51  1  0.47699000  0.93514000  0.95780000  1.0
  C  C52  1  0.49701000  0.08518000  0.04756000  1.0
  C  C53  1  0.10354000  0.99926000  0.90157000  1.0
  C  C54  1  0.91208000  0.00153000  0.09270000  1.0
  C  C55  1  0.13412000  0.91773000  0.95120000  1.0
  C  C56  1  0.87892000  0.08333000  0.04438000  1.0
  C  C57  1  0.04072000  0.91818000  0.04582000  1.0
  C  C58  1  0.97397000  0.08171000  0.94974000  1.0
  C  C59  1  0.10292000  0.39580000  0.48510000  1.0
  C  C60  1  0.90887000  0.58809000  0.49106000  1.0
  C  C61  1  0.13163000  0.44862000  0.40643000  1.0
  C  C62  1  0.87738000  0.53591000  0.56932000  1.0
  C  C63  1  0.03699000  0.54353000  0.40846000  1.0
  C  C64  1  0.97369000  0.44084000  0.56609000  1.0
  C  C65  1  0.10281000  0.39310000  0.90612000  1.0
  C  C66  1  0.91105000  0.57871000  0.11133000  1.0
  C  C67  1  0.13220000  0.44742000  0.95216000  1.0
  C  C68  1  0.88205000  0.51739000  0.07112000  1.0
  C  C69  1  0.03937000  0.53902000  0.04908000  1.0
  C  C70  1  0.97228000  0.43295000  0.96923000  1.0
  C  C71  1  0.24024000  0.45184000  0.93388000  1.0
  C  C72  1  0.13519000  0.55655000  0.04220000  1.0
  C  C73  1  0.09989000  0.00481000  0.49246000  1.0
  C  C74  1  0.91163000  0.00445000  0.48892000  1.0
  C  C75  1  0.96934000  0.08437000  0.57374000  1.0
  C  C76  1  0.04113000  0.92380000  0.40732000  1.0
  C  C77  1  0.87538000  0.08552000  0.57268000  1.0
  C  C78  1  0.13393000  0.92424000  0.40947000  1.0
  N  N79  1  0.37066000  0.65774000  0.42431000  1.0
  N  N80  1  0.45962000  0.85066000  0.10023000  1.0
  N  N81  1  0.26748000  0.82421000  0.90530000  1.0
  N  N82  1  0.26434000  0.40845000  0.31672000  1.0
  N  N83  1  0.92158000  0.17132000  0.66766000  1.0
  N  N84  1  0.75535000  0.53565000  0.14210000  1.0
  N  N85  1  0.92490000  0.38639000  0.92895000  1.0
  O  O86  1  0.51771000  0.25871000  0.56270000  1.0
  O  O87  1  0.50177000  0.92213000  0.23205000  1.0
  O  O88  1  0.50948000  0.73354000  0.41927000  1.0
  O  O89  1  0.49839000  0.08529000  0.76205000  1.0
  O  O90  1  0.16807000  0.25720000  0.76072000  1.0
  O  O91  1  0.84763000  0.92600000  0.41410000  1.0
  O  O92  1  0.84979000  0.72754000  0.23868000  1.0
  O  O93  1  0.16610000  0.07897000  0.56815000  1.0
  O  O94  1  0.31973000  0.25742000  0.41089000  1.0
  O  O95  1  0.31931000  0.92612000  0.76237000  1.0
  O  O96  1  0.69163000  0.73343000  0.57329000  1.0
  O  O97  1  0.69519000  0.07674000  0.23146000  1.0
  O  O98  1  0.16480000  0.07777000  0.76148000  1.0
  O  O99  1  0.84535000  0.73430000  0.42024000  1.0
  O  O100  1  0.84855000  0.92274000  0.23186000  1.0
  O  O101  1  0.16578000  0.25999000  0.56669000  1.0
  O  O102  1  0.31839000  0.26621000  0.75881000  1.0
  O  O103  1  0.31780000  0.92607000  0.41537000  1.0
  O  O104  1  0.69521000  0.72832000  0.23850000  1.0
  O  O105  1  0.69462000  0.07969000  0.56685000  1.0
  O  O106  1  0.49771000  0.93161000  0.76311000  1.0
  O  O107  1  0.51186000  0.26127000  0.41168000  1.0
  O  O108  1  0.50145000  0.07610000  0.23163000  1.0
  O  O109  1  0.51084000  0.73234000  0.57241000  1.0
  O  O110  1  0.64036000  0.93383000  0.56317000  1.0
  O  O111  1  0.37096000  0.93179000  0.56295000  1.0
  O  O112  1  0.64212000  0.92921000  0.29219000  1.0
  O  O113  1  0.37232000  0.20164000  0.55939000  1.0
  O  O114  1  0.40803000  0.04770000  0.44411000  1.0
  O  O115  1  0.60627000  0.04878000  0.44341000  1.0
  O  O116  1  0.60476000  0.85083000  0.44704000  1.0
  O  O117  1  0.40728000  0.05006000  0.64279000  1.0
  O  O118  1  0.28062000  0.74798000  0.49979000  1.0
  O  O119  1  0.39199000  0.63266000  0.33302000  1.0
  O  O120  1  0.55471000  0.75430000  0.05539000  1.0
  O  O121  1  0.34968000  0.88415000  0.17692000  1.0
  O  O122  1  0.31277000  0.73990000  0.83650000  1.0
  O  O123  1  0.31982000  0.83529000  0.94430000  1.0
  O  O124  1  0.31377000  0.44497000  0.33701000  1.0
  O  O125  1  0.31193000  0.34721000  0.22642000  1.0
  O  O126  1  0.90857000  0.14680000  0.75130000  1.0
  O  O127  1  0.89071000  0.26336000  0.65742000  1.0
  O  O128  1  0.73370000  0.51210000  0.22781000  1.0
  O  O129  1  0.68649000  0.56703000  0.10905000  1.0
  O  O130  1  0.90614000  0.42047000  0.85993000  1.0
  O  O131  1  0.90479000  0.32043000  0.97116000  1.0
