# generated using pymatgen
data_ZnH28C20N2O7
_symmetry_space_group_name_H-M   'P 1'
_cell_length_a   5.69189000
_cell_length_b   11.49760000
_cell_length_c   16.93140000
_cell_angle_alpha   90.00000000
_cell_angle_beta   90.00000000
_cell_angle_gamma   97.96090000
_symmetry_Int_Tables_number   1
_chemical_formula_structural   ZnH28C20N2O7
_chemical_formula_sum   'Zn2 H56 C40 N4 O14'
_cell_volume   1097.36445482
_cell_formula_units_Z   2
loop_
 _symmetry_equiv_pos_site_id
 _symmetry_equiv_pos_as_xyz
  1  'x, y, z'
loop_
 _atom_site_type_symbol
 _atom_site_label
 _atom_site_symmetry_multiplicity
 _atom_site_fract_x
 _atom_site_fract_y
 _atom_site_fract_z
 _atom_site_occupancy
  Zn  Zn0  1  0.79038000  0.73048000  0.65502000  1.0
  Zn  Zn1  1  0.20963000  0.26952000  0.15502000  1.0
  H  H2  1  0.26225000  0.73847000  0.66167000  1.0
  H  H3  1  0.73774000  0.26154000  0.16167000  1.0
  H  H4  1  0.12580000  0.72444000  0.74783000  1.0
  H  H5  1  0.87419000  0.27557000  0.24783000  1.0
  H  H6  1  0.10135000  0.95404000  0.59249000  1.0
  H  H7  1  0.89865000  0.04596000  0.09249000  1.0
  H  H8  1  0.11681000  0.16992000  0.59090000  1.0
  H  H9  1  0.88319000  0.83008000  0.09090000  1.0
  H  H10  1  0.47649000  0.12407000  0.73277000  1.0
  H  H11  1  0.52352000  0.87593000  0.23277000  1.0
  H  H12  1  0.47941000  0.91013000  0.72235000  1.0
  H  H13  1  0.52059000  0.08987000  0.22235000  1.0
  H  H14  1  0.10207000  0.55297000  0.59118000  1.0
  H  H15  1  0.89795000  0.44702000  0.09118000  1.0
  H  H16  1  0.12199000  0.34083000  0.59193000  1.0
  H  H17  1  0.87802000  0.65917000  0.09192000  1.0
  H  H18  1  0.46926000  0.29794000  0.72816000  1.0
  H  H19  1  0.53074000  0.70206000  0.22816000  1.0
  H  H20  1  0.48199000  0.51360000  0.72175000  1.0
  H  H21  1  0.51802000  0.48641000  0.22176000  1.0
  H  H22  1  0.45789000  0.68154000  0.90952000  1.0
  H  H23  1  0.54211000  0.31846000  0.40952000  1.0
  H  H24  1  0.91829000  0.68517000  0.94221000  1.0
  H  H25  1  0.08171000  0.31483000  0.44221000  1.0
  H  H26  1  0.47598000  0.87645000  0.85722000  1.0
  H  H27  1  0.52401000  0.12355000  0.35721000  1.0
  H  H28  1  0.79219000  0.04100000  0.90035000  1.0
  H  H29  1  0.20780000  0.95900000  0.40035000  1.0
  H  H30  1  0.90938000  0.93610000  0.83951000  1.0
  H  H31  1  0.09061000  0.06390000  0.33951000  1.0
  H  H32  1  0.95340000  0.93511000  0.94329000  1.0
  H  H33  1  0.04659000  0.06489000  0.44329000  1.0
  H  H34  1  0.43273000  0.98390000  0.98445000  1.0
  H  H35  1  0.56726000  0.01609000  0.48445000  1.0
  H  H36  1  0.57085000  0.87718000  0.03551000  1.0
  H  H37  1  0.42915000  0.12281000  0.53551000  1.0
  H  H38  1  0.29409000  0.83514000  0.98808000  1.0
  H  H39  1  0.70591000  0.16486000  0.48808000  1.0
  H  H40  1  0.76651000  0.85837000  0.46027000  1.0
  H  H41  1  0.23349000  0.14163000  0.96027000  1.0
  H  H42  1  0.06422000  0.76149000  0.51297000  1.0
  H  H43  1  0.93579000  0.23852000  0.01297000  1.0
  H  H44  1  0.53309000  0.71191000  0.37421000  1.0
  H  H45  1  0.46691000  0.28810000  0.87421000  1.0
  H  H46  1  0.92856000  0.80952000  0.32983000  1.0
  H  H47  1  0.07145000  0.19047000  0.82983000  1.0
  H  H48  1  0.87839000  0.66185000  0.29464000  1.0
  H  H49  1  0.12161000  0.33815000  0.79464000  1.0
  H  H50  1  0.06989000  0.69911000  0.37583000  1.0
  H  H51  1  0.93010000  0.30088000  0.87582000  1.0
  H  H52  1  0.48817000  0.53285000  0.45881000  1.0
  H  H53  1  0.51183000  0.46714000  0.95881000  1.0
  H  H54  1  0.80056000  0.53202000  0.45713000  1.0
  H  H55  1  0.19943000  0.46798000  0.95712000  1.0
  H  H56  1  0.63345000  0.50538000  0.36918000  1.0
  H  H57  1  0.36655000  0.49462000  0.86918000  1.0
  C  C58  1  0.96568000  0.99565000  0.62278000  1.0
  C  C59  1  0.03433000  0.00435000  0.12278000  1.0
  C  C60  1  0.97595000  0.11707000  0.62371000  1.0
  C  C61  1  0.02405000  0.88293000  0.12371000  1.0
  C  C62  1  0.79871000  0.16872000  0.66284000  1.0
  C  C63  1  0.20129000  0.83129000  0.16283000  1.0
  C  C64  1  0.61994000  0.09199000  0.70045000  1.0
  C  C65  1  0.38006000  0.90801000  0.20044000  1.0
  C  C66  1  0.62028000  0.97131000  0.69551000  1.0
  C  C67  1  0.37973000  0.02869000  0.19551000  1.0
  C  C68  1  0.96558000  0.49307000  0.62133000  1.0
  C  C69  1  0.03444000  0.50693000  0.12133000  1.0
  C  C70  1  0.97618000  0.37309000  0.62285000  1.0
  C  C71  1  0.02382000  0.62691000  0.12285000  1.0
  C  C72  1  0.79707000  0.29747000  0.66137000  1.0
  C  C73  1  0.20293000  0.70254000  0.16137000  1.0
  C  C74  1  0.61522000  0.34979000  0.69715000  1.0
  C  C75  1  0.38478000  0.65022000  0.19715000  1.0
  C  C76  1  0.61941000  0.47076000  0.69355000  1.0
  C  C77  1  0.38060000  0.52924000  0.19355000  1.0
  C  C78  1  0.75126000  0.70843000  0.82815000  1.0
  C  C79  1  0.24873000  0.29158000  0.32815000  1.0
  C  C80  1  0.63299000  0.73589000  0.90590000  1.0
  C  C81  1  0.36701000  0.26411000  0.40590000  1.0
  C  C82  1  0.59410000  0.86602000  0.90753000  1.0
  C  C83  1  0.40589000  0.13398000  0.40753000  1.0
  C  C84  1  0.82568000  0.94942000  0.89676000  1.0
  C  C85  1  0.17431000  0.05058000  0.39675000  1.0
  C  C86  1  0.46521000  0.89199000  0.98311000  1.0
  C  C87  1  0.53479000  0.10800000  0.48311000  1.0
  C  C88  1  0.48141000  0.75810000  0.52175000  1.0
  C  C89  1  0.51859000  0.24190000  0.02175000  1.0
  C  C90  1  0.71997000  0.76587000  0.47897000  1.0
  C  C91  1  0.28003000  0.23413000  0.97897000  1.0
  C  C92  1  0.69250000  0.68831000  0.40377000  1.0
  C  C93  1  0.30751000  0.31169000  0.90377000  1.0
  C  C94  1  0.90410000  0.71673000  0.34799000  1.0
  C  C95  1  0.09590000  0.28327000  0.84798000  1.0
  C  C96  1  0.65012000  0.55744000  0.42377000  1.0
  C  C97  1  0.34988000  0.44256000  0.92377000  1.0
  N  N98  1  0.78975000  0.92307000  0.65715000  1.0
  N  N99  1  0.21026000  0.07694000  0.15715000  1.0
  N  N100  1  0.79102000  0.54194000  0.65611000  1.0
  N  N101  1  0.20899000  0.45806000  0.15612000  1.0
  O  O102  1  0.13976000  0.76640000  0.69615000  1.0
  O  O103  1  0.86024000  0.23360000  0.19614000  1.0
  O  O104  1  0.63253000  0.72067000  0.76523000  1.0
  O  O105  1  0.36747000  0.27933000  0.26523000  1.0
  O  O106  1  0.95788000  0.67978000  0.83253000  1.0
  O  O107  1  0.04212000  0.32021000  0.33253000  1.0
  O  O108  1  0.77773000  0.70682000  0.97013000  1.0
  O  O109  1  0.22228000  0.29317000  0.47013000  1.0
  O  O110  1  0.46437000  0.71580000  0.59200000  1.0
  O  O111  1  0.53564000  0.28420000  0.09200000  1.0
  O  O112  1  0.31445000  0.79342000  0.48372000  1.0
  O  O113  1  0.68555000  0.20659000  0.98371000  1.0
  O  O114  1  0.89380000  0.73458000  0.53241000  1.0
  O  O115  1  0.10620000  0.26542000  0.03241000  1.0
