# generated using pymatgen
data_SrCuH10C14N2O11
_symmetry_space_group_name_H-M   'P 1'
_cell_length_a   9.23649000
_cell_length_b   9.60269000
_cell_length_c   10.27190000
_cell_angle_alpha   106.70100000
_cell_angle_beta   92.45580000
_cell_angle_gamma   116.16600000
_symmetry_Int_Tables_number   1
_chemical_formula_structural   SrCuH10C14N2O11
_chemical_formula_sum   'Sr2 Cu2 H20 C28 N4 O22'
_cell_volume   767.82027000
_cell_formula_units_Z   2
loop_
 _symmetry_equiv_pos_site_id
 _symmetry_equiv_pos_as_xyz
  1  'x, y, z'
loop_
 _atom_site_type_symbol
 _atom_site_label
 _atom_site_symmetry_multiplicity
 _atom_site_fract_x
 _atom_site_fract_y
 _atom_site_fract_z
 _atom_site_occupancy
  Sr  Sr0  1  0.58658000  0.40066000  0.11654000  1.0
  Sr  Sr1  1  0.41341000  0.59933000  0.88346000  1.0
  Cu  Cu2  1  0.16414000  0.82322000  0.19269000  1.0
  Cu  Cu3  1  0.83586000  0.17678000  0.80730000  1.0
  H  H4  1  0.05479000  0.23703000  0.22644000  1.0
  H  H5  1  0.94521000  0.76297000  0.77356000  1.0
  H  H6  1  0.24198000  0.65502000  0.60280000  1.0
  H  H7  1  0.75801000  0.34498000  0.39720000  1.0
  H  H8  1  0.32965000  0.90715000  0.68684000  1.0
  H  H9  1  0.67035000  0.09284000  0.31315000  1.0
  H  H10  1  0.47315000  0.35051000  0.58466000  1.0
  H  H11  1  0.52685000  0.64949000  0.41534000  1.0
  H  H12  1  0.97034000  0.96565000  0.31866000  1.0
  H  H13  1  0.02966000  0.03435000  0.68134000  1.0
  H  H14  1  0.87994000  0.77371000  0.29455000  1.0
  H  H15  1  0.12006000  0.22629000  0.70545000  1.0
  H  H16  1  0.19297000  0.18646000  0.92120000  1.0
  H  H17  1  0.80703000  0.81354000  0.07880000  1.0
  H  H18  1  0.23049000  0.13698000  0.05082000  1.0
  H  H19  1  0.76950000  0.86302000  0.94918000  1.0
  H  H20  1  0.59390000  0.05602000  0.12003000  1.0
  H  H21  1  0.40610000  0.94396000  0.87997000  1.0
  H  H22  1  0.75736000  0.18976000  0.09400000  1.0
  H  H23  1  0.24263000  0.81023000  0.90600000  1.0
  C  C24  1  0.10719000  0.47155000  0.20722000  1.0
  C  C25  1  0.89281000  0.52846000  0.79277000  1.0
  C  C26  1  0.09776000  0.36747000  0.28178000  1.0
  C  C27  1  0.90223000  0.63253000  0.71822000  1.0
  C  C28  1  0.14620000  0.43198000  0.42598000  1.0
  C  C29  1  0.85379000  0.56803000  0.57403000  1.0
  C  C30  1  0.20155000  0.60023000  0.49062000  1.0
  C  C31  1  0.79845000  0.39978000  0.50938000  1.0
  C  C32  1  0.20407000  0.69616000  0.41053000  1.0
  C  C33  1  0.79593000  0.30384000  0.58947000  1.0
  C  C34  1  0.26973000  0.87521000  0.47185000  1.0
  C  C35  1  0.73027000  0.12479000  0.52815000  1.0
  C  C36  1  0.33505000  0.96785000  0.61144000  1.0
  C  C37  1  0.66495000  0.03215000  0.38856000  1.0
  C  C38  1  0.40782000  0.13946000  0.65399000  1.0
  C  C39  1  0.59218000  0.86055000  0.34601000  1.0
  C  C40  1  0.41557000  0.21677000  0.55594000  1.0
  C  C41  1  0.58443000  0.78323000  0.44406000  1.0
  C  C42  1  0.34732000  0.11639000  0.41817000  1.0
  C  C43  1  0.65269000  0.88361000  0.58183000  1.0
  C  C44  1  0.35153000  0.17368000  0.29652000  1.0
  C  C45  1  0.64848000  0.82633000  0.70348000  1.0
  C  C46  1  0.48159000  0.23596000  0.80504000  1.0
  C  C47  1  0.51841000  0.76403000  0.19496000  1.0
  C  C48  1  0.13424000  0.32148000  0.51011000  1.0
  C  C49  1  0.86578000  0.67853000  0.48989000  1.0
  C  C50  1  0.06146000  0.40192000  0.05090000  1.0
  C  C51  1  0.93854000  0.59808000  0.94910000  1.0
  N  N52  1  0.15710000  0.63327000  0.27002000  1.0
  N  N53  1  0.84290000  0.36673000  0.72998000  1.0
  N  N54  1  0.27570000  0.95166000  0.38040000  1.0
  N  N55  1  0.72430000  0.04834000  0.61960000  1.0
  O  O56  1  0.26998000  0.05673000  0.17911000  1.0
  O  O57  1  0.73003000  0.94327000  0.82090000  1.0
  O  O58  1  0.43485000  0.32307000  0.31142000  1.0
  O  O59  1  0.56515000  0.67694000  0.68859000  1.0
  O  O60  1  0.50034000  0.38165000  0.85259000  1.0
  O  O61  1  0.49965000  0.61833000  0.14742000  1.0
  O  O62  1  0.52144000  0.16593000  0.87709000  1.0
  O  O63  1  0.47855000  0.83407000  0.12292000  1.0
  O  O64  1  0.19514000  0.39123000  0.64032000  1.0
  O  O65  1  0.80486000  0.60878000  0.35968000  1.0
  O  O66  1  0.06190000  0.16822000  0.44604000  1.0
  O  O67  1  0.93812000  0.83179000  0.55397000  1.0
  O  O68  1  0.92337000  0.26647000  0.00350000  1.0
  O  O69  1  0.07663000  0.73353000  0.99649000  1.0
  O  O70  1  0.15080000  0.47357000  0.97883000  1.0
  O  O71  1  0.84920000  0.52642000  0.02117000  1.0
  O  O72  1  0.92924000  0.85588000  0.24637000  1.0
  O  O73  1  0.07076000  0.14412000  0.75364000  1.0
  O  O74  1  0.26131000  0.22821000  0.01425000  1.0
  O  O75  1  0.73868000  0.77179000  0.98576000  1.0
  O  O76  1  0.66666667  0.17588000  0.14549000  1.0
  O  O77  1  0.33333333  0.82411000  0.85450000  1.0
