# generated using pymatgen
data_RbMnH3(CO2)3
_symmetry_space_group_name_H-M   'P 1'
_cell_length_a   6.99279000
_cell_length_b   7.31057000
_cell_length_c   7.31025000
_cell_angle_alpha   78.28110000
_cell_angle_beta   85.26150000
_cell_angle_gamma   85.25590000
_symmetry_Int_Tables_number   1
_chemical_formula_structural   RbMnH3(CO2)3
_chemical_formula_sum   'Rb2 Mn2 H6 C6 O12'
_cell_volume   363.83579391
_cell_formula_units_Z   2
loop_
 _symmetry_equiv_pos_site_id
 _symmetry_equiv_pos_as_xyz
  1  'x, y, z'
loop_
 _atom_site_type_symbol
 _atom_site_label
 _atom_site_symmetry_multiplicity
 _atom_site_fract_x
 _atom_site_fract_y
 _atom_site_fract_z
 _atom_site_occupancy
  Rb  Rb0  1  0.24998000  0.09656000  0.90346000  1.0
  Rb  Rb1  1  0.75001000  0.90344000  0.09655000  1.0
  Mn  Mn2  1  0.00001000  0.00000000  0.50001000  1.0
  Mn  Mn3  1  0.49999000  0.50000000  0.99999000  1.0
  H  H4  1  0.99925000  0.56895000  0.70823000  1.0
  H  H5  1  0.50075000  0.29179000  0.43101000  1.0
  H  H6  1  0.00074000  0.43103000  0.29176000  1.0
  H  H7  1  0.49926000  0.70821000  0.56897000  1.0
  H  H8  1  0.25001000  0.60510000  0.39489000  1.0
  H  H9  1  0.74999000  0.39491000  0.60509000  1.0
  C  C10  1  0.12360000  0.62382000  0.76023000  1.0
  C  C11  1  0.37641000  0.23979000  0.37618000  1.0
  C  C12  1  0.87640000  0.37617000  0.23979000  1.0
  C  C13  1  0.62361000  0.76021000  0.62382000  1.0
  C  C14  1  0.25002000  0.72566000  0.27435000  1.0
  C  C15  1  0.74998000  0.27435000  0.72565000  1.0
  O  O16  1  0.13667000  0.79976000  0.72236000  1.0
  O  O17  1  0.36332000  0.27766000  0.20028000  1.0
  O  O18  1  0.86331000  0.20026000  0.27766000  1.0
  O  O19  1  0.63668000  0.72234000  0.79973000  1.0
  O  O20  1  0.23898000  0.50358000  0.85171000  1.0
  O  O21  1  0.26096000  0.14829000  0.49643000  1.0
  O  O22  1  0.76101000  0.49641000  0.14829000  1.0
  O  O23  1  0.73906000  0.85170000  0.50359000  1.0
  O  O24  1  0.12028000  0.85712000  0.27733000  1.0
  O  O25  1  0.37976000  0.72271000  0.14292000  1.0
  O  O26  1  0.87974000  0.14290000  0.72267000  1.0
  O  O27  1  0.62021000  0.27730000  0.85706000  1.0
