# generated using pymatgen
data_CuH22C24(NO)4
_symmetry_space_group_name_H-M   'P 1'
_cell_length_a   12.33740000
_cell_length_b   17.04880000
_cell_length_c   17.04677486
_cell_angle_alpha   82.45448658
_cell_angle_beta   68.79307169
_cell_angle_gamma   68.78580000
_symmetry_Int_Tables_number   1
_chemical_formula_structural   CuH22C24(NO)4
_chemical_formula_sum   'Cu4 H88 C96 N16 O16'
_cell_volume   3116.24103973
_cell_formula_units_Z   4
loop_
 _symmetry_equiv_pos_site_id
 _symmetry_equiv_pos_as_xyz
  1  'x, y, z'
loop_
 _atom_site_type_symbol
 _atom_site_label
 _atom_site_symmetry_multiplicity
 _atom_site_fract_x
 _atom_site_fract_y
 _atom_site_fract_z
 _atom_site_occupancy
  Cu  Cu0  1  0.00000000  0.50000000  0.50000000  1.0
  Cu  Cu1  1  0.00000000  0.50000000  1.00000000  1.0
  Cu  Cu2  1  0.50000000  0.00000000  0.50000000  1.0
  Cu  Cu3  1  0.00000000  0.00000000  0.00000000  1.0
  H  H4  1  0.04351000  0.45792000  0.33319000  1.0
  H  H5  1  0.00125000  0.33333333  0.04216000  1.0
  H  H6  1  0.37676000  0.16674000  0.45784000  1.0
  H  H7  1  0.83481000  0.04194000  0.16677000  1.0
  H  H8  1  0.95648000  0.54208000  0.66681000  1.0
  H  H9  1  0.99874000  0.66666667  0.95785000  1.0
  H  H10  1  0.62324000  0.83326000  0.54216000  1.0
  H  H11  1  0.16517000  0.95806000  0.83324000  1.0
  H  H12  1  0.98276000  0.42184000  0.21116000  1.0
  H  H13  1  0.90410000  0.21144000  0.07831000  1.0
  H  H14  1  0.19377000  0.28874000  0.42178000  1.0
  H  H15  1  0.61619000  0.07775000  0.28874000  1.0
  H  H16  1  0.01724000  0.57816000  0.78884000  1.0
  H  H17  1  0.09590000  0.78855000  0.92169000  1.0
  H  H18  1  0.80624000  0.71126000  0.57821000  1.0
  H  H19  1  0.38381000  0.92225000  0.71126000  1.0
  H  H20  1  0.89487000  0.35283000  0.23826000  1.0
  H  H21  1  0.74725000  0.23861000  0.14732000  1.0
  H  H22  1  0.13302000  0.26161000  0.35278000  1.0
  H  H23  1  0.48626000  0.14659000  0.26176000  1.0
  H  H24  1  0.10513000  0.64717000  0.76174000  1.0
  H  H25  1  0.25274000  0.76138000  0.85269000  1.0
  H  H26  1  0.86698000  0.73839000  0.64721000  1.0
  H  H27  1  0.51374000  0.85341000  0.73824000  1.0
  H  H28  1  0.05619000  0.31195000  0.21977000  1.0
  H  H29  1  0.86773000  0.21980000  0.18823000  1.0
  H  H30  1  0.27574000  0.28023000  0.31187000  1.0
  H  H31  1  0.58777000  0.18769000  0.28051000  1.0
  H  H32  1  0.94382000  0.68806000  0.78023000  1.0
  H  H33  1  0.13227000  0.78020000  0.81177000  1.0
  H  H34  1  0.72427000  0.71977000  0.68812000  1.0
  H  H35  1  0.41223000  0.81231000  0.71949000  1.0
  H  H36  1  0.90242000  0.35333000  0.60246000  1.0
  H  H37  1  0.75611000  0.60264000  0.14620000  1.0
  H  H38  1  0.50437000  0.89741000  0.35389000  1.0
  H  H39  1  0.85801000  0.14608000  0.89744000  1.0
  H  H40  1  0.09757000  0.64667000  0.39754000  1.0
  H  H41  1  0.24389000  0.39735000  0.85380000  1.0
  H  H42  1  0.49564000  0.10260000  0.64610000  1.0
  H  H43  1  0.14199000  0.85392000  0.10256000  1.0
  H  H44  1  0.84560000  0.28196000  0.57451000  1.0
  H  H45  1  0.62775000  0.57499000  0.21778000  1.0
  H  H46  1  0.41980000  0.92523000  0.28234000  1.0
  H  H47  1  0.70195000  0.21759000  0.92534000  1.0
  H  H48  1  0.15439000  0.71805000  0.42549000  1.0
  H  H49  1  0.37225000  0.42501000  0.78222000  1.0
  H  H50  1  0.58021000  0.07478000  0.71765000  1.0
  H  H51  1  0.29805000  0.78242000  0.07466000  1.0
  H  H52  1  0.74940000  0.38781000  0.60146000  1.0
  H  H53  1  0.63753000  0.60159000  0.11183000  1.0
  H  H54  1  0.35022000  0.89871000  0.38834000  1.0
  H  H55  1  0.73828000  0.11167000  0.89875000  1.0
  H  H56  1  0.25060000  0.61219000  0.39853000  1.0
  H  H57  1  0.36247000  0.39841000  0.88817000  1.0
  H  H58  1  0.64980000  0.10128000  0.61165000  1.0
  H  H59  1  0.26171000  0.88834000  0.10125000  1.0
  H  H60  1  0.65463000  0.34126000  0.51308000  1.0
  H  H61  1  0.49596000  0.51357000  0.15931000  1.0
  H  H62  1  0.16890000  0.98633000  0.34060000  1.0
  H  H63  1  0.50846000  0.15883000  0.98720000  1.0
  H  H64  1  0.34538000  0.65874000  0.48691000  1.0
  H  H65  1  0.50403000  0.48643000  0.84069000  1.0
  H  H66  1  0.83110000  0.01367000  0.65940000  1.0
  H  H67  1  0.49154000  0.84118000  0.01280000  1.0
  H  H68  1  0.55580000  0.23442000  0.52442000  1.0
  H  H69  1  0.29035000  0.52466000  0.26608000  1.0
  H  H70  1  0.08134000  0.97520000  0.23374000  1.0
  H  H71  1  0.31418000  0.26587000  0.97608000  1.0
  H  H72  1  0.44421000  0.76558000  0.47558000  1.0
  H  H73  1  0.70965000  0.47533000  0.73393000  1.0
  H  H74  1  0.91866000  0.02479000  0.76626000  1.0
  H  H75  1  0.68581000  0.73414000  0.02392000  1.0
  H  H76  1  0.87161000  0.09232000  0.32427000  1.0
  H  H77  1  0.46421000  0.32414000  0.40794000  1.0
  H  H78  1  0.19591000  0.17605000  0.09219000  1.0
  H  H79  1  0.28856000  0.40757000  0.17627000  1.0
  H  H80  1  0.12840000  0.90767000  0.67573000  1.0
  H  H81  1  0.53580000  0.67585000  0.59206000  1.0
  H  H82  1  0.80408000  0.82395000  0.90781000  1.0
  H  H83  1  0.71144000  0.59243000  0.82374000  1.0
  H  H84  1  0.97279000  0.19792000  0.31240000  1.0
  H  H85  1  0.67084000  0.31251000  0.30241000  1.0
  H  H86  1  0.28534000  0.18769000  0.19776000  1.0
  H  H87  1  0.48352000  0.30185000  0.18779000  1.0
  H  H88  1  0.02724000  0.80207000  0.68759000  1.0
  H  H89  1  0.32916000  0.68749000  0.69759000  1.0
  H  H90  1  0.71464000  0.81232000  0.80224000  1.0
  H  H91  1  0.51647000  0.69815000  0.81222000  1.0
  C  C92  1  0.94494000  0.37522000  0.33759000  1.0
  C  C93  1  0.81999000  0.33779000  0.12503000  1.0
  C  C94  1  0.28249000  0.16236000  0.37515000  1.0
  C  C95  1  0.65787000  0.12465000  0.16247000  1.0
  C  C96  1  0.05506000  0.62478000  0.66241000  1.0
  C  C97  1  0.18000000  0.66221000  0.87497000  1.0
  C  C98  1  0.71751000  0.83764000  0.62485000  1.0
  C  C99  1  0.34212000  0.87535000  0.83754000  1.0
  C  C100  1  0.88127000  0.33826000  0.40922000  1.0
  C  C101  1  0.71951000  0.40945000  0.16203000  1.0
  C  C102  1  0.29060000  0.09072000  0.33814000  1.0
  C  C103  1  0.62877000  0.16162000  0.09086000  1.0
  C  C104  1  0.11874000  0.66174000  0.59077000  1.0
  C  C105  1  0.28048000  0.59055000  0.83797000  1.0
  C  C106  1  0.70941000  0.90928000  0.66186000  1.0
  C  C107  1  0.37121000  0.83838000  0.90915000  1.0
  C  C108  1  0.89018000  0.37004000  0.47886000  1.0
  C  C109  1  0.76026000  0.47904000  0.13003000  1.0
  C  C110  1  0.36900000  0.02110000  0.37009000  1.0
  C  C111  1  0.73899000  0.12976000  0.02118000  1.0
  C  C112  1  0.10981000  0.62996000  0.52114000  1.0
  C  C113  1  0.23974000  0.52096000  0.86997000  1.0
  C  C114  1  0.63102000  0.97889000  0.62990000  1.0
  C  C115  1  0.26101000  0.87024000  0.97882000  1.0
  C  C116  1  0.97095000  0.36534000  0.24684000  1.0
  C  C117  1  0.83591000  0.24705000  0.13485000  1.0
  C  C118  1  0.21767000  0.25309000  0.36527000  1.0
  C  C119  1  0.58332000  0.13432000  0.25322000  1.0
  C  C120  1  0.02905000  0.63467000  0.75316000  1.0
  C  C121  1  0.16410000  0.75295000  0.86514000  1.0
  C  C122  1  0.78234000  0.74691000  0.63472000  1.0
  C  C123  1  0.41667000  0.86569000  0.74678000  1.0
  C  C124  1  0.84475000  0.34705000  0.56929000  1.0
  C  C125  1  0.69201000  0.56953000  0.15271000  1.0
  C  C126  1  0.41367000  0.93064000  0.34741000  1.0
  C  C127  1  0.76088000  0.15252000  0.93070000  1.0
  C  C128  1  0.15524000  0.65296000  0.43071000  1.0
  C  C129  1  0.30797000  0.43047000  0.84730000  1.0
  C  C130  1  0.58634000  0.06936000  0.65258000  1.0
  C  C131  1  0.23912000  0.84749000  0.06930000  1.0
  C  C132  1  0.82116000  0.27723000  0.41248000  1.0
  C  C133  1  0.59847000  0.41270000  0.22317000  1.0
  C  C134  1  0.23399000  0.08745000  0.27697000  1.0
  C  C135  1  0.51088000  0.22273000  0.08772000  1.0
  C  C136  1  0.17885000  0.72276000  0.58752000  1.0
  C  C137  1  0.40153000  0.58730000  0.77683000  1.0
  C  C138  1  0.76601000  0.91255000  0.72303000  1.0
  C  C139  1  0.48912000  0.77727000  0.91228000  1.0
  C  C140  1  0.70317000  0.28629000  0.47203000  1.0
  C  C141  1  0.48953000  0.47234000  0.21418000  1.0
  C  C142  1  0.17596000  0.02769000  0.28581000  1.0
  C  C143  1  0.46123000  0.21378000  0.02827000  1.0
  C  C144  1  0.29684000  0.71371000  0.52796000  1.0
  C  C145  1  0.51046000  0.52765000  0.78582000  1.0
  C  C146  1  0.82405000  0.97230000  0.71418000  1.0
  C  C147  1  0.53875000  0.78623000  0.97174000  1.0
  C  C148  1  0.64714000  0.22699000  0.47815000  1.0
  C  C149  1  0.37426000  0.47832000  0.27345000  1.0
  C  C150  1  0.12603000  0.02166000  0.22648000  1.0
  C  C151  1  0.35199000  0.27319000  0.02230000  1.0
  C  C152  1  0.35286000  0.77301000  0.52185000  1.0
  C  C153  1  0.62575000  0.52167000  0.72655000  1.0
  C  C154  1  0.87398000  0.97834000  0.77351000  1.0
  C  C155  1  0.64800000  0.72681000  0.97771000  1.0
  C  C156  1  0.70767000  0.15666000  0.42486000  1.0
  C  C157  1  0.36447000  0.42483000  0.34368000  1.0
  C  C158  1  0.13282000  0.07526000  0.15633000  1.0
  C  C159  1  0.28907000  0.34349000  0.07563000  1.0
  C  C160  1  0.29235000  0.84334000  0.57513000  1.0
  C  C161  1  0.63554000  0.57516000  0.65632000  1.0
  C  C162  1  0.86718000  0.92473000  0.84367000  1.0
  C  C163  1  0.71092000  0.65651000  0.92438000  1.0
  C  C164  1  0.82439000  0.14780000  0.36456000  1.0
  C  C165  1  0.47237000  0.36452000  0.35251000  1.0
  C  C166  1  0.18910000  0.13562000  0.14759000  1.0
  C  C167  1  0.33689000  0.35219000  0.13586000  1.0
  C  C168  1  0.17562000  0.85219000  0.63545000  1.0
  C  C169  1  0.52764000  0.63547000  0.64750000  1.0
  C  C170  1  0.81090000  0.86438000  0.85241000  1.0
  C  C171  1  0.66310000  0.64781000  0.86415000  1.0
  C  C172  1  0.88040000  0.20723000  0.35816000  1.0
  C  C173  1  0.58777000  0.35824000  0.29311000  1.0
  C  C174  1  0.23872000  0.14193000  0.20705000  1.0
  C  C175  1  0.44596000  0.29267000  0.14212000  1.0
  C  C176  1  0.11960000  0.79276000  0.64184000  1.0
  C  C177  1  0.41223000  0.64176000  0.70689000  1.0
  C  C178  1  0.76128000  0.85807000  0.79295000  1.0
  C  C179  1  0.55403000  0.70733000  0.85789000  1.0
  C  C180  1  0.65237000  0.08944000  0.43327000  1.0
  C  C181  1  0.24193000  0.43305000  0.41078000  1.0
  C  C182  1  0.08560000  0.06707000  0.08922000  1.0
  C  C183  1  0.17491000  0.41073000  0.06729000  1.0
  C  C184  1  0.34764000  0.91056000  0.56673000  1.0
  C  C185  1  0.75808000  0.56694000  0.58923000  1.0
  C  C186  1  0.91439000  0.93293000  0.91078000  1.0
  C  C187  1  0.82508000  0.58928000  0.93272000  1.0
  N  N188  1  0.98528000  0.42589000  0.36592000  1.0
  N  N189  1  0.91103000  0.36605000  0.07422000  1.0
  N  N190  1  0.35116000  0.13405000  0.42585000  1.0
  N  N191  1  0.77721000  0.07403000  0.13410000  1.0
  N  N192  1  0.01471000  0.57411000  0.63408000  1.0
  N  N193  1  0.08896000  0.63395000  0.92578000  1.0
  N  N194  1  0.64884000  0.86595000  0.57415000  1.0
  N  N195  1  0.22278000  0.92597000  0.86590000  1.0
  N  N196  1  0.95494000  0.42285000  0.45069000  1.0
  N  N197  1  0.87774000  0.45082000  0.07716000  1.0
  N  N198  1  0.40557000  0.04928000  0.42287000  1.0
  N  N199  1  0.82845000  0.07699000  0.04931000  1.0
  N  N200  1  0.04507000  0.57715000  0.54930000  1.0
  N  N201  1  0.12226000  0.54918000  0.92284000  1.0
  N  N202  1  0.59444000  0.95072000  0.57712000  1.0
  N  N203  1  0.17154000  0.92301000  0.95069000  1.0
  O  O204  1  0.53968000  0.10568000  0.48704000  1.0
  O  O205  1  0.14556000  0.48701000  0.39455000  1.0
  O  O206  1  0.02707000  0.01306000  0.10542000  1.0
  O  O207  1  0.13251000  0.39457000  0.01329000  1.0
  O  O208  1  0.46032000  0.89432000  0.51296000  1.0
  O  O209  1  0.85446000  0.51298000  0.60545000  1.0
  O  O210  1  0.97292000  0.98694000  0.89458000  1.0
  O  O211  1  0.86748000  0.60544000  0.98672000  1.0
  O  O212  1  0.71252000  0.02288000  0.39182000  1.0
  O  O213  1  0.23540000  0.39134000  0.47723000  1.0
  O  O214  1  0.10370000  0.10884000  0.02281000  1.0
  O  O215  1  0.12679000  0.47714000  0.10898000  1.0
  O  O216  1  0.28750000  0.97712000  0.60817000  1.0
  O  O217  1  0.76463000  0.60866000  0.52277000  1.0
  O  O218  1  0.89631000  0.89115000  0.97718000  1.0
  O  O219  1  0.87320000  0.52287000  0.89103000  1.0
