# generated using pymatgen
data_CuH5C6NClO2
_symmetry_space_group_name_H-M   'P 1'
_cell_length_a   3.69285000
_cell_length_b   5.98491000
_cell_length_c   30.63040000
_cell_angle_alpha   89.99910000
_cell_angle_beta   89.99980000
_cell_angle_gamma   86.86990000
_symmetry_Int_Tables_number   1
_chemical_formula_structural   CuH5C6NClO2
_chemical_formula_sum   'Cu4 H20 C24 N4 Cl4 O8'
_cell_volume   675.96399128
_cell_formula_units_Z   4
loop_
 _symmetry_equiv_pos_site_id
 _symmetry_equiv_pos_as_xyz
  1  'x, y, z'
loop_
 _atom_site_type_symbol
 _atom_site_label
 _atom_site_symmetry_multiplicity
 _atom_site_fract_x
 _atom_site_fract_y
 _atom_site_fract_z
 _atom_site_occupancy
  Cu  Cu0  1  0.05942000  0.85269000  0.21974000  1.0
  Cu  Cu1  1  0.44059000  0.64734000  0.71974000  1.0
  Cu  Cu2  1  0.94055000  0.14732000  0.78026000  1.0
  Cu  Cu3  1  0.55945000  0.35267000  0.28025000  1.0
  H  H4  1  0.37490000  0.85326000  0.98483000  1.0
  H  H5  1  0.12510000  0.64680000  0.48483000  1.0
  H  H6  1  0.62503000  0.14680000  0.01518000  1.0
  H  H7  1  0.87490000  0.35318000  0.51517000  1.0
  H  H8  1  0.34459000  0.96301000  0.13316000  1.0
  H  H9  1  0.15540000  0.53695000  0.63316000  1.0
  H  H10  1  0.65544000  0.03697000  0.86685000  1.0
  H  H11  1  0.84463000  0.46303000  0.36684000  1.0
  H  H12  1  0.02879000  0.43359000  0.04777000  1.0
  H  H13  1  0.47120000  0.06638000  0.54777000  1.0
  H  H14  1  0.97112000  0.56643000  0.95223000  1.0
  H  H15  1  0.52884000  0.93361000  0.45223000  1.0
  H  H16  1  0.82778000  0.22909000  0.11469000  1.0
  H  H17  1  0.67220000  0.27089000  0.61469000  1.0
  H  H18  1  0.17210000  0.77093000  0.88531000  1.0
  H  H19  1  0.32786000  0.72910000  0.38530000  1.0
  H  H20  1  0.90038000  0.40497000  0.18781000  1.0
  H  H21  1  0.59957000  0.09498000  0.68781000  1.0
  H  H22  1  0.09960000  0.59501000  0.81219000  1.0
  H  H23  1  0.40046000  0.90500000  0.31219000  1.0
  C  C24  1  0.23027000  0.80105000  0.12782000  1.0
  C  C25  1  0.26973000  0.69892000  0.62781000  1.0
  C  C26  1  0.76976000  0.19894000  0.87219000  1.0
  C  C27  1  0.73029000  0.30106000  0.37218000  1.0
  C  C28  1  0.20323000  0.71298000  0.08575000  1.0
  C  C29  1  0.29676000  0.78698000  0.58575000  1.0
  C  C30  1  0.79676000  0.28702000  0.91425000  1.0
  C  C31  1  0.70324000  0.21301000  0.41425000  1.0
  C  C32  1  0.05505000  0.50405000  0.08028000  1.0
  C  C33  1  0.44494000  0.99594000  0.58028000  1.0
  C  C34  1  0.94493000  0.49597000  0.91972000  1.0
  C  C35  1  0.55508000  0.00404000  0.41972000  1.0
  C  C36  1  0.94602000  0.39115000  0.11733000  1.0
  C  C37  1  0.55393000  0.10881000  0.61733000  1.0
  C  C38  1  0.05395000  0.60882000  0.88267000  1.0
  C  C39  1  0.44612000  0.89119000  0.38267000  1.0
  C  C40  1  0.98279000  0.48925000  0.15816000  1.0
  C  C41  1  0.51718000  0.01074000  0.65816000  1.0
  C  C42  1  0.01720000  0.51073000  0.84184000  1.0
  C  C43  1  0.48287000  0.98926000  0.34184000  1.0
  C  C44  1  0.33088000  0.84304000  0.04841000  1.0
  C  C45  1  0.16915000  0.65695000  0.54840000  1.0
  C  C46  1  0.66908000  0.15698000  0.95160000  1.0
  C  C47  1  0.83087000  0.34303000  0.45159000  1.0
  N  N48  1  0.11730000  0.69378000  0.16352000  1.0
  N  N49  1  0.38268000  0.80618000  0.66352000  1.0
  N  N50  1  0.88270000  0.30619000  0.83649000  1.0
  N  N51  1  0.61736000  0.19381000  0.33648000  1.0
  Cl  Cl52  1  0.04712000  0.59462000  0.27685000  1.0
  Cl  Cl53  1  0.45291000  0.90544000  0.77685000  1.0
  Cl  Cl54  1  0.95292000  0.40544000  0.72316000  1.0
  Cl  Cl55  1  0.54709000  0.09463000  0.22314000  1.0
  O  O56  1  0.26721000  0.75759000  0.00963000  1.0
  O  O57  1  0.23282000  0.74243000  0.50963000  1.0
  O  O58  1  0.73276000  0.24244000  0.99038000  1.0
  O  O59  1  0.76719000  0.25755000  0.49036000  1.0
  O  O60  1  0.48795000  0.02131000  0.05380000  1.0
  O  O61  1  0.01206000  0.47868000  0.55379000  1.0
  O  O62  1  0.51196000  0.97873000  0.94621000  1.0
  O  O63  1  0.98795000  0.52130000  0.44621000  1.0
