# generated using pymatgen
data_AlH24C27NO6
_symmetry_space_group_name_H-M   'P 1'
_cell_length_a   4.12658000
_cell_length_b   13.47370000
_cell_length_c   13.47420731
_cell_angle_alpha   120.00026350
_cell_angle_beta   90.00329991
_cell_angle_gamma   89.99880000
_symmetry_Int_Tables_number   1
_chemical_formula_structural   AlH24C27NO6
_chemical_formula_sum   'Al1 H24 C27 N1 O6'
_cell_volume   648.79851200
_cell_formula_units_Z   1
loop_
 _symmetry_equiv_pos_site_id
 _symmetry_equiv_pos_as_xyz
  1  'x, y, z'
loop_
 _atom_site_type_symbol
 _atom_site_label
 _atom_site_symmetry_multiplicity
 _atom_site_fract_x
 _atom_site_fract_y
 _atom_site_fract_z
 _atom_site_occupancy
  Al  Al0  1  0.00002000  0.00001000  0.50001000  1.0
  H  H1  1  0.77085000  0.12851000  0.09933000  1.0
  H  H2  1  0.22911000  0.40069000  0.37150000  1.0
  H  H3  1  0.22908000  0.12851000  0.02918000  1.0
  H  H4  1  0.77088000  0.40069000  0.02919000  1.0
  H  H5  1  0.22904000  0.47080000  0.09932000  1.0
  H  H6  1  0.77094000  0.47081000  0.37149000  1.0
  H  H7  1  0.29524000  0.40429000  0.56774000  1.0
  H  H8  1  0.23554000  0.26968000  0.55936000  1.0
  H  H9  1  0.93523000  0.32494000  0.50676000  1.0
  H  H10  1  0.70473000  0.93225000  0.09573000  1.0
  H  H11  1  0.76449000  0.94061000  0.23031000  1.0
  H  H12  1  0.06473000  0.99323000  0.17505000  1.0
  H  H13  1  0.29527000  0.93225000  0.83653000  1.0
  H  H14  1  0.23553000  0.94062000  0.71031000  1.0
  H  H15  1  0.93528000  0.99323000  0.81818000  1.0
  H  H16  1  0.70477000  0.40428000  0.83655000  1.0
  H  H17  1  0.76450000  0.26969000  0.71033000  1.0
  H  H18  1  0.06480000  0.32495000  0.81819000  1.0
  H  H19  1  0.29521000  0.66347000  0.09573000  1.0
  H  H20  1  0.23547000  0.78969000  0.23032000  1.0
  H  H21  1  0.93522000  0.68181000  0.17505000  1.0
  H  H22  1  0.70475000  0.66347000  0.56774000  1.0
  H  H23  1  0.76450000  0.78969000  0.55938000  1.0
  H  H24  1  0.06475000  0.68181000  0.50676000  1.0
  C  C25  1  0.50006000  0.08781000  0.67562000  1.0
  C  C26  1  0.50001000  0.82439000  0.41219000  1.0
  C  C27  1  0.49999000  0.08781000  0.41220000  1.0
  C  C28  1  0.64687000  0.10301000  0.23935000  1.0
  C  C29  1  0.65079000  0.16529000  0.18213000  1.0
  C  C30  1  0.49998000  0.27250000  0.22751000  1.0
  C  C31  1  0.34922000  0.31786000  0.33468000  1.0
  C  C32  1  0.35309000  0.26065000  0.39699000  1.0
  C  C33  1  0.49999000  0.15199000  0.34801000  1.0
  C  C34  1  0.34919000  0.16529000  0.98317000  1.0
  C  C35  1  0.35312000  0.10300000  0.86366000  1.0
  C  C36  1  0.50005000  0.15198000  0.80398000  1.0
  C  C37  1  0.64694000  0.26065000  0.86367000  1.0
  C  C38  1  0.65079000  0.31786000  0.98319000  1.0
  C  C39  1  0.50000000  0.27250000  0.04499000  1.0
  C  C40  1  0.34919000  0.51682000  0.18214000  1.0
  C  C41  1  0.35306000  0.63634000  0.23936000  1.0
  C  C42  1  0.50000000  0.69602000  0.34801000  1.0
  C  C43  1  0.64691000  0.63634000  0.39698000  1.0
  C  C44  1  0.65080000  0.51683000  0.33469000  1.0
  C  C45  1  0.49998000  0.45501000  0.22751000  1.0
  C  C46  1  0.19802000  0.31726000  0.51399000  1.0
  C  C47  1  0.80197000  0.98600000  0.18272000  1.0
  C  C48  1  0.19804000  0.98599000  0.80327000  1.0
  C  C49  1  0.80200000  0.31726000  0.80327000  1.0
  C  C50  1  0.19798000  0.69673000  0.18272000  1.0
  C  C51  1  0.80197000  0.69673000  0.51400000  1.0
  N  N52  1  0.49998000  0.33334000  0.16667000  1.0
  O  O53  1  0.26484000  0.01931000  0.39409000  1.0
  O  O54  1  0.26490000  0.10593000  0.62524000  1.0
  O  O55  1  0.26486000  0.87476000  0.48068000  1.0
  O  O56  1  0.73516000  0.10593000  0.48070000  1.0
  O  O57  1  0.73516000  0.87477000  0.39408000  1.0
  O  O58  1  0.73521000  0.01932000  0.62524000  1.0
