# generated using pymatgen
data_NaH16(C3N)4
_symmetry_space_group_name_H-M   'P 1'
_cell_length_a   8.26343000
_cell_length_b   8.26304000
_cell_length_c   10.32910000
_cell_angle_alpha   73.79610000
_cell_angle_beta   73.80910000
_cell_angle_gamma   72.32360000
_symmetry_Int_Tables_number   1
_chemical_formula_structural   NaH16(C3N)4
_chemical_formula_sum   'Na2 H32 C24 N8'
_cell_volume   630.59944875
_cell_formula_units_Z   2
loop_
 _symmetry_equiv_pos_site_id
 _symmetry_equiv_pos_as_xyz
  1  'x, y, z'
loop_
 _atom_site_type_symbol
 _atom_site_label
 _atom_site_symmetry_multiplicity
 _atom_site_fract_x
 _atom_site_fract_y
 _atom_site_fract_z
 _atom_site_occupancy
  Na  Na0  1  0.11390000  0.88615000  0.75002000  1.0
  Na  Na1  1  0.88608000  0.11382000  0.25001000  1.0
  H  H2  1  0.89415000  0.32032000  0.71554000  1.0
  H  H3  1  0.67966000  0.10586000  0.78451000  1.0
  H  H4  1  0.10588000  0.67968000  0.28445000  1.0
  H  H5  1  0.32040000  0.89417000  0.21545000  1.0
  H  H6  1  0.84353000  0.56829000  0.81904000  1.0
  H  H7  1  0.43169000  0.15647000  0.68097000  1.0
  H  H8  1  0.15652000  0.43171000  0.18095000  1.0
  H  H9  1  0.56833000  0.84356000  0.31904000  1.0
  H  H10  1  0.20591000  0.23880000  0.07862000  1.0
  H  H11  1  0.76125000  0.79412000  0.42138000  1.0
  H  H12  1  0.79409000  0.76115000  0.92141000  1.0
  H  H13  1  0.23871000  0.20593000  0.57859000  1.0
  H  H14  1  0.23792000  0.00740000  0.96407000  1.0
  H  H15  1  0.99268000  0.76205000  0.53597000  1.0
  H  H16  1  0.76209000  0.99257000  0.03594000  1.0
  H  H17  1  0.00732000  0.23798000  0.46396000  1.0
  H  H18  1  0.19992000  0.53952000  0.68126000  1.0
  H  H19  1  0.46057000  0.80002000  0.81876000  1.0
  H  H20  1  0.80006000  0.46048000  0.31875000  1.0
  H  H21  1  0.53942000  0.19997000  0.18126000  1.0
  H  H22  1  0.28298000  0.66260000  0.53723000  1.0
  H  H23  1  0.33746000  0.71698000  0.96280000  1.0
  H  H24  1  0.71698000  0.33742000  0.46278000  1.0
  H  H25  1  0.66257000  0.28300000  0.03722000  1.0
  H  H26  1  0.52683000  0.64919000  0.60767000  1.0
  H  H27  1  0.35083000  0.47320000  0.89232000  1.0
  H  H28  1  0.47312000  0.35084000  0.39233000  1.0
  H  H29  1  0.64917000  0.52680000  0.10769000  1.0
  H  H30  1  0.50926000  0.43084000  0.65413000  1.0
  H  H31  1  0.56920000  0.49076000  0.84584000  1.0
  H  H32  1  0.49072000  0.56919000  0.34586000  1.0
  H  H33  1  0.43080000  0.50924000  0.15415000  1.0
  C  C34  1  0.95998000  0.30630000  0.79800000  1.0
  C  C35  1  0.69367000  0.04002000  0.70205000  1.0
  C  C36  1  0.04004000  0.69369000  0.20200000  1.0
  C  C37  1  0.30635000  0.95999000  0.29793000  1.0
  C  C38  1  0.93053000  0.44616000  0.85752000  1.0
  C  C39  1  0.55382000  0.06948000  0.64251000  1.0
  C  C40  1  0.06949000  0.55383000  0.14249000  1.0
  C  C41  1  0.44618000  0.93053000  0.35750000  1.0
  C  C42  1  0.13255000  0.26563000  0.99909000  1.0
  C  C43  1  0.73439000  0.86745000  0.50094000  1.0
  C  C44  1  0.86747000  0.73434000  0.00092000  1.0
  C  C45  1  0.26558000  0.13257000  0.49905000  1.0
  C  C46  1  0.15091000  0.13392000  0.93430000  1.0
  C  C47  1  0.86612000  0.84906000  0.56574000  1.0
  C  C48  1  0.84909000  0.86605000  0.06571000  1.0
  C  C49  1  0.13387000  0.15093000  0.43424000  1.0
  C  C50  1  0.01473000  0.43097000  0.96580000  1.0
  C  C51  1  0.56901000  0.98527000  0.53423000  1.0
  C  C52  1  0.98529000  0.56900000  0.03422000  1.0
  C  C53  1  0.43096000  0.01474000  0.46578000  1.0
  C  C54  1  0.44473000  0.56237000  0.67465000  1.0
  C  C55  1  0.43766000  0.55528000  0.82534000  1.0
  C  C56  1  0.55524000  0.43765000  0.32536000  1.0
  C  C57  1  0.56234000  0.44472000  0.17466000  1.0
  N  N58  1  0.06688000  0.14717000  0.83435000  1.0
  N  N59  1  0.85279000  0.93312000  0.66569000  1.0
  N  N60  1  0.93313000  0.85282000  0.16565000  1.0
  N  N61  1  0.14723000  0.06689000  0.33427000  1.0
  N  N62  1  0.27139000  0.63078000  0.64171000  1.0
  N  N63  1  0.36927000  0.72862000  0.85830000  1.0
  N  N64  1  0.72858000  0.36923000  0.35830000  1.0
  N  N65  1  0.63073000  0.27137000  0.14172000  1.0
