# generated using pymatgen
data_CdH5C3SN4Cl
_symmetry_space_group_name_H-M   'P 1'
_cell_length_a   8.64489000
_cell_length_b   10.94240000
_cell_length_c   17.19470000
_cell_angle_alpha   104.93800000
_cell_angle_beta   90.00000000
_cell_angle_gamma   90.00000000
_symmetry_Int_Tables_number   1
_chemical_formula_structural   CdH5C3SN4Cl
_chemical_formula_sum   'Cd8 H40 C24 S8 N32 Cl8'
_cell_volume   1571.57853972
_cell_formula_units_Z   8
loop_
 _symmetry_equiv_pos_site_id
 _symmetry_equiv_pos_as_xyz
  1  'x, y, z'
loop_
 _atom_site_type_symbol
 _atom_site_label
 _atom_site_symmetry_multiplicity
 _atom_site_fract_x
 _atom_site_fract_y
 _atom_site_fract_z
 _atom_site_occupancy
  Cd  Cd0  1  0.54583000  0.16158000  0.82948000  1.0
  Cd  Cd1  1  0.04583000  0.33842000  0.17052000  1.0
  Cd  Cd2  1  0.45417000  0.83842000  0.17052000  1.0
  Cd  Cd3  1  0.95417000  0.66158000  0.82948000  1.0
  Cd  Cd4  1  0.45619000  0.26468000  0.62975000  1.0
  Cd  Cd5  1  0.95619000  0.23533000  0.37025000  1.0
  Cd  Cd6  1  0.54381000  0.73533000  0.37025000  1.0
  Cd  Cd7  1  0.04381000  0.76468000  0.62975000  1.0
  H  H8  1  0.26472000  0.05468000  0.51224000  1.0
  H  H9  1  0.76472000  0.44532000  0.48776000  1.0
  H  H10  1  0.73528000  0.94532000  0.48776000  1.0
  H  H11  1  0.23528000  0.55468000  0.51224000  1.0
  H  H12  1  0.15912000  0.91950000  0.51318000  1.0
  H  H13  1  0.65912000  0.58051000  0.48682000  1.0
  H  H14  1  0.84088000  0.08051000  0.48682000  1.0
  H  H15  1  0.34088000  0.41950000  0.51318000  1.0
  H  H16  1  0.77629000  0.35914000  0.94443000  1.0
  H  H17  1  0.27629000  0.14085000  0.05556000  1.0
  H  H18  1  0.22371000  0.64086000  0.05557000  1.0
  H  H19  1  0.72371000  0.85914000  0.94444000  1.0
  H  H20  1  0.85432000  0.50560000  0.94687000  1.0
  H  H21  1  0.35432000  0.99440000  0.05313000  1.0
  H  H22  1  0.14569000  0.49440000  0.05313000  1.0
  H  H23  1  0.64568000  0.00559000  0.94687000  1.0
  H  H24  1  0.53751000  0.72777000  0.65442000  1.0
  H  H25  1  0.03751000  0.77223000  0.34559000  1.0
  H  H26  1  0.46250000  0.27223000  0.34559000  1.0
  H  H27  1  0.96250000  0.22777000  0.65441000  1.0
  H  H28  1  0.43922000  0.63491000  0.71074000  1.0
  H  H29  1  0.93922000  0.86510000  0.28926000  1.0
  H  H30  1  0.56078000  0.36510000  0.28926000  1.0
  H  H31  1  0.06078000  0.13490000  0.71074000  1.0
  H  H32  1  0.59859000  0.73394000  0.75536000  1.0
  H  H33  1  0.09859000  0.76606000  0.24464000  1.0
  H  H34  1  0.40141000  0.26606000  0.24464000  1.0
  H  H35  1  0.90142000  0.23394000  0.75536000  1.0
  H  H36  1  0.12900000  0.97100000  0.93197000  1.0
  H  H37  1  0.62900000  0.52900000  0.06803000  1.0
  H  H38  1  0.87100000  0.02899000  0.06803000  1.0
  H  H39  1  0.37100000  0.47101000  0.93197000  1.0
  H  H40  1  0.21794000  0.10180000  0.90506000  1.0
  H  H41  1  0.71794000  0.39821000  0.09495000  1.0
  H  H42  1  0.78206000  0.89820000  0.09495000  1.0
  H  H43  1  0.28205000  0.60180000  0.90505000  1.0
  H  H44  1  0.05121000  0.02596000  0.85073000  1.0
  H  H45  1  0.55121000  0.47404000  0.14927000  1.0
  H  H46  1  0.94879000  0.97403000  0.14927000  1.0
  H  H47  1  0.44879000  0.52597000  0.85073000  1.0
  C  C48  1  0.69174000  0.47023000  0.73217000  1.0
  C  C49  1  0.19174000  0.02977000  0.26783000  1.0
  C  C50  1  0.30826000  0.52977000  0.26783000  1.0
  C  C51  1  0.80826000  0.97023000  0.73217000  1.0
  C  C52  1  0.26517000  0.00429000  0.61818000  1.0
  C  C53  1  0.76517000  0.49571000  0.38182000  1.0
  C  C54  1  0.73483000  0.99571000  0.38182000  1.0
  C  C55  1  0.23483000  0.50429000  0.61818000  1.0
  C  C56  1  0.29561000  0.96467000  0.73365000  1.0
  C  C57  1  0.79561000  0.53533000  0.26635000  1.0
  C  C58  1  0.70439000  0.03533000  0.26635000  1.0
  C  C59  1  0.20439000  0.46467000  0.73365000  1.0
  C  C60  1  0.73250000  0.42608000  0.84545000  1.0
  C  C61  1  0.23249000  0.07392000  0.15456000  1.0
  C  C62  1  0.26751000  0.57392000  0.15456000  1.0
  C  C63  1  0.76750000  0.92608000  0.84544000  1.0
  C  C64  1  0.55110000  0.67377000  0.69962000  1.0
  C  C65  1  0.05110000  0.82623000  0.30038000  1.0
  C  C66  1  0.44890000  0.32623000  0.30038000  1.0
  C  C67  1  0.94890000  0.17377000  0.69962000  1.0
  C  C68  1  0.15745000  0.01193000  0.88182000  1.0
  C  C69  1  0.65745000  0.48807000  0.11818000  1.0
  C  C70  1  0.84255000  0.98807000  0.11818000  1.0
  C  C71  1  0.34254000  0.51193000  0.88182000  1.0
  S  S72  1  0.28175000  0.89701000  0.81508000  1.0
  S  S73  1  0.78175000  0.60299000  0.18492000  1.0
  S  S74  1  0.71825000  0.10299000  0.18492000  1.0
  S  S75  1  0.21825000  0.39701000  0.81508000  1.0
  S  S76  1  0.68543000  0.54737000  0.65538000  1.0
  S  S77  1  0.18543000  0.95264000  0.34462000  1.0
  S  S78  1  0.31457000  0.45263000  0.34462000  1.0
  S  S79  1  0.81457000  0.04736000  0.65538000  1.0
  N  N80  1  0.64762000  0.33047000  0.79970000  1.0
  N  N81  1  0.14762000  0.16953000  0.20029000  1.0
  N  N82  1  0.35238000  0.66953000  0.20030000  1.0
  N  N83  1  0.85238000  0.83047000  0.79971000  1.0
  N  N84  1  0.62206000  0.36007000  0.72741000  1.0
  N  N85  1  0.12206000  0.13993000  0.27259000  1.0
  N  N86  1  0.37794000  0.63993000  0.27259000  1.0
  N  N87  1  0.87794000  0.86007000  0.72741000  1.0
  N  N88  1  0.22162000  0.92220000  0.66182000  1.0
  N  N89  1  0.72162000  0.57781000  0.33818000  1.0
  N  N90  1  0.77837000  0.07780000  0.33818000  1.0
  N  N91  1  0.27838000  0.42219000  0.66182000  1.0
  N  N92  1  0.76358000  0.51452000  0.80460000  1.0
  N  N93  1  0.26358000  0.98548000  0.19540000  1.0
  N  N94  1  0.23642000  0.48548000  0.19541000  1.0
  N  N95  1  0.73642000  0.01452000  0.80460000  1.0
  N  N96  1  0.38119000  0.06629000  0.73460000  1.0
  N  N97  1  0.88118000  0.43372000  0.26540000  1.0
  N  N98  1  0.61881000  0.93371000  0.26540000  1.0
  N  N99  1  0.11881000  0.56628000  0.73460000  1.0
  N  N100  1  0.36191000  0.09334000  0.66124000  1.0
  N  N101  1  0.86191000  0.40667000  0.33876000  1.0
  N  N102  1  0.63808000  0.90666000  0.33876000  1.0
  N  N103  1  0.13809000  0.59333000  0.66124000  1.0
  N  N104  1  0.20964000  0.00172000  0.54461000  1.0
  N  N105  1  0.70964000  0.49828000  0.45539000  1.0
  N  N106  1  0.79036000  0.99828000  0.45539000  1.0
  N  N107  1  0.29036000  0.50173000  0.54461000  1.0
  N  N108  1  0.77652000  0.43643000  0.92201000  1.0
  N  N109  1  0.27652000  0.06357000  0.07798000  1.0
  N  N110  1  0.22348000  0.56357000  0.07798000  1.0
  N  N111  1  0.72348000  0.93643000  0.92202000  1.0
  Cl  Cl112  1  0.45401000  0.21019000  0.48238000  1.0
  Cl  Cl113  1  0.95401000  0.28981000  0.51762000  1.0
  Cl  Cl114  1  0.54599000  0.78981000  0.51762000  1.0
  Cl  Cl115  1  0.04599000  0.71019000  0.48238000  1.0
  Cl  Cl116  1  0.50455000  0.20829000  0.97467000  1.0
  Cl  Cl117  1  0.00455000  0.29172000  0.02533000  1.0
  Cl  Cl118  1  0.49545000  0.79171000  0.02533000  1.0
  Cl  Cl119  1  0.99545000  0.70828000  0.97467000  1.0
