# generated using pymatgen
data_Al2H5C13NO10
_symmetry_space_group_name_H-M   'P 1'
_cell_length_a   6.70828000
_cell_length_b   14.67290000
_cell_length_c   16.82420000
_cell_angle_alpha   86.28000000
_cell_angle_beta   89.99950000
_cell_angle_gamma   89.99960000
_symmetry_Int_Tables_number   1
_chemical_formula_structural   Al2H5C13NO10
_chemical_formula_sum   'Al4 H10 C26 N2 O20'
_cell_volume   1652.51553729
_cell_formula_units_Z   2
loop_
 _symmetry_equiv_pos_site_id
 _symmetry_equiv_pos_as_xyz
  1  'x, y, z'
loop_
 _atom_site_type_symbol
 _atom_site_label
 _atom_site_symmetry_multiplicity
 _atom_site_fract_x
 _atom_site_fract_y
 _atom_site_fract_z
 _atom_site_occupancy
  Al  Al0  1  0.09836000  0.50214000  0.49995000  1.0
  Al  Al1  1  0.59837000  0.49786000  0.50005000  1.0
  Al  Al2  1  0.63704000  0.99968000  0.99959000  1.0
  Al  Al3  1  0.13703000  0.00031000  0.00041000  1.0
  H  H4  1  0.58119000  0.18278000  0.80822000  1.0
  H  H5  1  0.08121000  0.81723000  0.19178000  1.0
  H  H6  1  0.03886000  0.19349000  0.79207000  1.0
  H  H7  1  0.53887000  0.80652000  0.20794000  1.0
  H  H8  1  0.01134000  0.31316000  0.70657000  1.0
  H  H9  1  0.51136000  0.68683000  0.29343000  1.0
  H  H10  1  0.34206000  0.38735000  0.53835000  1.0
  H  H11  1  0.84206000  0.61265000  0.46165000  1.0
  H  H12  1  0.38830000  0.11497000  0.01973000  1.0
  H  H13  1  0.88830000  0.88502000  0.98027000  1.0
  C  C14  1  0.35119000  0.60834000  0.60262000  1.0
  C  C15  1  0.85119000  0.39166000  0.39738000  1.0
  C  C16  1  0.35119000  0.60937000  0.38707000  1.0
  C  C17  1  0.85116000  0.39063000  0.61293000  1.0
  C  C18  1  0.72142000  0.20768000  0.78193000  1.0
  C  C19  1  0.22142000  0.79232000  0.21807000  1.0
  C  C20  1  0.89152000  0.17501000  0.81525000  1.0
  C  C21  1  0.39154000  0.82500000  0.18475000  1.0
  C  C22  1  0.70677000  0.27376000  0.71298000  1.0
  C  C23  1  0.20679000  0.72624000  0.28701000  1.0
  C  C24  1  0.86244000  0.32335000  0.68183000  1.0
  C  C25  1  0.36245000  0.67665000  0.31816000  1.0
  C  C26  1  0.88203000  0.16926000  0.16607000  1.0
  C  C27  1  0.38203000  0.83073000  0.83393000  1.0
  C  C28  1  0.87302000  0.22194000  0.21940000  1.0
  C  C29  1  0.37301000  0.77805000  0.78060000  1.0
  C  C30  1  0.86406000  0.27975000  0.27857000  1.0
  C  C31  1  0.36404000  0.72025000  0.72143000  1.0
  C  C32  1  0.85562000  0.33176000  0.33241000  1.0
  C  C33  1  0.35561000  0.66824000  0.66760000  1.0
  C  C34  1  0.38789000  0.88916000  0.11298000  1.0
  C  C35  1  0.88788000  0.11084000  0.88702000  1.0
  C  C36  1  0.38553000  0.89293000  0.89667000  1.0
  C  C37  1  0.88551000  0.10706000  0.10333000  1.0
  C  C38  1  0.50933000  0.28172000  0.68069000  1.0
  C  C39  1  0.00935000  0.71828000  0.31930000  1.0
  N  N40  1  0.34289000  0.27886000  0.66058000  1.0
  N  N41  1  0.84290000  0.72114000  0.33942000  1.0
  O  O42  1  0.51822000  0.57971000  0.41342000  1.0
  O  O43  1  0.01822000  0.42028000  0.58657000  1.0
  O  O44  1  0.17960000  0.58791000  0.57695000  1.0
  O  O45  1  0.67962000  0.41209000  0.42306000  1.0
  O  O46  1  0.18040000  0.58640000  0.41471000  1.0
  O  O47  1  0.68039000  0.41361000  0.58530000  1.0
  O  O48  1  0.02055000  0.41639000  0.42230000  1.0
  O  O49  1  0.52054000  0.58362000  0.57769000  1.0
  O  O50  1  0.34683000  0.44473000  0.50596000  1.0
  O  O51  1  0.84683000  0.55527000  0.49403000  1.0
  O  O52  1  0.21641000  0.91762000  0.92208000  1.0
  O  O53  1  0.71640000  0.08238000  0.07793000  1.0
  O  O54  1  0.55814000  0.91289000  0.08477000  1.0
  O  O55  1  0.05813000  0.08712000  0.91524000  1.0
  O  O56  1  0.55600000  0.91693000  0.92127000  1.0
  O  O57  1  0.05599000  0.08307000  0.07874000  1.0
  O  O58  1  0.71846000  0.08609000  0.91516000  1.0
  O  O59  1  0.21846000  0.91391000  0.08484000  1.0
  O  O60  1  0.38731000  0.05514000  0.99843000  1.0
  O  O61  1  0.88731000  0.94486000  0.00157000  1.0
