# generated using pymatgen
data_ZnH17C29N3O5
_symmetry_space_group_name_H-M   'P 1'
_cell_length_a   9.50263000
_cell_length_b   17.56500000
_cell_length_c   17.71610000
_cell_angle_alpha   89.99950000
_cell_angle_beta   89.99930000
_cell_angle_gamma   88.15810000
_symmetry_Int_Tables_number   1
_chemical_formula_structural   ZnH17C29N3O5
_chemical_formula_sum   'Zn4 H68 C116 N12 O20'
_cell_volume   2955.53188268
_cell_formula_units_Z   4
loop_
 _symmetry_equiv_pos_site_id
 _symmetry_equiv_pos_as_xyz
  1  'x, y, z'
loop_
 _atom_site_type_symbol
 _atom_site_label
 _atom_site_symmetry_multiplicity
 _atom_site_fract_x
 _atom_site_fract_y
 _atom_site_fract_z
 _atom_site_occupancy
  Zn  Zn0  1  0.66582000  0.98881000  0.67011000  1.0
  Zn  Zn1  1  0.33417000  0.51119000  0.17011000  1.0
  Zn  Zn2  1  0.33419000  0.01119000  0.32989000  1.0
  Zn  Zn3  1  0.66581000  0.48881000  0.82989000  1.0
  H  H4  1  0.87665000  0.86326000  0.69261000  1.0
  H  H5  1  0.12334000  0.63673000  0.19261000  1.0
  H  H6  1  0.12333000  0.13674000  0.30739000  1.0
  H  H7  1  0.87668000  0.36327000  0.80739000  1.0
  H  H8  1  0.90559000  0.72572000  0.66101000  1.0
  H  H9  1  0.09439000  0.77427000  0.16100000  1.0
  H  H10  1  0.09439000  0.27428000  0.33901000  1.0
  H  H11  1  0.90561000  0.22572000  0.83899000  1.0
  H  H12  1  0.53006000  0.74984000  0.52470000  1.0
  H  H13  1  0.46994000  0.75016000  0.02469000  1.0
  H  H14  1  0.46994000  0.25015000  0.47530000  1.0
  H  H15  1  0.53007000  0.24984000  0.97530000  1.0
  H  H16  1  0.50691000  0.88563000  0.56945000  1.0
  H  H17  1  0.49309000  0.61437000  0.06944000  1.0
  H  H18  1  0.49308000  0.11437000  0.43055000  1.0
  H  H19  1  0.50693000  0.38563000  0.93055000  1.0
  H  H20  1  0.88094000  0.60758000  0.64712000  1.0
  H  H21  1  0.11906000  0.89241000  0.14712000  1.0
  H  H22  1  0.11907000  0.39242000  0.35288000  1.0
  H  H23  1  0.88094000  0.10758000  0.85288000  1.0
  H  H24  1  0.76264000  0.44826000  0.47461000  1.0
  H  H25  1  0.23738000  0.05173000  0.97462000  1.0
  H  H26  1  0.23736000  0.55173000  0.52539000  1.0
  H  H27  1  0.76263000  0.94827000  0.02539000  1.0
  H  H28  1  0.51726000  0.66486000  0.39323000  1.0
  H  H29  1  0.48273000  0.83513000  0.89323000  1.0
  H  H30  1  0.48274000  0.33514000  0.60676000  1.0
  H  H31  1  0.51726000  0.16487000  0.10677000  1.0
  H  H32  1  0.37200000  0.64329000  0.27826000  1.0
  H  H33  1  0.62802000  0.85670000  0.77826000  1.0
  H  H34  1  0.62800000  0.35670000  0.72174000  1.0
  H  H35  1  0.37198000  0.14329000  0.22174000  1.0
  H  H36  1  0.44450000  0.40985000  0.28960000  1.0
  H  H37  1  0.55554000  0.09014000  0.78960000  1.0
  H  H38  1  0.55551000  0.59014000  0.71040000  1.0
  H  H39  1  0.44447000  0.90985000  0.21039000  1.0
  H  H40  1  0.59496000  0.42154000  0.40387000  1.0
  H  H41  1  0.40507000  0.07845000  0.90387000  1.0
  H  H42  1  0.40506000  0.57846000  0.59613000  1.0
  H  H43  1  0.59493000  0.92155000  0.09612000  1.0
  H  H44  1  0.88506000  0.37193000  0.51614000  1.0
  H  H45  1  0.11495000  0.12807000  0.01614000  1.0
  H  H46  1  0.11496000  0.62807000  0.48386000  1.0
  H  H47  1  0.88503000  0.87193000  0.98386000  1.0
  H  H48  1  0.04873000  0.27502000  0.56572000  1.0
  H  H49  1  0.95128000  0.22498000  0.06572000  1.0
  H  H50  1  0.95129000  0.72499000  0.43429000  1.0
  H  H51  1  0.04871000  0.77502000  0.93429000  1.0
  H  H52  1  0.18693000  0.43113000  0.73601000  1.0
  H  H53  1  0.81308000  0.06888000  0.23602000  1.0
  H  H54  1  0.81306000  0.56888000  0.26401000  1.0
  H  H55  1  0.18694000  0.93113000  0.76400000  1.0
  H  H56  1  0.02350000  0.53023000  0.68553000  1.0
  H  H57  1  0.97652000  0.96977000  0.18554000  1.0
  H  H58  1  0.97648000  0.46977000  0.31448000  1.0
  H  H59  1  0.02351000  0.03023000  0.81447000  1.0
  H  H60  1  0.40876000  0.18543000  0.65369000  1.0
  H  H61  1  0.59123000  0.31456000  0.15371000  1.0
  H  H62  1  0.59124000  0.81459000  0.34632000  1.0
  H  H63  1  0.40877000  0.68541000  0.84631000  1.0
  H  H64  1  0.11750000  0.00282000  0.65456000  1.0
  H  H65  1  0.88247000  0.49719000  0.15455000  1.0
  H  H66  1  0.88254000  0.99719000  0.34543000  1.0
  H  H67  1  0.11747000  0.50282000  0.84541000  1.0
  H  H68  1  0.96810000  0.23084000  0.70396000  1.0
  H  H69  1  0.03190000  0.26917000  0.20396000  1.0
  H  H70  1  0.03189000  0.76916000  0.29604000  1.0
  H  H71  1  0.96811000  0.73086000  0.79604000  1.0
  C  C72  1  0.80063000  0.83526000  0.65662000  1.0
  C  C73  1  0.19936000  0.66474000  0.15662000  1.0
  C  C74  1  0.19936000  0.16474000  0.34338000  1.0
  C  C75  1  0.80065000  0.33526000  0.84338000  1.0
  C  C76  1  0.81707000  0.75877000  0.63774000  1.0
  C  C77  1  0.18293000  0.74122000  0.13773000  1.0
  C  C78  1  0.18292000  0.24123000  0.36227000  1.0
  C  C79  1  0.81707000  0.25877000  0.86226000  1.0
  C  C80  1  0.71916000  0.72596000  0.58922000  1.0
  C  C81  1  0.28083000  0.77403000  0.08921000  1.0
  C  C82  1  0.28083000  0.27403000  0.41079000  1.0
  C  C83  1  0.71917000  0.22597000  0.91078000  1.0
  C  C84  1  0.60721000  0.77292000  0.56305000  1.0
  C  C85  1  0.39278000  0.72707000  0.06304000  1.0
  C  C86  1  0.39278000  0.22707000  0.43696000  1.0
  C  C87  1  0.60723000  0.27293000  0.93695000  1.0
  C  C88  1  0.59537000  0.84828000  0.58606000  1.0
  C  C89  1  0.40462000  0.65171000  0.08605000  1.0
  C  C90  1  0.40462000  0.15171000  0.41394000  1.0
  C  C91  1  0.59539000  0.34829000  0.91394000  1.0
  C  C92  1  0.73239000  0.64593000  0.56276000  1.0
  C  C93  1  0.26760000  0.85407000  0.06276000  1.0
  C  C94  1  0.26762000  0.35407000  0.43724000  1.0
  C  C95  1  0.73239000  0.14593000  0.93724000  1.0
  C  C96  1  0.82451000  0.59207000  0.59633000  1.0
  C  C97  1  0.17549000  0.90792000  0.09633000  1.0
  C  C98  1  0.17549000  0.40793000  0.40368000  1.0
  C  C99  1  0.82451000  0.09207000  0.90368000  1.0
  C  C100  1  0.83885000  0.51829000  0.56584000  1.0
  C  C101  1  0.16115000  0.98171000  0.06584000  1.0
  C  C102  1  0.16115000  0.48171000  0.43416000  1.0
  C  C103  1  0.83885000  0.01829000  0.93416000  1.0
  C  C104  1  0.75503000  0.50327000  0.50255000  1.0
  C  C105  1  0.24498000  0.99672000  0.00255000  1.0
  C  C106  1  0.24497000  0.49673000  0.49746000  1.0
  C  C107  1  0.75503000  0.00328000  0.99746000  1.0
  C  C108  1  0.66201000  0.55925000  0.47389000  1.0
  C  C109  1  0.33799000  0.94075000  0.97388000  1.0
  C  C110  1  0.33799000  0.44075000  0.52611000  1.0
  C  C111  1  0.66201000  0.05925000  0.02611000  1.0
  C  C112  1  0.57119000  0.54546000  0.40765000  1.0
  C  C113  1  0.42882000  0.95453000  0.90765000  1.0
  C  C114  1  0.42882000  0.45453000  0.59235000  1.0
  C  C115  1  0.57118000  0.04547000  0.09235000  1.0
  C  C116  1  0.50297000  0.60759000  0.37191000  1.0
  C  C117  1  0.49703000  0.89240000  0.87190000  1.0
  C  C118  1  0.49703000  0.39241000  0.62809000  1.0
  C  C119  1  0.50297000  0.10760000  0.12810000  1.0
  C  C120  1  0.42222000  0.59555000  0.30827000  1.0
  C  C121  1  0.57779000  0.90444000  0.80827000  1.0
  C  C122  1  0.57778000  0.40444000  0.69173000  1.0
  C  C123  1  0.42221000  0.09556000  0.19173000  1.0
  C  C124  1  0.46502000  0.46520000  0.31449000  1.0
  C  C125  1  0.53500000  0.03479000  0.81449000  1.0
  C  C126  1  0.53498000  0.53480000  0.68551000  1.0
  C  C127  1  0.46500000  0.96520000  0.18551000  1.0
  C  C128  1  0.54931000  0.47278000  0.37789000  1.0
  C  C129  1  0.45071000  0.02721000  0.87789000  1.0
  C  C130  1  0.45070000  0.52722000  0.62211000  1.0
  C  C131  1  0.54929000  0.97278000  0.12210000  1.0
  C  C132  1  0.93741000  0.45970000  0.59714000  1.0
  C  C133  1  0.06260000  0.04030000  0.09715000  1.0
  C  C134  1  0.06258000  0.54030000  0.40286000  1.0
  C  C135  1  0.93741000  0.95970000  0.90286000  1.0
  C  C136  1  0.94870000  0.38650000  0.56481000  1.0
  C  C137  1  0.05131000  0.11349000  0.06481000  1.0
  C  C138  1  0.05131000  0.61350000  0.43520000  1.0
  C  C139  1  0.94869000  0.88651000  0.93519000  1.0
  C  C140  1  0.04138000  0.33075000  0.59252000  1.0
  C  C141  1  0.95864000  0.16924000  0.09253000  1.0
  C  C142  1  0.95863000  0.66925000  0.40749000  1.0
  C  C143  1  0.04137000  0.83076000  0.90748000  1.0
  C  C144  1  0.12530000  0.34655000  0.65529000  1.0
  C  C145  1  0.87472000  0.15345000  0.15530000  1.0
  C  C146  1  0.87470000  0.65346000  0.34472000  1.0
  C  C147  1  0.12531000  0.84655000  0.84472000  1.0
  C  C148  1  0.11882000  0.41899000  0.68814000  1.0
  C  C149  1  0.88120000  0.08101000  0.18815000  1.0
  C  C150  1  0.88117000  0.58102000  0.31187000  1.0
  C  C151  1  0.11883000  0.91899000  0.81187000  1.0
  C  C152  1  0.02599000  0.47438000  0.65887000  1.0
  C  C153  1  0.97402000  0.02562000  0.15888000  1.0
  C  C154  1  0.97399000  0.52562000  0.34114000  1.0
  C  C155  1  0.02601000  0.97439000  0.84113000  1.0
  C  C156  1  0.19069000  0.21686000  0.67740000  1.0
  C  C157  1  0.80931000  0.28314000  0.17741000  1.0
  C  C158  1  0.80931000  0.78315000  0.32260000  1.0
  C  C159  1  0.19070000  0.71686000  0.82260000  1.0
  C  C160  1  0.30198000  0.16588000  0.66092000  1.0
  C  C161  1  0.69802000  0.33412000  0.16093000  1.0
  C  C162  1  0.69803000  0.83413000  0.33909000  1.0
  C  C163  1  0.30198000  0.66587000  0.83907000  1.0
  C  C164  1  0.27524000  0.08805000  0.65454000  1.0
  C  C165  1  0.72474000  0.41195000  0.15454000  1.0
  C  C166  1  0.72478000  0.91197000  0.34546000  1.0
  C  C167  1  0.27523000  0.58804000  0.84544000  1.0
  C  C168  1  0.13795000  0.06293000  0.66191000  1.0
  C  C169  1  0.86203000  0.43707000  0.16190000  1.0
  C  C170  1  0.86207000  0.93708000  0.33808000  1.0
  C  C171  1  0.13794000  0.56293000  0.83806000  1.0
  C  C172  1  0.02791000  0.11432000  0.68006000  1.0
  C  C173  1  0.97208000  0.38569000  0.18005000  1.0
  C  C174  1  0.97211000  0.88568000  0.31994000  1.0
  C  C175  1  0.02790000  0.61433000  0.81992000  1.0
  C  C176  1  0.05484000  0.19146000  0.68949000  1.0
  C  C177  1  0.94515000  0.30854000  0.18949000  1.0
  C  C178  1  0.94517000  0.80854000  0.31052000  1.0
  C  C179  1  0.05484000  0.69147000  0.81051000  1.0
  C  C180  1  0.39327000  0.02980000  0.64459000  1.0
  C  C181  1  0.60670000  0.47019000  0.14458000  1.0
  C  C182  1  0.60676000  0.97022000  0.35541000  1.0
  C  C183  1  0.39325000  0.52979000  0.85541000  1.0
  C  C184  1  0.88084000  0.08729000  0.69080000  1.0
  C  C185  1  0.11914000  0.41272000  0.19079000  1.0
  C  C186  1  0.11918000  0.91271000  0.30920000  1.0
  C  C187  1  0.88082000  0.58731000  0.80919000  1.0
  N  N188  1  0.69110000  0.87931000  0.63195000  1.0
  N  N189  1  0.30890000  0.62068000  0.13194000  1.0
  N  N190  1  0.30889000  0.12068000  0.36805000  1.0
  N  N191  1  0.69112000  0.37932000  0.86805000  1.0
  N  N192  1  0.65107000  0.62952000  0.50341000  1.0
  N  N193  1  0.34893000  0.87047000  0.00341000  1.0
  N  N194  1  0.34894000  0.37048000  0.49659000  1.0
  N  N195  1  0.65107000  0.12952000  0.99659000  1.0
  N  N196  1  0.40397000  0.52573000  0.27930000  1.0
  N  N197  1  0.59605000  0.97426000  0.77930000  1.0
  N  N198  1  0.59604000  0.47426000  0.72070000  1.0
  N  N199  1  0.40395000  0.02574000  0.22070000  1.0
  O  O200  1  0.22022000  0.29376000  0.68506000  1.0
  O  O201  1  0.77979000  0.20624000  0.18507000  1.0
  O  O202  1  0.77977000  0.70625000  0.31496000  1.0
  O  O203  1  0.22024000  0.79376000  0.81496000  1.0
  O  O204  1  0.51657000  0.05705000  0.63038000  1.0
  O  O205  1  0.48340000  0.44293000  0.13039000  1.0
  O  O206  1  0.48347000  0.94298000  0.36964000  1.0
  O  O207  1  0.51654000  0.55703000  0.86963000  1.0
  O  O208  1  0.37003000  0.96085000  0.65431000  1.0
  O  O209  1  0.62994000  0.53914000  0.15427000  1.0
  O  O210  1  0.63001000  0.03917000  0.34567000  1.0
  O  O211  1  0.37000000  0.46083000  0.84568000  1.0
  O  O212  1  0.85860000  0.02140000  0.66056000  1.0
  O  O213  1  0.14138000  0.47861000  0.16056000  1.0
  O  O214  1  0.14143000  0.97859000  0.33945000  1.0
  O  O215  1  0.85858000  0.52142000  0.83943000  1.0
  O  O216  1  0.79230000  0.12674000  0.72717000  1.0
  O  O217  1  0.20768000  0.37327000  0.22715000  1.0
  O  O218  1  0.20772000  0.87325000  0.27284000  1.0
  O  O219  1  0.79228000  0.62677000  0.77283000  1.0
