# generated using pymatgen
data_CdH7C10N6Cl
_symmetry_space_group_name_H-M   'P 1'
_cell_length_a   7.17045000
_cell_length_b   9.77232000
_cell_length_c   16.20280000
_cell_angle_alpha   75.25800000
_cell_angle_beta   89.99990000
_cell_angle_gamma   89.99990000
_symmetry_Int_Tables_number   1
_chemical_formula_structural   CdH7C10N6Cl
_chemical_formula_sum   'Cd4 H28 C40 N24 Cl4'
_cell_volume   1097.98707713
_cell_formula_units_Z   4
loop_
 _symmetry_equiv_pos_site_id
 _symmetry_equiv_pos_as_xyz
  1  'x, y, z'
loop_
 _atom_site_type_symbol
 _atom_site_label
 _atom_site_symmetry_multiplicity
 _atom_site_fract_x
 _atom_site_fract_y
 _atom_site_fract_z
 _atom_site_occupancy
  Cd  Cd0  1  0.15848000  0.07357000  0.07464000  1.0
  Cd  Cd1  1  0.65848000  0.92643000  0.42536000  1.0
  Cd  Cd2  1  0.84152000  0.92644000  0.92536000  1.0
  Cd  Cd3  1  0.34152000  0.07356000  0.57464000  1.0
  H  H4  1  0.03140000  0.30160000  0.88089000  1.0
  H  H5  1  0.53140000  0.69840000  0.61911000  1.0
  H  H6  1  0.96860000  0.69840000  0.11911000  1.0
  H  H7  1  0.46860000  0.30159000  0.38089000  1.0
  H  H8  1  0.33041000  0.38711000  0.08708000  1.0
  H  H9  1  0.83041000  0.61290000  0.41291000  1.0
  H  H10  1  0.66959000  0.61290000  0.91291000  1.0
  H  H11  1  0.16959000  0.38710000  0.58708000  1.0
  H  H12  1  0.29826000  0.63718000  0.95869000  1.0
  H  H13  1  0.79826000  0.36282000  0.54131000  1.0
  H  H14  1  0.70174000  0.36282000  0.04131000  1.0
  H  H15  1  0.20175000  0.63718000  0.45869000  1.0
  H  H16  1  0.08254000  0.43569000  0.74579000  1.0
  H  H17  1  0.58254000  0.56431000  0.75421000  1.0
  H  H18  1  0.91746000  0.56431000  0.25421000  1.0
  H  H19  1  0.41746000  0.43569000  0.24579000  1.0
  H  H20  1  0.00228000  0.60986000  0.61061000  1.0
  H  H21  1  0.50228000  0.39014000  0.88938000  1.0
  H  H22  1  0.99772000  0.39014000  0.38938000  1.0
  H  H23  1  0.49772000  0.60986000  0.11061000  1.0
  H  H24  1  0.97149000  0.86548000  0.60505000  1.0
  H  H25  1  0.47149000  0.13452000  0.89495000  1.0
  H  H26  1  0.02851000  0.13452000  0.39495000  1.0
  H  H27  1  0.52851000  0.86548000  0.10505000  1.0
  H  H28  1  0.12500000  0.77571000  0.87035000  1.0
  H  H29  1  0.62501000  0.22429000  0.62965000  1.0
  H  H30  1  0.87499000  0.22429000  0.12965000  1.0
  H  H31  1  0.37500000  0.77570000  0.37035000  1.0
  C  C32  1  0.10789000  0.35710000  0.92044000  1.0
  C  C33  1  0.60789000  0.64290000  0.57956000  1.0
  C  C34  1  0.89211000  0.64290000  0.07956000  1.0
  C  C35  1  0.39212000  0.35710000  0.42044000  1.0
  C  C36  1  0.26331000  0.40814000  0.02509000  1.0
  C  C37  1  0.76331000  0.59186000  0.47491000  1.0
  C  C38  1  0.73669000  0.59186000  0.97491000  1.0
  C  C39  1  0.23669000  0.40814000  0.52509000  1.0
  C  C40  1  0.24781000  0.53136000  0.96235000  1.0
  C  C41  1  0.74781000  0.46865000  0.53764000  1.0
  C  C42  1  0.75218000  0.46864000  0.03764000  1.0
  C  C43  1  0.25219000  0.53135000  0.46236000  1.0
  C  C44  1  0.10126000  0.59487000  0.81749000  1.0
  C  C45  1  0.60127000  0.40513000  0.68251000  1.0
  C  C46  1  0.89873000  0.40513000  0.18251000  1.0
  C  C47  1  0.39873000  0.59487000  0.31749000  1.0
  C  C48  1  0.06999000  0.54741000  0.74415000  1.0
  C  C49  1  0.57000000  0.45259000  0.75585000  1.0
  C  C50  1  0.93000000  0.45259000  0.25585000  1.0
  C  C51  1  0.43000000  0.54741000  0.24415000  1.0
  C  C52  1  0.02497000  0.64600000  0.66814000  1.0
  C  C53  1  0.52497000  0.35400000  0.83186000  1.0
  C  C54  1  0.97503000  0.35400000  0.33186000  1.0
  C  C55  1  0.47503000  0.64600000  0.16814000  1.0
  C  C56  1  0.01061000  0.78977000  0.66424000  1.0
  C  C57  1  0.51062000  0.21023000  0.83576000  1.0
  C  C58  1  0.98939000  0.21023000  0.33576000  1.0
  C  C59  1  0.48939000  0.78977000  0.16424000  1.0
  C  C60  1  0.04592000  0.83654000  0.73757000  1.0
  C  C61  1  0.54592000  0.16346000  0.76242000  1.0
  C  C62  1  0.95408000  0.16346000  0.26242000  1.0
  C  C63  1  0.45408000  0.83654000  0.23758000  1.0
  C  C64  1  0.09117000  0.73849000  0.81425000  1.0
  C  C65  1  0.59117000  0.26151000  0.68575000  1.0
  C  C66  1  0.90883000  0.26151000  0.18575000  1.0
  C  C67  1  0.40883000  0.73848000  0.31426000  1.0
  C  C68  1  0.04092000  0.98677000  0.73571000  1.0
  C  C69  1  0.54093000  0.01323000  0.76429000  1.0
  C  C70  1  0.95908000  0.01323000  0.26429000  1.0
  C  C71  1  0.45907000  0.98677000  0.23571000  1.0
  N  N72  1  0.17543000  0.30069000  0.99828000  1.0
  N  N73  1  0.67543000  0.69931000  0.50172000  1.0
  N  N74  1  0.82457000  0.69932000  0.00172000  1.0
  N  N75  1  0.32457000  0.30068000  0.49828000  1.0
  N  N76  1  0.14935000  0.49796000  0.89617000  1.0
  N  N77  1  0.64936000  0.50203000  0.60383000  1.0
  N  N78  1  0.85065000  0.50203000  0.10383000  1.0
  N  N79  1  0.35065000  0.49796000  0.39617000  1.0
  N  N80  1  0.98413000  0.03919000  0.80073000  1.0
  N  N81  1  0.48413000  0.96081000  0.69927000  1.0
  N  N82  1  0.01587000  0.96081000  0.19927000  1.0
  N  N83  1  0.51587000  0.03919000  0.30073000  1.0
  N  N84  1  0.00730000  0.18061000  0.77530000  1.0
  N  N85  1  0.50730000  0.81939000  0.72470000  1.0
  N  N86  1  0.99270000  0.81939000  0.22470000  1.0
  N  N87  1  0.49270000  0.18061000  0.27530000  1.0
  N  N88  1  0.07618000  0.21351000  0.69790000  1.0
  N  N89  1  0.57618000  0.78649000  0.80210000  1.0
  N  N90  1  0.92382000  0.78649000  0.30210000  1.0
  N  N91  1  0.42382000  0.21351000  0.19790000  1.0
  N  N92  1  0.09867000  0.09413000  0.67092000  1.0
  N  N93  1  0.59867000  0.90587000  0.82908000  1.0
  N  N94  1  0.90133000  0.90587000  0.32908000  1.0
  N  N95  1  0.40133000  0.09413000  0.17092000  1.0
  Cl  Cl96  1  0.22432000  0.91024000  0.98373000  1.0
  Cl  Cl97  1  0.72432000  0.08976000  0.51627000  1.0
  Cl  Cl98  1  0.77568000  0.08976000  0.01627000  1.0
  Cl  Cl99  1  0.27568000  0.91024000  0.48373000  1.0
