# generated using pymatgen
data_CuH10C16N2O5
_symmetry_space_group_name_H-M   'P 1'
_cell_length_a   8.40966000
_cell_length_b   10.32570000
_cell_length_c   17.84590000
_cell_angle_alpha   90.00000000
_cell_angle_beta   103.16800000
_cell_angle_gamma   90.00000000
_symmetry_Int_Tables_number   1
_chemical_formula_structural   CuH10C16N2O5
_chemical_formula_sum   'Cu4 H40 C64 N8 O20'
_cell_volume   1508.91358875
_cell_formula_units_Z   4
loop_
 _symmetry_equiv_pos_site_id
 _symmetry_equiv_pos_as_xyz
  1  'x, y, z'
loop_
 _atom_site_type_symbol
 _atom_site_label
 _atom_site_symmetry_multiplicity
 _atom_site_fract_x
 _atom_site_fract_y
 _atom_site_fract_z
 _atom_site_occupancy
  Cu  Cu0  1  0.18371000  0.05586000  0.56609000  1.0
  Cu  Cu1  1  0.31629000  0.55586000  0.93391000  1.0
  Cu  Cu2  1  0.81629000  0.94414000  0.43390000  1.0
  Cu  Cu3  1  0.68371000  0.44414000  0.06609000  1.0
  H  H4  1  0.18413000  0.93684000  0.79314000  1.0
  H  H5  1  0.31587000  0.43684000  0.70686000  1.0
  H  H6  1  0.81588000  0.06316000  0.20686000  1.0
  H  H7  1  0.68413000  0.56316000  0.29314000  1.0
  H  H8  1  0.35618000  0.09238000  0.02125000  1.0
  H  H9  1  0.14382000  0.59238000  0.47875000  1.0
  H  H10  1  0.64382000  0.90762000  0.97875000  1.0
  H  H11  1  0.85618000  0.40762000  0.52125000  1.0
  H  H12  1  0.47717000  0.28343000  0.82606000  1.0
  H  H13  1  0.02283000  0.78342000  0.67394000  1.0
  H  H14  1  0.52283000  0.71657000  0.17394000  1.0
  H  H15  1  0.97717000  0.21657000  0.32606000  1.0
  H  H16  1  0.93109000  0.72879000  0.89696000  1.0
  H  H17  1  0.56890000  0.22879000  0.60304000  1.0
  H  H18  1  0.06891000  0.27121000  0.10304000  1.0
  H  H19  1  0.43110000  0.77121000  0.39696000  1.0
  H  H20  1  0.75791000  0.55402000  0.92950000  1.0
  H  H21  1  0.74209000  0.05402000  0.57050000  1.0
  H  H22  1  0.24209000  0.44598000  0.07050000  1.0
  H  H23  1  0.25791000  0.94598000  0.42950000  1.0
  H  H24  1  0.92838000  0.61243000  0.16400000  1.0
  H  H25  1  0.57162000  0.11243000  0.33600000  1.0
  H  H26  1  0.07162000  0.38758000  0.83600000  1.0
  H  H27  1  0.42838000  0.88757000  0.66400000  1.0
  H  H28  1  0.11456000  0.79150000  0.14151000  1.0
  H  H29  1  0.38544000  0.29150000  0.35849000  1.0
  H  H30  1  0.88544000  0.20850000  0.85849000  1.0
  H  H31  1  0.61456000  0.70850000  0.64151000  1.0
  H  H32  1  0.14039000  0.82782000  0.89606000  1.0
  H  H33  1  0.35961000  0.32782000  0.60394000  1.0
  H  H34  1  0.85961000  0.17218000  0.10394000  1.0
  H  H35  1  0.64039000  0.67218000  0.39606000  1.0
  H  H36  1  0.18198000  0.49975000  0.29611000  1.0
  H  H37  1  0.31803000  0.99976000  0.20389000  1.0
  H  H38  1  0.81802000  0.50025000  0.70389000  1.0
  H  H39  1  0.68197000  0.00025000  0.79611000  1.0
  H  H40  1  0.45355000  0.45986000  0.18657000  1.0
  H  H41  1  0.04646000  0.95986000  0.31343000  1.0
  H  H42  1  0.54645000  0.54014000  0.81343000  1.0
  H  H43  1  0.95354000  0.04014000  0.68657000  1.0
  C  C44  1  0.31229000  0.12183000  0.71565000  1.0
  C  C45  1  0.18771000  0.62183000  0.78435000  1.0
  C  C46  1  0.68771000  0.87817000  0.28435000  1.0
  C  C47  1  0.81229000  0.37817000  0.21565000  1.0
  C  C48  1  0.32882000  0.11111000  0.80092000  1.0
  C  C49  1  0.17118000  0.61111000  0.69908000  1.0
  C  C50  1  0.67118000  0.88889000  0.19908000  1.0
  C  C51  1  0.82882000  0.38889000  0.30092000  1.0
  C  C52  1  0.25236000  0.00998000  0.83131000  1.0
  C  C53  1  0.24764000  0.50998000  0.66869000  1.0
  C  C54  1  0.74764000  0.99002000  0.16869000  1.0
  C  C55  1  0.75236000  0.49002000  0.33131000  1.0
  C  C56  1  0.26045000  0.00244000  0.91063000  1.0
  C  C57  1  0.23955000  0.50244000  0.58937000  1.0
  C  C58  1  0.73955000  0.99756000  0.08937000  1.0
  C  C59  1  0.76045000  0.49756000  0.41063000  1.0
  C  C60  1  0.34865000  0.09632000  0.95983000  1.0
  C  C61  1  0.15135000  0.59632000  0.54017000  1.0
  C  C62  1  0.65135000  0.90368000  0.04017000  1.0
  C  C63  1  0.84865000  0.40368000  0.45983000  1.0
  C  C64  1  0.42624000  0.19620000  0.92878000  1.0
  C  C65  1  0.07376000  0.69620000  0.57122000  1.0
  C  C66  1  0.57376000  0.80380000  0.07122000  1.0
  C  C67  1  0.92624000  0.30380000  0.42878000  1.0
  C  C68  1  0.41728000  0.20491000  0.84969000  1.0
  C  C69  1  0.08272000  0.70491000  0.65031000  1.0
  C  C70  1  0.58272000  0.79509000  0.15031000  1.0
  C  C71  1  0.91728000  0.29509000  0.34969000  1.0
  C  C72  1  0.51788000  0.29376000  0.98136000  1.0
  C  C73  1  0.98212000  0.79376000  0.51864000  1.0
  C  C74  1  0.48212000  0.70624000  0.01864000  1.0
  C  C75  1  0.01788000  0.20624000  0.48136000  1.0
  C  C76  1  0.14426000  0.88776000  0.00713000  1.0
  C  C77  1  0.35573000  0.38776000  0.49286000  1.0
  C  C78  1  0.85574000  0.11224000  0.99287000  1.0
  C  C79  1  0.64427000  0.61224000  0.50713000  1.0
  C  C80  1  0.03987000  0.77406000  0.01767000  1.0
  C  C81  1  0.46012000  0.27406000  0.48233000  1.0
  C  C82  1  0.96013000  0.22594000  0.98233000  1.0
  C  C83  1  0.53988000  0.72594000  0.51767000  1.0
  C  C84  1  0.93792000  0.70673000  0.95730000  1.0
  C  C85  1  0.56208000  0.20673000  0.54270000  1.0
  C  C86  1  0.06208000  0.29327000  0.04270000  1.0
  C  C87  1  0.43792000  0.79327000  0.45730000  1.0
  C  C88  1  0.83887000  0.60880000  0.97464000  1.0
  C  C89  1  0.66113000  0.10880000  0.52536000  1.0
  C  C90  1  0.16113000  0.39120000  0.02536000  1.0
  C  C91  1  0.33887000  0.89120000  0.47464000  1.0
  C  C92  1  0.93591000  0.64111000  0.10627000  1.0
  C  C93  1  0.56409000  0.14111000  0.39373000  1.0
  C  C94  1  0.06409000  0.35889000  0.89373000  1.0
  C  C95  1  0.43591000  0.85889000  0.60627000  1.0
  C  C96  1  0.03845000  0.73942000  0.09338000  1.0
  C  C97  1  0.46155000  0.23943000  0.40662000  1.0
  C  C98  1  0.96155000  0.26057000  0.90663000  1.0
  C  C99  1  0.53845000  0.76057000  0.59338000  1.0
  C  C100  1  0.26358000  0.48737000  0.25847000  1.0
  C  C101  1  0.23643000  0.98737000  0.24153000  1.0
  C  C102  1  0.73642000  0.51262000  0.74153000  1.0
  C  C103  1  0.76358000  0.01262000  0.75847000  1.0
  C  C104  1  0.36195000  0.47187000  0.21928000  1.0
  C  C105  1  0.13806000  0.97187000  0.28072000  1.0
  C  C106  1  0.63805000  0.52813000  0.78072000  1.0
  C  C107  1  0.86194000  0.02813000  0.71928000  1.0
  N  N108  1  0.17708000  0.90001000  0.93610000  1.0
  N  N109  1  0.32292000  0.40001000  0.56390000  1.0
  N  N110  1  0.82292000  0.09999000  0.06391000  1.0
  N  N111  1  0.67708000  0.59999000  0.43610000  1.0
  N  N112  1  0.83707000  0.57708000  0.04772000  1.0
  N  N113  1  0.66293000  0.07708000  0.45228000  1.0
  N  N114  1  0.16293000  0.42292000  0.95228000  1.0
  N  N115  1  0.33707000  0.92292000  0.54772000  1.0
  O  O116  1  0.21949000  0.03362000  0.67542000  1.0
  O  O117  1  0.28051000  0.53362000  0.82458000  1.0
  O  O118  1  0.78051000  0.96638000  0.32458000  1.0
  O  O119  1  0.71949000  0.46638000  0.17542000  1.0
  O  O120  1  0.38352000  0.20967000  0.68771000  1.0
  O  O121  1  0.11648000  0.70967000  0.81229000  1.0
  O  O122  1  0.61648000  0.79033000  0.31229000  1.0
  O  O123  1  0.88352000  0.29033000  0.18771000  1.0
  O  O124  1  0.59050000  0.38924000  0.95574000  1.0
  O  O125  1  0.90950000  0.88924000  0.54426000  1.0
  O  O126  1  0.40950000  0.61076000  0.04426000  1.0
  O  O127  1  0.09050000  0.11076000  0.45574000  1.0
  O  O128  1  0.53081000  0.28910000  0.05431000  1.0
  O  O129  1  0.96919000  0.78910000  0.44569000  1.0
  O  O130  1  0.46919000  0.71090000  0.94569000  1.0
  O  O131  1  0.03081000  0.21090000  0.55431000  1.0
  O  O132  1  0.19232000  0.96387000  0.06138000  1.0
  O  O133  1  0.30768000  0.46387000  0.43862000  1.0
  O  O134  1  0.80769000  0.03613000  0.93862000  1.0
  O  O135  1  0.69232000  0.53613000  0.56138000  1.0
