# generated using pymatgen
data_NaH12C11O5F3
_symmetry_space_group_name_H-M   'P 1'
_cell_length_a   7.10123000
_cell_length_b   8.89050000
_cell_length_c   11.47170000
_cell_angle_alpha   91.95850000
_cell_angle_beta   103.95100000
_cell_angle_gamma   110.01200000
_symmetry_Int_Tables_number   1
_chemical_formula_structural   NaH12C11O5F3
_chemical_formula_sum   'Na2 H24 C22 O10 F6'
_cell_volume   655.01646507
_cell_formula_units_Z   2
loop_
 _symmetry_equiv_pos_site_id
 _symmetry_equiv_pos_as_xyz
  1  'x, y, z'
loop_
 _atom_site_type_symbol
 _atom_site_label
 _atom_site_symmetry_multiplicity
 _atom_site_fract_x
 _atom_site_fract_y
 _atom_site_fract_z
 _atom_site_occupancy
  Na  Na0  1  0.22820000  0.48711000  0.96521000  1.0
  Na  Na1  1  0.77180000  0.51289000  0.03479000  1.0
  H  H2  1  0.32927000  0.06429000  0.69510000  1.0
  H  H3  1  0.67074000  0.93571000  0.30491000  1.0
  H  H4  1  0.32703000  0.13508000  0.95994000  1.0
  H  H5  1  0.67297000  0.86491000  0.04006000  1.0
  H  H6  1  0.91552000  0.59920000  0.56680000  1.0
  H  H7  1  0.08448000  0.40080000  0.43320000  1.0
  H  H8  1  0.05028000  0.68896000  0.38787000  1.0
  H  H9  1  0.94973000  0.31104000  0.61214000  1.0
  H  H10  1  0.26155000  0.84824000  0.24088000  1.0
  H  H11  1  0.73845000  0.15177000  0.75912000  1.0
  H  H12  1  0.47046000  0.14026000  0.30649000  1.0
  H  H13  1  0.52953000  0.85975000  0.69351000  1.0
  H  H14  1  0.18303000  0.62395000  0.59840000  1.0
  H  H15  1  0.81697000  0.37605000  0.40161000  1.0
  H  H16  1  0.25033000  0.86036000  0.48098000  1.0
  H  H17  1  0.74967000  0.13964000  0.51902000  1.0
  H  H18  1  0.02787000  0.88994000  0.19785000  1.0
  H  H19  1  0.97213000  0.11006000  0.80215000  1.0
  H  H20  1  0.24704000  0.19125000  0.24815000  1.0
  H  H21  1  0.75294000  0.80875000  0.75184000  1.0
  H  H22  1  0.98478000  0.84302000  0.45177000  1.0
  H  H23  1  0.01522000  0.15699000  0.54823000  1.0
  H  H24  1  0.26193000  0.08603000  0.37619000  1.0
  H  H25  1  0.73807000  0.91398000  0.62381000  1.0
  C  C26  1  0.50722000  0.38069000  0.68698000  1.0
  C  C27  1  0.49277000  0.61931000  0.31302000  1.0
  C  C28  1  0.43222000  0.30065000  0.79315000  1.0
  C  C29  1  0.56778000  0.69936000  0.20684000  1.0
  C  C30  1  0.34861000  0.13150000  0.78047000  1.0
  C  C31  1  0.65140000  0.86849000  0.21952000  1.0
  C  C32  1  0.29445000  0.05364000  0.87807000  1.0
  C  C33  1  0.70556000  0.94636000  0.12193000  1.0
  C  C34  1  0.21235000  0.89015000  0.88965000  1.0
  C  C35  1  0.78767000  0.10986000  0.11035000  1.0
  C  C36  1  0.16400000  0.75990000  0.79210000  1.0
  C  C37  1  0.83602000  0.24011000  0.20790000  1.0
  C  C38  1  0.07307000  0.68709000  0.57766000  1.0
  C  C39  1  0.92694000  0.31292000  0.42234000  1.0
  C  C40  1  0.09059000  0.77576000  0.46850000  1.0
  C  C41  1  0.90942000  0.22424000  0.53150000  1.0
  C  C42  1  0.17275000  0.84279000  0.00507000  1.0
  C  C43  1  0.82725000  0.15721000  0.99493000  1.0
  C  C44  1  0.19629000  0.93918000  0.20811000  1.0
  C  C45  1  0.80371000  0.06082000  0.79189000  1.0
  C  C46  1  0.30074000  0.09853000  0.28927000  1.0
  C  C47  1  0.69925000  0.90147000  0.71073000  1.0
  O  O48  1  0.45777000  0.39964000  0.88309000  1.0
  O  O49  1  0.54223000  0.60035000  0.11691000  1.0
  O  O50  1  0.16398000  0.62279000  0.80541000  1.0
  O  O51  1  0.83603000  0.37721000  0.19460000  1.0
  O  O52  1  0.11929000  0.80648000  0.68061000  1.0
  O  O53  1  0.88071000  0.19352000  0.31939000  1.0
  O  O54  1  0.09038000  0.70186000  0.02611000  1.0
  O  O55  1  0.90963000  0.29814000  0.97389000  1.0
  O  O56  1  0.23075000  0.97057000  0.09011000  1.0
  O  O57  1  0.76923000  0.02943000  0.90988000  1.0
  F  F58  1  0.71083000  0.48139000  0.72654000  1.0
  F  F59  1  0.28919000  0.51858000  0.27345000  1.0
  F  F60  1  0.39636000  0.47283000  0.63782000  1.0
  F  F61  1  0.60366000  0.52718000  0.36219000  1.0
  F  F62  1  0.49420000  0.27390000  0.59374000  1.0
  F  F63  1  0.50576000  0.72608000  0.40625000  1.0
