# generated using pymatgen
data_KH5C6(ClO3)2
_symmetry_space_group_name_H-M   'P 1'
_cell_length_a   6.38721000
_cell_length_b   9.89860000
_cell_length_c   15.26400000
_cell_angle_alpha   90.00040000
_cell_angle_beta   90.00030000
_cell_angle_gamma   80.12330000
_symmetry_Int_Tables_number   1
_chemical_formula_structural   KH5C6(ClO3)2
_chemical_formula_sum   'K4 H20 C24 Cl8 O24'
_cell_volume   950.75483921
_cell_formula_units_Z   4
loop_
 _symmetry_equiv_pos_site_id
 _symmetry_equiv_pos_as_xyz
  1  'x, y, z'
loop_
 _atom_site_type_symbol
 _atom_site_label
 _atom_site_symmetry_multiplicity
 _atom_site_fract_x
 _atom_site_fract_y
 _atom_site_fract_z
 _atom_site_occupancy
  K  K0  1  0.85018000  0.18867000  0.06201000  1.0
  K  K1  1  0.64985000  0.81133000  0.56201000  1.0
  K  K2  1  0.14982000  0.81133000  0.93799000  1.0
  K  K3  1  0.35017000  0.18866000  0.43799000  1.0
  H  H4  1  0.96332000  0.48727000  0.34392000  1.0
  H  H5  1  0.53669000  0.51273000  0.84393000  1.0
  H  H6  1  0.03669000  0.51273000  0.65608000  1.0
  H  H7  1  0.46331000  0.48727000  0.15608000  1.0
  H  H8  1  0.33915000  0.32797000  0.11453000  1.0
  H  H9  1  0.16084000  0.67203000  0.61452000  1.0
  H  H10  1  0.66084000  0.67203000  0.88548000  1.0
  H  H11  1  0.83916000  0.32797000  0.38548000  1.0
  H  H12  1  0.45006000  0.37255000  0.02662000  1.0
  H  H13  1  0.04994000  0.62745000  0.52661000  1.0
  H  H14  1  0.54994000  0.62745000  0.97339000  1.0
  H  H15  1  0.95007000  0.37255000  0.47339000  1.0
  H  H16  1  0.20269000  0.20314000  0.21000000  1.0
  H  H17  1  0.29731000  0.79685000  0.70999000  1.0
  H  H18  1  0.79731000  0.79685000  0.79000000  1.0
  H  H19  1  0.70269000  0.20315000  0.29000000  1.0
  H  H20  1  0.08494000  0.35937000  0.20976000  1.0
  H  H21  1  0.41506000  0.64063000  0.70976000  1.0
  H  H22  1  0.91505000  0.64063000  0.79024000  1.0
  H  H23  1  0.58494000  0.35937000  0.29024000  1.0
  C  C24  1  0.92867000  0.64913000  0.26230000  1.0
  C  C25  1  0.57133000  0.35087000  0.76230000  1.0
  C  C26  1  0.07134000  0.35087000  0.73770000  1.0
  C  C27  1  0.42866000  0.64913000  0.23770000  1.0
  C  C28  1  0.90466000  0.74363000  0.34013000  1.0
  C  C29  1  0.59535000  0.25637000  0.84013000  1.0
  C  C30  1  0.09536000  0.25637000  0.65987000  1.0
  C  C31  1  0.40463000  0.74363000  0.15987000  1.0
  C  C32  1  0.86980000  0.88685000  0.32319000  1.0
  C  C33  1  0.63020000  0.11314000  0.82319000  1.0
  C  C34  1  0.13021000  0.11315000  0.67681000  1.0
  C  C35  1  0.36979000  0.88685000  0.17681000  1.0
  C  C36  1  0.84832000  0.94433000  0.23818000  1.0
  C  C37  1  0.65168000  0.05567000  0.73818000  1.0
  C  C38  1  0.15168000  0.05568000  0.76182000  1.0
  C  C39  1  0.34831000  0.94432000  0.26182000  1.0
  C  C40  1  0.88184000  0.84488000  0.15993000  1.0
  C  C41  1  0.61816000  0.15512000  0.65993000  1.0
  C  C42  1  0.11816000  0.15512000  0.84007000  1.0
  C  C43  1  0.38183000  0.84488000  0.34007000  1.0
  C  C44  1  0.91363000  0.69918000  0.17791000  1.0
  C  C45  1  0.58637000  0.30082000  0.67792000  1.0
  C  C46  1  0.08637000  0.30082000  0.82208000  1.0
  C  C47  1  0.41362000  0.69918000  0.32209000  1.0
  Cl  Cl48  1  0.84851000  0.99484000  0.41200000  1.0
  Cl  Cl49  1  0.65149000  0.00516000  0.91200000  1.0
  Cl  Cl50  1  0.15150000  0.00516000  0.58800000  1.0
  Cl  Cl51  1  0.34851000  0.99484000  0.08800000  1.0
  Cl  Cl52  1  0.93757000  0.58856000  0.09006000  1.0
  Cl  Cl53  1  0.56242000  0.41144000  0.59006000  1.0
  Cl  Cl54  1  0.06241000  0.41144000  0.90994000  1.0
  Cl  Cl55  1  0.43757000  0.58856000  0.40994000  1.0
  O  O56  1  0.96509000  0.51630000  0.27832000  1.0
  O  O57  1  0.53491000  0.48371000  0.77832000  1.0
  O  O58  1  0.03491000  0.48370000  0.72168000  1.0
  O  O59  1  0.46509000  0.51630000  0.22169000  1.0
  O  O60  1  0.91424000  0.68919000  0.41487000  1.0
  O  O61  1  0.58577000  0.31081000  0.91487000  1.0
  O  O62  1  0.08578000  0.31081000  0.58513000  1.0
  O  O63  1  0.41421000  0.68919000  0.08513000  1.0
  O  O64  1  0.80690000  0.07062000  0.22113000  1.0
  O  O65  1  0.69310000  0.92938000  0.72113000  1.0
  O  O66  1  0.19310000  0.92938000  0.77887000  1.0
  O  O67  1  0.30690000  0.07063000  0.27887000  1.0
  O  O68  1  0.88158000  0.89274000  0.08464000  1.0
  O  O69  1  0.61842000  0.10726000  0.58464000  1.0
  O  O70  1  0.11841000  0.10726000  0.91535000  1.0
  O  O71  1  0.38158000  0.89274000  0.41536000  1.0
  O  O72  1  0.46432000  0.36607000  0.09044000  1.0
  O  O73  1  0.03568000  0.63393000  0.59043000  1.0
  O  O74  1  0.53568000  0.63393000  0.90957000  1.0
  O  O75  1  0.96432000  0.36607000  0.40957000  1.0
  O  O76  1  0.14371000  0.28243000  0.17158000  1.0
  O  O77  1  0.35629000  0.71757000  0.67158000  1.0
  O  O78  1  0.85629000  0.71757000  0.82842000  1.0
  O  O79  1  0.64371000  0.28243000  0.32842000  1.0
