# generated using pymatgen
data_AgH23C22(NO2)2
_symmetry_space_group_name_H-M   'P 1'
_cell_length_a   6.62756000
_cell_length_b   11.47400000
_cell_length_c   13.02797638
_cell_angle_alpha   109.22222947
_cell_angle_beta   89.99989249
_cell_angle_gamma   89.99230000
_symmetry_Int_Tables_number   1
_chemical_formula_structural   AgH23C22(NO2)2
_chemical_formula_sum   'Ag2 H46 C44 N4 O8'
_cell_volume   935.47432025
_cell_formula_units_Z   2
loop_
 _symmetry_equiv_pos_site_id
 _symmetry_equiv_pos_as_xyz
  1  'x, y, z'
loop_
 _atom_site_type_symbol
 _atom_site_label
 _atom_site_symmetry_multiplicity
 _atom_site_fract_x
 _atom_site_fract_y
 _atom_site_fract_z
 _atom_site_occupancy
  Ag  Ag0  1  0.74982000  0.90638000  0.94743000  1.0
  Ag  Ag1  1  0.25003000  0.09363000  0.05258000  1.0
  H  H2  1  0.74938000  0.01530000  0.27233000  1.0
  H  H3  1  0.24962000  0.98469000  0.72766000  1.0
  H  H4  1  0.75019000  0.04615000  0.79947000  1.0
  H  H5  1  0.25010000  0.95386000  0.20055000  1.0
  H  H6  1  0.75008000  0.25637000  0.78880000  1.0
  H  H7  1  0.25002000  0.74363000  0.21121000  1.0
  H  H8  1  0.74993000  0.39243000  0.14128000  1.0
  H  H9  1  0.25003000  0.60758000  0.85873000  1.0
  H  H10  1  0.74998000  0.17766000  0.13692000  1.0
  H  H11  1  0.25004000  0.82235000  0.86309000  1.0
  H  H12  1  0.74995000  0.77594000  0.12977000  1.0
  H  H13  1  0.25002000  0.22407000  0.87023000  1.0
  H  H14  1  0.74990000  0.56538000  0.13865000  1.0
  H  H15  1  0.25002000  0.43463000  0.86136000  1.0
  H  H16  1  0.75013000  0.43025000  0.78699000  1.0
  H  H17  1  0.24997000  0.56975000  0.21302000  1.0
  H  H18  1  0.75020000  0.64768000  0.79334000  1.0
  H  H19  1  0.24994000  0.35232000  0.20666000  1.0
  H  H20  1  0.88379000  0.92927000  0.57721000  1.0
  H  H21  1  0.38384000  0.07071000  0.42278000  1.0
  H  H22  1  0.11622000  0.07073000  0.42275000  1.0
  H  H23  1  0.61618000  0.92928000  0.57724000  1.0
  H  H24  1  0.93863000  0.72805000  0.28541000  1.0
  H  H25  1  0.43860000  0.27193000  0.71459000  1.0
  H  H26  1  0.06128000  0.27198000  0.71456000  1.0
  H  H27  1  0.56132000  0.72803000  0.28543000  1.0
  H  H28  1  0.07549000  0.81175000  0.40456000  1.0
  H  H29  1  0.57549000  0.18823000  0.59543000  1.0
  H  H30  1  0.92444000  0.18827000  0.59540000  1.0
  H  H31  1  0.42445000  0.81173000  0.40459000  1.0
  H  H32  1  0.07504000  0.58651000  0.38014000  1.0
  H  H33  1  0.57497000  0.41349000  0.61988000  1.0
  H  H34  1  0.92494000  0.41351000  0.61979000  1.0
  H  H35  1  0.42502000  0.58650000  0.38019000  1.0
  H  H36  1  0.94292000  0.59996000  0.56266000  1.0
  H  H37  1  0.44288000  0.40004000  0.43734000  1.0
  H  H38  1  0.05717000  0.40002000  0.43728000  1.0
  H  H39  1  0.55721000  0.59997000  0.56270000  1.0
  H  H40  1  0.07468000  0.73673000  0.57006000  1.0
  H  H41  1  0.57469000  0.26326000  0.42994000  1.0
  H  H42  1  0.92542000  0.26326000  0.42987000  1.0
  H  H43  1  0.42540000  0.73674000  0.57011000  1.0
  H  H44  1  0.75008000  0.47989000  0.39049000  1.0
  H  H45  1  0.24997000  0.52010000  0.60951000  1.0
  H  H46  1  0.75002000  0.53384000  0.27818000  1.0
  H  H47  1  0.24989000  0.46615000  0.72182000  1.0
  C  C48  1  0.75011000  0.12640000  0.87310000  1.0
  C  C49  1  0.25006000  0.87360000  0.12692000  1.0
  C  C50  1  0.75007000  0.24545000  0.86853000  1.0
  C  C51  1  0.25004000  0.75455000  0.13148000  1.0
  C  C52  1  0.75001000  0.34698000  0.96499000  1.0
  C  C53  1  0.25001000  0.65302000  0.03502000  1.0
  C  C54  1  0.74996000  0.32021000  0.06248000  1.0
  C  C55  1  0.25004000  0.67980000  0.93753000  1.0
  C  C56  1  0.75000000  0.19839000  0.06121000  1.0
  C  C57  1  0.25005000  0.80162000  0.93881000  1.0
  C  C58  1  0.74999000  0.69683000  0.05527000  1.0
  C  C59  1  0.25001000  0.30317000  0.94473000  1.0
  C  C60  1  0.74994000  0.57722000  0.05925000  1.0
  C  C61  1  0.25000000  0.42278000  0.94075000  1.0
  C  C62  1  0.74999000  0.47560000  0.96330000  1.0
  C  C63  1  0.25000000  0.52440000  0.03670000  1.0
  C  C64  1  0.75009000  0.50277000  0.86580000  1.0
  C  C65  1  0.24998000  0.49723000  0.13421000  1.0
  C  C66  1  0.75012000  0.62472000  0.86804000  1.0
  C  C67  1  0.24998000  0.37528000  0.13196000  1.0
  C  C68  1  0.75008000  0.81008000  0.70795000  1.0
  C  C69  1  0.25015000  0.18994000  0.29205000  1.0
  C  C70  1  0.75004000  0.75898000  0.58240000  1.0
  C  C71  1  0.25006000  0.24102000  0.41760000  1.0
  C  C72  1  0.74999000  0.87304000  0.54489000  1.0
  C  C73  1  0.25002000  0.12695000  0.45511000  1.0
  C  C74  1  0.74996000  0.83516000  0.42009000  1.0
  C  C75  1  0.24997000  0.16483000  0.57990000  1.0
  C  C76  1  0.74989000  0.95196000  0.38960000  1.0
  C  C77  1  0.24992000  0.04803000  0.61039000  1.0
  C  C78  1  0.93956000  0.75611000  0.37478000  1.0
  C  C79  1  0.43954000  0.24388000  0.62522000  1.0
  C  C80  1  0.06037000  0.24391000  0.62519000  1.0
  C  C81  1  0.56041000  0.75609000  0.37480000  1.0
  C  C82  1  0.93870000  0.64190000  0.41183000  1.0
  C  C83  1  0.43865000  0.35809000  0.58817000  1.0
  C  C84  1  0.06128000  0.35811000  0.58813000  1.0
  C  C85  1  0.56134000  0.64189000  0.41185000  1.0
  C  C86  1  0.93964000  0.68207000  0.53669000  1.0
  C  C87  1  0.43962000  0.31792000  0.46332000  1.0
  C  C88  1  0.06044000  0.31793000  0.46328000  1.0
  C  C89  1  0.56046000  0.68208000  0.53671000  1.0
  C  C90  1  0.75003000  0.56412000  0.36768000  1.0
  C  C91  1  0.24994000  0.43588000  0.63232000  1.0
  N  N92  1  0.75009000  0.10233000  0.96768000  1.0
  N  N93  1  0.25007000  0.89768000  0.03234000  1.0
  N  N94  1  0.75008000  0.72133000  0.96119000  1.0
  N  N95  1  0.25000000  0.27867000  0.03881000  1.0
  O  O96  1  0.57988000  0.83192000  0.75627000  1.0
  O  O97  1  0.07997000  0.16815000  0.24372000  1.0
  O  O98  1  0.42038000  0.16791000  0.24379000  1.0
  O  O99  1  0.92029000  0.83206000  0.75622000  1.0
  O  O100  1  0.75011000  0.05681000  0.45497000  1.0
  O  O101  1  0.25001000  0.94317000  0.54502000  1.0
  O  O102  1  0.74952000  0.93297000  0.28082000  1.0
  O  O103  1  0.24972000  0.06701000  0.71916000  1.0
