# generated using pymatgen
data_CuH12C18(NO)3
_symmetry_space_group_name_H-M   'P 1'
_cell_length_a   15.30780000
_cell_length_b   19.37360000
_cell_length_c   20.89910000
_cell_angle_alpha   89.99990000
_cell_angle_beta   80.33120000
_cell_angle_gamma   89.99980000
_symmetry_Int_Tables_number   1
_chemical_formula_structural   CuH12C18(NO)3
_chemical_formula_sum   'Cu8 H96 C144 N24 O24'
_cell_volume   6109.94548410
_cell_formula_units_Z   8
loop_
 _symmetry_equiv_pos_site_id
 _symmetry_equiv_pos_as_xyz
  1  'x, y, z'
loop_
 _atom_site_type_symbol
 _atom_site_label
 _atom_site_symmetry_multiplicity
 _atom_site_fract_x
 _atom_site_fract_y
 _atom_site_fract_z
 _atom_site_occupancy
  Cu  Cu0  1  0.32268000  0.46512000  0.76169000  1.0
  Cu  Cu1  1  0.45428000  0.53975000  0.82837000  1.0
  Cu  Cu2  1  0.32268000  0.03488000  0.26169000  1.0
  Cu  Cu3  1  0.45429000  0.96024000  0.32837000  1.0
  Cu  Cu4  1  0.67734000  0.96514000  0.73830000  1.0
  Cu  Cu5  1  0.54572000  0.03979000  0.67164000  1.0
  Cu  Cu6  1  0.67734000  0.53487000  0.23830000  1.0
  Cu  Cu7  1  0.54572000  0.46021000  0.17163000  1.0
  H  H8  1  0.37282000  0.04950000  0.11577000  1.0
  H  H9  1  0.38404000  0.13635000  0.02686000  1.0
  H  H10  1  0.30126000  0.29082000  0.17423000  1.0
  H  H11  1  0.30045000  0.19766000  0.25648000  1.0
  H  H12  1  0.32456000  0.19750000  0.96665000  1.0
  H  H13  1  0.32129000  0.28326000  0.87967000  1.0
  H  H14  1  0.34312000  0.44779000  0.01409000  1.0
  H  H15  1  0.34813000  0.36276000  0.10148000  1.0
  H  H16  1  0.17032000  0.37794000  0.80478000  1.0
  H  H17  1  0.00572000  0.38492000  0.82028000  1.0
  H  H18  1  0.03383000  0.60340000  0.78009000  1.0
  H  H19  1  0.19735000  0.58605000  0.76200000  1.0
  H  H20  1  0.88529000  0.42365000  0.88674000  1.0
  H  H21  1  0.72083000  0.43127000  0.90133000  1.0
  H  H22  1  0.74043000  0.58745000  0.75433000  1.0
  H  H23  1  0.90542000  0.58051000  0.73826000  1.0
  H  H24  1  0.44475000  0.96577000  0.46660000  1.0
  H  H25  1  0.42827000  0.88508000  0.55888000  1.0
  H  H26  1  0.43761000  0.71823000  0.41881000  1.0
  H  H27  1  0.44884000  0.80809000  0.33275000  1.0
  H  H28  1  0.47038000  0.80837000  0.61944000  1.0
  H  H29  1  0.44350000  0.72482000  0.70972000  1.0
  H  H30  1  0.33120000  0.58168000  0.58898000  1.0
  H  H31  1  0.35641000  0.66530000  0.49778000  1.0
  H  H32  1  0.37283000  0.45049000  0.61577000  1.0
  H  H33  1  0.38405000  0.36365000  0.52686000  1.0
  H  H34  1  0.30127000  0.20918000  0.67422000  1.0
  H  H35  1  0.30046000  0.30233000  0.75648000  1.0
  H  H36  1  0.32456000  0.30250000  0.46665000  1.0
  H  H37  1  0.32130000  0.21674000  0.37967000  1.0
  H  H38  1  0.34314000  0.05221000  0.51409000  1.0
  H  H39  1  0.34814000  0.13724000  0.60147000  1.0
  H  H40  1  0.17032000  0.12205000  0.30478000  1.0
  H  H41  1  0.00572000  0.11508000  0.32028000  1.0
  H  H42  1  0.03383000  0.89660000  0.28010000  1.0
  H  H43  1  0.19735000  0.91395000  0.26200000  1.0
  H  H44  1  0.88529000  0.07634000  0.38673000  1.0
  H  H45  1  0.72083000  0.06873000  0.40132000  1.0
  H  H46  1  0.74043000  0.91255000  0.25433000  1.0
  H  H47  1  0.90543000  0.91948000  0.23826000  1.0
  H  H48  1  0.44476000  0.53422000  0.96660000  1.0
  H  H49  1  0.42828000  0.61492000  0.05888000  1.0
  H  H50  1  0.43761000  0.78176000  0.91880000  1.0
  H  H51  1  0.44884000  0.69189000  0.83275000  1.0
  H  H52  1  0.47038000  0.69162000  0.11944000  1.0
  H  H53  1  0.44350000  0.77517000  0.20972000  1.0
  H  H54  1  0.33120000  0.91832000  0.08898000  1.0
  H  H55  1  0.35643000  0.83469000  0.99777000  1.0
  H  H56  1  0.62719000  0.54950000  0.38423000  1.0
  H  H57  1  0.61596000  0.63635000  0.47314000  1.0
  H  H58  1  0.69874000  0.79081000  0.32577000  1.0
  H  H59  1  0.69954000  0.69766000  0.24353000  1.0
  H  H60  1  0.67544000  0.69751000  0.53336000  1.0
  H  H61  1  0.67870000  0.78327000  0.62034000  1.0
  H  H62  1  0.65686000  0.94779000  0.48591000  1.0
  H  H63  1  0.65186000  0.86276000  0.39853000  1.0
  H  H64  1  0.82968000  0.87796000  0.69521000  1.0
  H  H65  1  0.99429000  0.88494000  0.67972000  1.0
  H  H66  1  0.96616000  0.10342000  0.71990000  1.0
  H  H67  1  0.80264000  0.08607000  0.73798000  1.0
  H  H68  1  0.11471000  0.92368000  0.61326000  1.0
  H  H69  1  0.27918000  0.93128000  0.59869000  1.0
  H  H70  1  0.25956000  0.08746000  0.74568000  1.0
  H  H71  1  0.09456000  0.08053000  0.76174000  1.0
  H  H72  1  0.55524000  0.46577000  0.03341000  1.0
  H  H73  1  0.57171000  0.38508000  0.94112000  1.0
  H  H74  1  0.56238000  0.21823000  0.08120000  1.0
  H  H75  1  0.55115000  0.30809000  0.16725000  1.0
  H  H76  1  0.52962000  0.30838000  0.88056000  1.0
  H  H77  1  0.55650000  0.22483000  0.79028000  1.0
  H  H78  1  0.66880000  0.08168000  0.91102000  1.0
  H  H79  1  0.64357000  0.16530000  0.00222000  1.0
  H  H80  1  0.62719000  0.95050000  0.88423000  1.0
  H  H81  1  0.61597000  0.86366000  0.97314000  1.0
  H  H82  1  0.69875000  0.70919000  0.82577000  1.0
  H  H83  1  0.69955000  0.80235000  0.74352000  1.0
  H  H84  1  0.67544000  0.80250000  0.03335000  1.0
  H  H85  1  0.67870000  0.71674000  0.12033000  1.0
  H  H86  1  0.65687000  0.55221000  0.98590000  1.0
  H  H87  1  0.65187000  0.63724000  0.89852000  1.0
  H  H88  1  0.82969000  0.62205000  0.19522000  1.0
  H  H89  1  0.99429000  0.61507000  0.17972000  1.0
  H  H90  1  0.96616000  0.39658000  0.21990000  1.0
  H  H91  1  0.80264000  0.41394000  0.23799000  1.0
  H  H92  1  0.11471000  0.57633000  0.11326000  1.0
  H  H93  1  0.27918000  0.56872000  0.09868000  1.0
  H  H94  1  0.25956000  0.41254000  0.24569000  1.0
  H  H95  1  0.09456000  0.41948000  0.26174000  1.0
  H  H96  1  0.55524000  0.03423000  0.53341000  1.0
  H  H97  1  0.57171000  0.11492000  0.44112000  1.0
  H  H98  1  0.56239000  0.28178000  0.58119000  1.0
  H  H99  1  0.55115000  0.19193000  0.66725000  1.0
  H  H100  1  0.52962000  0.19164000  0.38055000  1.0
  H  H101  1  0.55650000  0.27519000  0.29028000  1.0
  H  H102  1  0.66880000  0.41833000  0.41101000  1.0
  H  H103  1  0.64358000  0.33471000  0.50222000  1.0
  C  C104  1  0.35765000  0.10386000  0.12612000  1.0
  C  C105  1  0.36235000  0.15256000  0.07692000  1.0
  C  C106  1  0.33943000  0.22169000  0.09213000  1.0
  C  C107  1  0.31796000  0.23815000  0.15843000  1.0
  C  C108  1  0.31642000  0.18636000  0.20464000  1.0
  C  C109  1  0.33659000  0.27351000  0.04083000  1.0
  C  C110  1  0.32897000  0.25222000  0.97764000  1.0
  C  C111  1  0.32617000  0.30010000  0.92868000  1.0
  C  C112  1  0.33153000  0.37090000  0.94129000  1.0
  C  C113  1  0.33839000  0.39279000  0.00422000  1.0
  C  C114  1  0.34048000  0.34468000  0.05335000  1.0
  C  C115  1  0.13692000  0.42661000  0.79891000  1.0
  C  C116  1  0.04528000  0.43136000  0.80851000  1.0
  C  C117  1  0.00437000  0.49522000  0.80150000  1.0
  C  C118  1  0.06080000  0.55193000  0.78475000  1.0
  C  C119  1  0.15215000  0.54302000  0.77526000  1.0
  C  C120  1  0.90718000  0.50144000  0.81132000  1.0
  C  C121  1  0.85409000  0.45923000  0.85698000  1.0
  C  C122  1  0.76225000  0.46359000  0.86579000  1.0
  C  C123  1  0.72103000  0.50997000  0.82891000  1.0
  C  C124  1  0.77339000  0.55233000  0.78340000  1.0
  C  C125  1  0.86542000  0.54839000  0.77488000  1.0
  C  C126  1  0.62140000  0.51290000  0.83886000  1.0
  C  C127  1  0.33366000  0.42152000  0.88696000  1.0
  C  C128  1  0.44181000  0.91038000  0.45885000  1.0
  C  C129  1  0.43316000  0.86405000  0.51003000  1.0
  C  C130  1  0.42927000  0.79299000  0.49777000  1.0
  C  C131  1  0.43684000  0.77253000  0.43247000  1.0
  C  C132  1  0.44464000  0.82190000  0.38372000  1.0
  C  C133  1  0.41636000  0.74269000  0.55143000  1.0
  C  C134  1  0.43993000  0.75882000  0.61198000  1.0
  C  C135  1  0.42536000  0.71183000  0.66295000  1.0
  C  C136  1  0.38672000  0.64755000  0.65478000  1.0
  C  C137  1  0.36262000  0.63124000  0.59468000  1.0
  C  C138  1  0.37742000  0.67809000  0.54369000  1.0
  C  C139  1  0.37092000  0.59682000  0.70975000  1.0
  C  C140  1  0.35766000  0.39613000  0.62612000  1.0
  C  C141  1  0.36236000  0.34743000  0.57692000  1.0
  C  C142  1  0.33944000  0.27830000  0.59213000  1.0
  C  C143  1  0.31797000  0.26184000  0.65843000  1.0
  C  C144  1  0.31643000  0.31363000  0.70463000  1.0
  C  C145  1  0.33660000  0.22648000  0.54083000  1.0
  C  C146  1  0.32897000  0.24777000  0.47764000  1.0
  C  C147  1  0.32618000  0.19989000  0.42867000  1.0
  C  C148  1  0.33153000  0.12909000  0.44128000  1.0
  C  C149  1  0.33840000  0.10720000  0.50421000  1.0
  C  C150  1  0.34048000  0.15531000  0.55335000  1.0
  C  C151  1  0.13692000  0.07338000  0.29891000  1.0
  C  C152  1  0.04528000  0.06864000  0.30851000  1.0
  C  C153  1  0.00437000  0.00477000  0.30150000  1.0
  C  C154  1  0.06080000  0.94807000  0.28475000  1.0
  C  C155  1  0.15215000  0.95697000  0.27526000  1.0
  C  C156  1  0.90717000  0.99856000  0.31131000  1.0
  C  C157  1  0.85409000  0.04076000  0.35697000  1.0
  C  C158  1  0.76225000  0.03640000  0.36579000  1.0
  C  C159  1  0.72103000  0.99003000  0.32891000  1.0
  C  C160  1  0.77339000  0.94766000  0.28340000  1.0
  C  C161  1  0.86542000  0.95160000  0.27488000  1.0
  C  C162  1  0.62140000  0.98710000  0.33886000  1.0
  C  C163  1  0.33367000  0.07847000  0.38696000  1.0
  C  C164  1  0.44182000  0.58961000  0.95885000  1.0
  C  C165  1  0.43317000  0.63595000  0.01003000  1.0
  C  C166  1  0.42928000  0.70700000  0.99776000  1.0
  C  C167  1  0.43685000  0.72747000  0.93246000  1.0
  C  C168  1  0.44464000  0.67809000  0.88372000  1.0
  C  C169  1  0.41638000  0.75730000  0.05143000  1.0
  C  C170  1  0.43994000  0.74117000  0.11198000  1.0
  C  C171  1  0.42536000  0.78817000  0.16296000  1.0
  C  C172  1  0.38672000  0.85244000  0.15477000  1.0
  C  C173  1  0.36263000  0.86875000  0.09467000  1.0
  C  C174  1  0.37743000  0.82190000  0.04369000  1.0
  C  C175  1  0.37092000  0.90317000  0.20975000  1.0
  C  C176  1  0.64235000  0.60386000  0.37389000  1.0
  C  C177  1  0.63766000  0.65256000  0.42309000  1.0
  C  C178  1  0.66057000  0.72169000  0.40788000  1.0
  C  C179  1  0.68204000  0.73815000  0.34157000  1.0
  C  C180  1  0.68358000  0.68636000  0.29537000  1.0
  C  C181  1  0.66340000  0.77351000  0.45917000  1.0
  C  C182  1  0.67103000  0.75223000  0.52236000  1.0
  C  C183  1  0.67381000  0.80011000  0.57133000  1.0
  C  C184  1  0.66846000  0.87091000  0.55871000  1.0
  C  C185  1  0.66159000  0.89280000  0.49579000  1.0
  C  C186  1  0.65951000  0.84469000  0.44665000  1.0
  C  C187  1  0.86309000  0.92664000  0.70108000  1.0
  C  C188  1  0.95472000  0.93138000  0.69149000  1.0
  C  C189  1  0.99563000  0.99525000  0.69850000  1.0
  C  C190  1  0.93919000  0.05195000  0.71524000  1.0
  C  C191  1  0.84785000  0.04305000  0.72473000  1.0
  C  C192  1  0.09282000  0.00146000  0.68869000  1.0
  C  C193  1  0.14591000  0.95925000  0.64303000  1.0
  C  C194  1  0.23775000  0.96360000  0.63423000  1.0
  C  C195  1  0.27897000  0.00998000  0.67110000  1.0
  C  C196  1  0.22661000  0.05235000  0.71661000  1.0
  C  C197  1  0.13457000  0.04841000  0.72512000  1.0
  C  C198  1  0.37860000  0.01291000  0.66116000  1.0
  C  C199  1  0.66633000  0.92154000  0.61303000  1.0
  C  C200  1  0.55818000  0.41038000  0.04116000  1.0
  C  C201  1  0.56682000  0.36405000  0.98997000  1.0
  C  C202  1  0.57072000  0.29299000  0.00224000  1.0
  C  C203  1  0.56315000  0.27252000  0.06754000  1.0
  C  C204  1  0.55536000  0.32189000  0.11628000  1.0
  C  C205  1  0.58363000  0.24270000  0.94857000  1.0
  C  C206  1  0.56006000  0.25883000  0.88802000  1.0
  C  C207  1  0.57464000  0.21183000  0.83704000  1.0
  C  C208  1  0.61329000  0.14755000  0.84522000  1.0
  C  C209  1  0.63737000  0.13124000  0.90532000  1.0
  C  C210  1  0.62257000  0.17809000  0.95631000  1.0
  C  C211  1  0.62909000  0.09684000  0.79025000  1.0
  C  C212  1  0.64236000  0.89615000  0.87389000  1.0
  C  C213  1  0.63766000  0.84744000  0.92308000  1.0
  C  C214  1  0.66058000  0.77831000  0.90787000  1.0
  C  C215  1  0.68204000  0.76186000  0.84157000  1.0
  C  C216  1  0.68358000  0.81365000  0.79536000  1.0
  C  C217  1  0.66341000  0.72649000  0.95917000  1.0
  C  C218  1  0.67103000  0.74777000  0.02236000  1.0
  C  C219  1  0.67382000  0.69989000  0.07132000  1.0
  C  C220  1  0.66847000  0.62909000  0.05871000  1.0
  C  C221  1  0.66160000  0.60720000  0.99578000  1.0
  C  C222  1  0.65952000  0.65532000  0.94664000  1.0
  C  C223  1  0.86309000  0.57337000  0.20108000  1.0
  C  C224  1  0.95472000  0.56863000  0.19149000  1.0
  C  C225  1  0.99563000  0.50476000  0.19850000  1.0
  C  C226  1  0.93919000  0.44805000  0.21524000  1.0
  C  C227  1  0.84785000  0.45696000  0.22473000  1.0
  C  C228  1  0.09282000  0.49854000  0.18868000  1.0
  C  C229  1  0.14591000  0.54075000  0.14303000  1.0
  C  C230  1  0.23775000  0.53639000  0.13422000  1.0
  C  C231  1  0.27897000  0.49001000  0.17110000  1.0
  C  C232  1  0.22661000  0.44765000  0.21661000  1.0
  C  C233  1  0.13457000  0.45159000  0.22513000  1.0
  C  C234  1  0.37860000  0.48709000  0.16116000  1.0
  C  C235  1  0.66633000  0.57847000  0.11303000  1.0
  C  C236  1  0.55818000  0.08963000  0.54116000  1.0
  C  C237  1  0.56683000  0.13596000  0.48997000  1.0
  C  C238  1  0.57073000  0.20702000  0.50223000  1.0
  C  C239  1  0.56316000  0.22748000  0.56753000  1.0
  C  C240  1  0.55536000  0.17812000  0.61628000  1.0
  C  C241  1  0.58364000  0.25731000  0.44856000  1.0
  C  C242  1  0.56007000  0.24118000  0.38802000  1.0
  C  C243  1  0.57464000  0.28818000  0.33704000  1.0
  C  C244  1  0.61329000  0.35246000  0.34522000  1.0
  C  C245  1  0.63738000  0.36877000  0.40532000  1.0
  C  C246  1  0.62258000  0.32191000  0.45630000  1.0
  C  C247  1  0.62909000  0.40318000  0.29024000  1.0
  N  N248  1  0.33363000  0.11976000  0.18925000  1.0
  N  N249  1  0.19012000  0.48131000  0.78201000  1.0
  N  N250  1  0.45536000  0.46991000  0.76067000  1.0
  N  N251  1  0.49669000  0.41607000  0.75700000  1.0
  N  N252  1  0.53584000  0.36452000  0.75026000  1.0
  N  N253  1  0.44583000  0.88992000  0.39683000  1.0
  N  N254  1  0.33364000  0.38023000  0.68925000  1.0
  N  N255  1  0.19012000  0.01868000  0.28201000  1.0
  N  N256  1  0.45536000  0.03008000  0.26067000  1.0
  N  N257  1  0.49669000  0.08392000  0.25700000  1.0
  N  N258  1  0.53584000  0.13548000  0.25026000  1.0
  N  N259  1  0.44584000  0.61007000  0.89683000  1.0
  N  N260  1  0.66637000  0.61977000  0.31075000  1.0
  N  N261  1  0.80988000  0.98133000  0.71798000  1.0
  N  N262  1  0.54465000  0.96995000  0.73934000  1.0
  N  N263  1  0.50331000  0.91611000  0.74301000  1.0
  N  N264  1  0.46416000  0.86455000  0.74974000  1.0
  N  N265  1  0.55416000  0.38991000  0.10317000  1.0
  N  N266  1  0.66637000  0.88024000  0.81075000  1.0
  N  N267  1  0.80988000  0.51868000  0.21798000  1.0
  N  N268  1  0.54466000  0.53006000  0.23933000  1.0
  N  N269  1  0.50332000  0.58389000  0.24300000  1.0
  N  N270  1  0.46418000  0.63545000  0.24973000  1.0
  N  N271  1  0.55417000  0.11010000  0.60318000  1.0
  O  O272  1  0.57693000  0.47417000  0.88022000  1.0
  O  O273  1  0.58752000  0.55661000  0.80316000  1.0
  O  O274  1  0.31321000  0.39742000  0.83398000  1.0
  O  O275  1  0.35651000  0.48318000  0.89522000  1.0
  O  O276  1  0.39093000  0.61268000  0.76396000  1.0
  O  O277  1  0.33555000  0.53912000  0.69634000  1.0
  O  O278  1  0.57692000  0.02582000  0.38022000  1.0
  O  O279  1  0.58752000  0.94338000  0.30315000  1.0
  O  O280  1  0.31321000  0.10257000  0.33398000  1.0
  O  O281  1  0.35651000  0.01681000  0.39522000  1.0
  O  O282  1  0.39093000  0.88732000  0.26396000  1.0
  O  O283  1  0.33554000  0.96087000  0.19634000  1.0
  O  O284  1  0.42307000  0.97419000  0.61980000  1.0
  O  O285  1  0.41247000  0.05663000  0.69686000  1.0
  O  O286  1  0.68678000  0.89743000  0.66602000  1.0
  O  O287  1  0.64349000  0.98320000  0.60478000  1.0
  O  O288  1  0.60908000  0.11269000  0.73603000  1.0
  O  O289  1  0.66447000  0.03914000  0.80366000  1.0
  O  O290  1  0.42307000  0.52582000  0.11981000  1.0
  O  O291  1  0.41247000  0.44336000  0.19686000  1.0
  O  O292  1  0.68679000  0.60257000  0.16601000  1.0
  O  O293  1  0.64349000  0.51681000  0.10478000  1.0
  O  O294  1  0.60908000  0.38732000  0.23603000  1.0
  O  O295  1  0.66447000  0.46088000  0.30366000  1.0
