# generated using pymatgen
data_CuP2H32C20N6(Cl3O4)2
_symmetry_space_group_name_H-M   'P 1'
_cell_length_a   10.24970000
_cell_length_b   12.75080000
_cell_length_c   14.37500000
_cell_angle_alpha   101.49200000
_cell_angle_beta   99.23790000
_cell_angle_gamma   113.23000000
_symmetry_Int_Tables_number   1
_chemical_formula_structural   CuP2H32C20N6(Cl3O4)2
_chemical_formula_sum   'Cu2 P4 H64 C40 N12 Cl12 O16'
_cell_volume   1631.04568378
_cell_formula_units_Z   2
loop_
 _symmetry_equiv_pos_site_id
 _symmetry_equiv_pos_as_xyz
  1  'x, y, z'
loop_
 _atom_site_type_symbol
 _atom_site_label
 _atom_site_symmetry_multiplicity
 _atom_site_fract_x
 _atom_site_fract_y
 _atom_site_fract_z
 _atom_site_occupancy
  Cu  Cu0  1  0.22181000  0.96982000  0.73915000  1.0
  Cu  Cu1  1  0.77819000  0.03019000  0.26085000  1.0
  P  P2  1  0.22640000  0.17827000  0.65693000  1.0
  P  P3  1  0.77359000  0.82173000  0.34307000  1.0
  P  P4  1  0.24382000  0.77178000  0.82564000  1.0
  P  P5  1  0.75619000  0.22822000  0.17436000  1.0
  H  H6  1  0.47473000  0.98283000  0.09802000  1.0
  H  H7  1  0.52528000  0.01717000  0.90198000  1.0
  H  H8  1  0.29632000  0.40453000  0.64462000  1.0
  H  H9  1  0.70368000  0.59546000  0.35537000  1.0
  H  H10  1  0.47752000  0.69097000  0.94293000  1.0
  H  H11  1  0.52248000  0.30903000  0.05706000  1.0
  H  H12  1  0.40507000  0.46424000  0.82444000  1.0
  H  H13  1  0.59493000  0.53576000  0.17556000  1.0
  H  H14  1  0.53643000  0.78807000  0.86858000  1.0
  H  H15  1  0.46358000  0.21194000  0.13142000  1.0
  H  H16  1  0.07571000  0.37197000  0.72860000  1.0
  H  H17  1  0.92430000  0.62803000  0.27140000  1.0
  H  H18  1  0.87904000  0.58592000  0.82111000  1.0
  H  H19  1  0.12096000  0.41408000  0.17889000  1.0
  H  H20  1  0.95531000  0.19550000  0.62231000  1.0
  H  H21  1  0.04469000  0.80450000  0.37769000  1.0
  H  H22  1  0.60240000  0.31313000  0.66666667  1.0
  H  H23  1  0.39759000  0.68686000  0.33329000  1.0
  H  H24  1  0.50674000  0.19858000  0.71780000  1.0
  H  H25  1  0.49325000  0.80141000  0.28221000  1.0
  H  H26  1  0.22563000  0.82434000  0.01243000  1.0
  H  H27  1  0.77437000  0.17566000  0.98757000  1.0
  H  H28  1  0.77547000  0.49249000  0.64293000  1.0
  H  H29  1  0.22453000  0.50751000  0.35707000  1.0
  H  H30  1  0.88768000  0.07658000  0.51080000  1.0
  H  H31  1  0.11232000  0.92342000  0.48920000  1.0
  H  H32  1  0.26865000  0.17181000  0.47523000  1.0
  H  H33  1  0.73136000  0.82818000  0.52478000  1.0
  H  H34  1  0.47319000  0.44148000  0.62277000  1.0
  H  H35  1  0.52681000  0.55851000  0.37722000  1.0
  H  H36  1  0.94298000  0.70043000  0.76360000  1.0
  H  H37  1  0.05702000  0.29957000  0.23640000  1.0
  H  H38  1  0.02304000  0.34361000  0.52769000  1.0
  H  H39  1  0.97696000  0.65638000  0.47231000  1.0
  H  H40  1  0.27947000  0.71193000  0.03119000  1.0
  H  H41  1  0.72053000  0.28807000  0.96881000  1.0
  H  H42  1  0.19990000  0.32686000  0.43964000  1.0
  H  H43  1  0.80011000  0.67314000  0.56035000  1.0
  H  H44  1  0.06370000  0.50206000  0.87684000  1.0
  H  H45  1  0.93630000  0.49795000  0.12316000  1.0
  H  H46  1  0.24080000  0.56916000  0.85591000  1.0
  H  H47  1  0.75920000  0.43085000  0.14409000  1.0
  H  H48  1  0.50062000  0.58471000  0.77658000  1.0
  H  H49  1  0.49938000  0.41529000  0.22342000  1.0
  H  H50  1  0.13188000  0.49469000  0.67609000  1.0
  H  H51  1  0.86812000  0.50531000  0.32391000  1.0
  H  H52  1  0.71069000  0.38729000  0.84545000  1.0
  H  H53  1  0.28931000  0.61271000  0.15455000  1.0
  H  H54  1  0.95385000  0.56138000  0.62154000  1.0
  H  H55  1  0.04615000  0.43861000  0.37846000  1.0
  H  H56  1  0.83423000  0.23716000  0.47597000  1.0
  H  H57  1  0.16576000  0.76283000  0.52402000  1.0
  H  H58  1  0.53186000  0.34726000  0.86740000  1.0
  H  H59  1  0.46814000  0.65274000  0.13260000  1.0
  H  H60  1  0.13085000  0.20504000  0.32903000  1.0
  H  H61  1  0.86915000  0.79495000  0.67097000  1.0
  H  H62  1  0.65273000  0.96402000  0.01703000  1.0
  H  H63  1  0.34728000  0.03598000  0.98297000  1.0
  H  H64  1  0.71706000  0.85654000  0.03507000  1.0
  H  H65  1  0.28294000  0.14346000  0.96494000  1.0
  H  H66  1  0.41428000  0.89019000  0.17558000  1.0
  H  H67  1  0.58572000  0.10982000  0.82442000  1.0
  H  H68  1  0.08453000  0.05975000  0.42110000  1.0
  H  H69  1  0.91547000  0.94024000  0.57891000  1.0
  C  C70  1  0.37672000  0.82651000  0.69119000  1.0
  C  C71  1  0.62329000  0.17351000  0.30881000  1.0
  C  C72  1  0.97024000  0.16904000  0.54901000  1.0
  C  C73  1  0.02975000  0.83096000  0.45099000  1.0
  C  C74  1  0.09656000  0.13402000  0.79513000  1.0
  C  C75  1  0.90344000  0.86597000  0.20488000  1.0
  C  C76  1  0.48240000  0.80472000  0.63005000  1.0
  C  C77  1  0.51760000  0.19528000  0.36995000  1.0
  C  C78  1  0.31818000  0.80101000  0.01916000  1.0
  C  C79  1  0.68182000  0.19899000  0.98084000  1.0
  C  C80  1  0.02452000  0.18136000  0.87235000  1.0
  C  C81  1  0.97548000  0.81863000  0.12766000  1.0
  C  C82  1  0.15264000  0.15434000  0.46311000  1.0
  C  C83  1  0.84736000  0.84566000  0.53689000  1.0
  C  C84  1  0.40488000  0.40854000  0.67228000  1.0
  C  C85  1  0.59512000  0.59146000  0.32772000  1.0
  C  C86  1  0.49993000  0.78094000  0.93559000  1.0
  C  C87  1  0.50007000  0.21906000  0.06440000  1.0
  C  C88  1  0.12326000  0.54312000  0.82630000  1.0
  C  C89  1  0.87675000  0.45688000  0.17370000  1.0
  C  C90  1  0.61990000  0.87358000  0.02485000  1.0
  C  C91  1  0.38010000  0.12641000  0.97515000  1.0
  C  C92  1  0.44453000  0.89252000  0.10605000  1.0
  C  C93  1  0.55547000  0.10748000  0.89396000  1.0
  C  C94  1  0.94800000  0.24900000  0.48895000  1.0
  C  C95  1  0.05200000  0.75099000  0.51104000  1.0
  C  C96  1  0.12114000  0.23206000  0.40392000  1.0
  C  C97  1  0.87886000  0.76793000  0.59607000  1.0
  C  C98  1  0.06639000  0.45384000  0.72462000  1.0
  C  C99  1  0.93362000  0.54616000  0.27538000  1.0
  C  C100  1  0.94861000  0.61890000  0.77258000  1.0
  C  C101  1  0.05139000  0.38110000  0.22742000  1.0
  C  C102  1  0.89406000  0.52395000  0.67366000  1.0
  C  C103  1  0.10594000  0.47605000  0.32634000  1.0
  C  C104  1  0.47838000  0.49308000  0.77635000  1.0
  C  C105  1  0.52162000  0.50692000  0.22365000  1.0
  C  C106  1  0.52809000  0.28889000  0.71456000  1.0
  C  C107  1  0.47191000  0.71110000  0.28545000  1.0
  C  C108  1  0.59940000  0.37811000  0.81691000  1.0
  C  C109  1  0.40060000  0.62189000  0.18309000  1.0
  N  N110  1  0.32757000  0.75043000  0.74047000  1.0
  N  N111  1  0.67243000  0.24958000  0.25953000  1.0
  N  N112  1  0.36674000  0.79894000  0.92866000  1.0
  N  N113  1  0.63326000  0.20107000  0.07134000  1.0
  N  N114  1  0.15055000  0.20747000  0.74456000  1.0
  N  N115  1  0.84945000  0.79253000  0.25543000  1.0
  N  N116  1  0.10108000  0.64852000  0.82046000  1.0
  N  N117  1  0.89893000  0.35149000  0.17954000  1.0
  N  N118  1  0.38879000  0.28881000  0.67026000  1.0
  N  N119  1  0.61121000  0.71119000  0.32974000  1.0
  N  N120  1  0.11985000  0.17946000  0.55832000  1.0
  N  N121  1  0.88015000  0.82054000  0.44169000  1.0
  Cl  Cl122  1  0.94628000  0.07689000  0.93592000  1.0
  Cl  Cl123  1  0.05372000  0.92311000  0.06408000  1.0
  Cl  Cl124  1  0.88481000  0.21160000  0.80841000  1.0
  Cl  Cl125  1  0.11519000  0.78840000  0.19159000  1.0
  Cl  Cl126  1  0.16333000  0.31584000  0.96091000  1.0
  Cl  Cl127  1  0.83667000  0.68416000  0.03909000  1.0
  Cl  Cl128  1  0.49444000  0.87473000  0.53507000  1.0
  Cl  Cl129  1  0.50557000  0.12527000  0.46493000  1.0
  Cl  Cl130  1  0.65947000  0.87064000  0.71819000  1.0
  Cl  Cl131  1  0.34053000  0.12936000  0.28181000  1.0
  Cl  Cl132  1  0.42751000  0.64982000  0.57752000  1.0
  Cl  Cl133  1  0.57248000  0.35018000  0.42248000  1.0
  O  O134  1  0.24881000  0.06551000  0.64623000  1.0
  O  O135  1  0.75118000  0.93449000  0.35377000  1.0
  O  O136  1  0.09176000  0.03234000  0.79393000  1.0
  O  O137  1  0.90824000  0.96767000  0.20608000  1.0
  O  O138  1  0.19051000  0.86794000  0.82806000  1.0
  O  O139  1  0.80949000  0.13206000  0.17194000  1.0
  O  O140  1  0.36168000  0.91996000  0.68678000  1.0
  O  O141  1  0.63833000  0.08004000  0.31323000  1.0
  O  O142  1  0.97370000  0.21903000  0.39385000  1.0
  O  O143  1  0.02630000  0.78097000  0.60615000  1.0
  O  O144  1  0.91384000  0.42087000  0.68358000  1.0
  O  O145  1  0.08617000  0.57913000  0.31642000  1.0
  O  O146  1  0.61746000  0.49521000  0.81512000  1.0
  O  O147  1  0.38254000  0.50479000  0.18488000  1.0
  O  O148  1  0.57158000  0.86920000  0.11341000  1.0
  O  O149  1  0.42842000  0.13080000  0.88659000  1.0
