# generated using pymatgen
data_Zr6H22C51(Cl5O16)2
_symmetry_space_group_name_H-M   'P 1'
_cell_length_a   14.78490000
_cell_length_b   14.80180000
_cell_length_c   14.78556388
_cell_angle_alpha   60.26005321
_cell_angle_beta   89.71824575
_cell_angle_gamma   119.79770000
_symmetry_Int_Tables_number   1
_chemical_formula_structural   Zr6H22C51(Cl5O16)2
_chemical_formula_sum   'Zr6 H22 C51 Cl10 O32'
_cell_volume   2298.32470700
_cell_formula_units_Z   1
loop_
 _symmetry_equiv_pos_site_id
 _symmetry_equiv_pos_as_xyz
  1  'x, y, z'
loop_
 _atom_site_type_symbol
 _atom_site_label
 _atom_site_symmetry_multiplicity
 _atom_site_fract_x
 _atom_site_fract_y
 _atom_site_fract_z
 _atom_site_occupancy
  Zr  Zr0  1  0.88328000  0.50674000  0.61590000  1.0
  Zr  Zr1  1  0.11690000  0.49530000  0.38262000  1.0
  Zr  Zr2  1  0.87836000  0.26330000  0.62087000  1.0
  Zr  Zr3  1  0.12320000  0.73953000  0.37688000  1.0
  Zr  Zr4  1  0.88138000  0.50183000  0.37970000  1.0
  Zr  Zr5  1  0.11949000  0.50107000  0.61884000  1.0
  H  H6  1  0.71861000  0.31845000  0.59329000  1.0
  H  H7  1  0.09538000  0.68466000  0.21745000  1.0
  H  H8  1  0.08989000  0.30887000  0.59757000  1.0
  H  H9  1  0.09856000  0.69304000  0.58944000  1.0
  H  H10  1  0.56657000  0.44368000  0.39779000  1.0
  H  H11  1  0.44446000  0.57940000  0.58832000  1.0
  H  H12  1  0.08855000  0.42227000  0.94356000  1.0
  H  H13  1  0.89657000  0.55588000  0.06691000  1.0
  H  H14  1  0.12007000  0.04469000  0.11004000  1.0
  H  H15  1  0.86640000  0.95790000  0.90294000  1.0
  H  H16  1  0.40340000  0.04390000  0.36545000  1.0
  H  H17  1  0.61334000  0.95987000  0.61632000  1.0
  H  H18  1  0.59570000  0.95306000  0.90891000  1.0
  H  H19  1  0.62205000  0.28670000  0.97830000  1.0
  H  H20  1  0.53662000  0.28794000  0.89389000  1.0
  H  H21  1  0.36693000  0.10632000  0.06395000  1.0
  H  H22  1  0.45228000  0.10501000  0.14851000  1.0
  H  H23  1  0.86089000  0.77058000  0.62886000  1.0
  H  H24  1  0.13138000  0.23224000  0.35958000  1.0
  H  H25  1  0.43116000  0.68652000  0.16264000  1.0
  H  H26  1  0.33502000  0.68003000  0.09285000  1.0
  H  H27  1  0.47172000  0.74421000  0.02107000  1.0
  C  C28  1  0.70534000  0.51778000  0.49435000  1.0
  C  C29  1  0.99566000  0.48515000  0.20394000  1.0
  C  C30  1  0.30294000  0.49950000  0.49619000  1.0
  C  C31  1  0.99558000  0.50113000  0.80265000  1.0
  C  C32  1  0.70080000  0.20365000  0.80535000  1.0
  C  C33  1  0.00590000  0.81308000  0.48654000  1.0
  C  C34  1  0.30751000  0.79693000  0.20040000  1.0
  C  C35  1  0.98794000  0.18959000  0.50375000  1.0
  C  C36  1  0.69902000  0.20290000  0.49261000  1.0
  C  C37  1  0.99652000  0.20220000  0.81038000  1.0
  C  C38  1  0.31185000  0.79995000  0.49551000  1.0
  C  C39  1  0.99562000  0.80099000  0.19704000  1.0
  C  C40  1  0.40565000  0.50252000  0.49270000  1.0
  C  C41  1  0.60495000  0.51950000  0.49436000  1.0
  C  C42  1  0.44080000  0.46404000  0.43810000  1.0
  C  C43  1  0.56991000  0.55827000  0.54866000  1.0
  C  C44  1  0.53928000  0.47369000  0.43942000  1.0
  C  C45  1  0.47166000  0.54911000  0.54697000  1.0
  C  C46  1  0.99469000  0.48213000  0.10419000  1.0
  C  C47  1  0.99149000  0.49728000  0.90575000  1.0
  C  C48  1  0.04904000  0.44350000  0.06899000  1.0
  C  C49  1  0.93612000  0.53470000  0.94149000  1.0
  C  C50  1  0.04672000  0.45193000  0.97110000  1.0
  C  C51  1  0.93847000  0.52627000  0.03939000  1.0
  C  C52  1  0.99742000  0.10305000  0.91279000  1.0
  C  C53  1  0.99022000  0.89974000  0.09907000  1.0
  C  C54  1  0.06967000  0.12717000  0.97277000  1.0
  C  C55  1  0.91706000  0.87544000  0.03990000  1.0
  C  C56  1  0.06458000  0.02618000  0.06372000  1.0
  C  C57  1  0.92204000  0.97644000  0.94910000  1.0
  C  C58  1  0.60126000  0.10391000  0.48712000  1.0
  C  C59  1  0.41462000  0.89961000  0.49556000  1.0
  C  C60  1  0.54150000  0.12754000  0.41454000  1.0
  C  C61  1  0.47548000  0.87627000  0.56688000  1.0
  C  C62  1  0.45040000  0.02602000  0.42025000  1.0
  C  C63  1  0.56655000  0.97775000  0.56127000  1.0
  C  C64  1  0.60229000  0.10184000  0.90710000  1.0
  C  C65  1  0.40882000  0.89635000  0.10143000  1.0
  C  C66  1  0.54963000  0.12488000  0.96293000  1.0
  C  C67  1  0.46177000  0.87037000  0.04580000  1.0
  C  C68  1  0.45589000  0.02440000  0.05700000  1.0
  C  C69  1  0.55574000  0.97308000  0.95147000  1.0
  C  C70  1  0.54959000  0.22609000  0.96531000  1.0
  C  C71  1  0.44329000  0.11238000  0.07186000  1.0
  C  C72  1  0.98664000  0.08809000  0.50276000  1.0
  C  C73  1  0.00493000  0.91470000  0.48502000  1.0
  C  C74  1  0.90884000  0.95564000  0.57956000  1.0
  C  C75  1  0.08212000  0.04716000  0.40759000  1.0
  C  C76  1  0.91987000  0.87269000  0.56945000  1.0
  C  C77  1  0.07173000  0.13013000  0.41831000  1.0
  C  C78  1  0.42275000  0.73841000  0.08225000  1.0
  Cl  Cl79  1  0.36651000  0.39935000  0.37162000  1.0
  Cl  Cl80  1  0.64354000  0.62156000  0.61610000  1.0
  Cl  Cl81  1  0.11759000  0.38164000  0.14187000  1.0
  Cl  Cl82  1  0.86723000  0.59641000  0.86879000  1.0
  Cl  Cl83  1  0.16679000  0.27631000  0.94188000  1.0
  Cl  Cl84  1  0.82004000  0.72641000  0.07047000  1.0
  Cl  Cl85  1  0.57165000  0.27624000  0.31747000  1.0
  Cl  Cl86  1  0.44550000  0.72760000  0.66334000  1.0
  Cl  Cl87  1  0.79793000  0.88595000  0.68831000  1.0
  Cl  Cl88  1  0.19180000  0.11681000  0.29758000  1.0
  O  O89  1  0.74361000  0.51446000  0.57213000  1.0
  O  O90  1  0.07363000  0.48866000  0.24197000  1.0
  O  O91  1  0.26123000  0.49717000  0.42159000  1.0
  O  O92  1  0.92106000  0.50338000  0.76070000  1.0
  O  O93  1  0.73997000  0.16707000  0.76359000  1.0
  O  O94  1  0.08296000  0.84689000  0.41247000  1.0
  O  O95  1  0.26741000  0.83651000  0.23742000  1.0
  O  O96  1  0.91382000  0.15570000  0.58082000  1.0
  O  O97  1  0.73857000  0.31907000  0.41881000  1.0
  O  O98  1  0.07413000  0.31842000  0.76718000  1.0
  O  O99  1  0.26838000  0.68392000  0.57349000  1.0
  O  O100  1  0.92114000  0.68473000  0.23721000  1.0
  O  O101  1  0.91967000  0.16266000  0.77212000  1.0
  O  O102  1  0.27363000  0.83923000  0.41853000  1.0
  O  O103  1  0.07509000  0.84071000  0.23262000  1.0
  O  O104  1  0.73491000  0.16326000  0.57172000  1.0
  O  O105  1  0.73883000  0.31920000  0.76539000  1.0
  O  O106  1  0.06569000  0.30420000  0.42693000  1.0
  O  O107  1  0.26511000  0.67996000  0.24205000  1.0
  O  O108  1  0.92899000  0.69856000  0.56437000  1.0
  O  O109  1  0.07339000  0.50121000  0.76487000  1.0
  O  O110  1  0.74223000  0.51459000  0.41861000  1.0
  O  O111  1  0.92034000  0.48902000  0.24060000  1.0
  O  O112  1  0.26550000  0.50056000  0.57332000  1.0
  O  O113  1  0.07102000  0.63881000  0.56348000  1.0
  O  O114  1  0.06424000  0.36335000  0.56990000  1.0
  O  O115  1  0.06752000  0.63214000  0.29751000  1.0
  O  O116  1  0.79875000  0.37096000  0.56569000  1.0
  O  O117  1  0.94846000  0.40000000  0.45175000  1.0
  O  O118  1  0.95357000  0.60305000  0.44726000  1.0
  O  O119  1  0.14875000  0.59725000  0.45021000  1.0
  O  O120  1  0.95076000  0.40487000  0.64773000  1.0
