# generated using pymatgen
data_CdH12C12(NO3)2
_symmetry_space_group_name_H-M   'P 1'
_cell_length_a   7.87828000
_cell_length_b   12.44660000
_cell_length_c   14.01340000
_cell_angle_alpha   90.00000000
_cell_angle_beta   97.73890000
_cell_angle_gamma   90.00000000
_symmetry_Int_Tables_number   1
_chemical_formula_structural   CdH12C12(NO3)2
_chemical_formula_sum   'Cd4 H48 C48 N8 O24'
_cell_volume   1361.60766358
_cell_formula_units_Z   4
loop_
 _symmetry_equiv_pos_site_id
 _symmetry_equiv_pos_as_xyz
  1  'x, y, z'
loop_
 _atom_site_type_symbol
 _atom_site_label
 _atom_site_symmetry_multiplicity
 _atom_site_fract_x
 _atom_site_fract_y
 _atom_site_fract_z
 _atom_site_occupancy
  Cd  Cd0  1  0.75929000  0.00061000  0.15479000  1.0
  Cd  Cd1  1  0.74071000  0.50061000  0.34521000  1.0
  Cd  Cd2  1  0.24071000  0.99939000  0.84521000  1.0
  Cd  Cd3  1  0.25929000  0.49939000  0.65479000  1.0
  H  H4  1  0.71749000  0.09817000  0.34402000  1.0
  H  H5  1  0.78251000  0.59817000  0.15598000  1.0
  H  H6  1  0.28251000  0.90183000  0.65598000  1.0
  H  H7  1  0.21749000  0.40183000  0.84402000  1.0
  H  H8  1  0.85494000  0.16934000  0.29777000  1.0
  H  H9  1  0.64506000  0.66934000  0.20222000  1.0
  H  H10  1  0.14506000  0.83066000  0.70222000  1.0
  H  H11  1  0.35494000  0.33066000  0.79778000  1.0
  H  H12  1  0.83943000  0.90432000  0.97654000  1.0
  H  H13  1  0.66057000  0.40432000  0.52346000  1.0
  H  H14  1  0.16057000  0.09568000  0.02346000  1.0
  H  H15  1  0.33943000  0.59568000  0.47654000  1.0
  H  H16  1  0.65773000  0.96117000  0.95121000  1.0
  H  H17  1  0.84227000  0.46117000  0.54879000  1.0
  H  H18  1  0.34227000  0.03884000  0.04879000  1.0
  H  H19  1  0.15773000  0.53883000  0.45121000  1.0
  H  H20  1  0.15074000  0.98384000  0.14011000  1.0
  H  H21  1  0.34926000  0.48383000  0.35989000  1.0
  H  H22  1  0.84925000  0.01616000  0.85989000  1.0
  H  H23  1  0.65075000  0.51617000  0.64011000  1.0
  H  H24  1  0.37349000  0.70696000  0.29407000  1.0
  H  H25  1  0.12651000  0.20696000  0.20594000  1.0
  H  H26  1  0.62651000  0.29303000  0.70593000  1.0
  H  H27  1  0.87349000  0.79304000  0.79406000  1.0
  H  H28  1  0.08513000  0.67407000  0.34824000  1.0
  H  H29  1  0.41486000  0.17406000  0.15176000  1.0
  H  H30  1  0.91487000  0.32593000  0.65177000  1.0
  H  H31  1  0.58513000  0.82593000  0.84824000  1.0
  H  H32  1  0.84498000  0.79777000  0.29249000  1.0
  H  H33  1  0.65501000  0.29777000  0.20751000  1.0
  H  H34  1  0.15502000  0.20223000  0.70751000  1.0
  H  H35  1  0.34498000  0.70223000  0.79249000  1.0
  H  H36  1  0.13470000  0.25384000  0.97305000  1.0
  H  H37  1  0.36529000  0.75384000  0.52696000  1.0
  H  H38  1  0.86530000  0.74616000  0.02696000  1.0
  H  H39  1  0.63470000  0.24616000  0.47304000  1.0
  H  H40  1  0.61244000  0.33642000  0.00132000  1.0
  H  H41  1  0.88756000  0.83643000  0.49868000  1.0
  H  H42  1  0.38756000  0.66357000  0.99868000  1.0
  H  H43  1  0.11245000  0.16357000  0.50132000  1.0
  H  H44  1  0.64858000  0.50246000  0.90239000  1.0
  H  H45  1  0.85142000  0.00245000  0.59761000  1.0
  H  H46  1  0.35142000  0.49754000  0.09761000  1.0
  H  H47  1  0.14859000  0.99754000  0.40239000  1.0
  H  H48  1  0.93331000  0.53365000  0.84592000  1.0
  H  H49  1  0.56670000  0.03365000  0.65408000  1.0
  H  H50  1  0.06670000  0.46635000  0.15408000  1.0
  H  H51  1  0.43331000  0.96635000  0.34592000  1.0
  C  C52  1  0.14207000  0.91336000  0.18484000  1.0
  C  C53  1  0.35793000  0.41336000  0.31516000  1.0
  C  C54  1  0.85792000  0.08663000  0.81516000  1.0
  C  C55  1  0.64208000  0.58664000  0.68484000  1.0
  C  C56  1  0.28448000  0.84811000  0.21230000  1.0
  C  C57  1  0.21552000  0.34811000  0.28770000  1.0
  C  C58  1  0.71551000  0.15189000  0.78769000  1.0
  C  C59  1  0.78449000  0.65190000  0.71230000  1.0
  C  C60  1  0.26469000  0.75904000  0.27075000  1.0
  C  C61  1  0.23531000  0.25904000  0.22925000  1.0
  C  C62  1  0.73531000  0.24095000  0.72925000  1.0
  C  C63  1  0.76469000  0.74096000  0.77075000  1.0
  C  C64  1  0.10611000  0.74079000  0.30120000  1.0
  C  C65  1  0.39388000  0.24079000  0.19880000  1.0
  C  C66  1  0.89389000  0.25920000  0.69880000  1.0
  C  C67  1  0.60612000  0.75921000  0.80120000  1.0
  C  C68  1  0.97083000  0.80983000  0.27054000  1.0
  C  C69  1  0.52917000  0.30983000  0.22946000  1.0
  C  C70  1  0.02917000  0.19016000  0.72946000  1.0
  C  C71  1  0.47084000  0.69017000  0.77054000  1.0
  C  C72  1  0.45720000  0.87882000  0.18688000  1.0
  C  C73  1  0.04280000  0.37882000  0.31312000  1.0
  C  C74  1  0.54280000  0.12117000  0.81312000  1.0
  C  C75  1  0.95721000  0.62119000  0.68688000  1.0
  C  C76  1  0.02431000  0.30731000  0.95961000  1.0
  C  C77  1  0.47569000  0.80731000  0.54039000  1.0
  C  C78  1  0.97570000  0.69269000  0.04039000  1.0
  C  C79  1  0.52431000  0.19269000  0.45960000  1.0
  C  C80  1  0.87145000  0.28388000  0.99595000  1.0
  C  C81  1  0.62854000  0.78388000  0.50405000  1.0
  C  C82  1  0.12855000  0.71612000  0.00405000  1.0
  C  C83  1  0.37145000  0.21613000  0.49595000  1.0
  C  C84  1  0.73335000  0.35482000  0.97515000  1.0
  C  C85  1  0.76665000  0.85482000  0.52485000  1.0
  C  C86  1  0.26666000  0.64518000  0.02485000  1.0
  C  C87  1  0.23335000  0.14518000  0.47515000  1.0
  C  C88  1  0.75362000  0.44602000  0.92046000  1.0
  C  C89  1  0.74637000  0.94602000  0.57954000  1.0
  C  C90  1  0.24638000  0.55398000  0.07954000  1.0
  C  C91  1  0.25363000  0.05397000  0.42046000  1.0
  C  C92  1  0.91120000  0.46283000  0.88802000  1.0
  C  C93  1  0.58880000  0.96283000  0.61198000  1.0
  C  C94  1  0.08880000  0.53717000  0.11198000  1.0
  C  C95  1  0.41121000  0.03717000  0.38802000  1.0
  C  C96  1  0.85273000  0.18389000  0.05306000  1.0
  C  C97  1  0.64726000  0.68390000  0.44694000  1.0
  C  C98  1  0.14727000  0.81610000  0.94694000  1.0
  C  C99  1  0.35273000  0.31611000  0.55306000  1.0
  N  N100  1  0.98804000  0.89388000  0.21197000  1.0
  N  N101  1  0.51196000  0.39388000  0.28803000  1.0
  N  N102  1  0.01196000  0.10612000  0.78803000  1.0
  N  N103  1  0.48804000  0.60612000  0.71197000  1.0
  N  N104  1  0.04380000  0.39474000  0.90617000  1.0
  N  N105  1  0.45620000  0.89474000  0.59383000  1.0
  N  N106  1  0.95620000  0.60526000  0.09383000  1.0
  N  N107  1  0.54380000  0.10526000  0.40616000  1.0
  O  O108  1  0.81602000  0.09469000  0.30440000  1.0
  O  O109  1  0.68398000  0.59469000  0.19560000  1.0
  O  O110  1  0.18398000  0.90531000  0.69560000  1.0
  O  O111  1  0.31602000  0.40531000  0.80440000  1.0
  O  O112  1  0.46997000  0.97304000  0.15001000  1.0
  O  O113  1  0.03003000  0.47304000  0.34999000  1.0
  O  O114  1  0.53003000  0.02696000  0.84999000  1.0
  O  O115  1  0.96998000  0.52697000  0.65001000  1.0
  O  O116  1  0.72839000  0.91844000  0.00127000  1.0
  O  O117  1  0.77161000  0.41844000  0.49874000  1.0
  O  O118  1  0.27160000  0.08156000  0.99874000  1.0
  O  O119  1  0.22839000  0.58156000  0.50127000  1.0
  O  O120  1  0.58288000  0.81682000  0.20846000  1.0
  O  O121  1  0.91712000  0.31682000  0.29154000  1.0
  O  O122  1  0.41712000  0.18318000  0.79155000  1.0
  O  O123  1  0.08288000  0.68319000  0.70846000  1.0
  O  O124  1  0.70787000  0.16656000  0.08076000  1.0
  O  O125  1  0.79212000  0.66656000  0.41924000  1.0
  O  O126  1  0.29212000  0.83343000  0.91924000  1.0
  O  O127  1  0.20787000  0.33344000  0.58076000  1.0
  O  O128  1  0.97961000  0.11986000  0.07164000  1.0
  O  O129  1  0.52038000  0.61985000  0.42836000  1.0
  O  O130  1  0.02039000  0.88015000  0.92836000  1.0
  O  O131  1  0.47961000  0.38016000  0.57163000  1.0
