# generated using pymatgen
data_CdH18C24S2(N3Cl)2
_symmetry_space_group_name_H-M   'P 1'
_cell_length_a   8.07995000
_cell_length_b   9.73134000
_cell_length_c   15.70970000
_cell_angle_alpha   90.00000000
_cell_angle_beta   104.63900000
_cell_angle_gamma   90.00000000
_symmetry_Int_Tables_number   1
_chemical_formula_structural   CdH18C24S2(N3Cl)2
_chemical_formula_sum   'Cd2 H36 C48 S4 N12 Cl4'
_cell_volume   1195.13498250
_cell_formula_units_Z   2
loop_
 _symmetry_equiv_pos_site_id
 _symmetry_equiv_pos_as_xyz
  1  'x, y, z'
loop_
 _atom_site_type_symbol
 _atom_site_label
 _atom_site_symmetry_multiplicity
 _atom_site_fract_x
 _atom_site_fract_y
 _atom_site_fract_z
 _atom_site_occupancy
  Cd  Cd0  1  0.00000000  0.50000000  0.00000000  1.0
  Cd  Cd1  1  0.00000000  0.00000000  0.50000000  1.0
  H  H2  1  0.65062000  0.28411000  0.00429000  1.0
  H  H3  1  0.34939000  0.78411000  0.49571000  1.0
  H  H4  1  0.34939000  0.71589000  0.99572000  1.0
  H  H5  1  0.65061000  0.21589000  0.50429000  1.0
  H  H6  1  0.85916000  0.18199000  0.27242000  1.0
  H  H7  1  0.14084000  0.68199000  0.22758000  1.0
  H  H8  1  0.14084000  0.81801000  0.72758000  1.0
  H  H9  1  0.85916000  0.31801000  0.77242000  1.0
  H  H10  1  0.08688000  0.35474000  0.21216000  1.0
  H  H11  1  0.91312000  0.85474000  0.28784000  1.0
  H  H12  1  0.91312000  0.64525000  0.78784000  1.0
  H  H13  1  0.08688000  0.14526000  0.71216000  1.0
  H  H14  1  0.40248000  0.31048000  0.16203000  1.0
  H  H15  1  0.59752000  0.81048000  0.33797000  1.0
  H  H16  1  0.59752000  0.68952000  0.83797000  1.0
  H  H17  1  0.40248000  0.18953000  0.66203000  1.0
  H  H18  1  0.33445000  0.84526000  0.14402000  1.0
  H  H19  1  0.66555000  0.34526000  0.35598000  1.0
  H  H20  1  0.66556000  0.15473000  0.85599000  1.0
  H  H21  1  0.33445000  0.65474000  0.64402000  1.0
  H  H22  1  0.52154000  0.70889000  0.14275000  1.0
  H  H23  1  0.47846000  0.20889000  0.35725000  1.0
  H  H24  1  0.47845000  0.29111000  0.85725000  1.0
  H  H25  1  0.52154000  0.79111000  0.64275000  1.0
  H  H26  1  0.69684000  0.53981000  0.09202000  1.0
  H  H27  1  0.30316000  0.03981000  0.40798000  1.0
  H  H28  1  0.30315000  0.46018000  0.90798000  1.0
  H  H29  1  0.69684000  0.96019000  0.59202000  1.0
  H  H30  1  0.01682000  0.83807000  0.03431000  1.0
  H  H31  1  0.98318000  0.33807000  0.46569000  1.0
  H  H32  1  0.98317000  0.16193000  0.96569000  1.0
  H  H33  1  0.01682000  0.66194000  0.53431000  1.0
  H  H34  1  0.84901000  0.02524000  0.07783000  1.0
  H  H35  1  0.15099000  0.52524000  0.42217000  1.0
  H  H36  1  0.15098000  0.97476000  0.92217000  1.0
  H  H37  1  0.84901000  0.47476000  0.57783000  1.0
  C  C38  1  0.74151000  0.27935000  0.06818000  1.0
  C  C39  1  0.25849000  0.77935000  0.43182000  1.0
  C  C40  1  0.25849000  0.72065000  0.93182000  1.0
  C  C41  1  0.74151000  0.22065000  0.56818000  1.0
  C  C42  1  0.85413000  0.22972000  0.20924000  1.0
  C  C43  1  0.14587000  0.72972000  0.29077000  1.0
  C  C44  1  0.14587000  0.77028000  0.79077000  1.0
  C  C45  1  0.85413000  0.27028000  0.70923000  1.0
  C  C46  1  0.96367000  0.31250000  0.17805000  1.0
  C  C47  1  0.03633000  0.81250000  0.32195000  1.0
  C  C48  1  0.03633000  0.68749000  0.82195000  1.0
  C  C49  1  0.96367000  0.18750000  0.67805000  1.0
  C  C50  1  0.56270000  0.13450000  0.14129000  1.0
  C  C51  1  0.43730000  0.63450000  0.35871000  1.0
  C  C52  1  0.43730000  0.86549000  0.85871000  1.0
  C  C53  1  0.56270000  0.36550000  0.64129000  1.0
  C  C54  1  0.42199000  0.20023000  0.15618000  1.0
  C  C55  1  0.57801000  0.70023000  0.34382000  1.0
  C  C56  1  0.57802000  0.79977000  0.84382000  1.0
  C  C57  1  0.42199000  0.29977000  0.65618000  1.0
  C  C58  1  0.38666000  0.94854000  0.14585000  1.0
  C  C59  1  0.61334000  0.44854000  0.35415000  1.0
  C  C60  1  0.61334000  0.05146000  0.85415000  1.0
  C  C61  1  0.38666000  0.55147000  0.64585000  1.0
  C  C62  1  0.54476000  0.98744000  0.13393000  1.0
  C  C63  1  0.45524000  0.48743000  0.36607000  1.0
  C  C64  1  0.45524000  0.01256000  0.86607000  1.0
  C  C65  1  0.54476000  0.51257000  0.63393000  1.0
  C  C66  1  0.66379000  0.88667000  0.11308000  1.0
  C  C67  1  0.33621000  0.38667000  0.38692000  1.0
  C  C68  1  0.33621000  0.11333000  0.88692000  1.0
  C  C69  1  0.66379000  0.61333000  0.61308000  1.0
  C  C70  1  0.62877000  0.74577000  0.11873000  1.0
  C  C71  1  0.37123000  0.24577000  0.38127000  1.0
  C  C72  1  0.37123000  0.25422000  0.88127000  1.0
  C  C73  1  0.62877000  0.75423000  0.61873000  1.0
  C  C74  1  0.72803000  0.64852000  0.09067000  1.0
  C  C75  1  0.27197000  0.14852000  0.40933000  1.0
  C  C76  1  0.27197000  0.35148000  0.90933000  1.0
  C  C77  1  0.72803000  0.85148000  0.59067000  1.0
  C  C78  1  0.90442000  0.81464000  0.05829000  1.0
  C  C79  1  0.09558000  0.31463000  0.44171000  1.0
  C  C80  1  0.09558000  0.18536000  0.94171000  1.0
  C  C81  1  0.90441000  0.68537000  0.55829000  1.0
  C  C82  1  0.80957000  0.91960000  0.08339000  1.0
  C  C83  1  0.19043000  0.41960000  0.41661000  1.0
  C  C84  1  0.19042000  0.08040000  0.91661000  1.0
  C  C85  1  0.80957000  0.58041000  0.58339000  1.0
  S  S86  1  0.26732000  0.08435000  0.16361000  1.0
  S  S87  1  0.73268000  0.58435000  0.33639000  1.0
  S  S88  1  0.73268000  0.91565000  0.83639000  1.0
  S  S89  1  0.26732000  0.41565000  0.66361000  1.0
  N  N90  1  0.89273000  0.34174000  0.09032000  1.0
  N  N91  1  0.10727000  0.84174000  0.40968000  1.0
  N  N92  1  0.10727000  0.65826000  0.90969000  1.0
  N  N93  1  0.89273000  0.15826000  0.59031000  1.0
  N  N94  1  0.71298000  0.20982000  0.13862000  1.0
  N  N95  1  0.28703000  0.70982000  0.36138000  1.0
  N  N96  1  0.28703000  0.79018000  0.86138000  1.0
  N  N97  1  0.71297000  0.29018000  0.63862000  1.0
  N  N98  1  0.86401000  0.68103000  0.06001000  1.0
  N  N99  1  0.13599000  0.18103000  0.43999000  1.0
  N  N100  1  0.13598000  0.31897000  0.93999000  1.0
  N  N101  1  0.86401000  0.81898000  0.56001000  1.0
  Cl  Cl102  1  0.27870000  0.54471000  0.12598000  1.0
  Cl  Cl103  1  0.72130000  0.04471000  0.37402000  1.0
  Cl  Cl104  1  0.72130000  0.45529000  0.87403000  1.0
  Cl  Cl105  1  0.27870000  0.95529000  0.62598000  1.0
