# generated using pymatgen
data_ZnH11C17SN5O4
_symmetry_space_group_name_H-M   'P 1'
_cell_length_a   10.74540000
_cell_length_b   11.42415899
_cell_length_c   17.78930000
_cell_angle_alpha   90.00010621
_cell_angle_beta   90.00010000
_cell_angle_gamma   117.96059353
_symmetry_Int_Tables_number   1
_chemical_formula_structural   ZnH11C17SN5O4
_chemical_formula_sum   'Zn4 H44 C68 S4 N20 O16'
_cell_volume   1928.85374804
_cell_formula_units_Z   4
loop_
 _symmetry_equiv_pos_site_id
 _symmetry_equiv_pos_as_xyz
  1  'x, y, z'
loop_
 _atom_site_type_symbol
 _atom_site_label
 _atom_site_symmetry_multiplicity
 _atom_site_fract_x
 _atom_site_fract_y
 _atom_site_fract_z
 _atom_site_occupancy
  Zn  Zn0  1  0.68332000  0.64771000  0.13264000  1.0
  Zn  Zn1  1  0.31668000  0.85229000  0.63266000  1.0
  Zn  Zn2  1  0.31668000  0.35230000  0.86736000  1.0
  Zn  Zn3  1  0.68332000  0.14770000  0.36735000  1.0
  H  H4  1  0.22730000  0.12848000  0.14969000  1.0
  H  H5  1  0.77271000  0.37152000  0.64971000  1.0
  H  H6  1  0.77271000  0.87153000  0.85030000  1.0
  H  H7  1  0.22729000  0.62847000  0.35029000  1.0
  H  H8  1  0.98766000  0.05377000  0.22236000  1.0
  H  H9  1  0.01236000  0.44623000  0.72236000  1.0
  H  H10  1  0.01235000  0.94623000  0.77764000  1.0
  H  H11  1  0.98764000  0.55377000  0.27764000  1.0
  H  H12  1  0.57910000  0.40951000  0.00755000  1.0
  H  H13  1  0.42091000  0.09048000  0.50756000  1.0
  H  H14  1  0.42090000  0.59049000  0.99245000  1.0
  H  H15  1  0.57908000  0.90951000  0.49244000  1.0
  H  H16  1  0.94723000  0.77707000  0.02559000  1.0
  H  H17  1  0.05277000  0.72293000  0.52560000  1.0
  H  H18  1  0.05276000  0.22294000  0.97441000  1.0
  H  H19  1  0.94723000  0.27706000  0.47440000  1.0
  H  H20  1  0.00146000  0.46498000  0.88227000  1.0
  H  H21  1  0.99855000  0.03502000  0.38228000  1.0
  H  H22  1  0.99854000  0.53503000  0.11773000  1.0
  H  H23  1  0.00145000  0.96497000  0.61772000  1.0
  H  H24  1  0.23228000  0.55923000  0.81633000  1.0
  H  H25  1  0.76775000  0.94078000  0.31633000  1.0
  H  H26  1  0.76773000  0.44078000  0.18368000  1.0
  H  H27  1  0.23225000  0.05921000  0.68367000  1.0
  H  H28  1  0.38124000  0.80457000  0.80933000  1.0
  H  H29  1  0.61879000  0.69544000  0.30932000  1.0
  H  H30  1  0.61876000  0.19544000  0.19068000  1.0
  H  H31  1  0.38122000  0.30455000  0.69068000  1.0
  H  H32  1  0.13950000  0.03095000  0.89956000  1.0
  H  H33  1  0.86051000  0.46905000  0.39956000  1.0
  H  H34  1  0.86049000  0.96906000  0.10044000  1.0
  H  H35  1  0.13950000  0.53095000  0.60044000  1.0
  H  H36  1  0.55247000  0.27384000  0.82095000  1.0
  H  H37  1  0.44754000  0.22617000  0.32094000  1.0
  H  H38  1  0.44752000  0.72617000  0.17905000  1.0
  H  H39  1  0.55247000  0.77382000  0.67907000  1.0
  H  H40  1  0.77171000  0.42015000  0.89911000  1.0
  H  H41  1  0.22831000  0.07984000  0.39912000  1.0
  H  H42  1  0.22829000  0.57985000  0.10089000  1.0
  H  H43  1  0.77168000  0.92015000  0.60089000  1.0
  H  H44  1  0.50564000  0.01344000  0.82399000  1.0
  H  H45  1  0.49438000  0.48657000  0.32398000  1.0
  H  H46  1  0.49435000  0.98657000  0.17600000  1.0
  H  H47  1  0.50563000  0.51342000  0.67601000  1.0
  C  C48  1  0.43903000  0.40260000  0.16196000  1.0
  C  C49  1  0.56098000  0.09740000  0.66197000  1.0
  C  C50  1  0.56097000  0.59741000  0.83803000  1.0
  C  C51  1  0.43901000  0.90258000  0.33803000  1.0
  C  C52  1  0.29633000  0.32633000  0.19473000  1.0
  C  C53  1  0.70368000  0.17367000  0.69474000  1.0
  C  C54  1  0.70368000  0.67368000  0.80526000  1.0
  C  C55  1  0.29632000  0.82632000  0.30526000  1.0
  C  C56  1  0.20294000  0.19333000  0.18450000  1.0
  C  C57  1  0.79706000  0.30666000  0.68451000  1.0
  C  C58  1  0.79706000  0.80667000  0.81549000  1.0
  C  C59  1  0.20293000  0.69333000  0.31549000  1.0
  C  C60  1  0.07482000  0.15386000  0.22330000  1.0
  C  C61  1  0.92519000  0.34613000  0.72331000  1.0
  C  C62  1  0.92518000  0.84614000  0.77670000  1.0
  C  C63  1  0.07480000  0.65386000  0.27669000  1.0
  C  C64  1  0.07185000  0.25690000  0.26314000  1.0
  C  C65  1  0.92816000  0.24310000  0.76314000  1.0
  C  C66  1  0.92815000  0.74310000  0.73686000  1.0
  C  C67  1  0.07185000  0.75690000  0.23686000  1.0
  C  C68  1  0.95664000  0.25656000  0.30910000  1.0
  C  C69  1  0.04338000  0.24345000  0.80910000  1.0
  C  C70  1  0.04337000  0.74344000  0.69090000  1.0
  C  C71  1  0.95662000  0.75656000  0.19090000  1.0
  C  C72  1  0.68313000  0.48765000  0.99346000  1.0
  C  C73  1  0.31689000  0.01235000  0.49347000  1.0
  C  C74  1  0.31687000  0.51235000  0.00654000  1.0
  C  C75  1  0.68312000  0.98765000  0.50653000  1.0
  C  C76  1  0.87098000  0.68037000  0.00523000  1.0
  C  C77  1  0.12903000  0.81964000  0.50524000  1.0
  C  C78  1  0.12901000  0.31964000  0.99477000  1.0
  C  C79  1  0.87098000  0.18036000  0.49476000  1.0
  C  C80  1  0.02737000  0.66023000  0.91048000  1.0
  C  C81  1  0.97265000  0.83978000  0.41048000  1.0
  C  C82  1  0.97263000  0.33979000  0.08952000  1.0
  C  C83  1  0.02735000  0.16021000  0.58952000  1.0
  C  C84  1  0.06755000  0.57169000  0.87843000  1.0
  C  C85  1  0.93246000  0.92831000  0.37844000  1.0
  C  C86  1  0.93245000  0.42832000  0.12157000  1.0
  C  C87  1  0.06754000  0.07168000  0.62157000  1.0
  C  C88  1  0.19745000  0.62524000  0.84200000  1.0
  C  C89  1  0.80257000  0.87477000  0.34200000  1.0
  C  C90  1  0.80255000  0.37477000  0.15800000  1.0
  C  C91  1  0.19743000  0.12522000  0.65800000  1.0
  C  C92  1  0.28066000  0.76188000  0.83850000  1.0
  C  C93  1  0.71936000  0.73812000  0.33850000  1.0
  C  C94  1  0.71935000  0.23813000  0.16151000  1.0
  C  C95  1  0.28064000  0.26187000  0.66150000  1.0
  C  C96  1  0.22809000  0.83996000  0.87226000  1.0
  C  C97  1  0.77194000  0.66005000  0.37226000  1.0
  C  C98  1  0.77191000  0.16005000  0.12774000  1.0
  C  C99  1  0.22807000  0.33994000  0.62774000  1.0
  C  C100  1  0.24654000  0.06350000  0.88090000  1.0
  C  C101  1  0.75348000  0.43651000  0.38090000  1.0
  C  C102  1  0.75346000  0.93651000  0.11910000  1.0
  C  C103  1  0.24653000  0.56349000  0.61911000  1.0
  C  C104  1  0.46128000  0.18431000  0.83934000  1.0
  C  C105  1  0.53873000  0.31570000  0.33933000  1.0
  C  C106  1  0.53872000  0.81570000  0.16066000  1.0
  C  C107  1  0.46127000  0.68429000  0.66067000  1.0
  C  C108  1  0.77860000  0.49059000  0.94164000  1.0
  C  C109  1  0.22142000  0.00941000  0.44165000  1.0
  C  C110  1  0.22140000  0.50942000  0.05836000  1.0
  C  C111  1  0.77858000  0.99058000  0.55835000  1.0
  C  C112  1  0.43896000  0.05624000  0.84056000  1.0
  C  C113  1  0.56106000  0.44377000  0.34055000  1.0
  C  C114  1  0.56104000  0.94377000  0.15944000  1.0
  C  C115  1  0.43893000  0.55621000  0.65945000  1.0
  S  S116  1  0.22675000  0.40210000  0.25250000  1.0
  S  S117  1  0.77327000  0.09790000  0.75250000  1.0
  S  S118  1  0.77325000  0.59790000  0.74750000  1.0
  S  S119  1  0.22674000  0.90210000  0.24750000  1.0
  N  N120  1  0.74257000  0.60612000  0.03302000  1.0
  N  N121  1  0.25744000  0.89388000  0.53303000  1.0
  N  N122  1  0.25743000  0.39389000  0.96698000  1.0
  N  N123  1  0.74256000  0.10611000  0.46697000  1.0
  N  N124  1  0.89734000  0.61313000  0.94963000  1.0
  N  N125  1  0.10268000  0.88688000  0.44964000  1.0
  N  N126  1  0.10266000  0.38689000  0.05036000  1.0
  N  N127  1  0.89733000  0.11312000  0.55036000  1.0
  N  N128  1  0.10523000  0.79156000  0.90836000  1.0
  N  N129  1  0.89479000  0.70844000  0.40836000  1.0
  N  N130  1  0.89477000  0.20845000  0.09164000  1.0
  N  N131  1  0.10521000  0.29155000  0.59164000  1.0
  N  N132  1  0.30271000  0.98036000  0.86716000  1.0
  N  N133  1  0.69731000  0.51964000  0.36716000  1.0
  N  N134  1  0.69729000  0.01965000  0.13284000  1.0
  N  N135  1  0.30270000  0.48035000  0.63284000  1.0
  N  N136  1  0.34049000  0.18722000  0.86453000  1.0
  N  N137  1  0.65952000  0.31279000  0.36452000  1.0
  N  N138  1  0.65951000  0.81280000  0.13547000  1.0
  N  N139  1  0.34048000  0.68720000  0.63548000  1.0
  O  O140  1  0.49145000  0.34514000  0.12403000  1.0
  O  O141  1  0.50854000  0.15485000  0.62404000  1.0
  O  O142  1  0.50853000  0.65486000  0.87596000  1.0
  O  O143  1  0.49146000  0.84514000  0.37596000  1.0
  O  O144  1  0.49919000  0.52946000  0.17705000  1.0
  O  O145  1  0.50082000  0.97053000  0.67705000  1.0
  O  O146  1  0.50081000  0.47054000  0.82295000  1.0
  O  O147  1  0.49918000  0.02946000  0.32295000  1.0
  O  O148  1  0.83463000  0.15281000  0.30057000  1.0
  O  O149  1  0.16539000  0.34720000  0.80057000  1.0
  O  O150  1  0.16538000  0.84718000  0.69943000  1.0
  O  O151  1  0.83461000  0.65281000  0.19943000  1.0
  O  O152  1  0.98131000  0.35220000  0.35206000  1.0
  O  O153  1  0.01872000  0.14781000  0.85206000  1.0
  O  O154  1  0.01870000  0.64780000  0.64795000  1.0
  O  O155  1  0.98128000  0.85219000  0.14793000  1.0
