# generated using pymatgen
data_Ni3H24C42N6O13
_symmetry_space_group_name_H-M   'P 1'
_cell_length_a   15.42180000
_cell_length_b   16.42863416
_cell_length_c   16.42860000
_cell_angle_alpha   60.04020616
_cell_angle_beta   89.97090000
_cell_angle_gamma   89.97090006
_symmetry_Int_Tables_number   1
_chemical_formula_structural   Ni3H24C42N6O13
_chemical_formula_sum   'Ni6 H48 C84 N12 O26'
_cell_volume   3606.14717322
_cell_formula_units_Z   2
loop_
 _symmetry_equiv_pos_site_id
 _symmetry_equiv_pos_as_xyz
  1  'x, y, z'
loop_
 _atom_site_type_symbol
 _atom_site_label
 _atom_site_symmetry_multiplicity
 _atom_site_fract_x
 _atom_site_fract_y
 _atom_site_fract_z
 _atom_site_occupancy
  Ni  Ni0  1  0.24991000  0.26818000  0.26817000  1.0
  Ni  Ni1  1  0.24948000  0.26694000  0.46379000  1.0
  Ni  Ni2  1  0.24948000  0.46379000  0.26694000  1.0
  Ni  Ni3  1  0.75001000  0.73216000  0.73216000  1.0
  Ni  Ni4  1  0.75001000  0.73204000  0.53566000  1.0
  Ni  Ni5  1  0.75001000  0.53566000  0.73204000  1.0
  H  H6  1  0.44529000  0.33669000  0.06455000  1.0
  H  H7  1  0.44464000  0.06518000  0.59755000  1.0
  H  H8  1  0.44478000  0.59802000  0.33707000  1.0
  H  H9  1  0.94503000  0.66300000  0.93487000  1.0
  H  H10  1  0.94490000  0.93473000  0.40189000  1.0
  H  H11  1  0.94513000  0.40208000  0.66312000  1.0
  H  H12  1  0.55519000  0.66322000  0.40218000  1.0
  H  H13  1  0.55504000  0.93486000  0.66308000  1.0
  H  H14  1  0.55564000  0.40222000  0.93418000  1.0
  H  H15  1  0.05523000  0.33670000  0.59770000  1.0
  H  H16  1  0.05498000  0.06526000  0.33648000  1.0
  H  H17  1  0.05518000  0.59769000  0.06533000  1.0
  H  H18  1  0.55503000  0.66309000  0.93486000  1.0
  H  H19  1  0.55565000  0.93419000  0.40221000  1.0
  H  H20  1  0.55519000  0.40217000  0.66322000  1.0
  H  H21  1  0.05497000  0.33648000  0.06526000  1.0
  H  H22  1  0.05517000  0.06533000  0.59769000  1.0
  H  H23  1  0.05523000  0.59770000  0.33671000  1.0
  H  H24  1  0.44478000  0.33706000  0.59802000  1.0
  H  H25  1  0.44530000  0.06455000  0.33669000  1.0
  H  H26  1  0.44464000  0.59755000  0.06519000  1.0
  H  H27  1  0.94514000  0.66311000  0.40209000  1.0
  H  H28  1  0.94502000  0.93487000  0.66299000  1.0
  H  H29  1  0.94490000  0.40189000  0.93473000  1.0
  H  H30  1  0.24916000  0.06841000  0.31944000  1.0
  H  H31  1  0.24988000  0.31878000  0.61328000  1.0
  H  H32  1  0.25018000  0.61405000  0.06740000  1.0
  H  H33  1  0.74986000  0.93194000  0.68099000  1.0
  H  H34  1  0.74982000  0.68101000  0.38683000  1.0
  H  H35  1  0.74982000  0.38714000  0.93197000  1.0
  H  H36  1  0.74981000  0.93197000  0.38714000  1.0
  H  H37  1  0.74986000  0.68099000  0.93194000  1.0
  H  H38  1  0.74982000  0.38683000  0.68101000  1.0
  H  H39  1  0.25018000  0.06739000  0.61406000  1.0
  H  H40  1  0.24916000  0.31944000  0.06841000  1.0
  H  H41  1  0.24988000  0.61328000  0.31879000  1.0
  H  H42  1  0.24985000  0.97425000  0.23655000  1.0
  H  H43  1  0.24983000  0.23643000  0.79041000  1.0
  H  H44  1  0.25014000  0.79101000  0.97358000  1.0
  H  H45  1  0.74994000  0.02616000  0.76382000  1.0
  H  H46  1  0.74994000  0.76384000  0.20990000  1.0
  H  H47  1  0.74992000  0.21021000  0.02620000  1.0
  H  H48  1  0.74992000  0.02619000  0.21022000  1.0
  H  H49  1  0.74994000  0.76382000  0.02616000  1.0
  H  H50  1  0.74994000  0.20990000  0.76384000  1.0
  H  H51  1  0.25014000  0.97357000  0.79101000  1.0
  H  H52  1  0.24986000  0.23655000  0.97425000  1.0
  H  H53  1  0.24983000  0.79041000  0.23643000  1.0
  C  C54  1  0.36997000  0.42592000  0.14702000  1.0
  C  C55  1  0.36998000  0.14702000  0.42592000  1.0
  C  C56  1  0.37004000  0.42624000  0.42623000  1.0
  C  C57  1  0.87029000  0.57376000  0.85228000  1.0
  C  C58  1  0.87028000  0.85229000  0.57375000  1.0
  C  C59  1  0.87030000  0.57380000  0.57380000  1.0
  C  C60  1  0.62951000  0.57412000  0.57415000  1.0
  C  C61  1  0.62959000  0.85159000  0.57426000  1.0
  C  C62  1  0.62959000  0.57426000  0.85159000  1.0
  C  C63  1  0.12895000  0.42544000  0.42543000  1.0
  C  C64  1  0.12929000  0.14814000  0.42607000  1.0
  C  C65  1  0.12929000  0.42607000  0.14814000  1.0
  C  C66  1  0.43834000  0.46365000  0.07175000  1.0
  C  C67  1  0.43835000  0.07174000  0.46365000  1.0
  C  C68  1  0.43818000  0.46407000  0.46407000  1.0
  C  C69  1  0.93839000  0.53591000  0.92787000  1.0
  C  C70  1  0.93839000  0.92786000  0.53591000  1.0
  C  C71  1  0.93853000  0.53605000  0.53605000  1.0
  C  C72  1  0.56167000  0.53625000  0.53626000  1.0
  C  C73  1  0.56179000  0.92744000  0.53620000  1.0
  C  C74  1  0.56179000  0.53621000  0.92743000  1.0
  C  C75  1  0.06162000  0.46364000  0.46363000  1.0
  C  C76  1  0.06153000  0.07238000  0.46355000  1.0
  C  C77  1  0.06153000  0.46356000  0.07237000  1.0
  C  C78  1  0.46972000  0.40813000  0.03540000  1.0
  C  C79  1  0.46936000  0.03576000  0.55556000  1.0
  C  C80  1  0.46936000  0.55592000  0.40846000  1.0
  C  C81  1  0.96952000  0.59155000  0.96414000  1.0
  C  C82  1  0.96944000  0.96409000  0.44398000  1.0
  C  C83  1  0.96965000  0.44416000  0.59167000  1.0
  C  C84  1  0.53060000  0.59184000  0.44435000  1.0
  C  C85  1  0.53058000  0.96395000  0.59165000  1.0
  C  C86  1  0.53093000  0.44424000  0.96358000  1.0
  C  C87  1  0.03070000  0.40814000  0.55563000  1.0
  C  C88  1  0.03052000  0.03603000  0.40794000  1.0
  C  C89  1  0.03059000  0.55556000  0.03604000  1.0
  C  C90  1  0.53058000  0.59166000  0.96394000  1.0
  C  C91  1  0.53093000  0.96358000  0.44424000  1.0
  C  C92  1  0.53060000  0.44434000  0.59185000  1.0
  C  C93  1  0.03052000  0.40794000  0.03603000  1.0
  C  C94  1  0.03059000  0.03604000  0.55556000  1.0
  C  C95  1  0.03070000  0.55563000  0.40814000  1.0
  C  C96  1  0.46936000  0.40846000  0.55591000  1.0
  C  C97  1  0.46972000  0.03540000  0.40813000  1.0
  C  C98  1  0.46936000  0.55556000  0.03576000  1.0
  C  C99  1  0.96965000  0.59167000  0.44416000  1.0
  C  C100  1  0.96951000  0.96415000  0.59154000  1.0
  C  C101  1  0.96945000  0.44398000  0.96409000  1.0
  C  C102  1  0.24930000  0.10214000  0.24321000  1.0
  C  C103  1  0.24986000  0.24257000  0.65604000  1.0
  C  C104  1  0.25006000  0.65646000  0.10130000  1.0
  C  C105  1  0.74987000  0.89824000  0.75722000  1.0
  C  C106  1  0.74983000  0.75725000  0.34439000  1.0
  C  C107  1  0.74983000  0.34458000  0.89825000  1.0
  C  C108  1  0.74983000  0.89826000  0.34457000  1.0
  C  C109  1  0.74987000  0.75722000  0.89824000  1.0
  C  C110  1  0.74983000  0.34439000  0.75725000  1.0
  C  C111  1  0.25006000  0.10129000  0.65646000  1.0
  C  C112  1  0.24930000  0.24321000  0.10214000  1.0
  C  C113  1  0.24986000  0.65605000  0.24256000  1.0
  C  C114  1  0.24972000  0.05068000  0.19700000  1.0
  C  C115  1  0.24985000  0.19669000  0.75367000  1.0
  C  C116  1  0.25004000  0.75406000  0.05000000  1.0
  C  C117  1  0.74992000  0.94973000  0.80342000  1.0
  C  C118  1  0.74991000  0.80346000  0.24676000  1.0
  C  C119  1  0.74990000  0.24695000  0.94976000  1.0
  C  C120  1  0.74990000  0.94976000  0.24695000  1.0
  C  C121  1  0.74991000  0.80341000  0.94974000  1.0
  C  C122  1  0.74991000  0.24676000  0.80346000  1.0
  C  C123  1  0.25004000  0.05000000  0.75406000  1.0
  C  C124  1  0.24972000  0.19699000  0.05069000  1.0
  C  C125  1  0.24985000  0.75367000  0.19669000  1.0
  C  C126  1  0.24989000  0.09857000  0.09856000  1.0
  C  C127  1  0.24996000  0.09827000  0.80430000  1.0
  C  C128  1  0.24996000  0.80430000  0.09827000  1.0
  C  C129  1  0.74996000  0.90186000  0.90186000  1.0
  C  C130  1  0.74995000  0.90191000  0.19629000  1.0
  C  C131  1  0.74995000  0.19629000  0.90191000  1.0
  C  C132  1  0.25006000  0.04651000  0.04651000  1.0
  C  C133  1  0.25000000  0.04647000  0.90824000  1.0
  C  C134  1  0.25000000  0.90824000  0.04647000  1.0
  C  C135  1  0.75001000  0.95391000  0.95391000  1.0
  C  C136  1  0.75001000  0.95396000  0.09224000  1.0
  C  C137  1  0.75001000  0.09225000  0.95396000  1.0
  N  N138  1  0.24903000  0.19647000  0.19647000  1.0
  N  N139  1  0.25001000  0.19557000  0.60870000  1.0
  N  N140  1  0.25001000  0.60869000  0.19558000  1.0
  N  N141  1  0.74987000  0.80390000  0.80390000  1.0
  N  N142  1  0.74982000  0.80390000  0.39214000  1.0
  N  N143  1  0.74982000  0.39214000  0.80390000  1.0
  N  N144  1  0.25009000  0.09697000  0.95217000  1.0
  N  N145  1  0.24992000  0.95213000  0.95213000  1.0
  N  N146  1  0.25009000  0.95217000  0.09697000  1.0
  N  N147  1  0.75001000  0.90349000  0.04828000  1.0
  N  N148  1  0.75003000  0.04834000  0.04835000  1.0
  N  N149  1  0.75001000  0.04828000  0.90349000  1.0
  O  O150  1  0.26018000  0.33299000  0.33298000  1.0
  O  O151  1  0.75627000  0.66666667  0.66655333  1.0
  O  O152  1  0.34382000  0.34274000  0.17457000  1.0
  O  O153  1  0.34332000  0.17429000  0.48148000  1.0
  O  O154  1  0.34379000  0.48165000  0.34316000  1.0
  O  O155  1  0.84403000  0.65683000  0.82475000  1.0
  O  O156  1  0.84400000  0.82470000  0.51828000  1.0
  O  O157  1  0.84395000  0.51834000  0.65682000  1.0
  O  O158  1  0.65573000  0.65724000  0.51893000  1.0
  O  O159  1  0.65571000  0.82380000  0.65737000  1.0
  O  O160  1  0.65582000  0.51907000  0.82360000  1.0
  O  O161  1  0.15494000  0.34217000  0.48040000  1.0
  O  O162  1  0.15530000  0.17696000  0.34262000  1.0
  O  O163  1  0.15566000  0.48190000  0.17512000  1.0
  O  O164  1  0.65570000  0.65739000  0.82378000  1.0
  O  O165  1  0.65583000  0.82360000  0.51906000  1.0
  O  O166  1  0.65573000  0.51892000  0.65725000  1.0
  O  O167  1  0.15529000  0.34261000  0.17697000  1.0
  O  O168  1  0.15566000  0.17512000  0.48190000  1.0
  O  O169  1  0.15494000  0.48040000  0.34217000  1.0
  O  O170  1  0.34379000  0.34317000  0.48165000  1.0
  O  O171  1  0.34382000  0.17458000  0.34274000  1.0
  O  O172  1  0.34332000  0.48148000  0.17429000  1.0
  O  O173  1  0.84394000  0.65683000  0.51833000  1.0
  O  O174  1  0.84403000  0.82475000  0.65683000  1.0
  O  O175  1  0.84400000  0.51829000  0.82470000  1.0
