# generated using pymatgen
data_CuH3(CO)2
_symmetry_space_group_name_H-M   'P 1'
_cell_length_a   5.19282000
_cell_length_b   5.90431000
_cell_length_c   9.88202000
_cell_angle_alpha   89.97830000
_cell_angle_beta   86.32700000
_cell_angle_gamma   89.97650000
_symmetry_Int_Tables_number   1
_chemical_formula_structural   CuH3(CO)2
_chemical_formula_sum   'Cu4 H12 C8 O8'
_cell_volume   302.36052532
_cell_formula_units_Z   4
loop_
 _symmetry_equiv_pos_site_id
 _symmetry_equiv_pos_as_xyz
  1  'x, y, z'
loop_
 _atom_site_type_symbol
 _atom_site_label
 _atom_site_symmetry_multiplicity
 _atom_site_fract_x
 _atom_site_fract_y
 _atom_site_fract_z
 _atom_site_occupancy
  Cu  Cu0  1  0.35549000  0.75005000  0.42265000  1.0
  Cu  Cu1  1  0.64451000  0.24993000  0.57735000  1.0
  Cu  Cu2  1  0.92458000  0.75025000  0.54630000  1.0
  Cu  Cu3  1  0.07543000  0.24974000  0.45370000  1.0
  H  H4  1  0.35211000  0.74995000  0.92745000  1.0
  H  H5  1  0.64790000  0.25006000  0.07256000  1.0
  H  H6  1  0.61283000  0.89900000  0.83829000  1.0
  H  H7  1  0.61291000  0.60087000  0.83833000  1.0
  H  H8  1  0.38717000  0.10103000  0.16171000  1.0
  H  H9  1  0.38711000  0.39916000  0.16169000  1.0
  H  H10  1  0.62125000  0.75000000  0.13313000  1.0
  H  H11  1  0.37873000  0.25002000  0.86687000  1.0
  H  H12  1  0.89862000  0.89971000  0.06394000  1.0
  H  H13  1  0.89875000  0.60022000  0.06404000  1.0
  H  H14  1  0.10136000  0.10031000  0.93605000  1.0
  H  H15  1  0.10124000  0.39979000  0.93594000  1.0
  C  C16  1  0.34870000  0.74997000  0.70889000  1.0
  C  C17  1  0.65129000  0.24997000  0.29112000  1.0
  C  C18  1  0.94886000  0.75001000  0.25645000  1.0
  C  C19  1  0.05115000  0.24998000  0.74354000  1.0
  C  C20  1  0.48659000  0.74996000  0.83771000  1.0
  C  C21  1  0.51342000  0.25002000  0.16230000  1.0
  C  C22  1  0.83186000  0.75002000  0.12164000  1.0
  C  C23  1  0.16814000  0.25006000  0.87834000  1.0
  O  O24  1  0.49354000  0.74995000  0.59778000  1.0
  O  O25  1  0.50645000  0.24994000  0.40222000  1.0
  O  O26  1  0.19517000  0.75004000  0.25534000  1.0
  O  O27  1  0.80484000  0.24999000  0.74465000  1.0
  O  O28  1  0.10337000  0.75008000  0.71325000  1.0
  O  O29  1  0.89664000  0.24994000  0.28676000  1.0
  O  O30  1  0.79780000  0.75005000  0.36410000  1.0
  O  O31  1  0.20220000  0.24995000  0.63588000  1.0
