# generated using pymatgen
data_ZnH16C8N2(ClO2)2
_symmetry_space_group_name_H-M   'P 1'
_cell_length_a   9.71926000
_cell_length_b   9.99431000
_cell_length_c   13.05880000
_cell_angle_alpha   90.00000000
_cell_angle_beta   101.50400000
_cell_angle_gamma   90.00000000
_symmetry_Int_Tables_number   1
_chemical_formula_structural   ZnH16C8N2(ClO2)2
_chemical_formula_sum   'Zn4 H64 C32 N8 Cl8 O16'
_cell_volume   1243.01343810
_cell_formula_units_Z   4
loop_
 _symmetry_equiv_pos_site_id
 _symmetry_equiv_pos_as_xyz
  1  'x, y, z'
loop_
 _atom_site_type_symbol
 _atom_site_label
 _atom_site_symmetry_multiplicity
 _atom_site_fract_x
 _atom_site_fract_y
 _atom_site_fract_z
 _atom_site_occupancy
  Zn  Zn0  1  0.22982000  0.07360000  0.20007000  1.0
  Zn  Zn1  1  0.77018000  0.57360000  0.29993000  1.0
  Zn  Zn2  1  0.77018000  0.92640000  0.79993000  1.0
  Zn  Zn3  1  0.22982000  0.42640000  0.70007000  1.0
  H  H4  1  0.23213000  0.96176000  0.57886000  1.0
  H  H5  1  0.76786000  0.46176000  0.92114000  1.0
  H  H6  1  0.76787000  0.03824000  0.42114000  1.0
  H  H7  1  0.23213000  0.53824000  0.07886000  1.0
  H  H8  1  0.90420000  0.63525000  0.55576000  1.0
  H  H9  1  0.09580000  0.13525000  0.94424000  1.0
  H  H10  1  0.09581000  0.36475000  0.44424000  1.0
  H  H11  1  0.90419000  0.86475000  0.05576000  1.0
  H  H12  1  0.80478000  0.76066000  0.58629000  1.0
  H  H13  1  0.19521000  0.26066000  0.91370000  1.0
  H  H14  1  0.19521000  0.23934000  0.41370000  1.0
  H  H15  1  0.80478000  0.73934000  0.08630000  1.0
  H  H16  1  0.86879000  0.77274000  0.47664000  1.0
  H  H17  1  0.13121000  0.27274000  0.02336000  1.0
  H  H18  1  0.13121000  0.22726000  0.52336000  1.0
  H  H19  1  0.86879000  0.72726000  0.97664000  1.0
  H  H20  1  0.31236000  0.72222000  0.43241000  1.0
  H  H21  1  0.68764000  0.22222000  0.06759000  1.0
  H  H22  1  0.68764000  0.27778000  0.56759000  1.0
  H  H23  1  0.31236000  0.77778000  0.93241000  1.0
  H  H24  1  0.47982000  0.78880000  0.44101000  1.0
  H  H25  1  0.52018000  0.28880000  0.05899000  1.0
  H  H26  1  0.52018000  0.21120000  0.55899000  1.0
  H  H27  1  0.47982000  0.71120000  0.94101000  1.0
  H  H28  1  0.43059000  0.73376000  0.61537000  1.0
  H  H29  1  0.56941000  0.23376000  0.88463000  1.0
  H  H30  1  0.56941000  0.26624000  0.38463000  1.0
  H  H31  1  0.43059000  0.76624000  0.11537000  1.0
  H  H32  1  0.47299000  0.90551000  0.60504000  1.0
  H  H33  1  0.52701000  0.40551000  0.89496000  1.0
  H  H34  1  0.52701000  0.09449000  0.39496000  1.0
  H  H35  1  0.47299000  0.59449000  0.10504000  1.0
  H  H36  1  0.36580000  0.80810000  0.76296000  1.0
  H  H37  1  0.63420000  0.30810000  0.73704000  1.0
  H  H38  1  0.63420000  0.19191000  0.23704000  1.0
  H  H39  1  0.36580000  0.69190000  0.26296000  1.0
  H  H40  1  0.19503000  0.87425000  0.75672000  1.0
  H  H41  1  0.80497000  0.37425000  0.74328000  1.0
  H  H42  1  0.80497000  0.12575000  0.24328000  1.0
  H  H43  1  0.19503000  0.62575000  0.25672000  1.0
  H  H44  1  0.37204000  0.02901000  0.84883000  1.0
  H  H45  1  0.62796000  0.52901000  0.65117000  1.0
  H  H46  1  0.62796000  0.97099000  0.15117000  1.0
  H  H47  1  0.37204000  0.47098000  0.34883000  1.0
  H  H48  1  0.45453000  0.04308000  0.74238000  1.0
  H  H49  1  0.54547000  0.54308000  0.75762000  1.0
  H  H50  1  0.54547000  0.95692000  0.25762000  1.0
  H  H51  1  0.45453000  0.45692000  0.24238000  1.0
  H  H52  1  0.18469000  0.67044000  0.59545000  1.0
  H  H53  1  0.81530000  0.17043000  0.90455000  1.0
  H  H54  1  0.81530000  0.32957000  0.40455000  1.0
  H  H55  1  0.18469000  0.82956000  0.09545000  1.0
  H  H56  1  0.12221000  0.77837000  0.48869000  1.0
  H  H57  1  0.87779000  0.27837000  0.01131000  1.0
  H  H58  1  0.87779000  0.22163000  0.51131000  1.0
  H  H59  1  0.12221000  0.72163000  0.98869000  1.0
  H  H60  1  0.02405000  0.77219000  0.69779000  1.0
  H  H61  1  0.97595000  0.27219000  0.80221000  1.0
  H  H62  1  0.97595000  0.22781000  0.30221000  1.0
  H  H63  1  0.02405000  0.72781000  0.19779000  1.0
  H  H64  1  0.99454000  0.91345000  0.61405000  1.0
  H  H65  1  0.00546000  0.41345000  0.88595000  1.0
  H  H66  1  0.00546000  0.08655000  0.38595000  1.0
  H  H67  1  0.99454000  0.58655000  0.11405000  1.0
  C  C68  1  0.31146000  0.93100000  0.39401000  1.0
  C  C69  1  0.68854000  0.43100000  0.10600000  1.0
  C  C70  1  0.68854000  0.06900000  0.60600000  1.0
  C  C71  1  0.31146000  0.56900000  0.89401000  1.0
  C  C72  1  0.37616000  0.81146000  0.45852000  1.0
  C  C73  1  0.62384000  0.31146000  0.04148000  1.0
  C  C74  1  0.62384000  0.18854000  0.54148000  1.0
  C  C75  1  0.37616000  0.68854000  0.95852000  1.0
  C  C76  1  0.39505000  0.82823000  0.57610000  1.0
  C  C77  1  0.60495000  0.32823000  0.92391000  1.0
  C  C78  1  0.60495000  0.17177000  0.42390000  1.0
  C  C79  1  0.39505000  0.67177000  0.07610000  1.0
  C  C80  1  0.29346000  0.88787000  0.72944000  1.0
  C  C81  1  0.70654000  0.38787000  0.77056000  1.0
  C  C82  1  0.70654000  0.11213000  0.27056000  1.0
  C  C83  1  0.29346000  0.61213000  0.22944000  1.0
  C  C84  1  0.35142000  0.02550000  0.76308000  1.0
  C  C85  1  0.64858000  0.52550000  0.73692000  1.0
  C  C86  1  0.64858000  0.97450000  0.23692000  1.0
  C  C87  1  0.35142000  0.47450000  0.26308000  1.0
  C  C88  1  0.25823000  0.14188000  0.71892000  1.0
  C  C89  1  0.74177000  0.64188000  0.78109000  1.0
  C  C90  1  0.74177000  0.85812000  0.28109000  1.0
  C  C91  1  0.25823000  0.35812000  0.21891000  1.0
  C  C92  1  0.14619000  0.77189000  0.57426000  1.0
  C  C93  1  0.85381000  0.27189000  0.92574000  1.0
  C  C94  1  0.85381000  0.22811000  0.42574000  1.0
  C  C95  1  0.14619000  0.72811000  0.07426000  1.0
  C  C96  1  0.01570000  0.80558000  0.61696000  1.0
  C  C97  1  0.98430000  0.30558000  0.88304000  1.0
  C  C98  1  0.98430000  0.19442000  0.38304000  1.0
  C  C99  1  0.01570000  0.69442000  0.11696000  1.0
  N  N100  1  0.26326000  0.86827000  0.61242000  1.0
  N  N101  1  0.73674000  0.36827000  0.88758000  1.0
  N  N102  1  0.73674000  0.13173000  0.38758000  1.0
  N  N103  1  0.26326000  0.63173000  0.11241000  1.0
  N  N104  1  0.89110000  0.73830000  0.55426000  1.0
  N  N105  1  0.10890000  0.23830000  0.94574000  1.0
  N  N106  1  0.10890000  0.26170000  0.44574000  1.0
  N  N107  1  0.89110000  0.76170000  0.05426000  1.0
  Cl  Cl108  1  0.34501000  0.05621000  0.06592000  1.0
  Cl  Cl109  1  0.65499000  0.55620000  0.43408000  1.0
  Cl  Cl110  1  0.65499000  0.94380000  0.93408000  1.0
  Cl  Cl111  1  0.34501000  0.44380000  0.56592000  1.0
  Cl  Cl112  1  0.99415000  0.05082000  0.14272000  1.0
  Cl  Cl113  1  0.00585000  0.55083000  0.35728000  1.0
  Cl  Cl114  1  0.00585000  0.94917000  0.85728000  1.0
  Cl  Cl115  1  0.99415000  0.44918000  0.64272000  1.0
  O  O116  1  0.31647000  0.92645000  0.29574000  1.0
  O  O117  1  0.68353000  0.42645000  0.20426000  1.0
  O  O118  1  0.68353000  0.07355000  0.70426000  1.0
  O  O119  1  0.31647000  0.57355000  0.79574000  1.0
  O  O120  1  0.25752000  0.02415000  0.43686000  1.0
  O  O121  1  0.74248000  0.52415000  0.06314000  1.0
  O  O122  1  0.74248000  0.97585000  0.56314000  1.0
  O  O123  1  0.25752000  0.47585000  0.93686000  1.0
  O  O124  1  0.17244000  0.12820000  0.63330000  1.0
  O  O125  1  0.82756000  0.62820000  0.86670000  1.0
  O  O126  1  0.82756000  0.87180000  0.36670000  1.0
  O  O127  1  0.17244000  0.37180000  0.13330000  1.0
  O  O128  1  0.27930000  0.25139000  0.77214000  1.0
  O  O129  1  0.72070000  0.75139000  0.72786000  1.0
  O  O130  1  0.72070000  0.74861000  0.22786000  1.0
  O  O131  1  0.27930000  0.24861000  0.27214000  1.0
