# generated using pymatgen
data_CuH9C8(NCl)2
_symmetry_space_group_name_H-M   'P 1'
_cell_length_a   7.45784000
_cell_length_b   8.23184995
_cell_length_c   8.81440000
_cell_angle_alpha   81.89035044
_cell_angle_beta   84.65540000
_cell_angle_gamma   67.29739462
_symmetry_Int_Tables_number   1
_chemical_formula_structural   CuH9C8(NCl)2
_chemical_formula_sum   'Cu2 H18 C16 N4 Cl4'
_cell_volume   493.76942896
_cell_formula_units_Z   2
loop_
 _symmetry_equiv_pos_site_id
 _symmetry_equiv_pos_as_xyz
  1  'x, y, z'
loop_
 _atom_site_type_symbol
 _atom_site_label
 _atom_site_symmetry_multiplicity
 _atom_site_fract_x
 _atom_site_fract_y
 _atom_site_fract_z
 _atom_site_occupancy
  Cu  Cu0  1  0.99583000  0.01431000  0.31148000  1.0
  Cu  Cu1  1  0.00416000  0.98572000  0.68854000  1.0
  H  H2  1  0.61770000  0.46980000  0.33867000  1.0
  H  H3  1  0.38228000  0.53020000  0.66130000  1.0
  H  H4  1  0.44675000  0.25941000  0.38179000  1.0
  H  H5  1  0.55324000  0.74058000  0.61820000  1.0
  H  H6  1  0.08706000  0.37742000  0.33383000  1.0
  H  H7  1  0.91291000  0.62259000  0.66619000  1.0
  H  H8  1  0.91248000  0.70330000  0.27461000  1.0
  H  H9  1  0.08751000  0.29672000  0.72542000  1.0
  H  H10  1  0.56774000  0.80317000  0.34738000  1.0
  H  H11  1  0.43225000  0.19682000  0.65263000  1.0
  H  H12  1  0.20303000  0.08775000  0.01681000  1.0
  H  H13  1  0.79698000  0.91225000  0.98318000  1.0
  H  H14  1  0.26376000  0.85581000  0.02323000  1.0
  H  H15  1  0.73625000  0.14419000  0.97676000  1.0
  H  H16  1  0.63841000  0.02374000  0.23203000  1.0
  H  H17  1  0.36160000  0.97626000  0.76797000  1.0
  H  H18  1  0.43713000  0.18801000  0.13407000  1.0
  H  H19  1  0.56289000  0.81198000  0.86593000  1.0
  C  C20  1  0.35241000  0.69870000  0.29255000  1.0
  C  C21  1  0.64760000  0.30130000  0.70745000  1.0
  C  C22  1  0.46041000  0.51838000  0.33020000  1.0
  C  C23  1  0.53958000  0.48163000  0.66978000  1.0
  C  C24  1  0.36531000  0.40013000  0.34920000  1.0
  C  C25  1  0.63467000  0.59987000  0.65079000  1.0
  C  C26  1  0.16647000  0.46540000  0.32570000  1.0
  C  C27  1  0.83353000  0.53460000  0.67430000  1.0
  C  C28  1  0.06866000  0.64730000  0.29014000  1.0
  C  C29  1  0.93133000  0.35270000  0.70986000  1.0
  C  C30  1  0.45612000  0.81954000  0.26820000  1.0
  C  C31  1  0.54390000  0.18045000  0.73180000  1.0
  C  C32  1  0.32505000  0.95823000  0.01499000  1.0
  C  C33  1  0.67496000  0.04177000  0.98500000  1.0
  C  C34  1  0.54838000  0.05320000  0.13234000  1.0
  C  C35  1  0.45162000  0.94679000  0.86766000  1.0
  N  N36  1  0.15546000  0.76533000  0.27842000  1.0
  N  N37  1  0.84456000  0.23466000  0.72157000  1.0
  N  N38  1  0.44505000  0.93218000  0.14545000  1.0
  N  N39  1  0.55496000  0.06781000  0.85455000  1.0
  Cl  Cl40  1  0.89483000  0.26852000  0.15992000  1.0
  Cl  Cl41  1  0.10519000  0.73149000  0.84006000  1.0
  Cl  Cl42  1  0.23616000  0.02015000  0.49906000  1.0
  Cl  Cl43  1  0.76384000  0.97983000  0.50095000  1.0
