# generated using pymatgen
data_CoH12C16(NO2)2
_symmetry_space_group_name_H-M   'P 1'
_cell_length_a   8.58973000
_cell_length_b   8.77472000
_cell_length_c   11.94850000
_cell_angle_alpha   108.35300000
_cell_angle_beta   107.81500000
_cell_angle_gamma   98.36240000
_symmetry_Int_Tables_number   1
_chemical_formula_structural   CoH12C16(NO2)2
_chemical_formula_sum   'Co2 H24 C32 N4 O8'
_cell_volume   784.12381320
_cell_formula_units_Z   2
loop_
 _symmetry_equiv_pos_site_id
 _symmetry_equiv_pos_as_xyz
  1  'x, y, z'
loop_
 _atom_site_type_symbol
 _atom_site_label
 _atom_site_symmetry_multiplicity
 _atom_site_fract_x
 _atom_site_fract_y
 _atom_site_fract_z
 _atom_site_occupancy
  Co  Co0  1  0.99166000  0.70130000  0.79446000  1.0
  Co  Co1  1  0.69720000  0.90687000  0.20543000  1.0
  H  H2  1  0.31840000  0.53945000  0.08521000  1.0
  H  H3  1  0.73389000  0.45418000  0.91508000  1.0
  H  H4  1  0.23869000  0.25268000  0.82994000  1.0
  H  H5  1  0.90868000  0.42227000  0.17033000  1.0
  H  H6  1  0.32680000  0.00757000  0.83256000  1.0
  H  H7  1  0.99461000  0.17452000  0.16752000  1.0
  H  H8  1  0.48922000  0.85592000  0.94830000  1.0
  H  H9  1  0.04097000  0.90714000  0.05148000  1.0
  H  H10  1  0.65181000  0.25518000  0.29308000  1.0
  H  H11  1  0.85839000  0.96204000  0.70691000  1.0
  H  H12  1  0.49743000  0.42616000  0.19326000  1.0
  H  H13  1  0.80419000  0.23291000  0.80701000  1.0
  H  H14  1  0.02195000  0.75410000  0.41808000  1.0
  H  H15  1  0.10431000  0.33578000  0.58172000  1.0
  H  H16  1  0.35654000  0.74647000  0.60674000  1.0
  H  H17  1  0.25014000  0.13912000  0.39315000  1.0
  H  H18  1  0.15480000  0.82614000  0.30034000  1.0
  H  H19  1  0.35457000  0.52524000  0.69943000  1.0
  H  H20  1  0.32532000  0.87037000  0.17316000  1.0
  H  H21  1  0.65218000  0.69667000  0.82668000  1.0
  H  H22  1  0.74165000  0.77834000  0.40478000  1.0
  H  H23  1  0.83717000  0.37304000  0.59525000  1.0
  H  H24  1  0.59153000  0.73114000  0.54095000  1.0
  H  H25  1  0.55095000  0.18954000  0.45912000  1.0
  C  C26  1  0.15904000  0.53334000  0.89990000  1.0
  C  C27  1  0.75928000  0.63329000  0.10024000  1.0
  C  C28  1  0.26764000  0.46560000  0.98335000  1.0
  C  C29  1  0.78466000  0.48213000  0.01695000  1.0
  C  C30  1  0.29755000  0.31739000  0.93335000  1.0
  C  C31  1  0.86434000  0.38380000  0.06693000  1.0
  C  C32  1  0.39562000  0.23143000  0.00230000  1.0
  C  C33  1  0.89349000  0.22891000  0.99790000  1.0
  C  C34  1  0.39790000  0.06903000  0.93470000  1.0
  C  C35  1  0.96342000  0.13399000  0.06537000  1.0
  C  C36  1  0.48759000  0.98272000  0.99832000  1.0
  C  C37  1  0.98934000  0.98407000  0.00161000  1.0
  C  C38  1  0.57688000  0.20640000  0.19138000  1.0
  C  C39  1  0.88538000  0.01492000  0.80864000  1.0
  C  C40  1  0.48914000  0.29959000  0.13446000  1.0
  C  C41  1  0.85473000  0.16504000  0.86571000  1.0
  C  C42  1  0.04651000  0.73440000  0.60086000  1.0
  C  C43  1  0.94586000  0.13335000  0.39906000  1.0
  C  C44  1  0.11262000  0.75006000  0.50346000  1.0
  C  C45  1  0.10947000  0.24619000  0.49636000  1.0
  C  C46  1  0.27629000  0.75681000  0.52015000  1.0
  C  C47  1  0.25644000  0.23609000  0.47967000  1.0
  C  C48  1  0.35935000  0.77689000  0.43452000  1.0
  C  C49  1  0.42507000  0.34172000  0.56535000  1.0
  C  C50  1  0.28452000  0.81435000  0.32719000  1.0
  C  C51  1  0.45746000  0.48657000  0.67259000  1.0
  C  C52  1  0.37956000  0.84115000  0.25655000  1.0
  C  C53  1  0.62306000  0.58404000  0.74330000  1.0
  C  C54  1  0.61250000  0.78922000  0.38499000  1.0
  C  C55  1  0.72776000  0.40368000  0.61499000  1.0
  C  C56  1  0.52650000  0.76260000  0.46091000  1.0
  C  C57  1  0.56589000  0.30107000  0.53909000  1.0
  N  N58  1  0.57680000  0.04922000  0.12515000  1.0
  N  N59  1  0.95153000  0.92383000  0.87474000  1.0
  N  N60  1  0.54183000  0.83038000  0.28487000  1.0
  N  N61  1  0.75709000  0.54498000  0.71504000  1.0
  O  O62  1  0.13706000  0.67858000  0.95289000  1.0
  O  O63  1  0.68468000  0.72562000  0.04714000  1.0
  O  O64  1  0.08872000  0.45371000  0.78120000  1.0
  O  O65  1  0.80720000  0.67227000  0.21892000  1.0
  O  O66  1  0.14829000  0.72768000  0.70380000  1.0
  O  O67  1  0.94451000  0.02336000  0.29615000  1.0
  O  O68  1  0.89285000  0.72869000  0.58459000  1.0
  O  O69  1  0.80860000  0.14439000  0.41541000  1.0
