# generated using pymatgen
data_BaP2H12C5Cl2O11
_symmetry_space_group_name_H-M   'P 1'
_cell_length_a   7.56045000
_cell_length_b   8.74612000
_cell_length_c   13.33340000
_cell_angle_alpha   79.13970000
_cell_angle_beta   73.55050000
_cell_angle_gamma   64.40280000
_symmetry_Int_Tables_number   1
_chemical_formula_structural   BaP2H12C5Cl2O11
_chemical_formula_sum   'Ba2 P4 H24 C10 Cl4 O22'
_cell_volume   760.36010260
_cell_formula_units_Z   2
loop_
 _symmetry_equiv_pos_site_id
 _symmetry_equiv_pos_as_xyz
  1  'x, y, z'
loop_
 _atom_site_type_symbol
 _atom_site_label
 _atom_site_symmetry_multiplicity
 _atom_site_fract_x
 _atom_site_fract_y
 _atom_site_fract_z
 _atom_site_occupancy
  Ba  Ba0  1  0.29144000  0.47385000  0.94328000  1.0
  Ba  Ba1  1  0.70856000  0.52615000  0.05672000  1.0
  P  P2  1  0.06627000  0.08944000  0.77780000  1.0
  P  P3  1  0.93372000  0.91056000  0.22220000  1.0
  P  P4  1  0.86821000  0.47887000  0.78464000  1.0
  P  P5  1  0.13178000  0.52113000  0.21536000  1.0
  H  H6  1  0.62318000  0.15356000  0.80882000  1.0
  H  H7  1  0.58553000  0.84655000  0.19117000  1.0
  H  H8  1  0.37683000  0.84644000  0.19118000  1.0
  H  H9  1  0.41447000  0.15345000  0.80883000  1.0
  H  H10  1  0.87846000  0.85048000  0.92260000  1.0
  H  H11  1  0.65151000  0.14949000  0.07738000  1.0
  H  H12  1  0.12154000  0.14952000  0.07740000  1.0
  H  H13  1  0.34849000  0.85051000  0.92262000  1.0
  H  H14  1  0.86546000  0.82609000  0.04387000  1.0
  H  H15  1  0.73538000  0.17391000  0.95612000  1.0
  H  H16  1  0.13454000  0.17391000  0.95613000  1.0
  H  H17  1  0.26462000  0.82609000  0.04388000  1.0
  H  H18  1  0.34133000  0.79420000  0.52292000  1.0
  H  H19  1  0.65867000  0.20580000  0.47708000  1.0
  H  H20  1  0.27508000  0.62237000  0.59352000  1.0
  H  H21  1  0.49123000  0.37754000  0.40640000  1.0
  H  H22  1  0.72492000  0.37763000  0.40648000  1.0
  H  H23  1  0.50877000  0.62246000  0.59360000  1.0
  H  H24  1  0.79825000  0.85845000  0.54502000  1.0
  H  H25  1  0.20175000  0.14155000  0.45497000  1.0
  H  H26  1  0.80332000  0.00520000  0.62135000  1.0
  H  H27  1  0.42990000  0.99460000  0.37881000  1.0
  H  H28  1  0.19668000  0.99480000  0.37865000  1.0
  H  H29  1  0.57010000  0.00539000  0.62119000  1.0
  C  C30  1  0.00207000  0.29847000  0.69721000  1.0
  C  C31  1  0.99793000  0.70153000  0.30279000  1.0
  C  C32  1  0.25663000  0.79458000  0.69182000  1.0
  C  C33  1  0.74337000  0.20542000  0.30818000  1.0
  C  C34  1  0.35078000  0.70542000  0.59280000  1.0
  C  C35  1  0.64922000  0.29458000  0.40721000  1.0
  C  C36  1  0.74285000  0.80047000  0.71332000  1.0
  C  C37  1  0.25715000  0.19953000  0.28668000  1.0
  C  C38  1  0.72967000  0.92273000  0.61776000  1.0
  C  C39  1  0.27033000  0.07727000  0.38224000  1.0
  Cl  Cl40  1  0.84174000  0.31203000  0.61692000  1.0
  Cl  Cl41  1  0.77098000  0.68793000  0.38304000  1.0
  Cl  Cl42  1  0.15826000  0.68797000  0.38308000  1.0
  Cl  Cl43  1  0.22902000  0.31206000  0.61696000  1.0
  O  O44  1  0.48307000  0.22804000  0.80574000  1.0
  O  O45  1  0.51693000  0.77196000  0.19426000  1.0
  O  O46  1  0.89698000  0.76412000  0.98201000  1.0
  O  O47  1  0.64319000  0.23586000  0.01798000  1.0
  O  O48  1  0.10302000  0.23588000  0.01799000  1.0
  O  O49  1  0.35681000  0.76414000  0.98202000  1.0
  O  O50  1  0.87625000  0.06754000  0.83608000  1.0
  O  O51  1  0.77992000  0.93260000  0.16395000  1.0
  O  O52  1  0.12375000  0.93246000  0.16392000  1.0
  O  O53  1  0.22008000  0.06740000  0.83605000  1.0
  O  O54  1  0.17805000  0.96772000  0.67549000  1.0
  O  O55  1  0.82195000  0.03228000  0.32451000  1.0
  O  O56  1  0.24836000  0.72337000  0.77987000  1.0
  O  O57  1  0.75164000  0.27663000  0.22013000  1.0
  O  O58  1  0.00963000  0.47773000  0.84403000  1.0
  O  O59  1  0.33128000  0.52237000  0.15587000  1.0
  O  O60  1  0.99037000  0.52228000  0.15597000  1.0
  O  O61  1  0.66872000  0.47763000  0.84413000  1.0
  O  O62  1  0.83878000  0.63385000  0.68830000  1.0
  O  O63  1  0.16121000  0.36615000  0.31170000  1.0
  O  O64  1  0.67810000  0.83926000  0.80364000  1.0
  O  O65  1  0.32190000  0.16074000  0.19636000  1.0
