# generated using pymatgen
data_GdH7C8NO8
_symmetry_space_group_name_H-M   'P 1'
_cell_length_a   7.49181000
_cell_length_b   9.87311000
_cell_length_c   14.76030000
_cell_angle_alpha   89.99990000
_cell_angle_beta   97.83240000
_cell_angle_gamma   90.00000000
_symmetry_Int_Tables_number   1
_chemical_formula_structural   GdH7C8NO8
_chemical_formula_sum   'Gd4 H28 C32 N4 O32'
_cell_volume   1081.59665924
_cell_formula_units_Z   4
loop_
 _symmetry_equiv_pos_site_id
 _symmetry_equiv_pos_as_xyz
  1  'x, y, z'
loop_
 _atom_site_type_symbol
 _atom_site_label
 _atom_site_symmetry_multiplicity
 _atom_site_fract_x
 _atom_site_fract_y
 _atom_site_fract_z
 _atom_site_occupancy
  Gd  Gd0  1  0.14509000  0.95633000  0.35728000  1.0
  Gd  Gd1  1  0.35491000  0.45633000  0.14273000  1.0
  Gd  Gd2  1  0.85491000  0.04367000  0.64272000  1.0
  Gd  Gd3  1  0.64509000  0.54366000  0.85728000  1.0
  H  H4  1  0.78789000  0.05790000  0.36943000  1.0
  H  H5  1  0.71211000  0.55789000  0.13056000  1.0
  H  H6  1  0.21211000  0.94211000  0.63057000  1.0
  H  H7  1  0.28789000  0.44210000  0.86943000  1.0
  H  H8  1  0.75572000  0.94786000  0.29311000  1.0
  H  H9  1  0.74428000  0.44785000  0.20689000  1.0
  H  H10  1  0.24428000  0.05215000  0.70689000  1.0
  H  H11  1  0.25571000  0.55215000  0.79311000  1.0
  H  H12  1  0.92177000  0.86471000  0.17972000  1.0
  H  H13  1  0.57822000  0.36471000  0.32028000  1.0
  H  H14  1  0.07822000  0.13529000  0.82028000  1.0
  H  H15  1  0.42177000  0.63529000  0.67972000  1.0
  H  H16  1  0.03537000  0.72876000  0.20757000  1.0
  H  H17  1  0.46463000  0.22876000  0.29243000  1.0
  H  H18  1  0.96463000  0.27125000  0.79243000  1.0
  H  H19  1  0.53537000  0.77125000  0.70757000  1.0
  H  H20  1  0.39204000  0.71683000  0.52066000  1.0
  H  H21  1  0.10795000  0.21682000  0.97934000  1.0
  H  H22  1  0.60796000  0.28318000  0.47934000  1.0
  H  H23  1  0.89204000  0.78317000  0.02066000  1.0
  H  H24  1  0.16905000  0.38292000  0.35471000  1.0
  H  H25  1  0.33096000  0.88291000  0.14529000  1.0
  H  H26  1  0.83096000  0.61708000  0.64529000  1.0
  H  H27  1  0.66904000  0.11708000  0.85471000  1.0
  H  H28  1  0.21010000  0.38081000  0.64930000  1.0
  H  H29  1  0.28990000  0.88081000  0.85070000  1.0
  H  H30  1  0.78990000  0.61919000  0.35070000  1.0
  H  H31  1  0.71010000  0.11919000  0.14930000  1.0
  C  C32  1  0.33027000  0.61711000  0.51359000  1.0
  C  C33  1  0.16973000  0.11711000  0.98641000  1.0
  C  C34  1  0.66974000  0.38289000  0.48641000  1.0
  C  C35  1  0.83027000  0.88289000  0.01359000  1.0
  C  C36  1  0.28051000  0.56199000  0.42671000  1.0
  C  C37  1  0.21949000  0.06199000  0.07329000  1.0
  C  C38  1  0.71949000  0.43801000  0.57329000  1.0
  C  C39  1  0.78051000  0.93801000  0.92670000  1.0
  C  C40  1  0.20562000  0.43222000  0.42074000  1.0
  C  C41  1  0.29438000  0.93222000  0.07926000  1.0
  C  C42  1  0.79438000  0.56778000  0.57926000  1.0
  C  C43  1  0.70562000  0.06778000  0.92074000  1.0
  C  C44  1  0.17625000  0.36630000  0.50117000  1.0
  C  C45  1  0.32375000  0.86630000  0.99883000  1.0
  C  C46  1  0.82375000  0.63370000  0.49883000  1.0
  C  C47  1  0.67625000  0.13369000  0.00117000  1.0
  C  C48  1  0.22902000  0.43048000  0.58521000  1.0
  C  C49  1  0.27099000  0.93048000  0.91479000  1.0
  C  C50  1  0.77098000  0.56952000  0.41479000  1.0
  C  C51  1  0.72901000  0.06952000  0.08521000  1.0
  C  C52  1  0.30966000  0.64229000  0.34366000  1.0
  C  C53  1  0.19034000  0.14229000  0.15634000  1.0
  C  C54  1  0.69034000  0.35771000  0.65634000  1.0
  C  C55  1  0.80966000  0.85771000  0.84365000  1.0
  C  C56  1  0.09185000  0.22833000  0.49869000  1.0
  C  C57  1  0.40815000  0.72833000  0.00132000  1.0
  C  C58  1  0.90814000  0.77167000  0.50132000  1.0
  C  C59  1  0.59185000  0.27167000  0.99869000  1.0
  C  C60  1  0.54502000  0.03177000  0.46087000  1.0
  C  C61  1  0.95500000  0.53176000  0.03914000  1.0
  C  C62  1  0.45501000  0.96824000  0.53914000  1.0
  C  C63  1  0.04500000  0.46823000  0.96087000  1.0
  N  N64  1  0.30772000  0.55292000  0.59125000  1.0
  N  N65  1  0.19228000  0.05291000  0.90875000  1.0
  N  N66  1  0.69228000  0.44708000  0.40875000  1.0
  N  N67  1  0.80772000  0.94708000  0.09125000  1.0
  O  O68  1  0.33422000  0.76944000  0.35296000  1.0
  O  O69  1  0.16578000  0.26943000  0.14704000  1.0
  O  O70  1  0.66578000  0.23057000  0.64704000  1.0
  O  O71  1  0.83422000  0.73056000  0.85296000  1.0
  O  O72  1  0.30636000  0.57958000  0.26885000  1.0
  O  O73  1  0.19364000  0.07957000  0.23115000  1.0
  O  O74  1  0.69364000  0.42042000  0.73115000  1.0
  O  O75  1  0.80636000  0.92042000  0.76885000  1.0
  O  O76  1  0.08896000  0.16038000  0.42575000  1.0
  O  O77  1  0.41104000  0.66038000  0.07424000  1.0
  O  O78  1  0.91104000  0.83962000  0.57424000  1.0
  O  O79  1  0.58896000  0.33962000  0.92576000  1.0
  O  O80  1  0.03021000  0.19021000  0.57031000  1.0
  O  O81  1  0.46980000  0.69020000  0.92969000  1.0
  O  O82  1  0.96980000  0.80980000  0.42968000  1.0
  O  O83  1  0.53021000  0.30979000  0.07032000  1.0
  O  O84  1  0.44781000  0.05139000  0.38498000  1.0
  O  O85  1  0.05218000  0.55139000  0.11502000  1.0
  O  O86  1  0.55218000  0.94861000  0.61501000  1.0
  O  O87  1  0.94782000  0.44861000  0.88499000  1.0
  O  O88  1  0.71109000  0.06048000  0.47904000  1.0
  O  O89  1  0.78890000  0.56047000  0.02096000  1.0
  O  O90  1  0.28889000  0.93953000  0.52096000  1.0
  O  O91  1  0.21110000  0.43952000  0.97905000  1.0
  O  O92  1  0.82977000  0.02689000  0.31158000  1.0
  O  O93  1  0.67023000  0.52690000  0.18842000  1.0
  O  O94  1  0.17023000  0.97311000  0.68842000  1.0
  O  O95  1  0.32977000  0.47311000  0.81158000  1.0
  O  O96  1  0.99912000  0.81543000  0.23153000  1.0
  O  O97  1  0.50088000  0.31543000  0.26847000  1.0
  O  O98  1  0.00088000  0.18457000  0.76847000  1.0
  O  O99  1  0.49912000  0.68457000  0.73153000  1.0
