# generated using pymatgen
data_Zn4H9C21N3O13
_symmetry_space_group_name_H-M   'P 1'
_cell_length_a   16.41310000
_cell_length_b   16.62590000
_cell_length_c   16.84522923
_cell_angle_alpha   117.39383452
_cell_angle_beta   118.11099564
_cell_angle_gamma   61.74700000
_symmetry_Int_Tables_number   1
_chemical_formula_structural   Zn4H9C21N3O13
_chemical_formula_sum   'Zn8 H18 C42 N6 O26'
_cell_volume   3401.17901398
_cell_formula_units_Z   2
loop_
 _symmetry_equiv_pos_site_id
 _symmetry_equiv_pos_as_xyz
  1  'x, y, z'
loop_
 _atom_site_type_symbol
 _atom_site_label
 _atom_site_symmetry_multiplicity
 _atom_site_fract_x
 _atom_site_fract_y
 _atom_site_fract_z
 _atom_site_occupancy
  Zn  Zn0  1  0.85647000  0.06123000  0.94915000  1.0
  Zn  Zn1  1  0.04291000  0.05382000  0.13582000  1.0
  Zn  Zn2  1  0.05086000  0.05590000  0.94927000  1.0
  Zn  Zn3  1  0.04687000  0.86850000  0.94499000  1.0
  Zn  Zn4  1  0.64926000  0.45650000  0.55351000  1.0
  Zn  Zn5  1  0.46326000  0.45975000  0.36543000  1.0
  Zn  Zn6  1  0.46013000  0.64382000  0.55135000  1.0
  Zn  Zn7  1  0.45606000  0.44705000  0.54591000  1.0
  H  H8  1  0.82010000  0.36920000  0.13939000  1.0
  H  H9  1  0.74204000  0.52703000  0.24342000  1.0
  H  H10  1  0.76447000  0.23029000  0.26278000  1.0
  H  H11  1  0.87493000  0.95144000  0.62338000  1.0
  H  H12  1  0.77731000  0.97819000  0.46504000  1.0
  H  H13  1  0.73814000  0.25297000  0.74895000  1.0
  H  H14  1  0.83620000  0.84066000  0.03325000  1.0
  H  H15  1  0.75767000  0.73140000  0.01152000  1.0
  H  H16  1  0.74569000  0.76112000  0.72854000  1.0
  H  H17  1  0.96449000  0.37453000  0.12886000  1.0
  H  H18  1  0.99663000  0.53082000  0.22654000  1.0
  H  H19  1  0.26952000  0.23147000  0.25838000  1.0
  H  H20  1  0.35425000  0.84373000  0.15333000  1.0
  H  H21  1  0.51632000  0.76362000  0.25590000  1.0
  H  H22  1  0.21820000  0.76297000  0.25884000  1.0
  H  H23  1  0.36810000  0.86308000  0.01741000  1.0
  H  H24  1  0.52706000  0.75280000  0.98593000  1.0
  H  H25  1  0.21885000  0.74207000  0.72311000  1.0
  C  C26  1  0.85120000  0.19323000  0.13681000  1.0
  C  C27  1  0.80036000  0.28771000  0.19519000  1.0
  C  C28  1  0.79189000  0.37206000  0.18799000  1.0
  C  C29  1  0.74748000  0.45961000  0.24504000  1.0
  C  C30  1  0.71388000  0.38589000  0.30666000  1.0
  C  C31  1  0.76060000  0.29422000  0.25599000  1.0
  C  C32  1  0.66125000  0.40098000  0.36806000  1.0
  C  C33  1  0.86712000  0.08813000  0.79465000  1.0
  C  C34  1  0.81338000  0.10055000  0.69834000  1.0
  C  C35  1  0.82568000  0.02259000  0.61777000  1.0
  C  C36  1  0.77221000  0.03804000  0.52977000  1.0
  C  C37  1  0.70485000  0.19861000  0.59670000  1.0
  C  C38  1  0.75008000  0.19053000  0.68788000  1.0
  C  C39  1  0.64558000  0.29605000  0.58230000  1.0
  C  C40  1  0.85076000  0.86828000  0.89476000  1.0
  C  C41  1  0.79840000  0.80777000  0.88219000  1.0
  C  C42  1  0.80030000  0.80060000  0.96259000  1.0
  C  C43  1  0.75644000  0.73965000  0.95013000  1.0
  C  C44  1  0.70818000  0.69812000  0.78916000  1.0
  C  C45  1  0.75020000  0.75655000  0.79311000  1.0
  C  C46  1  0.65444000  0.64090000  0.69521000  1.0
  C  C47  1  0.09659000  0.19691000  0.13102000  1.0
  C  C48  1  0.11464000  0.29105000  0.18723000  1.0
  C  C49  1  0.03741000  0.37610000  0.17713000  1.0
  C  C50  1  0.05584000  0.46280000  0.23033000  1.0
  C  C51  1  0.21851000  0.38652000  0.29404000  1.0
  C  C52  1  0.20744000  0.29601000  0.24835000  1.0
  C  C53  1  0.31721000  0.39924000  0.35502000  1.0
  C  C54  1  0.17676000  0.86260000  0.14092000  1.0
  C  C55  1  0.27365000  0.81035000  0.19919000  1.0
  C  C56  1  0.35849000  0.80925000  0.19735000  1.0
  C  C57  1  0.44861000  0.76404000  0.25401000  1.0
  C  C58  1  0.37667000  0.71860000  0.30725000  1.0
  C  C59  1  0.28238000  0.76430000  0.25566000  1.0
  C  C60  1  0.39529000  0.66038000  0.36511000  1.0
  C  C61  1  0.18697000  0.87008000  0.89205000  1.0
  C  C62  1  0.28175000  0.80879000  0.87286000  1.0
  C  C63  1  0.36923000  0.81371000  0.94713000  1.0
  C  C64  1  0.45714000  0.75344000  0.92910000  1.0
  C  C65  1  0.37766000  0.69388000  0.77201000  1.0
  C  C66  1  0.28547000  0.74706000  0.78290000  1.0
  C  C67  1  0.39104000  0.63326000  0.67653000  1.0
  N  N68  1  0.70877000  0.46747000  0.30375000  1.0
  N  N69  1  0.71375000  0.12446000  0.51827000  1.0
  N  N70  1  0.71195000  0.68788000  0.86539000  1.0
  N  N71  1  0.14488000  0.46900000  0.28709000  1.0
  N  N72  1  0.45866000  0.71892000  0.30817000  1.0
  N  N73  1  0.46225000  0.69447000  0.84321000  1.0
  O  O74  1  0.99933000  0.00827000  0.99758000  1.0
  O  O75  1  0.92867000  0.13839000  0.18054000  1.0
  O  O76  1  0.81279000  0.17751000  0.04766000  1.0
  O  O77  1  0.57979000  0.38507000  0.32419000  1.0
  O  O78  1  0.70162000  0.42982000  0.45676000  1.0
  O  O79  1  0.95989000  0.06470000  0.82253000  1.0
  O  O80  1  0.81478000  0.10228000  0.83953000  1.0
  O  O81  1  0.55634000  0.32930000  0.57700000  1.0
  O  O82  1  0.69304000  0.33513000  0.57787000  1.0
  O  O83  1  0.93523000  0.82281000  0.88497000  1.0
  O  O84  1  0.80736000  0.95841000  0.91616000  1.0
  O  O85  1  0.57189000  0.68849000  0.64955000  1.0
  O  O86  1  0.69727000  0.55078000  0.67116000  1.0
  O  O87  1  0.06424000  0.17944000  0.04142000  1.0
  O  O88  1  0.11363000  0.14392000  0.17629000  1.0
  O  O89  1  0.34264000  0.41080000  0.44225000  1.0
  O  O90  1  0.36397000  0.39870000  0.31209000  1.0
  O  O91  1  0.15122000  0.82065000  0.05243000  1.0
  O  O92  1  0.13116000  0.94552000  0.18581000  1.0
  O  O93  1  0.40379000  0.70369000  0.45225000  1.0
  O  O94  1  0.40263000  0.57289000  0.32045000  1.0
  O  O95  1  0.17759000  0.95851000  0.93739000  1.0
  O  O96  1  0.12431000  0.82982000  0.86400000  1.0
  O  O97  1  0.41684000  0.54304000  0.65693000  1.0
  O  O98  1  0.37767000  0.67937000  0.62605000  1.0
  O  O99  1  0.50534000  0.50300000  0.50393000  1.0
