# generated using pymatgen
data_ZnH8C15NO6F
_symmetry_space_group_name_H-M   'P 1'
_cell_length_a   9.55784000
_cell_length_b   10.86900000
_cell_length_c   16.12940000
_cell_angle_alpha   89.66350000
_cell_angle_beta   89.40930000
_cell_angle_gamma   88.92740000
_symmetry_Int_Tables_number   1
_chemical_formula_structural   ZnH8C15NO6F
_chemical_formula_sum   'Zn2 H16 C30 N2 O12 F2'
_cell_volume   1675.17955081
_cell_formula_units_Z   2
loop_
 _symmetry_equiv_pos_site_id
 _symmetry_equiv_pos_as_xyz
  1  'x, y, z'
loop_
 _atom_site_type_symbol
 _atom_site_label
 _atom_site_symmetry_multiplicity
 _atom_site_fract_x
 _atom_site_fract_y
 _atom_site_fract_z
 _atom_site_occupancy
  Zn  Zn0  1  0.64708000  0.50382000  0.49149000  1.0
  Zn  Zn1  1  0.35290000  0.49618000  0.50851000  1.0
  H  H2  1  0.66479000  0.65822000  0.95416000  1.0
  H  H3  1  0.33527000  0.34178000  0.04584000  1.0
  H  H4  1  0.27179000  0.53814000  0.93466000  1.0
  H  H5  1  0.72827000  0.46185000  0.06534000  1.0
  H  H6  1  0.38881000  0.09656000  0.62150000  1.0
  H  H7  1  0.61115000  0.90345000  0.37850000  1.0
  H  H8  1  0.75303000  0.04361000  0.49970000  1.0
  H  H9  1  0.24692000  0.95640000  0.50030000  1.0
  H  H10  1  0.87620000  0.53409000  0.63061000  1.0
  H  H11  1  0.12378000  0.46590000  0.36939000  1.0
  H  H12  1  0.10424000  0.68045000  0.56084000  1.0
  H  H13  1  0.89575000  0.31955000  0.43916000  1.0
  H  H14  1  0.38030000  0.77831000  0.00665000  1.0
  H  H15  1  0.61974000  0.22167000  0.99335000  1.0
  H  H16  1  0.99735000  0.72306000  0.37022000  1.0
  H  H17  1  0.00264000  0.27694000  0.62978000  1.0
  C  C18  1  0.47238000  0.73898000  0.50273000  1.0
  C  C19  1  0.52758000  0.26103000  0.49727000  1.0
  C  C20  1  0.43684000  0.05190000  0.56749000  1.0
  C  C21  1  0.56311000  0.94811000  0.43251000  1.0
  C  C22  1  0.52053000  0.12427000  0.49862000  1.0
  C  C23  1  0.47943000  0.87574000  0.50139000  1.0
  C  C24  1  0.64116000  0.02452000  0.49959000  1.0
  C  C25  1  0.35879000  0.97549000  0.50042000  1.0
  C  C26  1  0.05065000  0.60207000  0.53462000  1.0
  C  C27  1  0.94933000  0.39792000  0.46538000  1.0
  C  C28  1  0.93872000  0.51977000  0.57431000  1.0
  C  C29  1  0.06127000  0.48022000  0.42569000  1.0
  C  C30  1  0.97070000  0.59503000  0.45076000  1.0
  C  C31  1  0.02929000  0.40497000  0.54924000  1.0
  C  C32  1  0.48004000  0.50433000  0.33768000  1.0
  C  C33  1  0.51996000  0.49568000  0.66232000  1.0
  C  C34  1  0.59204000  0.58779000  0.97508000  1.0
  C  C35  1  0.40802000  0.41220000  0.02492000  1.0
  C  C36  1  0.45000000  0.61185000  0.02298000  1.0
  C  C37  1  0.55005000  0.38814000  0.97702000  1.0
  C  C38  1  0.47221000  0.50495000  0.24820000  1.0
  C  C39  1  0.52781000  0.49504000  0.75180000  1.0
  C  C40  1  0.62753000  0.47906000  0.03548000  1.0
  C  C41  1  0.37253000  0.52093000  0.96452000  1.0
  C  C42  1  0.48595000  0.50240000  0.08514000  1.0
  C  C43  1  0.51411000  0.49759000  0.91485000  1.0
  C  C44  1  0.47412000  0.50481000  0.17264000  1.0
  C  C45  1  0.52592000  0.49519000  0.82736000  1.0
  C  C46  1  0.55783000  0.95390000  0.56797000  1.0
  C  C47  1  0.44212000  0.04611000  0.43203000  1.0
  N  N48  1  0.86060000  0.51191000  0.49118000  1.0
  N  N49  1  0.13938000  0.48809000  0.50882000  1.0
  O  O50  1  0.59141000  0.68449000  0.49886000  1.0
  O  O51  1  0.40857000  0.31550000  0.50109000  1.0
  O  O52  1  0.35360000  0.68857000  0.50759000  1.0
  O  O53  1  0.64639000  0.31144000  0.49245000  1.0
  O  O54  1  0.60305000  0.49856000  0.36739000  1.0
  O  O55  1  0.39694000  0.50137000  0.63262000  1.0
  O  O56  1  0.36526000  0.50962000  0.37849000  1.0
  O  O57  1  0.63475000  0.49046000  0.62150000  1.0
  O  O58  1  0.39921000  0.72315000  0.05325000  1.0
  O  O59  1  0.60085000  0.27684000  0.94674000  1.0
  O  O60  1  0.92000000  0.68804000  0.40183000  1.0
  O  O61  1  0.07999000  0.31196000  0.59817000  1.0
  F  F62  1  0.61540000  0.90499000  0.63886000  1.0
  F  F63  1  0.38456000  0.09501000  0.36114000  1.0
