# generated using pymatgen
data_NiH16C16S4(BrN2)2
_symmetry_space_group_name_H-M   'P 1'
_cell_length_a   8.13769000
_cell_length_b   9.64389000
_cell_length_c   12.98750118
_cell_angle_alpha   89.99786470
_cell_angle_beta   76.86292973
_cell_angle_gamma   89.99760000
_symmetry_Int_Tables_number   1
_chemical_formula_structural   NiH16C16S4(BrN2)2
_chemical_formula_sum   'Ni2 H32 C32 S8 Br4 N8'
_cell_volume   992.57137471
_cell_formula_units_Z   2
loop_
 _symmetry_equiv_pos_site_id
 _symmetry_equiv_pos_as_xyz
  1  'x, y, z'
loop_
 _atom_site_type_symbol
 _atom_site_label
 _atom_site_symmetry_multiplicity
 _atom_site_fract_x
 _atom_site_fract_y
 _atom_site_fract_z
 _atom_site_occupancy
  Ni  Ni0  1  0.50000000  0.00001000  0.00000000  1.0
  Ni  Ni1  1  1.00000000  0.50000000  0.50000000  1.0
  H  H2  1  0.04384000  0.68510000  0.15198000  1.0
  H  H3  1  0.45610000  0.18515000  0.34808000  1.0
  H  H4  1  0.95616000  0.31491000  0.84801000  1.0
  H  H5  1  0.54390000  0.81483000  0.65193000  1.0
  H  H6  1  0.56905000  0.55565000  0.08696000  1.0
  H  H7  1  0.93095000  0.05566000  0.41300000  1.0
  H  H8  1  0.43094000  0.44435000  0.91305000  1.0
  H  H9  1  0.06908000  0.94433000  0.58698000  1.0
  H  H10  1  0.11847000  0.44370000  0.17305000  1.0
  H  H11  1  0.38151000  0.94376000  0.32697000  1.0
  H  H12  1  0.88155000  0.55630000  0.82693000  1.0
  H  H13  1  0.61849000  0.05622000  0.67304000  1.0
  H  H14  1  0.92568000  0.25281000  0.15077000  1.0
  H  H15  1  0.57427000  0.75283000  0.34924000  1.0
  H  H16  1  0.07432000  0.74719000  0.84922000  1.0
  H  H17  1  0.42575000  0.24715000  0.65076000  1.0
  H  H18  1  0.41113000  0.38412000  0.19925000  1.0
  H  H19  1  0.08887000  0.88412000  0.30073000  1.0
  H  H20  1  0.58887000  0.61589000  0.80076000  1.0
  H  H21  1  0.91115000  0.11587000  0.69926000  1.0
  H  H22  1  0.36303000  0.22195000  0.14730000  1.0
  H  H23  1  0.13696000  0.72192000  0.35267000  1.0
  H  H24  1  0.63697000  0.77807000  0.85270000  1.0
  H  H25  1  0.86305000  0.27807000  0.64733000  1.0
  H  H26  1  0.99927000  0.85501000  0.08438000  1.0
  H  H27  1  0.50071000  0.35505000  0.41558000  1.0
  H  H28  1  0.00071000  0.14501000  0.91562000  1.0
  H  H29  1  0.49928000  0.64493000  0.58442000  1.0
  H  H30  1  0.84783000  0.98094000  0.08307000  1.0
  H  H31  1  0.65212000  0.48097000  0.41695000  1.0
  H  H32  1  0.15213000  0.01907000  0.91694000  1.0
  H  H33  1  0.34786000  0.51902000  0.58306000  1.0
  C  C34  1  0.75578000  0.78366000  0.09788000  1.0
  C  C35  1  0.74420000  0.28368000  0.40212000  1.0
  C  C36  1  0.24421000  0.21635000  0.90212000  1.0
  C  C37  1  0.25580000  0.71631000  0.59788000  1.0
  C  C38  1  0.80000000  0.63816000  0.11616000  1.0
  C  C39  1  0.69997000  0.13822000  0.38386000  1.0
  C  C40  1  0.20001000  0.36184000  0.88385000  1.0
  C  C41  1  0.30001000  0.86178000  0.61615000  1.0
  C  C42  1  0.95533000  0.60478000  0.14066000  1.0
  C  C43  1  0.54463000  0.10479000  0.35936000  1.0
  C  C44  1  0.04466000  0.39524000  0.85933000  1.0
  C  C45  1  0.45537000  0.89520000  0.64065000  1.0
  C  C46  1  0.68841000  0.53037000  0.10704000  1.0
  C  C47  1  0.81155000  0.03037000  0.39297000  1.0
  C  C48  1  0.31158000  0.46963000  0.89297000  1.0
  C  C49  1  0.18847000  0.96962000  0.60703000  1.0
  C  C50  1  0.99903000  0.46716000  0.15238000  1.0
  C  C51  1  0.50092000  0.96719000  0.34763000  1.0
  C  C52  1  0.00096000  0.53284000  0.84761000  1.0
  C  C53  1  0.49908000  0.03279000  0.65238000  1.0
  C  C54  1  0.88953000  0.36019000  0.14081000  1.0
  C  C55  1  0.61043000  0.86023000  0.35920000  1.0
  C  C56  1  0.11048000  0.63982000  0.85919000  1.0
  C  C57  1  0.38957000  0.13977000  0.64080000  1.0
  C  C58  1  0.73213000  0.39205000  0.11977000  1.0
  C  C59  1  0.76785000  0.89204000  0.38025000  1.0
  C  C60  1  0.26785000  0.60798000  0.88024000  1.0
  C  C61  1  0.23216000  0.10797000  0.61975000  1.0
  C  C62  1  0.61203000  0.28094000  0.10832000  1.0
  C  C63  1  0.88793000  0.78094000  0.39168000  1.0
  C  C64  1  0.38796000  0.71907000  0.89169000  1.0
  C  C65  1  0.11207000  0.21905000  0.60832000  1.0
  S  S66  1  0.69337000  0.14182000  0.03304000  1.0
  S  S67  1  0.80665000  0.64182000  0.46695000  1.0
  S  S68  1  0.30663000  0.85819000  0.96696000  1.0
  S  S69  1  0.19336000  0.35817000  0.53304000  1.0
  S  S70  1  0.55241000  0.81939000  0.09423000  1.0
  S  S71  1  0.94756000  0.31939000  0.40578000  1.0
  S  S72  1  0.44758000  0.18062000  0.90577000  1.0
  S  S73  1  0.05244000  0.68061000  0.59422000  1.0
  Br  Br74  1  0.16185000  0.05741000  0.18284000  1.0
  Br  Br75  1  0.33816000  0.55738000  0.31715000  1.0
  Br  Br76  1  0.83816000  0.94261000  0.81716000  1.0
  Br  Br77  1  0.66187000  0.44261000  0.68285000  1.0
  N  N78  1  0.45059000  0.29940000  0.15015000  1.0
  N  N79  1  0.04938000  0.79939000  0.34982000  1.0
  N  N80  1  0.54941000  0.70061000  0.84985000  1.0
  N  N81  1  0.95064000  0.20060000  0.65017000  1.0
  N  N82  1  0.87611000  0.87821000  0.08729000  1.0
  N  N83  1  0.62387000  0.37824000  0.41271000  1.0
  N  N84  1  0.12387000  0.12180000  0.91272000  1.0
  N  N85  1  0.37612000  0.62175000  0.58730000  1.0
