# generated using pymatgen
data_BaH8C4O7
_symmetry_space_group_name_H-M   'P 1'
_cell_length_a   6.50449000
_cell_length_b   7.94823000
_cell_length_c   8.94396000
_cell_angle_alpha   104.17200000
_cell_angle_beta   103.79000000
_cell_angle_gamma   108.13800000
_symmetry_Int_Tables_number   1
_chemical_formula_structural   BaH8C4O7
_chemical_formula_sum   'Ba2 H16 C8 O14'
_cell_volume   400.44399510
_cell_formula_units_Z   2
loop_
 _symmetry_equiv_pos_site_id
 _symmetry_equiv_pos_as_xyz
  1  'x, y, z'
loop_
 _atom_site_type_symbol
 _atom_site_label
 _atom_site_symmetry_multiplicity
 _atom_site_fract_x
 _atom_site_fract_y
 _atom_site_fract_z
 _atom_site_occupancy
  Ba  Ba0  1  0.14450000  0.26194000  0.41929000  1.0
  Ba  Ba1  1  0.85550000  0.73806000  0.58071000  1.0
  H  H2  1  0.18806000  0.72715000  0.98063000  1.0
  H  H3  1  0.81193000  0.27285000  0.01937000  1.0
  H  H4  1  0.20928000  0.38025000  0.05598000  1.0
  H  H5  1  0.79071000  0.61975000  0.94402000  1.0
  H  H6  1  0.26621000  0.89783000  0.41836000  1.0
  H  H7  1  0.73379000  0.10217000  0.58164000  1.0
  H  H8  1  0.37036000  0.04195000  0.59870000  1.0
  H  H9  1  0.62964000  0.95805000  0.40130000  1.0
  H  H10  1  0.38138000  0.01879000  0.20706000  1.0
  H  H11  1  0.61862000  0.98121000  0.79294000  1.0
  H  H12  1  0.54763000  0.22855000  0.24199000  1.0
  H  H13  1  0.45238000  0.77145000  0.75801000  1.0
  H  H14  1  0.76575000  0.92505000  0.01904000  1.0
  H  H15  1  0.23425000  0.07495000  0.98096000  1.0
  H  H16  1  0.81541000  0.83870000  0.15902000  1.0
  H  H17  1  0.18459000  0.16130000  0.84099000  1.0
  C  C18  1  0.16901000  0.49422000  0.79049000  1.0
  C  C19  1  0.83099000  0.50578000  0.20951000  1.0
  C  C20  1  0.10996000  0.57284000  0.93945000  1.0
  C  C21  1  0.89003000  0.42716000  0.06055000  1.0
  C  C22  1  0.31686000  0.64243000  0.24789000  1.0
  C  C23  1  0.68313000  0.35757000  0.75211000  1.0
  C  C24  1  0.15512000  0.49844000  0.08226000  1.0
  C  C25  1  0.84487000  0.50156000  0.91774000  1.0
  O  O26  1  0.17167000  0.58438000  0.68865000  1.0
  O  O27  1  0.82833000  0.41562000  0.31135000  1.0
  O  O28  1  0.20649000  0.34476000  0.76630000  1.0
  O  O29  1  0.79351000  0.65524000  0.23370000  1.0
  O  O30  1  0.38322000  0.58359000  0.36251000  1.0
  O  O31  1  0.61677000  0.41641000  0.63749000  1.0
  O  O32  1  0.37186000  0.81801000  0.26676000  1.0
  O  O33  1  0.62814000  0.18199000  0.73323000  1.0
  O  O34  1  0.22045000  0.96073000  0.50744000  1.0
  O  O35  1  0.77956000  0.03927000  0.49256000  1.0
  O  O36  1  0.38321000  0.14234000  0.20298000  1.0
  O  O37  1  0.61679000  0.85766000  0.79702000  1.0
  O  O38  1  0.84212000  0.95945000  0.13817000  1.0
  O  O39  1  0.15788000  0.04055000  0.86183000  1.0
