# generated using pymatgen
data_ZnH18C28SNO7
_symmetry_space_group_name_H-M   'P 1'
_cell_length_a   10.98240000
_cell_length_b   18.30280000
_cell_length_c   19.45200000
_cell_angle_alpha   90.38410000
_cell_angle_beta   91.53420000
_cell_angle_gamma   90.80830000
_symmetry_Int_Tables_number   1
_chemical_formula_structural   ZnH18C28SNO7
_chemical_formula_sum   'Zn2 H36 C56 S2 N2 O14'
_cell_volume   3908.13197853
_cell_formula_units_Z   2
loop_
 _symmetry_equiv_pos_site_id
 _symmetry_equiv_pos_as_xyz
  1  'x, y, z'
loop_
 _atom_site_type_symbol
 _atom_site_label
 _atom_site_symmetry_multiplicity
 _atom_site_fract_x
 _atom_site_fract_y
 _atom_site_fract_z
 _atom_site_occupancy
  Zn  Zn0  1  0.48917000  0.57785000  0.49985000  1.0
  Zn  Zn1  1  0.48438000  0.41992000  0.49793000  1.0
  H  H2  1  0.73247000  0.19173000  0.63628000  1.0
  H  H3  1  0.63847000  0.16966000  0.42620000  1.0
  H  H4  1  0.61605000  0.82946000  0.41475000  1.0
  H  H5  1  0.36569000  0.16836000  0.58273000  1.0
  H  H6  1  0.60409000  0.69271000  0.41606000  1.0
  H  H7  1  0.36399000  0.30432000  0.57480000  1.0
  H  H8  1  0.69588000  0.93305000  0.48259000  1.0
  H  H9  1  0.31224000  0.06399000  0.52648000  1.0
  H  H10  1  0.69539000  0.06795000  0.48345000  1.0
  H  H11  1  0.31366000  0.92914000  0.52718000  1.0
  H  H12  1  0.67435000  0.31532000  0.67864000  1.0
  H  H13  1  0.23267000  0.81783000  0.38564000  1.0
  H  H14  1  0.23605000  0.70594000  0.31213000  1.0
  H  H15  1  0.76540000  0.42611000  0.62896000  1.0
  H  H16  1  0.15513000  0.58799000  0.35560000  1.0
  H  H17  1  0.96925000  0.29323000  0.49033000  1.0
  H  H18  1  0.06018000  0.69345000  0.54463000  1.0
  H  H19  1  0.88095000  0.18134000  0.54204000  1.0
  H  H20  1  0.14261000  0.81131000  0.50194000  1.0
  H  H21  1  0.11068000  0.39065000  0.53357000  1.0
  H  H22  1  0.87018000  0.60809000  0.47452000  1.0
  H  H23  1  0.34355000  0.40879000  0.70545000  1.0
  H  H24  1  0.42180000  0.62085000  0.93582000  1.0
  H  H25  1  0.36046000  0.59323000  0.29230000  1.0
  H  H26  1  0.30971000  0.41257000  0.83130000  1.0
  H  H27  1  0.32215000  0.59119000  0.16549000  1.0
  H  H28  1  0.57056000  0.59025000  0.85146000  1.0
  H  H29  1  0.58614000  0.42049000  0.14700000  1.0
  H  H30  1  0.69480000  0.57308000  0.61567000  1.0
  H  H31  1  0.70243000  0.43366000  0.38912000  1.0
  H  H32  1  0.42766000  0.38574000  0.06183000  1.0
  H  H33  1  0.42840000  0.62112000  0.06292000  1.0
  H  H34  1  0.42244000  0.38547000  0.93477000  1.0
  H  H35  1  0.39422000  0.69254000  0.58966000  1.0
  H  H36  1  0.62738000  0.30441000  0.42613000  1.0
  H  H37  1  0.39292000  0.82900000  0.59463000  1.0
  C  C38  1  0.49576000  0.50472000  0.36815000  1.0
  C  C39  1  0.38721000  0.55366000  0.18888000  1.0
  C  C40  1  0.43543000  0.50277000  0.85056000  1.0
  C  C41  1  0.44810000  0.50391000  0.14716000  1.0
  C  C42  1  0.51586000  0.55231000  0.81973000  1.0
  C  C43  1  0.53171000  0.45628000  0.17850000  1.0
  C  C44  1  0.53244000  0.55108000  0.74895000  1.0
  C  C45  1  0.55082000  0.45676000  0.24966000  1.0
  C  C46  1  0.46999000  0.49922000  0.70710000  1.0
  C  C47  1  0.48756000  0.50545000  0.29126000  1.0
  C  C48  1  0.42342000  0.56916000  0.96338000  1.0
  C  C49  1  0.47948000  0.49736000  0.63052000  1.0
  C  C50  1  0.42680000  0.43747000  0.03428000  1.0
  C  C51  1  0.42585000  0.56924000  0.03492000  1.0
  C  C52  1  0.42248000  0.43735000  0.96274000  1.0
  C  C53  1  0.72766000  0.49809000  0.50681000  1.0
  C  C54  1  0.25303000  0.49657000  0.49381000  1.0
  C  C55  1  0.43139000  0.50347000  0.07162000  1.0
  C  C56  1  0.42450000  0.50321000  0.92602000  1.0
  C  C57  1  0.44011000  0.72541000  0.55147000  1.0
  C  C58  1  0.57190000  0.27242000  0.46063000  1.0
  C  C59  1  0.44032000  0.80121000  0.55374000  1.0
  C  C60  1  0.11655000  0.49962000  0.49552000  1.0
  C  C61  1  0.57755000  0.19673000  0.46121000  1.0
  C  C62  1  0.50423000  0.84101000  0.50467000  1.0
  C  C63  1  0.50238000  0.15646000  0.50458000  1.0
  C  C64  1  0.56624000  0.80140000  0.45472000  1.0
  C  C65  1  0.42448000  0.19615000  0.54671000  1.0
  C  C66  1  0.56031000  0.72566000  0.45498000  1.0
  C  C67  1  0.42350000  0.27175000  0.54316000  1.0
  C  C68  1  0.61137000  0.96176000  0.49165000  1.0
  C  C69  1  0.39725000  0.03553000  0.51831000  1.0
  C  C70  1  0.61097000  0.03773000  0.49211000  1.0
  C  C71  1  0.86342000  0.49727000  0.50938000  1.0
  C  C72  1  0.39785000  0.95963000  0.51848000  1.0
  C  C73  1  0.50383000  0.07597000  0.50530000  1.0
  C  C74  1  0.50486000  0.92152000  0.50503000  1.0
  C  C75  1  0.73943000  0.30985000  0.63765000  1.0
  C  C76  1  0.19822000  0.70326000  0.36338000  1.0
  C  C77  1  0.78993000  0.37260000  0.60903000  1.0
  C  C78  1  0.15238000  0.63713000  0.38753000  1.0
  C  C79  1  0.87312000  0.36750000  0.55566000  1.0
  C  C80  1  0.10340000  0.63264000  0.45332000  1.0
  C  C81  1  0.90566000  0.29783000  0.53224000  1.0
  C  C82  1  0.05014000  0.56311000  0.47921000  1.0
  C  C83  1  0.09890000  0.69631000  0.49360000  1.0
  C  C84  1  0.85540000  0.23508000  0.56113000  1.0
  C  C85  1  0.14569000  0.76251000  0.46953000  1.0
  C  C86  1  0.77199000  0.24082000  0.61388000  1.0
  C  C87  1  0.19599000  0.76623000  0.40449000  1.0
  C  C88  1  0.05551000  0.43733000  0.51901000  1.0
  C  C89  1  0.92403000  0.56038000  0.48771000  1.0
  C  C90  1  0.92954000  0.43402000  0.52656000  1.0
  C  C91  1  0.39169000  0.44901000  0.73806000  1.0
  C  C92  1  0.40771000  0.55471000  0.25975000  1.0
  C  C93  1  0.37338000  0.45106000  0.80853000  1.0
  S  S94  1  0.64261000  0.61570000  0.71738000  1.0
  S  S95  1  0.66464000  0.39572000  0.28275000  1.0
  N  N96  1  0.49836000  0.68835000  0.50259000  1.0
  N  N97  1  0.49548000  0.30944000  0.50051000  1.0
  O  O98  1  0.52798000  0.56384000  0.39880000  1.0
  O  O99  1  0.72382000  0.63331000  0.77445000  1.0
  O  O100  1  0.71860000  0.56764000  0.66586000  1.0
  O  O101  1  0.60765000  0.33232000  0.31270000  1.0
  O  O102  1  0.75125000  0.38649000  0.22943000  1.0
  O  O103  1  0.73267000  0.44289000  0.34167000  1.0
  O  O104  1  0.50841000  0.43737000  0.60237000  1.0
  O  O105  1  0.46566000  0.44480000  0.39583000  1.0
  O  O106  1  0.45521000  0.55681000  0.60019000  1.0
  O  O107  1  0.67430000  0.55424000  0.53060000  1.0
  O  O108  1  0.30179000  0.43567000  0.50906000  1.0
  O  O109  1  0.67177000  0.44388000  0.47805000  1.0
  O  O110  1  0.31022000  0.55476000  0.47854000  1.0
  O  O111  1  0.58246000  0.67364000  0.68041000  1.0
