# generated using pymatgen
data_SnH17C16ClO2
_symmetry_space_group_name_H-M   'P 1'
_cell_length_a   8.65428000
_cell_length_b   8.65431000
_cell_length_c   10.82720000
_cell_angle_alpha   92.58120000
_cell_angle_beta   92.58110000
_cell_angle_gamma   91.28090000
_symmetry_Int_Tables_number   1
_chemical_formula_structural   SnH17C16ClO2
_chemical_formula_sum   'Sn2 H34 C32 Cl2 O4'
_cell_volume   809.03667693
_cell_formula_units_Z   2
loop_
 _symmetry_equiv_pos_site_id
 _symmetry_equiv_pos_as_xyz
  1  'x, y, z'
loop_
 _atom_site_type_symbol
 _atom_site_label
 _atom_site_symmetry_multiplicity
 _atom_site_fract_x
 _atom_site_fract_y
 _atom_site_fract_z
 _atom_site_occupancy
  Sn  Sn0  1  0.05861000  0.94666000  0.50422000  1.0
  Sn  Sn1  1  0.94666000  0.05860000  0.00422000  1.0
  H  H2  1  0.31308000  0.00713000  0.72306000  1.0
  H  H3  1  0.00713000  0.31308000  0.22306000  1.0
  H  H4  1  0.47232000  0.84648000  0.86156000  1.0
  H  H5  1  0.84647000  0.47232000  0.36156000  1.0
  H  H6  1  0.44486000  0.56066000  0.84457000  1.0
  H  H7  1  0.56066000  0.44485000  0.34457000  1.0
  H  H8  1  0.26559000  0.43346000  0.68227000  1.0
  H  H9  1  0.43345000  0.26559000  0.18227000  1.0
  H  H10  1  0.11136000  0.59147000  0.53988000  1.0
  H  H11  1  0.59147000  0.11136000  0.03988000  1.0
  H  H12  1  0.77684000  0.00402000  0.31004000  1.0
  H  H13  1  0.00402000  0.77684000  0.81004000  1.0
  H  H14  1  0.50526000  0.90920000  0.27958000  1.0
  H  H15  1  0.90920000  0.50525000  0.77958000  1.0
  H  H16  1  0.40178000  0.70947000  0.41317000  1.0
  H  H17  1  0.70947000  0.40178000  0.91317000  1.0
  H  H18  1  0.57202000  0.60323000  0.57983000  1.0
  H  H19  1  0.60323000  0.57202000  0.07983000  1.0
  H  H20  1  0.84218000  0.69889000  0.61284000  1.0
  H  H21  1  0.69889000  0.84219000  0.11284000  1.0
  H  H22  1  0.03366000  0.23725000  0.43233000  1.0
  H  H23  1  0.23725000  0.03366000  0.93233000  1.0
  H  H24  1  0.14964000  0.23230000  0.57129000  1.0
  H  H25  1  0.23230000  0.14964000  0.07128000  1.0
  H  H26  1  0.30956000  0.32087000  0.39558000  1.0
  H  H27  1  0.32087000  0.30956000  0.89558000  1.0
  H  H28  1  0.25920000  0.14628000  0.30921000  1.0
  H  H29  1  0.14628000  0.25920000  0.80921000  1.0
  H  H30  1  0.37751000  0.14236000  0.44705000  1.0
  H  H31  1  0.14236000  0.37750000  0.94705000  1.0
  H  H32  1  0.05502000  0.67873000  0.08430000  1.0
  H  H33  1  0.67873000  0.05502000  0.58430000  1.0
  H  H34  1  0.22984000  0.78203000  0.06181000  1.0
  H  H35  1  0.78203000  0.22984000  0.56181000  1.0
  C  C36  1  0.19810000  0.81089000  0.62353000  1.0
  C  C37  1  0.81089000  0.19810000  0.12353000  1.0
  C  C38  1  0.30086000  0.88122000  0.71405000  1.0
  C  C39  1  0.88122000  0.30086000  0.21405000  1.0
  C  C40  1  0.38979000  0.79147000  0.79307000  1.0
  C  C41  1  0.79147000  0.38979000  0.29307000  1.0
  C  C42  1  0.37529000  0.63026000  0.78298000  1.0
  C  C43  1  0.63026000  0.37529000  0.28298000  1.0
  C  C44  1  0.27489000  0.55923000  0.69184000  1.0
  C  C45  1  0.55922000  0.27488000  0.19184000  1.0
  C  C46  1  0.18742000  0.64880000  0.61202000  1.0
  C  C47  1  0.64880000  0.18742000  0.11202000  1.0
  C  C48  1  0.82983000  0.85595000  0.46213000  1.0
  C  C49  1  0.85595000  0.82983000  0.96212000  1.0
  C  C50  1  0.73352000  0.91488000  0.36861000  1.0
  C  C51  1  0.91488000  0.73352000  0.86861000  1.0
  C  C52  1  0.58011000  0.86146000  0.35149000  1.0
  C  C53  1  0.86147000  0.58011000  0.85149000  1.0
  C  C54  1  0.52176000  0.74921000  0.42689000  1.0
  C  C55  1  0.74921000  0.52176000  0.92689000  1.0
  C  C56  1  0.61722000  0.68984000  0.51994000  1.0
  C  C57  1  0.68984000  0.61722000  0.01994000  1.0
  C  C58  1  0.77047000  0.74328000  0.53754000  1.0
  C  C59  1  0.74328000  0.77047000  0.03754000  1.0
  C  C60  1  0.13284000  0.18128000  0.47673000  1.0
  C  C61  1  0.18128000  0.13284000  0.97673000  1.0
  C  C62  1  0.27768000  0.19798000  0.40322000  1.0
  C  C63  1  0.19798000  0.27768000  0.90322000  1.0
  C  C64  1  0.12079000  0.84199000  0.23217000  1.0
  C  C65  1  0.84199000  0.12079000  0.73217000  1.0
  C  C66  1  0.16272000  0.72440000  0.13087000  1.0
  C  C67  1  0.72440000  0.16272000  0.63087000  1.0
  Cl  Cl68  1  0.27032000  0.56428000  0.18147000  1.0
  Cl  Cl69  1  0.56428000  0.27033000  0.68147000  1.0
  O  O70  1  0.15529000  0.81348000  0.34455000  1.0
  O  O71  1  0.81348000  0.15530000  0.84454000  1.0
  O  O72  1  0.05209000  0.96149000  0.19863000  1.0
  O  O73  1  0.96149000  0.05209000  0.69863000  1.0
