# generated using pymatgen
data_ZnH8(C5O2)2
_symmetry_space_group_name_H-M   'P 1'
_cell_length_a   4.76175000
_cell_length_b   10.09390000
_cell_length_c   10.09400000
_cell_angle_alpha   83.24450000
_cell_angle_beta   88.09700000
_cell_angle_gamma   88.09850000
_symmetry_Int_Tables_number   1
_chemical_formula_structural   ZnH8(C5O2)2
_chemical_formula_sum   'Zn2 H16 C20 O8'
_cell_volume   481.32070914
_cell_formula_units_Z   2
loop_
 _symmetry_equiv_pos_site_id
 _symmetry_equiv_pos_as_xyz
  1  'x, y, z'
loop_
 _atom_site_type_symbol
 _atom_site_label
 _atom_site_symmetry_multiplicity
 _atom_site_fract_x
 _atom_site_fract_y
 _atom_site_fract_z
 _atom_site_occupancy
  Zn  Zn0  1  0.25000000  0.93477000  0.06522000  1.0
  Zn  Zn1  1  0.75001000  0.06523000  0.93477000  1.0
  H  H2  1  0.11167000  0.69818000  0.84313000  1.0
  H  H3  1  0.38832000  0.15687000  0.30183000  1.0
  H  H4  1  0.88830000  0.30182000  0.15687000  1.0
  H  H5  1  0.61169000  0.84313000  0.69817000  1.0
  H  H6  1  0.63202000  0.42979000  0.29963000  1.0
  H  H7  1  0.86798000  0.70037000  0.57020000  1.0
  H  H8  1  0.36796000  0.57021000  0.70038000  1.0
  H  H9  1  0.13201000  0.29962000  0.42980000  1.0
  H  H10  1  0.37918000  0.51685000  0.19305000  1.0
  H  H11  1  0.12083000  0.80695000  0.48314000  1.0
  H  H12  1  0.62082000  0.48315000  0.80695000  1.0
  H  H13  1  0.87916000  0.19304000  0.51687000  1.0
  H  H14  1  0.61623000  0.60790000  0.27361000  1.0
  H  H15  1  0.88376000  0.72640000  0.39209000  1.0
  H  H16  1  0.38376000  0.39210000  0.72640000  1.0
  H  H17  1  0.11624000  0.27360000  0.60791000  1.0
  C  C18  1  0.86944000  0.62329000  0.01669000  1.0
  C  C19  1  0.63054000  0.98330000  0.37672000  1.0
  C  C20  1  0.13053000  0.37672000  0.98330000  1.0
  C  C21  1  0.36948000  0.01670000  0.62328000  1.0
  C  C22  1  0.80071000  0.51175000  0.10873000  1.0
  C  C23  1  0.69928000  0.89128000  0.48825000  1.0
  C  C24  1  0.19926000  0.48824000  0.89129000  1.0
  C  C25  1  0.30073000  0.10871000  0.51176000  1.0
  C  C26  1  0.06466000  0.60945000  0.91167000  1.0
  C  C27  1  0.43532000  0.08833000  0.39054000  1.0
  C  C28  1  0.93534000  0.39054000  0.08830000  1.0
  C  C29  1  0.56468000  0.91169000  0.60946000  1.0
  C  C30  1  0.73700000  0.75855000  0.02291000  1.0
  C  C31  1  0.76301000  0.97709000  0.24145000  1.0
  C  C32  1  0.26301000  0.24145000  0.97709000  1.0
  C  C33  1  0.23700000  0.02291000  0.75856000  1.0
  C  C34  1  0.59735000  0.51692000  0.22536000  1.0
  C  C35  1  0.90264000  0.77464000  0.48307000  1.0
  C  C36  1  0.40265000  0.48308000  0.77463000  1.0
  C  C37  1  0.09734000  0.22536000  0.51693000  1.0
  O  O38  1  0.49107000  0.76674000  0.07467000  1.0
  O  O39  1  0.00893000  0.92533000  0.23327000  1.0
  O  O40  1  0.50895000  0.23327000  0.92533000  1.0
  O  O41  1  0.99107000  0.07467000  0.76673000  1.0
  O  O42  1  0.88108000  0.85867000  0.97167000  1.0
  O  O43  1  0.61892000  0.02835000  0.14132000  1.0
  O  O44  1  0.11894000  0.14133000  0.02833000  1.0
  O  O45  1  0.38108000  0.97166000  0.85868000  1.0
