# generated using pymatgen
data_Zn2H15C30N3O14
_symmetry_space_group_name_H-M   'P 1'
_cell_length_a   9.50738000
_cell_length_b   11.01260000
_cell_length_c   12.78537441
_cell_angle_alpha   90.01426560
_cell_angle_beta   106.35252610
_cell_angle_gamma   91.22960000
_symmetry_Int_Tables_number   1
_chemical_formula_structural   Zn2H15C30N3O14
_chemical_formula_sum   'Zn2 H15 C30 N3 O14'
_cell_volume   1284.16648783
_cell_formula_units_Z   1
loop_
 _symmetry_equiv_pos_site_id
 _symmetry_equiv_pos_as_xyz
  1  'x, y, z'
loop_
 _atom_site_type_symbol
 _atom_site_label
 _atom_site_symmetry_multiplicity
 _atom_site_fract_x
 _atom_site_fract_y
 _atom_site_fract_z
 _atom_site_occupancy
  Zn  Zn0  1  0.87109000  0.50237000  0.52044000  1.0
  Zn  Zn1  1  0.13650000  0.50569000  0.47833000  1.0
  H  H2  1  0.98408000  0.36793000  0.14042000  1.0
  H  H3  1  0.60772000  0.29905000  0.80014000  1.0
  H  H4  1  0.60274000  0.53070000  0.18724000  1.0
  H  H5  1  0.00461000  0.57054000  0.85767000  1.0
  H  H6  1  0.11630000  0.58163000  0.05961000  1.0
  H  H7  1  0.35564000  0.36543000  0.72632000  1.0
  H  H8  1  0.24349000  0.89743000  0.54588000  1.0
  H  H9  1  0.23897000  0.12501000  0.54847000  1.0
  H  H10  1  0.76852000  0.11074000  0.44301000  1.0
  H  H11  1  0.77224000  0.88295000  0.44463000  1.0
  H  H12  1  0.35009000  0.33596000  0.41359000  1.0
  H  H13  1  0.62898000  0.33588000  0.44943000  1.0
  H  H14  1  0.38257000  0.67671000  0.55853000  1.0
  H  H15  1  0.70358000  0.86422000  0.64978000  1.0
  H  H16  1  0.33602000  0.59135000  0.29720000  1.0
  C  C17  1  0.01007000  0.74132000  0.49696000  1.0
  C  C18  1  0.12557000  0.49593000  0.70816000  1.0
  C  C19  1  0.00201000  0.26668000  0.49576000  1.0
  C  C20  1  0.87948000  0.48784000  0.28971000  1.0
  C  C21  1  0.79059000  0.35700000  0.00453000  1.0
  C  C22  1  0.79847000  0.45333000  0.17472000  1.0
  C  C23  1  0.11589000  0.54023000  0.89467000  1.0
  C  C24  1  0.17957000  0.54783000  0.00716000  1.0
  C  C25  1  0.32247000  0.51016000  0.05484000  1.0
  C  C26  1  0.40986000  0.46634000  0.98918000  1.0
  C  C27  1  0.33998000  0.45091000  0.87525000  1.0
  C  C28  1  0.56597000  0.44085000  0.02979000  1.0
  C  C29  1  0.63872000  0.38142000  0.95992000  1.0
  C  C30  1  0.55568000  0.34945000  0.85148000  1.0
  C  C31  1  0.41503000  0.38670000  0.81052000  1.0
  C  C32  1  0.65034000  0.47843000  0.13429000  1.0
  C  C33  1  0.86890000  0.39014000  0.10943000  1.0
  C  C34  1  0.19496000  0.49268000  0.82888000  1.0
  C  C35  1  0.13985000  0.94478000  0.52400000  1.0
  C  C36  1  0.13752000  0.07098000  0.52504000  1.0
  C  C37  1  0.00360000  0.13094000  0.49615000  1.0
  C  C38  1  0.87183000  0.06302000  0.46682000  1.0
  C  C39  1  0.87393000  0.93675000  0.46738000  1.0
  C  C40  1  0.00807000  0.87701000  0.49581000  1.0
  C  C41  1  0.42056000  0.41075000  0.45486000  1.0
  C  C42  1  0.57286000  0.40945000  0.47679000  1.0
  C  C43  1  0.59174000  0.59653000  0.56265000  1.0
  C  C44  1  0.43960000  0.60038000  0.53648000  1.0
  C  C45  1  0.68534000  0.69315000  0.63460000  1.0
  C  C46  1  0.36023000  0.50225000  0.17590000  1.0
  N  N47  1  0.65686000  0.50126000  0.53066000  1.0
  N  N48  1  0.35585000  0.50711000  0.48339000  1.0
  N  N49  1  0.87551000  0.29410000  0.94096000  1.0
  O  O50  1  0.90655000  0.68676000  0.52438000  1.0
  O  O51  1  0.11508000  0.69059000  0.47111000  1.0
  O  O52  1  0.98872000  0.47246000  0.67503000  1.0
  O  O53  1  0.20693000  0.52689000  0.64830000  1.0
  O  O54  1  0.88017000  0.31767000  0.48683000  1.0
  O  O55  1  0.12399000  0.32245000  0.50418000  1.0
  O  O56  1  0.80220000  0.52075000  0.35091000  1.0
  O  O57  1  0.01888000  0.47835000  0.31865000  1.0
  O  O58  1  0.78343000  0.67101000  0.71576000  1.0
  O  O59  1  0.63821000  0.80556000  0.60041000  1.0
  O  O60  1  0.97841000  0.23111000  0.99276000  1.0
  O  O61  1  0.84220000  0.30876000  0.84070000  1.0
  O  O62  1  0.40159000  0.41090000  0.22938000  1.0
  O  O63  1  0.33046000  0.60742000  0.22081000  1.0
