# generated using pymatgen
data_ZnH12C22(NO3)2
_symmetry_space_group_name_H-M   'P 1'
_cell_length_a   9.69857000
_cell_length_b   11.02390000
_cell_length_c   23.69770000
_cell_angle_alpha   90.44250000
_cell_angle_beta   90.04940000
_cell_angle_gamma   88.76130000
_symmetry_Int_Tables_number   1
_chemical_formula_structural   ZnH12C22(NO3)2
_chemical_formula_sum   'Zn2 H24 C44 N4 O12'
_cell_volume   2532.99660501
_cell_formula_units_Z   2
loop_
 _symmetry_equiv_pos_site_id
 _symmetry_equiv_pos_as_xyz
  1  'x, y, z'
loop_
 _atom_site_type_symbol
 _atom_site_label
 _atom_site_symmetry_multiplicity
 _atom_site_fract_x
 _atom_site_fract_y
 _atom_site_fract_z
 _atom_site_occupancy
  Zn  Zn0  1  0.35769000  0.51057000  0.50129000  1.0
  Zn  Zn1  1  0.63986000  0.50484000  0.49876000  1.0
  H  H2  1  0.60307000  0.78627000  0.04446000  1.0
  H  H3  1  0.70966000  0.52982000  0.32166000  1.0
  H  H4  1  0.26769000  0.54283000  0.31963000  1.0
  H  H5  1  0.72094000  0.88714000  0.50074000  1.0
  H  H6  1  0.72567000  0.11171000  0.49009000  1.0
  H  H7  1  0.18316000  0.14565000  0.52994000  1.0
  H  H8  1  0.18198000  0.11971000  0.45547000  1.0
  H  H9  1  0.17312000  0.89416000  0.47180000  1.0
  H  H10  1  0.87508000  0.38095000  0.43303000  1.0
  H  H11  1  0.61572000  0.76629000  0.93801000  1.0
  H  H12  1  0.13583000  0.38223000  0.43488000  1.0
  H  H13  1  0.12318000  0.74386000  0.57659000  1.0
  H  H14  1  0.85625000  0.62651000  0.62116000  1.0
  H  H15  1  0.86086000  0.74803000  0.57199000  1.0
  H  H16  1  0.41807000  0.18617000  0.95559000  1.0
  H  H17  1  0.40712000  0.20581000  0.06196000  1.0
  H  H18  1  0.29688000  0.47980000  0.78850000  1.0
  H  H19  1  0.28799000  0.48542000  0.68262000  1.0
  H  H20  1  0.72653000  0.43265000  0.67546000  1.0
  H  H21  1  0.73689000  0.42585000  0.78131000  1.0
  H  H22  1  0.71305000  0.52010000  0.21576000  1.0
  H  H23  1  0.26960000  0.53371000  0.21372000  1.0
  H  H24  1  0.18174000  0.92112000  0.54614000  1.0
  H  H25  1  0.11878000  0.62042000  0.62476000  1.0
  C  C26  1  0.49936000  0.74345000  0.51033000  1.0
  C  C27  1  0.57853000  0.70144000  0.02314000  1.0
  C  C28  1  0.58566000  0.69031000  0.96414000  1.0
  C  C29  1  0.55389000  0.58149000  0.93765000  1.0
  C  C30  1  0.51406000  0.48060000  0.96998000  1.0
  C  C31  1  0.48064000  0.36888000  0.94394000  1.0
  C  C32  1  0.44305000  0.27103000  0.97679000  1.0
  C  C33  1  0.43668000  0.28200000  0.03587000  1.0
  C  C34  1  0.56034000  0.57225000  0.87526000  1.0
  C  C35  1  0.48358000  0.35626000  0.88150000  1.0
  C  C36  1  0.39058000  0.46948000  0.76343000  1.0
  C  C37  1  0.50175000  0.47455000  0.61007000  1.0
  C  C38  1  0.38559000  0.47285000  0.70479000  1.0
  C  C39  1  0.50698000  0.46188000  0.67307000  1.0
  C  C40  1  0.63323000  0.44305000  0.70074000  1.0
  C  C41  1  0.63889000  0.43900000  0.75943000  1.0
  C  C42  1  0.51754000  0.45427000  0.79039000  1.0
  C  C43  1  0.61592000  0.52493000  0.23884000  1.0
  C  C44  1  0.61413000  0.53038000  0.29749000  1.0
  C  C45  1  0.48854000  0.53551000  0.32666000  1.0
  C  C46  1  0.36448000  0.53796000  0.29638000  1.0
  C  C47  1  0.36560000  0.53294000  0.23765000  1.0
  C  C48  1  0.50869000  0.27193000  0.48783000  1.0
  C  C49  1  0.49144000  0.52502000  0.20935000  1.0
  C  C50  1  0.37980000  0.94922000  0.50244000  1.0
  C  C51  1  0.50005000  0.87796000  0.50489000  1.0
  C  C52  1  0.62493000  0.94034000  0.49980000  1.0
  C  C53  1  0.62764000  0.06579000  0.49341000  1.0
  C  C54  1  0.50538000  0.13722000  0.49127000  1.0
  C  C55  1  0.38252000  0.07479000  0.49544000  1.0
  C  C56  1  0.22678000  0.08916000  0.49570000  1.0
  C  C57  1  0.22357000  0.94734000  0.50499000  1.0
  C  C58  1  0.92365000  0.57081000  0.53560000  1.0
  C  C59  1  0.48761000  0.53406000  0.38992000  1.0
  C  C60  1  0.93056000  0.43684000  0.46320000  1.0
  C  C61  1  0.07443000  0.43693000  0.46441000  1.0
  C  C62  1  0.06736000  0.56972000  0.53726000  1.0
  C  C63  1  0.07317000  0.65815000  0.58614000  1.0
  C  C64  1  0.90892000  0.66079000  0.58375000  1.0
  C  C65  1  0.45908000  0.40128000  0.12482000  1.0
  C  C66  1  0.53380000  0.61774000  0.11815000  1.0
  C  C67  1  0.53992000  0.60378000  0.05586000  1.0
  C  C68  1  0.50711000  0.49188000  0.02991000  1.0
  C  C69  1  0.46748000  0.39109000  0.06237000  1.0
  N  N70  1  0.49381000  0.51472000  0.14854000  1.0
  N  N71  1  0.52243000  0.45995000  0.85132000  1.0
  N  N72  1  0.85188000  0.50550000  0.49915000  1.0
  N  N73  1  0.14598000  0.50482000  0.50203000  1.0
  O  O74  1  0.38155000  0.69385000  0.51017000  1.0
  O  O75  1  0.56153000  0.71281000  0.14258000  1.0
  O  O76  1  0.59480000  0.65674000  0.84525000  1.0
  O  O77  1  0.45343000  0.26226000  0.85669000  1.0
  O  O78  1  0.61564000  0.68779000  0.51371000  1.0
  O  O79  1  0.38325000  0.48914000  0.58761000  1.0
  O  O80  1  0.61663000  0.47162000  0.58399000  1.0
  O  O81  1  0.39216000  0.32788000  0.49065000  1.0
  O  O82  1  0.62579000  0.32144000  0.48394000  1.0
  O  O83  1  0.37090000  0.52996000  0.41436000  1.0
  O  O84  1  0.60462000  0.53521000  0.41449000  1.0
  O  O85  1  0.42476000  0.31687000  0.15485000  1.0
