# generated using pymatgen
data_HgH16C22(N2Cl)2
_symmetry_space_group_name_H-M   'P 1'
_cell_length_a   5.07719000
_cell_length_b   7.41836000
_cell_length_c   26.59950000
_cell_angle_alpha   91.90190000
_cell_angle_beta   89.99920000
_cell_angle_gamma   89.99960000
_symmetry_Int_Tables_number   1
_chemical_formula_structural   HgH16C22(N2Cl)2
_chemical_formula_sum   'Hg2 H32 C44 N8 Cl4'
_cell_volume   1001.30291914
_cell_formula_units_Z   2
loop_
 _symmetry_equiv_pos_site_id
 _symmetry_equiv_pos_as_xyz
  1  'x, y, z'
loop_
 _atom_site_type_symbol
 _atom_site_label
 _atom_site_symmetry_multiplicity
 _atom_site_fract_x
 _atom_site_fract_y
 _atom_site_fract_z
 _atom_site_occupancy
  Hg  Hg0  1  0.89437000  0.75000000  0.75000000  1.0
  Hg  Hg1  1  0.10563000  0.24999000  0.25000000  1.0
  H  H2  1  0.61566000  0.36954000  0.78765000  1.0
  H  H3  1  0.61565000  0.13045000  0.71235000  1.0
  H  H4  1  0.38434000  0.63045000  0.21236000  1.0
  H  H5  1  0.38438000  0.86954000  0.28765000  1.0
  H  H6  1  0.25956000  0.25810000  0.84381000  1.0
  H  H7  1  0.25954000  0.24189000  0.65620000  1.0
  H  H8  1  0.74044000  0.74188000  0.15620000  1.0
  H  H9  1  0.74050000  0.75812000  0.34380000  1.0
  H  H10  1  0.01563000  0.48463000  0.89988000  1.0
  H  H11  1  0.01561000  0.01537000  0.60013000  1.0
  H  H12  1  0.98437000  0.51537000  0.10013000  1.0
  H  H13  1  0.98441000  0.98465000  0.39988000  1.0
  H  H14  1  0.51789000  0.89604000  0.84096000  1.0
  H  H15  1  0.51789000  0.60395000  0.65904000  1.0
  H  H16  1  0.48210000  0.10395000  0.15904000  1.0
  H  H17  1  0.48210000  0.39605000  0.34096000  1.0
  H  H18  1  0.20696000  0.98279000  0.90494000  1.0
  H  H19  1  0.20695000  0.51720000  0.59506000  1.0
  H  H20  1  0.79303000  0.01720000  0.09506000  1.0
  H  H21  1  0.79302000  0.48281000  0.40494000  1.0
  H  H22  1  0.87595000  0.16201000  0.89580000  1.0
  H  H23  1  0.87592000  0.33799000  0.60420000  1.0
  H  H24  1  0.12405000  0.83798000  0.10420000  1.0
  H  H25  1  0.12406000  0.66203000  0.39580000  1.0
  H  H26  1  0.61360000  0.41165000  0.93535000  1.0
  H  H27  1  0.61357000  0.08835000  0.56465000  1.0
  H  H28  1  0.38639000  0.58833000  0.06465000  1.0
  H  H29  1  0.38642000  0.91167000  0.43535000  1.0
  H  H30  1  0.31606000  0.35337000  0.00716000  1.0
  H  H31  1  0.31604000  0.14664000  0.49284000  1.0
  H  H32  1  0.68394000  0.64661000  0.99284000  1.0
  H  H33  1  0.68395000  0.85338000  0.50716000  1.0
  C  C34  1  0.50737000  0.46166000  0.81297000  1.0
  C  C35  1  0.50735000  0.03834000  0.68703000  1.0
  C  C36  1  0.49263000  0.53834000  0.18704000  1.0
  C  C37  1  0.49267000  0.96166000  0.31297000  1.0
  C  C38  1  0.30842000  0.40104000  0.84439000  1.0
  C  C39  1  0.30840000  0.09896000  0.65561000  1.0
  C  C40  1  0.69157000  0.59896000  0.15561000  1.0
  C  C41  1  0.69162000  0.90105000  0.34439000  1.0
  C  C42  1  0.17441000  0.52524000  0.87513000  1.0
  C  C43  1  0.17440000  0.97476000  0.62487000  1.0
  C  C44  1  0.82559000  0.47476000  0.12488000  1.0
  C  C45  1  0.82562000  0.02525000  0.37513000  1.0
  C  C46  1  0.24673000  0.70773000  0.87465000  1.0
  C  C47  1  0.24672000  0.79226000  0.62535000  1.0
  C  C48  1  0.75327000  0.29226000  0.12535000  1.0
  C  C49  1  0.75327000  0.20774000  0.37465000  1.0
  C  C50  1  0.45340000  0.75596000  0.84278000  1.0
  C  C51  1  0.45340000  0.74404000  0.65722000  1.0
  C  C52  1  0.54660000  0.24403000  0.15722000  1.0
  C  C53  1  0.54661000  0.25596000  0.34278000  1.0
  C  C54  1  0.11153000  0.84925000  0.90394000  1.0
  C  C55  1  0.11153000  0.65074000  0.59606000  1.0
  C  C56  1  0.88849000  0.15075000  0.09606000  1.0
  C  C57  1  0.88849000  0.34926000  0.40394000  1.0
  C  C58  1  0.75170000  0.96504000  0.94820000  1.0
  C  C59  1  0.75169000  0.53496000  0.55180000  1.0
  C  C60  1  0.24831000  0.03495000  0.05180000  1.0
  C  C61  1  0.24830000  0.46506000  0.44820000  1.0
  C  C62  1  0.75784000  0.13770000  0.92913000  1.0
  C  C63  1  0.75783000  0.36230000  0.57086000  1.0
  C  C64  1  0.24215000  0.86229000  0.07087000  1.0
  C  C65  1  0.24216000  0.63772000  0.42913000  1.0
  C  C66  1  0.60459000  0.27769000  0.95088000  1.0
  C  C67  1  0.60457000  0.22231000  0.54912000  1.0
  C  C68  1  0.39541000  0.72229000  0.04912000  1.0
  C  C69  1  0.39541000  0.77771000  0.45088000  1.0
  C  C70  1  0.43815000  0.24620000  0.99071000  1.0
  C  C71  1  0.43813000  0.25380000  0.50929000  1.0
  C  C72  1  0.56185000  0.75379000  0.00929000  1.0
  C  C73  1  0.56186000  0.74622000  0.49070000  1.0
  C  C74  1  0.57908000  0.92810000  0.98941000  1.0
  C  C75  1  0.57908000  0.57191000  0.51059000  1.0
  C  C76  1  0.42092000  0.07190000  0.01059000  1.0
  C  C77  1  0.42092000  0.42812000  0.48941000  1.0
  N  N78  1  0.57717000  0.63638000  0.81234000  1.0
  N  N79  1  0.57716000  0.86362000  0.68766000  1.0
  N  N80  1  0.42283000  0.36360000  0.18767000  1.0
  N  N81  1  0.42285000  0.13639000  0.31234000  1.0
  N  N82  1  0.89118000  0.82065000  0.92621000  1.0
  N  N83  1  0.89116000  0.67934000  0.57378000  1.0
  N  N84  1  0.10883000  0.17933000  0.07379000  1.0
  N  N85  1  0.10881000  0.32067000  0.42621000  1.0
  Cl  Cl86  1  0.97869000  0.03816000  0.78974000  1.0
  Cl  Cl87  1  0.97867000  0.46183000  0.71026000  1.0
  Cl  Cl88  1  0.02132000  0.96183000  0.21027000  1.0
  Cl  Cl89  1  0.02130000  0.53816000  0.28974000  1.0
