# generated using pymatgen
data_TbH10C10N2O9
_symmetry_space_group_name_H-M   'P 1'
_cell_length_a   6.49821000
_cell_length_b   9.63214000
_cell_length_c   10.88670000
_cell_angle_alpha   99.54500000
_cell_angle_beta   106.70800000
_cell_angle_gamma   105.58200000
_symmetry_Int_Tables_number   1
_chemical_formula_structural   TbH10C10N2O9
_chemical_formula_sum   'Tb2 H20 C20 N4 O18'
_cell_volume   606.45448875
_cell_formula_units_Z   2
loop_
 _symmetry_equiv_pos_site_id
 _symmetry_equiv_pos_as_xyz
  1  'x, y, z'
loop_
 _atom_site_type_symbol
 _atom_site_label
 _atom_site_symmetry_multiplicity
 _atom_site_fract_x
 _atom_site_fract_y
 _atom_site_fract_z
 _atom_site_occupancy
  Tb  Tb0  1  0.33184000  0.39091000  0.68733000  1.0
  Tb  Tb1  1  0.66816000  0.60909000  0.31267000  1.0
  H  H2  1  0.92163000  0.15020000  0.56610000  1.0
  H  H3  1  0.07836000  0.84980000  0.43390000  1.0
  H  H4  1  0.93120000  0.16426000  0.72002000  1.0
  H  H5  1  0.06880000  0.83573000  0.27998000  1.0
  H  H6  1  0.57465000  0.17112000  0.69192000  1.0
  H  H7  1  0.42536000  0.82888000  0.30808000  1.0
  H  H8  1  0.31885000  0.07233000  0.61948000  1.0
  H  H9  1  0.68116000  0.92768000  0.38052000  1.0
  H  H10  1  0.32325000  0.61985000  0.52646000  1.0
  H  H11  1  0.67676000  0.38016000  0.47354000  1.0
  H  H12  1  0.58681000  0.64036000  0.58643000  1.0
  H  H13  1  0.41320000  0.35965000  0.41358000  1.0
  H  H14  1  0.59839000  0.79583000  0.89311000  1.0
  H  H15  1  0.40161000  0.20417000  0.10689000  1.0
  H  H16  1  0.60336000  0.88343000  0.68743000  1.0
  H  H17  1  0.39664000  0.11658000  0.31257000  1.0
  H  H18  1  0.99248000  0.39437000  0.00109000  1.0
  H  H19  1  0.00752000  0.60563000  0.99892000  1.0
  H  H20  1  0.76064000  0.94812000  0.17765000  1.0
  H  H21  1  0.23937000  0.05187000  0.82235000  1.0
  C  C22  1  0.67445000  0.95756000  0.78688000  1.0
  C  C23  1  0.32555000  0.04244000  0.21311000  1.0
  C  C24  1  0.83238000  0.15472000  0.95334000  1.0
  C  C25  1  0.16763000  0.84528000  0.04666000  1.0
  C  C26  1  0.94246000  0.29802000  0.03942000  1.0
  C  C27  1  0.05754000  0.70198000  0.96058000  1.0
  C  C28  1  0.98262000  0.31465000  0.17480000  1.0
  C  C29  1  0.01740000  0.68535000  0.82521000  1.0
  C  C30  1  0.91641000  0.18869000  0.22439000  1.0
  C  C31  1  0.08359000  0.81130000  0.77561000  1.0
  C  C32  1  0.80748000  0.04463000  0.13915000  1.0
  C  C33  1  0.19253000  0.95537000  0.86085000  1.0
  C  C34  1  0.76807000  0.02975000  0.00435000  1.0
  C  C35  1  0.23194000  0.97025000  0.99565000  1.0
  C  C36  1  0.08540000  0.46971000  0.26670000  1.0
  C  C37  1  0.91459000  0.53029000  0.73330000  1.0
  C  C38  1  0.96906000  0.20550000  0.37007000  1.0
  C  C39  1  0.03094000  0.79450000  0.62993000  1.0
  C  C40  1  0.47400000  0.41766000  0.00216000  1.0
  C  C41  1  0.52599000  0.58234000  0.99784000  1.0
  N  N42  1  0.77002000  0.10578000  0.81623000  1.0
  N  N43  1  0.22998000  0.89422000  0.18377000  1.0
  N  N44  1  0.66919000  0.90698000  0.89487000  1.0
  N  N45  1  0.33082000  0.09302000  0.10513000  1.0
  O  O46  1  0.16100000  0.30253000  0.45057000  1.0
  O  O47  1  0.83900000  0.69747000  0.54943000  1.0
  O  O48  1  0.82481000  0.12378000  0.40799000  1.0
  O  O49  1  0.17518000  0.87622000  0.59201000  1.0
  O  O50  1  0.96961000  0.51668000  0.32954000  1.0
  O  O51  1  0.03038000  0.48331000  0.67046000  1.0
  O  O52  1  0.28311000  0.54855000  0.27585000  1.0
  O  O53  1  0.71690000  0.45145000  0.72416000  1.0
  O  O54  1  0.39559000  0.32028000  0.89216000  1.0
  O  O55  1  0.60439000  0.67972000  0.10784000  1.0
  O  O56  1  0.51447000  0.39447000  0.11675000  1.0
  O  O57  1  0.48552000  0.60553000  0.88325000  1.0
  O  O58  1  0.02515000  0.17954000  0.66181000  1.0
  O  O59  1  0.97485000  0.82046000  0.33819000  1.0
  O  O60  1  0.42948000  0.17026000  0.62890000  1.0
  O  O61  1  0.57053000  0.82974000  0.37110000  1.0
  O  O62  1  0.43834000  0.60797000  0.60084000  1.0
  O  O63  1  0.56167000  0.39203000  0.39917000  1.0
