# generated using pymatgen
data_K2ZnH10C4(N9O2)2
_symmetry_space_group_name_H-M   'P 1'
_cell_length_a   8.50556000
_cell_length_b   9.39209000
_cell_length_c   10.73870000
_cell_angle_alpha   90.00000000
_cell_angle_beta   98.54920000
_cell_angle_gamma   90.00000000
_symmetry_Int_Tables_number   1
_chemical_formula_structural   K2ZnH10C4(N9O2)2
_chemical_formula_sum   'K4 Zn2 H20 C8 N36 O8'
_cell_volume   848.32883129
_cell_formula_units_Z   2
loop_
 _symmetry_equiv_pos_site_id
 _symmetry_equiv_pos_as_xyz
  1  'x, y, z'
loop_
 _atom_site_type_symbol
 _atom_site_label
 _atom_site_symmetry_multiplicity
 _atom_site_fract_x
 _atom_site_fract_y
 _atom_site_fract_z
 _atom_site_occupancy
  K  K0  1  0.50986000  0.29617000  0.12206000  1.0
  K  K1  1  0.99014000  0.79617000  0.87793000  1.0
  K  K2  1  0.49014000  0.70383000  0.87794000  1.0
  K  K3  1  0.00986000  0.20383000  0.12206000  1.0
  Zn  Zn4  1  0.50000000  0.50000000  0.50000000  1.0
  Zn  Zn5  1  0.00000000  0.00000000  0.50000000  1.0
  H  H6  1  0.57302000  0.96317000  0.18795000  1.0
  H  H7  1  0.92698000  0.46317000  0.81205000  1.0
  H  H8  1  0.42698000  0.03683000  0.81205000  1.0
  H  H9  1  0.07302000  0.53683000  0.18795000  1.0
  H  H10  1  0.74435000  0.01354000  0.24227000  1.0
  H  H11  1  0.75565000  0.51354000  0.75773000  1.0
  H  H12  1  0.25565000  0.98646000  0.75773000  1.0
  H  H13  1  0.24434000  0.48646000  0.24227000  1.0
  H  H14  1  0.31326000  0.98795000  0.11243000  1.0
  H  H15  1  0.18674000  0.48795000  0.88757000  1.0
  H  H16  1  0.68674000  0.01205000  0.88757000  1.0
  H  H17  1  0.81326000  0.51205000  0.11243000  1.0
  H  H18  1  0.29804000  0.03576000  0.97235000  1.0
  H  H19  1  0.20196000  0.53576000  0.02765000  1.0
  H  H20  1  0.70196000  0.96424000  0.02765000  1.0
  H  H21  1  0.79804000  0.46424000  0.97235000  1.0
  H  H22  1  0.31281000  0.93286000  0.37370000  1.0
  H  H23  1  0.18719000  0.43286000  0.62630000  1.0
  H  H24  1  0.68719000  0.06714000  0.62630000  1.0
  H  H25  1  0.81281000  0.56714000  0.37370000  1.0
  C  C26  1  0.41314000  0.75257000  0.31239000  1.0
  C  C27  1  0.08686000  0.25258000  0.68761000  1.0
  C  C28  1  0.58686000  0.24743000  0.68761000  1.0
  C  C29  1  0.91313000  0.74743000  0.31239000  1.0
  C  C30  1  0.28003000  0.76708000  0.49576000  1.0
  C  C31  1  0.21997000  0.26708000  0.50424000  1.0
  C  C32  1  0.71997000  0.23292000  0.50424000  1.0
  C  C33  1  0.78003000  0.73292000  0.49576000  1.0
  N  N34  1  0.45016000  0.61282000  0.31899000  1.0
  N  N35  1  0.04984000  0.11282000  0.68101000  1.0
  N  N36  1  0.54984000  0.38718000  0.68101000  1.0
  N  N37  1  0.95016000  0.88718000  0.31899000  1.0
  N  N38  1  0.51343000  0.58591000  0.21157000  1.0
  N  N39  1  0.98657000  0.08591000  0.78843000  1.0
  N  N40  1  0.48657000  0.41410000  0.78843000  1.0
  N  N41  1  0.01343000  0.91409000  0.21157000  1.0
  N  N42  1  0.51429000  0.70272000  0.14655000  1.0
  N  N43  1  0.98571000  0.20272000  0.85345000  1.0
  N  N44  1  0.48571000  0.29728000  0.85345000  1.0
  N  N45  1  0.01430000  0.79728000  0.14655000  1.0
  N  N46  1  0.45237000  0.81194000  0.20717000  1.0
  N  N47  1  0.04763000  0.31194000  0.79283000  1.0
  N  N48  1  0.54763000  0.18806000  0.79283000  1.0
  N  N49  1  0.95237000  0.68806000  0.20717000  1.0
  N  N50  1  0.34191000  0.82775000  0.39793000  1.0
  N  N51  1  0.15809000  0.32775000  0.60207000  1.0
  N  N52  1  0.65810000  0.17225000  0.60207000  1.0
  N  N53  1  0.84191000  0.67225000  0.39793000  1.0
  N  N54  1  0.17181000  0.82984000  0.55783000  1.0
  N  N55  1  0.32819000  0.32984000  0.44217000  1.0
  N  N56  1  0.82819000  0.17016000  0.44217000  1.0
  N  N57  1  0.67181000  0.67016000  0.55783000  1.0
  N  N58  1  0.14170000  0.73437000  0.64574000  1.0
  N  N59  1  0.35830000  0.23437000  0.35426000  1.0
  N  N60  1  0.85830000  0.26563000  0.35425000  1.0
  N  N61  1  0.64170000  0.76563000  0.64575000  1.0
  N  N62  1  0.22700000  0.62037000  0.63708000  1.0
  N  N63  1  0.27299000  0.12037000  0.36292000  1.0
  N  N64  1  0.77300000  0.37963000  0.36292000  1.0
  N  N65  1  0.72701000  0.87963000  0.63708000  1.0
  N  N66  1  0.31625000  0.63698000  0.54352000  1.0
  N  N67  1  0.18375000  0.13698000  0.45648000  1.0
  N  N68  1  0.68375000  0.36302000  0.45648000  1.0
  N  N69  1  0.81625000  0.86302000  0.54352000  1.0
  O  O70  1  0.65690000  0.03382000  0.17451000  1.0
  O  O71  1  0.84310000  0.53382000  0.82550000  1.0
  O  O72  1  0.34310000  0.96618000  0.82549000  1.0
  O  O73  1  0.15690000  0.46618000  0.17450000  1.0
  O  O74  1  0.28346000  0.06980000  0.05734000  1.0
  O  O75  1  0.21654000  0.56980000  0.94266000  1.0
  O  O76  1  0.71654000  0.93020000  0.94266000  1.0
  O  O77  1  0.78346000  0.43020000  0.05734000  1.0
