# generated using pymatgen
data_CdH9C13NO5
_symmetry_space_group_name_H-M   'P 1'
_cell_length_a   10.38790000
_cell_length_b   10.94160000
_cell_length_c   12.05930000
_cell_angle_alpha   114.43800000
_cell_angle_beta   89.99960000
_cell_angle_gamma   90.00000000
_symmetry_Int_Tables_number   1
_chemical_formula_structural   CdH9C13NO5
_chemical_formula_sum   'Cd4 H36 C52 N4 O20'
_cell_volume   1247.86459930
_cell_formula_units_Z   4
loop_
 _symmetry_equiv_pos_site_id
 _symmetry_equiv_pos_as_xyz
  1  'x, y, z'
loop_
 _atom_site_type_symbol
 _atom_site_label
 _atom_site_symmetry_multiplicity
 _atom_site_fract_x
 _atom_site_fract_y
 _atom_site_fract_z
 _atom_site_occupancy
  Cd  Cd0  1  0.02964000  0.85988000  0.04731000  1.0
  Cd  Cd1  1  0.52964000  0.64012000  0.95269000  1.0
  Cd  Cd2  1  0.97037000  0.14012000  0.95269000  1.0
  Cd  Cd3  1  0.47037000  0.35988000  0.04731000  1.0
  H  H4  1  0.65852000  0.13154000  0.00882000  1.0
  H  H5  1  0.15852000  0.36846000  0.99118000  1.0
  H  H6  1  0.34148000  0.86846000  0.99118000  1.0
  H  H7  1  0.84148000  0.63154000  0.00882000  1.0
  H  H8  1  0.62506000  0.99687000  0.29522000  1.0
  H  H9  1  0.12507000  0.50313000  0.70478000  1.0
  H  H10  1  0.37494000  0.00314000  0.70478000  1.0
  H  H11  1  0.87493000  0.49687000  0.29522000  1.0
  H  H12  1  0.32992000  0.23288000  0.22386000  1.0
  H  H13  1  0.82993000  0.26712000  0.77614000  1.0
  H  H14  1  0.67008000  0.76712000  0.77614000  1.0
  H  H15  1  0.17008000  0.73288000  0.22386000  1.0
  H  H16  1  0.08915000  0.04900000  0.45548000  1.0
  H  H17  1  0.58915000  0.45100000  0.54453000  1.0
  H  H18  1  0.91085000  0.95100000  0.54452000  1.0
  H  H19  1  0.41085000  0.54900000  0.45547000  1.0
  H  H20  1  0.54529000  0.19843000  0.50552000  1.0
  H  H21  1  0.04529000  0.30157000  0.49448000  1.0
  H  H22  1  0.45471000  0.80157000  0.49448000  1.0
  H  H23  1  0.95471000  0.69843000  0.50552000  1.0
  H  H24  1  0.19296000  0.13442000  0.66168000  1.0
  H  H25  1  0.69296000  0.36557000  0.33832000  1.0
  H  H26  1  0.80705000  0.86558000  0.33832000  1.0
  H  H27  1  0.30704000  0.63443000  0.66168000  1.0
  H  H28  1  0.42080000  0.20902000  0.68454000  1.0
  H  H29  1  0.92081000  0.29097000  0.31545000  1.0
  H  H30  1  0.57920000  0.79098000  0.31545000  1.0
  H  H31  1  0.07919000  0.70903000  0.68455000  1.0
  H  H32  1  0.87710000  0.68771000  0.83870000  1.0
  H  H33  1  0.37710000  0.81229000  0.16130000  1.0
  H  H34  1  0.12290000  0.31229000  0.16130000  1.0
  H  H35  1  0.62290000  0.18771000  0.83870000  1.0
  H  H36  1  0.93398000  0.81501000  0.82156000  1.0
  H  H37  1  0.43398000  0.68499000  0.17844000  1.0
  H  H38  1  0.06602000  0.18499000  0.17844000  1.0
  H  H39  1  0.56602000  0.31501000  0.82156000  1.0
  C  C40  1  0.78410000  0.98673000  0.11225000  1.0
  C  C41  1  0.28410000  0.51327000  0.88775000  1.0
  C  C42  1  0.21590000  0.01327000  0.88775000  1.0
  C  C43  1  0.71590000  0.48674000  0.11225000  1.0
  C  C44  1  0.60498000  0.12484000  0.08365000  1.0
  C  C45  1  0.10498000  0.37517000  0.91635000  1.0
  C  C46  1  0.39502000  0.87516000  0.91635000  1.0
  C  C47  1  0.89502000  0.62483000  0.08365000  1.0
  C  C48  1  0.65632000  0.05530000  0.14746000  1.0
  C  C49  1  0.15632000  0.44469000  0.85253000  1.0
  C  C50  1  0.34368000  0.94470000  0.85254000  1.0
  C  C51  1  0.84368000  0.55531000  0.14747000  1.0
  C  C52  1  0.58603000  0.05028000  0.24413000  1.0
  C  C53  1  0.08603000  0.44972000  0.75586000  1.0
  C  C54  1  0.41397000  0.94972000  0.75587000  1.0
  C  C55  1  0.91397000  0.55028000  0.24414000  1.0
  C  C56  1  0.42147000  0.17940000  0.20349000  1.0
  C  C57  1  0.92147000  0.32060000  0.79650000  1.0
  C  C58  1  0.57853000  0.82060000  0.79650000  1.0
  C  C59  1  0.07853000  0.67940000  0.20350000  1.0
  C  C60  1  0.46554000  0.11257000  0.27343000  1.0
  C  C61  1  0.96554000  0.38743000  0.72657000  1.0
  C  C62  1  0.53446000  0.88743000  0.72657000  1.0
  C  C63  1  0.03446000  0.61258000  0.27343000  1.0
  C  C64  1  0.19514000  0.00557000  0.24459000  1.0
  C  C65  1  0.69514000  0.49443000  0.75541000  1.0
  C  C66  1  0.80486000  0.99443000  0.75541000  1.0
  C  C67  1  0.30486000  0.50557000  0.24459000  1.0
  C  C68  1  0.38970000  0.11435000  0.37811000  1.0
  C  C69  1  0.88970000  0.38565000  0.62189000  1.0
  C  C70  1  0.61030000  0.88565000  0.62189000  1.0
  C  C71  1  0.11030000  0.61434000  0.37811000  1.0
  C  C72  1  0.26017000  0.07248000  0.36551000  1.0
  C  C73  1  0.76017000  0.42751000  0.63449000  1.0
  C  C74  1  0.73983000  0.92752000  0.63449000  1.0
  C  C75  1  0.23983000  0.57249000  0.36551000  1.0
  C  C76  1  0.18930000  0.08202000  0.46783000  1.0
  C  C77  1  0.68930000  0.41798000  0.53217000  1.0
  C  C78  1  0.81070000  0.91798000  0.53217000  1.0
  C  C79  1  0.31070000  0.58202000  0.46783000  1.0
  C  C80  1  0.44578000  0.16360000  0.49428000  1.0
  C  C81  1  0.94578000  0.33640000  0.50572000  1.0
  C  C82  1  0.55422000  0.83640000  0.50572000  1.0
  C  C83  1  0.05422000  0.66360000  0.49428000  1.0
  C  C84  1  0.24669000  0.13021000  0.58245000  1.0
  C  C85  1  0.74669000  0.36979000  0.41755000  1.0
  C  C86  1  0.75331000  0.86979000  0.41755000  1.0
  C  C87  1  0.25331000  0.63021000  0.58245000  1.0
  C  C88  1  0.37521000  0.17136000  0.59532000  1.0
  C  C89  1  0.87521000  0.32864000  0.40468000  1.0
  C  C90  1  0.62479000  0.82864000  0.40468000  1.0
  C  C91  1  0.12479000  0.67136000  0.59532000  1.0
  N  N92  1  0.48987000  0.18631000  0.11149000  1.0
  N  N93  1  0.98987000  0.31369000  0.88851000  1.0
  N  N94  1  0.51013000  0.81369000  0.88851000  1.0
  N  N95  1  0.01013000  0.68631000  0.11149000  1.0
  O  O96  1  0.86073000  0.02043000  0.04605000  1.0
  O  O97  1  0.36072000  0.47957000  0.95395000  1.0
  O  O98  1  0.13927000  0.97957000  0.95395000  1.0
  O  O99  1  0.63928000  0.52043000  0.04605000  1.0
  O  O100  1  0.81190000  0.89647000  0.14771000  1.0
  O  O101  1  0.31189000  0.60353000  0.85229000  1.0
  O  O102  1  0.18811000  0.10353000  0.85229000  1.0
  O  O103  1  0.68811000  0.39647000  0.14771000  1.0
  O  O104  1  0.24365000  0.89835000  0.16358000  1.0
  O  O105  1  0.74365000  0.60165000  0.83642000  1.0
  O  O106  1  0.75635000  0.10165000  0.83642000  1.0
  O  O107  1  0.25635000  0.39835000  0.16358000  1.0
  O  O108  1  0.95566000  0.74494000  0.85044000  1.0
  O  O109  1  0.45567000  0.75506000  0.14956000  1.0
  O  O110  1  0.04434000  0.25506000  0.14956000  1.0
  O  O111  1  0.54433000  0.24494000  0.85044000  1.0
  O  O112  1  0.08708000  0.05140000  0.22885000  1.0
  O  O113  1  0.58708000  0.44860000  0.77115000  1.0
  O  O114  1  0.91292000  0.94860000  0.77115000  1.0
  O  O115  1  0.41292000  0.55140000  0.22885000  1.0
