# generated using pymatgen
data_CdH12C14NO5
_symmetry_space_group_name_H-M   'P 1'
_cell_length_a   9.34978997
_cell_length_b   9.35779000
_cell_length_c   9.97310000
_cell_angle_alpha   89.60130000
_cell_angle_beta   88.04246169
_cell_angle_gamma   65.49180360
_symmetry_Int_Tables_number   1
_chemical_formula_structural   CdH12C14NO5
_chemical_formula_sum   'Cd2 H24 C28 N2 O10'
_cell_volume   793.47406590
_cell_formula_units_Z   2
loop_
 _symmetry_equiv_pos_site_id
 _symmetry_equiv_pos_as_xyz
  1  'x, y, z'
loop_
 _atom_site_type_symbol
 _atom_site_label
 _atom_site_symmetry_multiplicity
 _atom_site_fract_x
 _atom_site_fract_y
 _atom_site_fract_z
 _atom_site_occupancy
  Cd  Cd0  1  0.24361000  0.16226000  0.01668000  1.0
  Cd  Cd1  1  0.75637000  0.83776000  0.98333000  1.0
  H  H2  1  0.94022000  0.35689000  0.90900000  1.0
  H  H3  1  0.05977000  0.64311000  0.09100000  1.0
  H  H4  1  0.92109000  0.19346000  0.94291000  1.0
  H  H5  1  0.07890000  0.80653000  0.05708000  1.0
  H  H6  1  0.12259000  0.21027000  0.46769000  1.0
  H  H7  1  0.87742000  0.78972000  0.53233000  1.0
  H  H8  1  0.00590000  0.67284000  0.31117000  1.0
  H  H9  1  0.99412000  0.32715000  0.68884000  1.0
  H  H10  1  0.44455000  0.34302000  0.17968000  1.0
  H  H11  1  0.55544000  0.65700000  0.82030000  1.0
  H  H12  1  0.30294000  0.63711000  0.18211000  1.0
  H  H13  1  0.69705000  0.36292000  0.81787000  1.0
  H  H14  1  0.46324000  0.05163000  0.75765000  1.0
  H  H15  1  0.53676000  0.94836000  0.24236000  1.0
  H  H16  1  0.53700000  0.15947000  0.54934000  1.0
  H  H17  1  0.46301000  0.84054000  0.45068000  1.0
  H  H18  1  0.23513000  0.62397000  0.69778000  1.0
  H  H19  1  0.76487000  0.37602000  0.30222000  1.0
  H  H20  1  0.17317000  0.49791000  0.89849000  1.0
  H  H21  1  0.82682000  0.50209000  0.10152000  1.0
  H  H22  1  0.33059000  0.57488000  0.45103000  1.0
  H  H23  1  0.66942000  0.42512000  0.54898000  1.0
  H  H24  1  0.47473000  0.38784000  0.40122000  1.0
  H  H25  1  0.52529000  0.61215000  0.59879000  1.0
  C  C26  1  0.14336000  0.36195000  0.24282000  1.0
  C  C27  1  0.85664000  0.63804000  0.75719000  1.0
  C  C28  1  0.07366000  0.43381000  0.37666000  1.0
  C  C29  1  0.92635000  0.56618000  0.62336000  1.0
  C  C30  1  0.06853000  0.33708000  0.48319000  1.0
  C  C31  1  0.93148000  0.66291000  0.51683000  1.0
  C  C32  1  0.00467000  0.59740000  0.39457000  1.0
  C  C33  1  0.99533000  0.40260000  0.60545000  1.0
  C  C34  1  0.66307000  0.16238000  0.99816000  1.0
  C  C35  1  0.33692000  0.83763000  0.00182000  1.0
  C  C36  1  0.58069000  0.33691000  0.00027000  1.0
  C  C37  1  0.41931000  0.66310000  0.99971000  1.0
  C  C38  1  0.46835000  0.41335000  0.10207000  1.0
  C  C39  1  0.53164000  0.58667000  0.89791000  1.0
  C  C40  1  0.38839000  0.57581000  0.10213000  1.0
  C  C41  1  0.61160000  0.42422000  0.89784000  1.0
  C  C42  1  0.41506000  0.17775000  0.73937000  1.0
  C  C43  1  0.58495000  0.82223000  0.26063000  1.0
  C  C44  1  0.45566000  0.23903000  0.62431000  1.0
  C  C45  1  0.54435000  0.76097000  0.37570000  1.0
  C  C46  1  0.39098000  0.40180000  0.60545000  1.0
  C  C47  1  0.60903000  0.59820000  0.39456000  1.0
  C  C48  1  0.28884000  0.49642000  0.70639000  1.0
  C  C49  1  0.71116000  0.50358000  0.29362000  1.0
  C  C50  1  0.25325000  0.42734000  0.81880000  1.0
  C  C51  1  0.74675000  0.57265000  0.18119000  1.0
  C  C52  1  0.43445000  0.47324000  0.48445000  1.0
  C  C53  1  0.56556000  0.52676000  0.51556000  1.0
  N  N54  1  0.31453000  0.27070000  0.83468000  1.0
  N  N55  1  0.68547000  0.72930000  0.16532000  1.0
  O  O56  1  0.98910000  0.25156000  0.95029000  1.0
  O  O57  1  0.01089000  0.74844000  0.04969000  1.0
  O  O58  1  0.21830000  0.21163000  0.23738000  1.0
  O  O59  1  0.78168000  0.78836000  0.76263000  1.0
  O  O60  1  0.12288000  0.44797000  0.13999000  1.0
  O  O61  1  0.87713000  0.55201000  0.86002000  1.0
  O  O62  1  0.58972000  0.08588000  0.05246000  1.0
  O  O63  1  0.41029000  0.91413000  0.94754000  1.0
  O  O64  1  0.79839000  0.09507000  0.94123000  1.0
  O  O65  1  0.20161000  0.90494000  0.05875000  1.0
