# generated using pymatgen
data_ZnHC15N3O4F9
_symmetry_space_group_name_H-M   'P 1'
_cell_length_a   11.32760000
_cell_length_b   15.86849153
_cell_length_c   17.17050000
_cell_angle_alpha   91.59151995
_cell_angle_beta   93.20200000
_cell_angle_gamma   110.29295436
_symmetry_Int_Tables_number   1
_chemical_formula_structural   ZnHC15N3O4F9
_chemical_formula_sum   'Zn2 H2 C30 N6 O8 F18'
_cell_volume   2886.67599939
_cell_formula_units_Z   2
loop_
 _symmetry_equiv_pos_site_id
 _symmetry_equiv_pos_as_xyz
  1  'x, y, z'
loop_
 _atom_site_type_symbol
 _atom_site_label
 _atom_site_symmetry_multiplicity
 _atom_site_fract_x
 _atom_site_fract_y
 _atom_site_fract_z
 _atom_site_occupancy
  Zn  Zn0  1  0.94191000  0.40779000  0.50943000  1.0
  Zn  Zn1  1  0.07047000  0.59704000  0.49951000  1.0
  H  H2  1  0.68545000  0.31100000  0.44270000  1.0
  H  H3  1  0.32606000  0.69547000  0.56651000  1.0
  C  C4  1  0.96072000  0.48168000  0.35458000  1.0
  C  C5  1  0.04741000  0.52246000  0.65450000  1.0
  C  C6  1  0.97545000  0.40284000  0.22738000  1.0
  C  C7  1  0.99136000  0.58518000  0.77818000  1.0
  C  C8  1  0.31079000  0.74780000  0.53208000  1.0
  C  C9  1  0.70151000  0.25761000  0.47520000  1.0
  C  C10  1  0.40239000  0.83229000  0.53034000  1.0
  C  C11  1  0.61032000  0.17274000  0.47545000  1.0
  C  C12  1  0.38212000  0.89849000  0.48327000  1.0
  C  C13  1  0.63222000  0.10492000  0.51950000  1.0
  C  C14  1  0.26636000  0.87296000  0.43880000  1.0
  C  C15  1  0.74964000  0.12880000  0.56187000  1.0
  C  C16  1  0.17740000  0.78708000  0.44503000  1.0
  C  C17  1  0.83800000  0.21509000  0.55707000  1.0
  C  C18  1  0.80310000  0.53875000  0.51761000  1.0
  C  C19  1  0.20820000  0.46456000  0.49378000  1.0
  C  C20  1  0.68028000  0.55346000  0.51905000  1.0
  C  C21  1  0.33028000  0.44830000  0.49438000  1.0
  C  C22  1  0.56396000  0.48987000  0.52319000  1.0
  C  C23  1  0.44546000  0.50646000  0.52195000  1.0
  C  C24  1  0.95020000  0.47229000  0.26668000  1.0
  C  C25  1  0.04454000  0.52796000  0.74209000  1.0
  C  C26  1  0.92536000  0.53728000  0.22177000  1.0
  C  C27  1  0.08424000  0.47130000  0.78991000  1.0
  C  C28  1  0.93100000  0.53628000  0.14110000  1.0
  C  C29  1  0.06692000  0.46832000  0.86956000  1.0
  C  C30  1  0.96298000  0.46860000  0.10133000  1.0
  C  C31  1  0.01015000  0.52440000  0.90561000  1.0
  C  C32  1  0.98150000  0.40068000  0.14659000  1.0
  C  C33  1  0.97567000  0.58420000  0.85797000  1.0
  N  N34  1  0.97637000  0.45995000  0.02125000  1.0
  N  N35  1  0.99256000  0.53161000  0.98515000  1.0
  N  N36  1  0.19904000  0.72711000  0.49029000  1.0
  N  N37  1  0.81442000  0.27694000  0.51524000  1.0
  N  N38  1  0.47044000  0.98384000  0.47142000  1.0
  N  N39  1  0.54390000  0.01950000  0.53078000  1.0
  O  O40  1  0.89654000  0.41478000  0.39126000  1.0
  O  O41  1  0.08367000  0.59605000  0.62043000  1.0
  O  O42  1  0.03683000  0.55667000  0.38297000  1.0
  O  O43  1  0.00865000  0.44330000  0.62328000  1.0
  O  O44  1  0.80238000  0.46027000  0.53108000  1.0
  O  O45  1  0.21554000  0.54583000  0.50340000  1.0
  O  O46  1  0.89672000  0.60670000  0.50203000  1.0
  O  O47  1  0.10878000  0.39543000  0.48327000  1.0
  F  F48  1  0.45599000  0.58887000  0.55196000  1.0
  F  F49  1  0.55183000  0.40218000  0.52710000  1.0
  F  F50  1  0.06630000  0.76364000  0.40410000  1.0
  F  F51  1  0.95078000  0.23714000  0.59586000  1.0
  F  F52  1  0.32219000  0.36686000  0.46398000  1.0
  F  F53  1  0.68762000  0.63961000  0.51115000  1.0
  F  F54  1  0.14213000  0.41792000  0.75928000  1.0
  F  F55  1  0.89466000  0.60329000  0.25702000  1.0
  F  F56  1  0.11107000  0.41404000  0.91181000  1.0
  F  F57  1  0.90240000  0.59991000  0.10245000  1.0
  F  F58  1  0.01087000  0.33419000  0.11196000  1.0
  F  F59  1  0.92148000  0.63919000  0.88939000  1.0
  F  F60  1  0.00068000  0.33844000  0.26763000  1.0
  F  F61  1  0.94854000  0.64031000  0.73575000  1.0
  F  F62  1  0.49861000  0.15685000  0.43574000  1.0
  F  F63  1  0.51302000  0.84907000  0.57157000  1.0
  F  F64  1  0.23929000  0.93084000  0.39210000  1.0
  F  F65  1  0.77872000  0.06887000  0.60498000  1.0
