# generated using pymatgen
data_ZnH20C32NO4
_symmetry_space_group_name_H-M   'P 1'
_cell_length_a   9.27537000
_cell_length_b   18.24690000
_cell_length_c   19.32660000
_cell_angle_alpha   89.42260000
_cell_angle_beta   89.75300000
_cell_angle_gamma   89.81510000
_symmetry_Int_Tables_number   1
_chemical_formula_structural   ZnH20C32NO4
_chemical_formula_sum   'Zn2 H40 C64 N2 O8'
_cell_volume   3270.75115303
_cell_formula_units_Z   2
loop_
 _symmetry_equiv_pos_site_id
 _symmetry_equiv_pos_as_xyz
  1  'x, y, z'
loop_
 _atom_site_type_symbol
 _atom_site_label
 _atom_site_symmetry_multiplicity
 _atom_site_fract_x
 _atom_site_fract_y
 _atom_site_fract_z
 _atom_site_occupancy
  Zn  Zn0  1  0.48597000  0.57596000  0.50141000  1.0
  Zn  Zn1  1  0.48742000  0.42377000  0.49849000  1.0
  H  H2  1  0.73038000  0.43667000  0.69712000  1.0
  H  H3  1  0.63820000  0.30908000  0.41731000  1.0
  H  H4  1  0.62929000  0.69091000  0.41860000  1.0
  H  H5  1  0.34352000  0.30630000  0.57838000  1.0
  H  H6  1  0.35130000  0.83022000  0.59006000  1.0
  H  H7  1  0.64800000  0.17217000  0.41354000  1.0
  H  H8  1  0.64208000  0.82790000  0.41435000  1.0
  H  H9  1  0.34498000  0.16938000  0.58448000  1.0
  H  H10  1  0.72274000  0.93191000  0.47231000  1.0
  H  H11  1  0.27280000  0.06770000  0.52784000  1.0
  H  H12  1  0.27292000  0.93275000  0.52944000  1.0
  H  H13  1  0.73806000  0.56254000  0.30091000  1.0
  H  H14  1  0.72285000  0.06699000  0.47109000  1.0
  H  H15  1  0.44218000  0.68149000  0.96553000  1.0
  H  H16  1  0.45324000  0.79716000  0.89742000  1.0
  H  H17  1  0.66042000  0.82074000  0.81759000  1.0
  H  H18  1  0.85559000  0.72719000  0.80666000  1.0
  H  H19  1  0.84181000  0.61084000  0.87380000  1.0
  H  H20  1  0.43846000  0.31974000  0.03550000  1.0
  H  H21  1  0.44854000  0.20429000  0.10400000  1.0
  H  H22  1  0.65652000  0.17934000  0.18219000  1.0
  H  H23  1  0.85388000  0.27138000  0.19121000  1.0
  H  H24  1  0.35376000  0.43747000  0.26715000  1.0
  H  H25  1  0.84093000  0.38757000  0.12375000  1.0
  H  H26  1  0.84482000  0.66842000  0.04323000  1.0
  H  H27  1  0.84376000  0.78401000  0.10993000  1.0
  H  H28  1  0.62765000  0.81872000  0.17957000  1.0
  H  H29  1  0.41318000  0.73652000  0.18213000  1.0
  H  H30  1  0.41660000  0.62042000  0.11661000  1.0
  H  H31  1  0.84009000  0.32983000  0.95485000  1.0
  H  H32  1  0.83613000  0.21395000  0.88865000  1.0
  H  H33  1  0.61869000  0.18067000  0.82056000  1.0
  H  H34  1  0.40559000  0.26448000  0.81928000  1.0
  H  H35  1  0.35124000  0.56621000  0.73456000  1.0
  H  H36  1  0.41186000  0.38092000  0.88423000  1.0
  H  H37  1  0.79094000  0.44029000  0.82252000  1.0
  H  H38  1  0.79608000  0.55770000  0.17510000  1.0
  H  H39  1  0.40539000  0.43717000  0.14041000  1.0
  H  H40  1  0.40499000  0.56531000  0.86080000  1.0
  H  H41  1  0.35140000  0.69316000  0.58624000  1.0
  C  C42  1  0.50851000  0.50323000  0.36713000  1.0
  C  C43  1  0.41011000  0.19770000  0.54562000  1.0
  C  C44  1  0.49661000  0.84138000  0.50197000  1.0
  C  C45  1  0.49663000  0.15836000  0.49900000  1.0
  C  C46  1  0.62316000  0.96150000  0.48368000  1.0
  C  C47  1  0.37253000  0.03814000  0.51675000  1.0
  C  C48  1  0.37256000  0.96198000  0.51763000  1.0
  C  C49  1  0.62319000  0.03777000  0.48295000  1.0
  C  C50  1  0.49784000  0.07753000  0.49951000  1.0
  C  C51  1  0.49787000  0.92220000  0.50117000  1.0
  C  C52  1  0.76625000  0.49835000  0.49959000  1.0
  C  C53  1  0.50310000  0.49897000  0.63289000  1.0
  C  C54  1  0.20888000  0.49813000  0.50058000  1.0
  C  C55  1  0.92210000  0.49833000  0.50001000  1.0
  C  C56  1  0.05306000  0.49817000  0.50039000  1.0
  C  C57  1  0.66048000  0.46534000  0.73344000  1.0
  C  C58  1  0.66624000  0.53469000  0.26534000  1.0
  C  C59  1  0.44967000  0.46430000  0.24634000  1.0
  C  C60  1  0.44670000  0.53820000  0.75441000  1.0
  C  C61  1  0.69380000  0.46749000  0.80358000  1.0
  C  C62  1  0.69828000  0.53185000  0.19496000  1.0
  C  C63  1  0.47953000  0.46376000  0.17578000  1.0
  C  C64  1  0.41309000  0.72588000  0.54910000  1.0
  C  C65  1  0.47773000  0.53806000  0.82476000  1.0
  C  C66  1  0.60161000  0.50276000  0.85046000  1.0
  C  C67  1  0.60411000  0.49748000  0.14898000  1.0
  C  C68  1  0.53674000  0.50071000  0.70837000  1.0
  C  C69  1  0.54172000  0.50097000  0.29150000  1.0
  C  C70  1  0.63360000  0.56744000  0.96345000  1.0
  C  C71  1  0.63234000  0.43238000  0.03579000  1.0
  C  C72  1  0.63197000  0.56640000  0.03645000  1.0
  C  C73  1  0.62948000  0.43343000  0.96280000  1.0
  C  C74  1  0.62690000  0.49881000  0.07266000  1.0
  C  C75  1  0.57491000  0.27530000  0.45296000  1.0
  C  C76  1  0.62560000  0.50107000  0.92662000  1.0
  C  C77  1  0.64117000  0.63819000  0.92438000  1.0
  C  C78  1  0.53279000  0.69153000  0.93061000  1.0
  C  C79  1  0.53926000  0.75663000  0.89231000  1.0
  C  C80  1  0.65523000  0.76984000  0.84756000  1.0
  C  C81  1  0.76454000  0.71743000  0.84143000  1.0
  C  C82  1  0.75719000  0.65204000  0.87931000  1.0
  C  C83  1  0.63890000  0.36163000  0.07492000  1.0
  C  C84  1  0.52942000  0.30914000  0.06975000  1.0
  C  C85  1  0.53540000  0.24416000  0.10827000  1.0
  C  C86  1  0.57069000  0.72467000  0.45561000  1.0
  C  C87  1  0.65187000  0.23022000  0.15215000  1.0
  C  C88  1  0.76231000  0.28176000  0.15720000  1.0
  C  C89  1  0.75543000  0.34702000  0.11910000  1.0
  C  C90  1  0.63075000  0.63660000  0.07537000  1.0
  C  C91  1  0.75038000  0.68337000  0.07389000  1.0
  C  C92  1  0.74951000  0.74838000  0.11134000  1.0
  C  C93  1  0.62844000  0.76788000  0.15038000  1.0
  C  C94  1  0.50823000  0.72191000  0.15174000  1.0
  C  C95  1  0.50970000  0.65674000  0.11469000  1.0
  C  C96  1  0.62624000  0.36318000  0.92406000  1.0
  C  C97  1  0.40959000  0.27376000  0.54331000  1.0
  C  C98  1  0.74504000  0.31546000  0.92490000  1.0
  C  C99  1  0.74251000  0.25030000  0.88774000  1.0
  C  C100  1  0.62062000  0.23161000  0.84960000  1.0
  C  C101  1  0.50131000  0.27853000  0.84888000  1.0
  C  C102  1  0.50435000  0.34388000  0.88565000  1.0
  C  C103  1  0.41349000  0.80195000  0.55047000  1.0
  C  C104  1  0.58055000  0.19922000  0.45193000  1.0
  C  C105  1  0.57713000  0.80069000  0.45400000  1.0
  N  N106  1  0.48986000  0.68796000  0.50228000  1.0
  N  N107  1  0.49054000  0.31184000  0.49773000  1.0
  O  O108  1  0.53718000  0.56257000  0.39851000  1.0
  O  O109  1  0.53222000  0.43974000  0.60128000  1.0
  O  O110  1  0.44992000  0.55692000  0.60555000  1.0
  O  O111  1  0.45552000  0.44555000  0.39478000  1.0
  O  O112  1  0.70457000  0.55682000  0.51969000  1.0
  O  O113  1  0.26996000  0.43784000  0.51703000  1.0
  O  O114  1  0.26958000  0.55837000  0.48418000  1.0
  O  O115  1  0.70613000  0.43979000  0.47923000  1.0
