# generated using pymatgen
data_ZnH14(C2O)7
_symmetry_space_group_name_H-M   'P 1'
_cell_length_a   5.91225000
_cell_length_b   7.44682000
_cell_length_c   15.86450000
_cell_angle_alpha   89.99790000
_cell_angle_beta   97.05230000
_cell_angle_gamma   89.99720000
_symmetry_Int_Tables_number   1
_chemical_formula_structural   ZnH14(C2O)7
_chemical_formula_sum   'Zn2 H28 C28 O14'
_cell_volume   693.18935618
_cell_formula_units_Z   2
loop_
 _symmetry_equiv_pos_site_id
 _symmetry_equiv_pos_as_xyz
  1  'x, y, z'
loop_
 _atom_site_type_symbol
 _atom_site_label
 _atom_site_symmetry_multiplicity
 _atom_site_fract_x
 _atom_site_fract_y
 _atom_site_fract_z
 _atom_site_occupancy
  Zn  Zn0  1  0.74176000  0.42595000  0.14773000  1.0
  Zn  Zn1  1  0.25822000  0.92590000  0.85227000  1.0
  H  H2  1  0.33050000  0.39021000  0.06533000  1.0
  H  H3  1  0.66950000  0.89023000  0.93467000  1.0
  H  H4  1  0.31061000  0.40377000  0.16645000  1.0
  H  H5  1  0.68938000  0.90375000  0.83355000  1.0
  H  H6  1  0.96716000  0.31284000  0.02287000  1.0
  H  H7  1  0.03285000  0.81281000  0.97713000  1.0
  H  H8  1  0.84068000  0.13286000  0.05113000  1.0
  H  H9  1  0.15933000  0.63282000  0.94888000  1.0
  H  H10  1  0.83411000  0.39768000  0.42287000  1.0
  H  H11  1  0.16589000  0.89767000  0.57713000  1.0
  H  H12  1  0.47516000  0.23733000  0.34310000  1.0
  H  H13  1  0.52488000  0.73733000  0.65690000  1.0
  H  H14  1  0.61906000  0.15163000  0.49083000  1.0
  H  H15  1  0.38099000  0.65163000  0.50918000  1.0
  H  H16  1  0.79128000  0.41187000  0.57462000  1.0
  H  H17  1  0.20871000  0.91191000  0.42538000  1.0
  H  H18  1  0.56716000  0.14756000  0.64845000  1.0
  H  H19  1  0.43287000  0.64758000  0.35155000  1.0
  H  H20  1  0.93869000  0.34512000  0.72433000  1.0
  H  H21  1  0.06131000  0.84518000  0.27567000  1.0
  H  H22  1  0.24268000  0.46749000  0.80532000  1.0
  H  H23  1  0.75728000  0.96753000  0.19466000  1.0
  H  H24  1  0.60105000  0.52205000  0.91003000  1.0
  H  H25  1  0.39886000  0.02208000  0.08997000  1.0
  H  H26  1  0.69667000  0.30377000  0.88343000  1.0
  H  H27  1  0.30330000  0.80379000  0.11658000  1.0
  H  H28  1  0.65458000  0.47635000  0.80451000  1.0
  H  H29  1  0.34538000  0.97635000  0.19550000  1.0
  C  C30  1  0.04837000  0.36780000  0.28537000  1.0
  C  C31  1  0.95166000  0.86776000  0.71463000  1.0
  C  C32  1  0.14148000  0.31947000  0.37401000  1.0
  C  C33  1  0.85854000  0.81945000  0.62599000  1.0
  C  C34  1  0.00679000  0.34647000  0.43817000  1.0
  C  C35  1  0.99324000  0.84646000  0.56182000  1.0
  C  C36  1  0.36778000  0.25439000  0.39382000  1.0
  C  C37  1  0.63228000  0.75438000  0.60619000  1.0
  C  C38  1  0.09275000  0.31521000  0.52395000  1.0
  C  C39  1  0.90727000  0.81521000  0.47604000  1.0
  C  C40  1  0.44944000  0.20964000  0.47643000  1.0
  C  C41  1  0.55058000  0.70965000  0.52358000  1.0
  C  C42  1  0.31700000  0.24094000  0.54412000  1.0
  C  C43  1  0.68302000  0.74096000  0.45588000  1.0
  C  C44  1  0.96052000  0.35429000  0.59043000  1.0
  C  C45  1  0.03948000  0.85432000  0.40958000  1.0
  C  C46  1  0.39919000  0.20616000  0.63047000  1.0
  C  C47  1  0.60086000  0.70621000  0.36953000  1.0
  C  C48  1  0.04324000  0.31995000  0.67358000  1.0
  C  C49  1  0.95676000  0.82002000  0.32642000  1.0
  C  C50  1  0.26421000  0.24636000  0.69305000  1.0
  C  C51  1  0.73582000  0.74640000  0.30695000  1.0
  C  C52  1  0.34522000  0.35648000  0.83598000  1.0
  C  C53  1  0.65474000  0.85652000  0.16402000  1.0
  C  C54  1  0.23144000  0.29611000  0.91259000  1.0
  C  C55  1  0.76850000  0.79615000  0.08741000  1.0
  C  C56  1  0.59025000  0.41856000  0.86063000  1.0
  C  C57  1  0.40969000  0.91858000  0.13938000  1.0
  O  O58  1  0.65315000  0.70806000  0.22303000  1.0
  O  O59  1  0.34688000  0.20802000  0.77697000  1.0
  O  O60  1  0.81363000  0.63245000  0.07638000  1.0
  O  O61  1  0.18620000  0.13243000  0.92359000  1.0
  O  O62  1  0.41202000  0.36743000  0.12269000  1.0
  O  O63  1  0.58798000  0.86742000  0.87731000  1.0
  O  O64  1  0.84753000  0.26678000  0.05557000  1.0
  O  O65  1  0.15249000  0.76674000  0.94444000  1.0
  O  O66  1  0.83883000  0.32423000  0.26044000  1.0
  O  O67  1  0.16121000  0.82420000  0.73955000  1.0
  O  O68  1  0.17106000  0.45377000  0.23957000  1.0
  O  O69  1  0.82898000  0.95372000  0.76044000  1.0
  O  O70  1  0.18471000  0.41668000  0.96516000  1.0
  O  O71  1  0.81525000  0.91672000  0.03484000  1.0
