# generated using pymatgen
data_ZnH5C3N4ClO3
_symmetry_space_group_name_H-M   'P 1'
_cell_length_a   5.16670000
_cell_length_b   6.17551000
_cell_length_c   12.74260000
_cell_angle_alpha   89.99990000
_cell_angle_beta   89.99990000
_cell_angle_gamma   74.00100000
_symmetry_Int_Tables_number   1
_chemical_formula_structural   ZnH5C3N4ClO3
_chemical_formula_sum   'Zn2 H10 C6 N8 Cl2 O6'
_cell_volume   390.83003863
_cell_formula_units_Z   2
loop_
 _symmetry_equiv_pos_site_id
 _symmetry_equiv_pos_as_xyz
  1  'x, y, z'
loop_
 _atom_site_type_symbol
 _atom_site_label
 _atom_site_symmetry_multiplicity
 _atom_site_fract_x
 _atom_site_fract_y
 _atom_site_fract_z
 _atom_site_occupancy
  Zn  Zn0  1  0.06168000  0.47335000  0.71407000  1.0
  Zn  Zn1  1  0.93831000  0.52665000  0.21407000  1.0
  H  H2  1  0.99985000  0.97395000  0.83528000  1.0
  H  H3  1  0.00016000  0.02605000  0.33527000  1.0
  H  H4  1  0.43977000  0.11404000  0.05197000  1.0
  H  H5  1  0.56022000  0.88597000  0.55197000  1.0
  H  H6  1  0.56170000  0.26301000  0.95208000  1.0
  H  H7  1  0.43832000  0.73699000  0.45209000  1.0
  H  H8  1  0.60476000  0.47883000  0.61964000  1.0
  H  H9  1  0.39523000  0.52117000  0.11964000  1.0
  H  H10  1  0.82720000  0.23785000  0.60212000  1.0
  H  H11  1  0.17279000  0.76216000  0.10212000  1.0
  C  C12  1  0.88443000  0.86700000  0.86882000  1.0
  C  C13  1  0.11557000  0.13300000  0.36881000  1.0
  C  C14  1  0.62026000  0.12480000  0.00927000  1.0
  C  C15  1  0.37974000  0.87520000  0.50928000  1.0
  C  C16  1  0.82247000  0.17754000  0.08491000  1.0
  C  C17  1  0.17752000  0.82246000  0.58491000  1.0
  N  N18  1  0.71740000  0.91615000  0.95133000  1.0
  N  N19  1  0.28261000  0.08385000  0.45133000  1.0
  N  N20  1  0.88113000  0.66398000  0.83533000  1.0
  N  N21  1  0.11888000  0.33601000  0.33533000  1.0
  N  N22  1  0.70924000  0.59080000  0.89847000  1.0
  N  N23  1  0.29076000  0.40920000  0.39846000  1.0
  N  N24  1  0.60935000  0.74242000  0.96814000  1.0
  N  N25  1  0.39064000  0.25757000  0.46813000  1.0
  Cl  Cl26  1  0.33387000  0.14580000  0.76388000  1.0
  Cl  Cl27  1  0.66614000  0.85420000  0.26388000  1.0
  O  O28  1  0.05887000  0.05843000  0.09344000  1.0
  O  O29  1  0.94113000  0.94156000  0.59344000  1.0
  O  O30  1  0.80172000  0.40235000  0.61251000  1.0
  O  O31  1  0.19827000  0.59765000  0.11251000  1.0
  O  O32  1  0.71862000  0.36376000  0.13532000  1.0
  O  O33  1  0.28138000  0.63624000  0.63533000  1.0
