# generated using pymatgen
data_TmH8C12O7
_symmetry_space_group_name_H-M   'P 1'
_cell_length_a   10.77310000
_cell_length_b   10.77320000
_cell_length_c   18.75290000
_cell_angle_alpha   73.38150000
_cell_angle_beta   73.38200000
_cell_angle_gamma   69.23080000
_symmetry_Int_Tables_number   1
_chemical_formula_structural   TmH8C12O7
_chemical_formula_sum   'Tm4 H32 C48 O28'
_cell_volume   1908.21071471
_cell_formula_units_Z   4
loop_
 _symmetry_equiv_pos_site_id
 _symmetry_equiv_pos_as_xyz
  1  'x, y, z'
loop_
 _atom_site_type_symbol
 _atom_site_label
 _atom_site_symmetry_multiplicity
 _atom_site_fract_x
 _atom_site_fract_y
 _atom_site_fract_z
 _atom_site_occupancy
  Tm  Tm0  1  0.45625000  0.55523000  0.39455000  1.0
  Tm  Tm1  1  0.44475000  0.54379000  0.10546000  1.0
  Tm  Tm2  1  0.54378000  0.44477000  0.60546000  1.0
  Tm  Tm3  1  0.55524000  0.45623000  0.89455000  1.0
  H  H4  1  0.19724000  0.69427000  0.33017000  1.0
  H  H5  1  0.30564000  0.80273000  0.16988000  1.0
  H  H6  1  0.80275000  0.30568000  0.66984000  1.0
  H  H7  1  0.69431000  0.19726000  0.83014000  1.0
  H  H8  1  0.20100000  0.73638000  0.40172000  1.0
  H  H9  1  0.26373000  0.79902000  0.09826000  1.0
  H  H10  1  0.79904000  0.26368000  0.59826000  1.0
  H  H11  1  0.73633000  0.20100000  0.90172000  1.0
  H  H12  1  0.21416000  0.37303000  0.44371000  1.0
  H  H13  1  0.62700000  0.78584000  0.05629000  1.0
  H  H14  1  0.78588000  0.62698000  0.55628000  1.0
  H  H15  1  0.37303000  0.21414000  0.94372000  1.0
  H  H16  1  0.97625000  0.37029000  0.50530000  1.0
  H  H17  1  0.62974000  0.02374000  0.99470000  1.0
  H  H18  1  0.02379000  0.62972000  0.49470000  1.0
  H  H19  1  0.37027000  0.97624000  0.00530000  1.0
  H  H20  1  0.86472000  0.51489000  0.28723000  1.0
  H  H21  1  0.48514000  0.13529000  0.21277000  1.0
  H  H22  1  0.13526000  0.48519000  0.71278000  1.0
  H  H23  1  0.51482000  0.86472000  0.78723000  1.0
  H  H24  1  0.10704000  0.51016000  0.22417000  1.0
  H  H25  1  0.48988000  0.89298000  0.27583000  1.0
  H  H26  1  0.89296000  0.48992000  0.77584000  1.0
  H  H27  1  0.51011000  0.10702000  0.72417000  1.0
  H  H28  1  0.57433000  0.99663000  0.61467000  1.0
  H  H29  1  0.00339000  0.42560000  0.88534000  1.0
  H  H30  1  0.42559000  0.00338000  0.38535000  1.0
  H  H31  1  0.99662000  0.57433000  0.11467000  1.0
  H  H32  1  0.44635000  0.21596000  0.40469000  1.0
  H  H33  1  0.78406000  0.55357000  0.09533000  1.0
  H  H34  1  0.55355000  0.78406000  0.59533000  1.0
  H  H35  1  0.21597000  0.44631000  0.90470000  1.0
  C  C36  1  0.31533000  0.44822000  0.29395000  1.0
  C  C37  1  0.55180000  0.68467000  0.20605000  1.0
  C  C38  1  0.68469000  0.55181000  0.70604000  1.0
  C  C39  1  0.44823000  0.31530000  0.79395000  1.0
  C  C40  1  0.17380000  0.44191000  0.33044000  1.0
  C  C41  1  0.55810000  0.82621000  0.16956000  1.0
  C  C42  1  0.82620000  0.55811000  0.66956000  1.0
  C  C43  1  0.44191000  0.17378000  0.83043000  1.0
  C  C44  1  0.13790000  0.40138000  0.40965000  1.0
  C  C45  1  0.59865000  0.86210000  0.09034000  1.0
  C  C46  1  0.86210000  0.59865000  0.59035000  1.0
  C  C47  1  0.40137000  0.13789000  0.90966000  1.0
  C  C48  1  0.00563000  0.39984000  0.44382000  1.0
  C  C49  1  0.60017000  0.99438000  0.05617000  1.0
  C  C50  1  0.99439000  0.60018000  0.55618000  1.0
  C  C51  1  0.39982000  0.00561000  0.94384000  1.0
  C  C52  1  0.90710000  0.44165000  0.39976000  1.0
  C  C53  1  0.55840000  0.09291000  0.10023000  1.0
  C  C54  1  0.09291000  0.55841000  0.60024000  1.0
  C  C55  1  0.44159000  0.90709000  0.89976000  1.0
  C  C56  1  0.76248000  0.45003000  0.43748000  1.0
  C  C57  1  0.55000000  0.23752000  0.06251000  1.0
  C  C58  1  0.23754000  0.54999000  0.56252000  1.0
  C  C59  1  0.44999000  0.76247000  0.93748000  1.0
  C  C60  1  0.94319000  0.48174000  0.32042000  1.0
  C  C61  1  0.51830000  0.05684000  0.17958000  1.0
  C  C62  1  0.05682000  0.51832000  0.67959000  1.0
  C  C63  1  0.48168000  0.94318000  0.82041000  1.0
  C  C64  1  0.07633000  0.48035000  0.28573000  1.0
  C  C65  1  0.51969000  0.92369000  0.21428000  1.0
  C  C66  1  0.92368000  0.51972000  0.71428000  1.0
  C  C67  1  0.48029000  0.07631000  0.78572000  1.0
  C  C68  1  0.51983000  0.24570000  0.52400000  1.0
  C  C69  1  0.75429000  0.48017000  0.97598000  1.0
  C  C70  1  0.48015000  0.75430000  0.47598000  1.0
  C  C71  1  0.24569000  0.51981000  0.02402000  1.0
  C  C72  1  0.51078000  0.11866000  0.51110000  1.0
  C  C73  1  0.88135000  0.48921000  0.98889000  1.0
  C  C74  1  0.48921000  0.88134000  0.48889000  1.0
  C  C75  1  0.11865000  0.51079000  0.01111000  1.0
  C  C76  1  0.54158000  0.99690000  0.56475000  1.0
  C  C77  1  0.00310000  0.45839000  0.93525000  1.0
  C  C78  1  0.45840000  0.00309000  0.43524000  1.0
  C  C79  1  0.99691000  0.54156000  0.06476000  1.0
  C  C80  1  0.46928000  0.12100000  0.44613000  1.0
  C  C81  1  0.87900000  0.53070000  0.05386000  1.0
  C  C82  1  0.53068000  0.87901000  0.55386000  1.0
  C  C83  1  0.12099000  0.46929000  0.94614000  1.0
  O  O84  1  0.38986000  0.44405000  0.33722000  1.0
  O  O85  1  0.55593000  0.61015000  0.16279000  1.0
  O  O86  1  0.61016000  0.55593000  0.66278000  1.0
  O  O87  1  0.44407000  0.38984000  0.83721000  1.0
  O  O88  1  0.35272000  0.45819000  0.22291000  1.0
  O  O89  1  0.54180000  0.64730000  0.27708000  1.0
  O  O90  1  0.64728000  0.54180000  0.77708000  1.0
  O  O91  1  0.45825000  0.35269000  0.72291000  1.0
  O  O92  1  0.73473000  0.40981000  0.50972000  1.0
  O  O93  1  0.59023000  0.26527000  0.99026000  1.0
  O  O94  1  0.26529000  0.59021000  0.49027000  1.0
  O  O95  1  0.40979000  0.73471000  0.00972000  1.0
  O  O96  1  0.67601000  0.49971000  0.39525000  1.0
  O  O97  1  0.50033000  0.32398000  0.10473000  1.0
  O  O98  1  0.32399000  0.50030000  0.60475000  1.0
  O  O99  1  0.49966000  0.67599000  0.89526000  1.0
  O  O100  1  0.49087000  0.35535000  0.47452000  1.0
  O  O101  1  0.64464000  0.50913000  0.02548000  1.0
  O  O102  1  0.50913000  0.64464000  0.52548000  1.0
  O  O103  1  0.35536000  0.49085000  0.97453000  1.0
  O  O104  1  0.55412000  0.24092000  0.58451000  1.0
  O  O105  1  0.75905000  0.44587000  0.91549000  1.0
  O  O106  1  0.44587000  0.75904000  0.41549000  1.0
  O  O107  1  0.24094000  0.55408000  0.08453000  1.0
  O  O108  1  0.24990000  0.72998000  0.34937000  1.0
  O  O109  1  0.27000000  0.75009000  0.15062000  1.0
  O  O110  1  0.75011000  0.27000000  0.65061000  1.0
  O  O111  1  0.73000000  0.24991000  0.84936000  1.0
