# generated using pymatgen
data_Co2P4H20C25O12
_symmetry_space_group_name_H-M   'P 1'
_cell_length_a   12.82050000
_cell_length_b   15.73330000
_cell_length_c   20.46210000
_cell_angle_alpha   89.97330000
_cell_angle_beta   80.84860000
_cell_angle_gamma   89.83090000
_symmetry_Int_Tables_number   1
_chemical_formula_structural   Co2P4H20C25O12
_chemical_formula_sum   'Co8 P16 H80 C100 O48'
_cell_volume   4074.83201608
_cell_formula_units_Z   4
loop_
 _symmetry_equiv_pos_site_id
 _symmetry_equiv_pos_as_xyz
  1  'x, y, z'
loop_
 _atom_site_type_symbol
 _atom_site_label
 _atom_site_symmetry_multiplicity
 _atom_site_fract_x
 _atom_site_fract_y
 _atom_site_fract_z
 _atom_site_occupancy
  Co  Co0  1  0.64925000  0.64975000  0.77743000  1.0
  Co  Co1  1  0.85039000  0.14920000  0.72032000  1.0
  Co  Co2  1  0.35314000  0.34918000  0.22171000  1.0
  Co  Co3  1  0.14728000  0.85089000  0.28053000  1.0
  Co  Co4  1  0.64943000  0.35021000  0.76669000  1.0
  Co  Co5  1  0.84840000  0.85082000  0.73160000  1.0
  Co  Co6  1  0.35244000  0.65037000  0.23425000  1.0
  Co  Co7  1  0.14984000  0.14991000  0.26850000  1.0
  P  P8  1  0.31891000  0.76906000  0.35610000  1.0
  P  P9  1  0.17989000  0.26886000  0.14719000  1.0
  P  P10  1  0.68026000  0.23226000  0.64441000  1.0
  P  P11  1  0.82030000  0.73151000  0.85284000  1.0
  P  P12  1  0.47932000  0.49271000  0.81198000  1.0
  P  P13  1  0.02169000  0.99151000  0.68892000  1.0
  P  P14  1  0.52194000  0.50684000  0.18743000  1.0
  P  P15  1  0.97625000  0.00886000  0.31162000  1.0
  P  P16  1  0.33499000  0.22878000  0.34427000  1.0
  P  P17  1  0.16921000  0.73191000  0.15799000  1.0
  P  P18  1  0.66543000  0.77083000  0.65503000  1.0
  P  P19  1  0.83182000  0.26859000  0.84316000  1.0
  P  P20  1  0.81600000  0.50362000  0.73703000  1.0
  P  P21  1  0.68131000  0.00531000  0.76122000  1.0
  P  P22  1  0.18749000  0.49585000  0.26365000  1.0
  P  P23  1  0.31535000  0.99496000  0.23804000  1.0
  H  H24  1  0.40372000  0.60885000  0.59932000  1.0
  H  H25  1  0.09475000  0.11005000  0.90126000  1.0
  H  H26  1  0.59700000  0.39192000  0.40069000  1.0
  H  H27  1  0.90373000  0.89031000  0.09910000  1.0
  H  H28  1  0.48832000  0.61207000  0.69940000  1.0
  H  H29  1  0.01066000  0.11174000  0.80093000  1.0
  H  H30  1  0.51205000  0.38837000  0.30084000  1.0
  H  H31  1  0.98815000  0.88892000  0.19928000  1.0
  H  H32  1  0.36069000  0.36403000  0.75481000  1.0
  H  H33  1  0.14032000  0.86319000  0.74772000  1.0
  H  H34  1  0.64501000  0.63413000  0.24282000  1.0
  H  H35  1  0.85384000  0.13563000  0.25400000  1.0
  H  H36  1  0.27028000  0.36396000  0.65686000  1.0
  H  H37  1  0.23042000  0.86472000  0.84578000  1.0
  H  H38  1  0.73540000  0.63433000  0.34076000  1.0
  H  H39  1  0.76403000  0.13390000  0.15588000  1.0
  H  H40  1  0.17656000  0.60578000  0.66052000  1.0
  H  H41  1  0.32203000  0.10973000  0.84217000  1.0
  H  H42  1  0.82625000  0.39385000  0.33884000  1.0
  H  H43  1  0.67442000  0.88991000  0.15793000  1.0
  H  H44  1  0.99914000  0.61446000  0.72771000  1.0
  H  H45  1  0.49831000  0.11821000  0.77353000  1.0
  H  H46  1  0.00418000  0.38492000  0.27235000  1.0
  H  H47  1  0.49761000  0.88184000  0.22602000  1.0
  H  H48  1  0.91442000  0.37884000  0.64172000  1.0
  H  H49  1  0.58493000  0.88079000  0.85677000  1.0
  H  H50  1  0.08879000  0.61985000  0.35942000  1.0
  H  H51  1  0.41221000  0.11911000  0.14209000  1.0
  H  H52  1  0.09030000  0.37316000  0.57189000  1.0
  H  H53  1  0.41024000  0.87526000  0.92799000  1.0
  H  H54  1  0.91261000  0.62553000  0.42876000  1.0
  H  H55  1  0.58737000  0.12429000  0.07137000  1.0
  H  H56  1  0.40883000  0.35827000  0.55370000  1.0
  H  H57  1  0.09186000  0.86095000  0.94929000  1.0
  H  H58  1  0.59621000  0.64364000  0.44361000  1.0
  H  H59  1  0.90482000  0.13936000  0.05292000  1.0
  H  H60  1  0.44389000  0.25403000  0.46347000  1.0
  H  H61  1  0.05913000  0.75675000  0.03962000  1.0
  H  H62  1  0.56029000  0.74798000  0.53383000  1.0
  H  H63  1  0.93954000  0.24359000  0.96263000  1.0
  H  H64  1  0.17599000  0.35009000  0.38188000  1.0
  H  H65  1  0.32851000  0.85256000  0.11902000  1.0
  H  H66  1  0.82322000  0.64841000  0.61877000  1.0
  H  H67  1  0.67310000  0.14733000  0.88040000  1.0
  H  H68  1  0.14538000  0.45761000  0.47016000  1.0
  H  H69  1  0.35700000  0.95994000  0.03046000  1.0
  H  H70  1  0.85465000  0.54116000  0.53037000  1.0
  H  H71  1  0.64258000  0.04000000  0.96892000  1.0
  H  H72  1  0.12675000  0.63149000  0.55339000  1.0
  H  H73  1  0.37136000  0.13362000  0.94872000  1.0
  H  H74  1  0.87311000  0.36666000  0.44579000  1.0
  H  H75  1  0.62600000  0.86668000  0.05063000  1.0
  H  H76  1  0.15636000  0.74299000  0.46839000  1.0
  H  H77  1  0.34136000  0.24390000  0.03454000  1.0
  H  H78  1  0.84247000  0.25594000  0.53135000  1.0
  H  H79  1  0.65677000  0.75674000  0.96445000  1.0
  H  H80  1  0.45749000  0.63161000  0.38991000  1.0
  H  H81  1  0.04070000  0.13246000  0.11221000  1.0
  H  H82  1  0.54452000  0.37165000  0.61104000  1.0
  H  H83  1  0.95832000  0.86781000  0.88853000  1.0
  H  H84  1  0.43006000  0.52163000  0.47670000  1.0
  H  H85  1  0.06860000  0.02363000  0.02457000  1.0
  H  H86  1  0.57276000  0.48060000  0.52350000  1.0
  H  H87  1  0.92964000  0.97630000  0.97646000  1.0
  H  H88  1  0.35875000  0.90492000  0.35706000  1.0
  H  H89  1  0.14306000  0.40560000  0.14596000  1.0
  H  H90  1  0.63878000  0.09665000  0.64292000  1.0
  H  H91  1  0.85971000  0.59526000  0.85439000  1.0
  H  H92  1  0.36617000  0.54942000  0.88952000  1.0
  H  H93  1  0.13523000  0.04710000  0.61125000  1.0
  H  H94  1  0.63614000  0.45153000  0.10979000  1.0
  H  H95  1  0.86110000  0.95372000  0.38859000  1.0
  H  H96  1  0.85306000  0.44578000  0.83128000  1.0
  H  H97  1  0.64147000  0.94739000  0.66769000  1.0
  H  H98  1  0.15086000  0.55422000  0.16939000  1.0
  H  H99  1  0.35588000  0.05287000  0.33155000  1.0
  H  H100  1  0.48000000  0.15461000  0.34228000  1.0
  H  H101  1  0.02687000  0.65562000  0.15953000  1.0
  H  H102  1  0.51888000  0.84320000  0.65769000  1.0
  H  H103  1  0.97658000  0.34217000  0.84085000  1.0
  C  C104  1  0.25722000  0.48992000  0.56820000  1.0
  C  C105  1  0.24256000  0.99214000  0.93336000  1.0
  C  C106  1  0.74507000  0.50989000  0.43116000  1.0
  C  C107  1  0.75492000  0.00764000  0.06709000  1.0
  C  C108  1  0.32959000  0.48694000  0.62126000  1.0
  C  C109  1  0.17011000  0.98807000  0.88033000  1.0
  C  C110  1  0.67318000  0.51280000  0.37774000  1.0
  C  C111  1  0.82673000  0.01155000  0.12050000  1.0
  C  C112  1  0.39368000  0.55501000  0.63327000  1.0
  C  C113  1  0.10544000  0.05579000  0.86771000  1.0
  C  C114  1  0.60787000  0.44528000  0.36631000  1.0
  C  C115  1  0.89233000  0.94434000  0.13284000  1.0
  C  C116  1  0.44187000  0.55677000  0.68997000  1.0
  C  C117  1  0.05747000  0.05666000  0.81088000  1.0
  C  C118  1  0.55948000  0.44336000  0.30966000  1.0
  C  C119  1  0.94045000  0.94360000  0.18964000  1.0
  C  C120  1  0.42824000  0.48929000  0.73501000  1.0
  C  C121  1  0.07179000  0.98866000  0.76632000  1.0
  C  C122  1  0.57433000  0.51010000  0.26398000  1.0
  C  C123  1  0.92508000  0.01121000  0.23453000  1.0
  C  C124  1  0.36939000  0.41813000  0.72103000  1.0
  C  C125  1  0.13108000  0.91778000  0.78102000  1.0
  C  C126  1  0.63485000  0.58067000  0.27722000  1.0
  C  C127  1  0.86431000  0.08146000  0.22031000  1.0
  C  C128  1  0.32007000  0.41766000  0.66536000  1.0
  C  C129  1  0.18022000  0.91819000  0.83679000  1.0
  C  C130  1  0.68424000  0.58128000  0.33288000  1.0
  C  C131  1  0.81526000  0.08095000  0.16452000  1.0
  C  C132  1  0.14517000  0.49068000  0.60920000  1.0
  C  C133  1  0.35440000  0.99357000  0.89206000  1.0
  C  C134  1  0.85750000  0.50855000  0.39073000  1.0
  C  C135  1  0.64272000  0.00612000  0.10781000  1.0
  C  C136  1  0.11839000  0.55690000  0.65513000  1.0
  C  C137  1  0.38041000  0.06038000  0.84663000  1.0
  C  C138  1  0.88453000  0.44246000  0.34471000  1.0
  C  C139  1  0.61625000  0.93932000  0.15318000  1.0
  C  C140  1  0.01915000  0.56124000  0.69372000  1.0
  C  C141  1  0.47897000  0.06464000  0.80721000  1.0
  C  C142  1  0.98408000  0.43798000  0.30647000  1.0
  C  C143  1  0.51740000  0.93527000  0.19228000  1.0
  C  C144  1  0.94465000  0.49720000  0.68855000  1.0
  C  C145  1  0.55366000  0.99994000  0.81114000  1.0
  C  C146  1  0.05868000  0.50183000  0.31206000  1.0
  C  C147  1  0.44299000  0.00007000  0.18806000  1.0
  C  C148  1  0.97157000  0.42928000  0.64500000  1.0
  C  C149  1  0.52761000  0.93167000  0.85443000  1.0
  C  C150  1  0.03166000  0.56948000  0.35587000  1.0
  C  C151  1  0.46933000  0.06818000  0.14465000  1.0
  C  C152  1  0.07110000  0.42648000  0.60560000  1.0
  C  C153  1  0.42879000  0.92892000  0.89460000  1.0
  C  C154  1  0.93188000  0.57233000  0.39496000  1.0
  C  C155  1  0.56844000  0.07071000  0.10478000  1.0
  C  C156  1  0.27400000  0.41518000  0.51919000  1.0
  C  C157  1  0.22741000  0.91758000  0.98254000  1.0
  C  C158  1  0.72831000  0.58496000  0.47991000  1.0
  C  C159  1  0.77075000  0.08243000  0.01813000  1.0
  C  C160  1  0.35707000  0.35693000  0.51645000  1.0
  C  C161  1  0.14448000  0.85951000  0.98605000  1.0
  C  C162  1  0.64661000  0.64424000  0.48164000  1.0
  C  C163  1  0.85335000  0.14066000  0.01551000  1.0
  C  C164  1  0.37740000  0.29779000  0.46491000  1.0
  C  C165  1  0.12543000  0.80049000  0.03769000  1.0
  C  C166  1  0.62579000  0.70339000  0.53316000  1.0
  C  C167  1  0.87349000  0.19970000  0.96393000  1.0
  C  C168  1  0.31271000  0.29522000  0.41606000  1.0
  C  C169  1  0.19115000  0.79791000  0.08598000  1.0
  C  C170  1  0.68866000  0.70489000  0.58302000  1.0
  C  C171  1  0.80921000  0.20217000  0.91488000  1.0
  C  C172  1  0.22668000  0.35172000  0.41975000  1.0
  C  C173  1  0.27705000  0.85423000  0.08157000  1.0
  C  C174  1  0.77375000  0.64757000  0.58019000  1.0
  C  C175  1  0.72354000  0.14570000  0.91843000  1.0
  C  C176  1  0.20910000  0.41147000  0.46997000  1.0
  C  C177  1  0.29345000  0.91385000  0.03117000  1.0
  C  C178  1  0.79182000  0.58794000  0.52993000  1.0
  C  C179  1  0.70601000  0.08609000  0.96880000  1.0
  C  C180  1  0.27697000  0.56866000  0.52251000  1.0
  C  C181  1  0.22148000  0.07075000  0.97910000  1.0
  C  C182  1  0.72440000  0.43148000  0.47717000  1.0
  C  C183  1  0.77634000  0.92923000  0.02117000  1.0
  C  C184  1  0.20117000  0.63207000  0.51938000  1.0
  C  C185  1  0.29689000  0.13399000  0.98267000  1.0
  C  C186  1  0.79911000  0.36716000  0.48020000  1.0
  C  C187  1  0.70082000  0.86627000  0.01701000  1.0
  C  C188  1  0.21745000  0.69536000  0.47109000  1.0
  C  C189  1  0.28039000  0.19658000  0.03147000  1.0
  C  C190  1  0.78221000  0.30432000  0.52880000  1.0
  C  C191  1  0.71774000  0.80387000  0.96806000  1.0
  C  C192  1  0.30952000  0.69587000  0.42406000  1.0
  C  C193  1  0.18848000  0.19666000  0.07863000  1.0
  C  C194  1  0.69067000  0.30520000  0.57627000  1.0
  C  C195  1  0.81023000  0.80373000  0.92141000  1.0
  C  C196  1  0.38685000  0.63354000  0.42748000  1.0
  C  C197  1  0.11131000  0.13475000  0.07465000  1.0
  C  C198  1  0.61451000  0.36851000  0.57304000  1.0
  C  C199  1  0.88738000  0.86551000  0.92584000  1.0
  C  C200  1  0.37089000  0.57151000  0.47649000  1.0
  C  C201  1  0.12750000  0.07339000  0.02508000  1.0
  C  C202  1  0.63098000  0.42998000  0.52363000  1.0
  C  C203  1  0.87072000  0.92666000  0.97553000  1.0
  O  O204  1  0.37221000  0.85177000  0.38092000  1.0
  O  O205  1  0.12627000  0.35236000  0.12345000  1.0
  O  O206  1  0.62529000  0.15029000  0.61974000  1.0
  O  O207  1  0.87596000  0.64893000  0.87647000  1.0
  O  O208  1  0.20478000  0.78626000  0.34621000  1.0
  O  O209  1  0.29436000  0.28490000  0.15657000  1.0
  O  O210  1  0.79416000  0.21384000  0.65415000  1.0
  O  O211  1  0.70627000  0.71373000  0.84344000  1.0
  O  O212  1  0.39246000  0.73268000  0.29607000  1.0
  O  O213  1  0.10718000  0.23224000  0.20735000  1.0
  O  O214  1  0.60753000  0.26944000  0.70447000  1.0
  O  O215  1  0.89218000  0.76923000  0.79280000  1.0
  O  O216  1  0.53773000  0.57567000  0.81781000  1.0
  O  O217  1  0.96343000  0.07463000  0.68224000  1.0
  O  O218  1  0.46483000  0.42327000  0.18150000  1.0
  O  O219  1  0.03407000  0.92558000  0.31840000  1.0
  O  O220  1  0.37765000  0.49330000  0.86959000  1.0
  O  O221  1  0.12430000  0.99141000  0.63195000  1.0
  O  O222  1  0.62258000  0.50781000  0.12912000  1.0
  O  O223  1  0.87421000  0.00989000  0.36904000  1.0
  O  O224  1  0.53440000  0.40895000  0.82111000  1.0
  O  O225  1  0.96685000  0.90795000  0.67966000  1.0
  O  O226  1  0.46540000  0.59017000  0.17917000  1.0
  O  O227  1  0.03164000  0.09232000  0.32033000  1.0
  O  O228  1  0.77194000  0.59184000  0.72828000  1.0
  O  O229  1  0.72627000  0.09319000  0.76909000  1.0
  O  O230  1  0.23187000  0.40765000  0.27203000  1.0
  O  O231  1  0.27004000  0.90720000  0.23037000  1.0
  O  O232  1  0.75260000  0.42828000  0.71963000  1.0
  O  O233  1  0.74491000  0.92950000  0.77814000  1.0
  O  O234  1  0.25045000  0.57130000  0.28135000  1.0
  O  O235  1  0.25191000  0.07085000  0.22105000  1.0
  O  O236  1  0.83168000  0.50138000  0.81440000  1.0
  O  O237  1  0.66326000  0.00289000  0.68430000  1.0
  O  O238  1  0.17210000  0.49852000  0.18627000  1.0
  O  O239  1  0.33361000  0.99751000  0.31490000  1.0
  O  O240  1  0.40416000  0.27269000  0.28644000  1.0
  O  O241  1  0.09724000  0.77510000  0.21513000  1.0
  O  O242  1  0.59751000  0.72575000  0.71278000  1.0
  O  O243  1  0.90143000  0.22462000  0.78541000  1.0
  O  O244  1  0.40609000  0.14719000  0.36199000  1.0
  O  O245  1  0.10096000  0.64917000  0.13979000  1.0
  O  O246  1  0.59256000  0.85157000  0.63783000  1.0
  O  O247  1  0.90288000  0.34978000  0.86108000  1.0
  O  O248  1  0.22875000  0.19473000  0.33482000  1.0
  O  O249  1  0.27599000  0.69992000  0.16859000  1.0
  O  O250  1  0.77114000  0.80596000  0.66450000  1.0
  O  O251  1  0.72563000  0.30287000  0.83347000  1.0
