# generated using pymatgen
data_MgH20C14S2(NO5)2
_symmetry_space_group_name_H-M   'P 1'
_cell_length_a   6.26572000
_cell_length_b   11.49390000
_cell_length_c   13.02140000
_cell_angle_alpha   89.99980000
_cell_angle_beta   89.99990000
_cell_angle_gamma   86.72850000
_symmetry_Int_Tables_number   1
_chemical_formula_structural   MgH20C14S2(NO5)2
_chemical_formula_sum   'Mg2 H40 C28 S4 N4 O20'
_cell_volume   936.24118618
_cell_formula_units_Z   2
loop_
 _symmetry_equiv_pos_site_id
 _symmetry_equiv_pos_as_xyz
  1  'x, y, z'
loop_
 _atom_site_type_symbol
 _atom_site_label
 _atom_site_symmetry_multiplicity
 _atom_site_fract_x
 _atom_site_fract_y
 _atom_site_fract_z
 _atom_site_occupancy
  Mg  Mg0  1  0.50000000  0.50000000  0.00000000  1.0
  Mg  Mg1  1  0.00000000  0.00000000  0.50000000  1.0
  H  H2  1  0.54912000  0.27188000  0.82729000  1.0
  H  H3  1  0.95087000  0.22812000  0.32730000  1.0
  H  H4  1  0.45087000  0.72812000  0.17271000  1.0
  H  H5  1  0.04913000  0.77188000  0.67271000  1.0
  H  H6  1  0.92093000  0.03041000  0.76258000  1.0
  H  H7  1  0.57907000  0.46960000  0.26258000  1.0
  H  H8  1  0.07907000  0.96960000  0.23742000  1.0
  H  H9  1  0.42094000  0.53040000  0.73742000  1.0
  H  H10  1  0.89346000  0.17331000  0.79032000  1.0
  H  H11  1  0.60654000  0.32669000  0.29032000  1.0
  H  H12  1  0.10653000  0.82669000  0.20967000  1.0
  H  H13  1  0.39347000  0.67330000  0.70967000  1.0
  H  H14  1  0.65044000  0.89838000  0.81722000  1.0
  H  H15  1  0.84956000  0.60163000  0.31722000  1.0
  H  H16  1  0.34955000  0.10162000  0.18278000  1.0
  H  H17  1  0.15045000  0.39837000  0.68278000  1.0
  H  H18  1  0.93048000  0.12909000  0.98905000  1.0
  H  H19  1  0.56953000  0.37092000  0.48903000  1.0
  H  H20  1  0.06952000  0.87092000  0.01097000  1.0
  H  H21  1  0.43049000  0.62909000  0.51096000  1.0
  H  H22  1  0.31508000  0.87793000  0.90785000  1.0
  H  H23  1  0.18492000  0.62207000  0.40785000  1.0
  H  H24  1  0.68492000  0.12207000  0.09215000  1.0
  H  H25  1  0.81509000  0.37793000  0.59215000  1.0
  H  H26  1  0.19183000  0.66808000  0.96189000  1.0
  H  H27  1  0.30816000  0.83192000  0.46189000  1.0
  H  H28  1  0.80817000  0.33193000  0.03811000  1.0
  H  H29  1  0.69183000  0.16808000  0.53811000  1.0
  H  H30  1  0.32312000  0.63353000  0.86356000  1.0
  H  H31  1  0.17688000  0.86647000  0.36356000  1.0
  H  H32  1  0.67688000  0.36647000  0.13643000  1.0
  H  H33  1  0.82312000  0.13353000  0.63643000  1.0
  H  H34  1  0.20632000  0.42001000  0.11158000  1.0
  H  H35  1  0.29368000  0.07999000  0.61158000  1.0
  H  H36  1  0.79368000  0.57999000  0.88841000  1.0
  H  H37  1  0.70632000  0.92001000  0.38842000  1.0
  H  H38  1  0.18889000  0.55550000  0.13710000  1.0
  H  H39  1  0.31112000  0.94450000  0.63711000  1.0
  H  H40  1  0.81112000  0.44450000  0.86289000  1.0
  H  H41  1  0.68888000  0.05550000  0.36289000  1.0
  C  C42  1  0.30688000  0.17319000  0.89741000  1.0
  C  C43  1  0.19312000  0.32681000  0.39740000  1.0
  C  C44  1  0.69312000  0.82681000  0.10260000  1.0
  C  C45  1  0.80688000  0.67318000  0.60260000  1.0
  C  C46  1  0.62541000  0.08700000  0.81534000  1.0
  C  C47  1  0.87458000  0.41301000  0.31533000  1.0
  C  C48  1  0.37458000  0.91301000  0.18467000  1.0
  C  C49  1  0.12543000  0.58698000  0.68466000  1.0
  C  C50  1  0.49743000  0.18526000  0.84444000  1.0
  C  C51  1  0.00256000  0.31474000  0.34445000  1.0
  C  C52  1  0.50256000  0.81474000  0.15556000  1.0
  C  C53  1  0.99744000  0.68526000  0.65556000  1.0
  C  C54  1  0.55374000  0.97643000  0.83867000  1.0
  C  C55  1  0.94626000  0.52357000  0.33867000  1.0
  C  C56  1  0.44626000  0.02357000  0.16134000  1.0
  C  C57  1  0.05374000  0.47642000  0.66133000  1.0
  C  C58  1  0.23165000  0.06275000  0.92323000  1.0
  C  C59  1  0.26835000  0.43725000  0.42323000  1.0
  C  C60  1  0.76834000  0.93725000  0.07677000  1.0
  C  C61  1  0.73167000  0.56275000  0.57677000  1.0
  C  C62  1  0.03311000  0.05015000  0.97966000  1.0
  C  C63  1  0.46689000  0.44985000  0.47966000  1.0
  C  C64  1  0.96688000  0.94985000  0.02034000  1.0
  C  C65  1  0.53313000  0.55015000  0.52034000  1.0
  C  C66  1  0.36261000  0.96557000  0.89056000  1.0
  C  C67  1  0.13739000  0.53444000  0.39055000  1.0
  C  C68  1  0.63738000  0.03443000  0.10945000  1.0
  C  C69  1  0.86262000  0.46556000  0.60944000  1.0
  S  S70  1  0.16168000  0.30563000  0.92898000  1.0
  S  S71  1  0.33832000  0.19437000  0.42898000  1.0
  S  S72  1  0.83832000  0.69437000  0.07102000  1.0
  S  S73  1  0.66169000  0.80563000  0.57102000  1.0
  N  N74  1  0.81801000  0.10229000  0.76357000  1.0
  N  N75  1  0.68198000  0.39771000  0.26357000  1.0
  N  N76  1  0.18198000  0.89771000  0.23643000  1.0
  N  N77  1  0.31802000  0.60228000  0.73643000  1.0
  O  O78  1  0.30299000  0.40067000  0.90664000  1.0
  O  O79  1  0.19700000  0.09933000  0.40664000  1.0
  O  O80  1  0.69702000  0.59933000  0.09335000  1.0
  O  O81  1  0.80299000  0.90067000  0.59336000  1.0
  O  O82  1  0.10063000  0.30251000  0.03875000  1.0
  O  O83  1  0.39936000  0.19750000  0.53876000  1.0
  O  O84  1  0.89936000  0.69751000  0.96124000  1.0
  O  O85  1  0.60064000  0.80249000  0.46124000  1.0
  O  O86  1  0.33976000  0.64793000  0.94000000  1.0
  O  O87  1  0.16024000  0.85207000  0.44000000  1.0
  O  O88  1  0.66024000  0.35207000  0.05999000  1.0
  O  O89  1  0.83976000  0.14793000  0.55999000  1.0
  O  O90  1  0.29179000  0.48827000  0.12461000  1.0
  O  O91  1  0.20821000  0.01173000  0.62461000  1.0
  O  O92  1  0.70822000  0.51173000  0.87539000  1.0
  O  O93  1  0.79178000  0.98827000  0.37539000  1.0
  O  O94  1  0.97092000  0.31202000  0.86187000  1.0
  O  O95  1  0.52908000  0.18798000  0.36187000  1.0
  O  O96  1  0.02908000  0.68798000  0.13813000  1.0
  O  O97  1  0.47092000  0.81201000  0.63814000  1.0
