# generated using pymatgen
data_Zn2H23C27N2O13F3
_symmetry_space_group_name_H-M   'P 1'
_cell_length_a   9.71361000
_cell_length_b   11.05920000
_cell_length_c   11.16380000
_cell_angle_alpha   83.61730000
_cell_angle_beta   85.35090000
_cell_angle_gamma   81.65690000
_symmetry_Int_Tables_number   1
_chemical_formula_structural   Zn2H23C27N2O13F3
_chemical_formula_sum   'Zn2 H23 C27 N2 O13 F3'
_cell_volume   1176.64838911
_cell_formula_units_Z   1
loop_
 _symmetry_equiv_pos_site_id
 _symmetry_equiv_pos_as_xyz
  1  'x, y, z'
loop_
 _atom_site_type_symbol
 _atom_site_label
 _atom_site_symmetry_multiplicity
 _atom_site_fract_x
 _atom_site_fract_y
 _atom_site_fract_z
 _atom_site_occupancy
  Zn  Zn0  1  0.62848000  0.48657000  0.49347000  1.0
  Zn  Zn1  1  0.34239000  0.53482000  0.48287000  1.0
  H  H2  1  0.31190000  0.61972000  0.10748000  1.0
  H  H3  1  0.77576000  0.06331000  0.64668000  1.0
  H  H4  1  0.82743000  0.63264000  0.34655000  1.0
  H  H5  1  0.88091000  0.33393000  0.74277000  1.0
  H  H6  1  0.13703000  0.37031000  0.74160000  1.0
  H  H7  1  0.17891000  0.26150000  0.63156000  1.0
  H  H8  1  0.33055000  0.16296000  0.37884000  1.0
  H  H9  1  0.32581000  0.94045000  0.36781000  1.0
  H  H10  1  0.81059000  0.37412000  0.02320000  1.0
  H  H11  1  0.66585000  0.30872000  0.10041000  1.0
  H  H12  1  0.77017000  0.39014000  0.18153000  1.0
  H  H13  1  0.40635000  0.27501000  0.79203000  1.0
  H  H14  1  0.29137000  0.31525000  0.92121000  1.0
  H  H15  1  0.44029000  0.19906000  0.93815000  1.0
  H  H16  1  0.73861000  0.86461000  0.89136000  1.0
  H  H17  1  0.80678000  0.71958000  0.83647000  1.0
  H  H18  1  0.64729000  0.73431000  0.92970000  1.0
  H  H19  1  0.88600000  0.96882000  0.51375000  1.0
  H  H20  1  0.82444000  0.85678000  0.43501000  1.0
  H  H21  1  0.98683000  0.82203000  0.50730000  1.0
  H  H22  1  0.81869000  0.06259000  0.84841000  1.0
  H  H23  1  0.67126000  0.11567000  0.94464000  1.0
  H  H24  1  0.72232000  0.21319000  0.81537000  1.0
  C  C25  1  0.49578000  0.27096000  0.50544000  1.0
  C  C26  1  0.48918000  0.13667000  0.50698000  1.0
  C  C27  1  0.39931000  0.09508000  0.43273000  1.0
  C  C28  1  0.39784000  0.96985000  0.42513000  1.0
  C  C29  1  0.48818000  0.87913000  0.48924000  1.0
  C  C30  1  0.57495000  0.92141000  0.56453000  1.0
  C  C31  1  0.68198000  0.88069000  0.65984000  1.0
  C  C32  1  0.67689000  0.02731000  0.67251000  1.0
  C  C33  1  0.07120000  0.43986000  0.55842000  1.0
  C  C34  1  0.03721000  0.59055000  0.40966000  1.0
  C  C35  1  0.89652000  0.57478000  0.40815000  1.0
  C  C36  1  0.45218000  0.50217000  0.72233000  1.0
  C  C37  1  0.93318000  0.42143000  0.55749000  1.0
  C  C38  1  0.94725000  0.31864000  0.65991000  1.0
  C  C39  1  0.10491000  0.33976000  0.65925000  1.0
  C  C40  1  0.48539000  0.74602000  0.47976000  1.0
  C  C41  1  0.50557000  0.51841000  0.25305000  1.0
  C  C42  1  0.40381000  0.57928000  0.05578000  1.0
  C  C43  1  0.51644000  0.52838000  0.11729000  1.0
  C  C44  1  0.40046000  0.58443000  0.92613000  1.0
  C  C45  1  0.44147000  0.49032000  0.85814000  1.0
  C  C46  1  0.57375000  0.04582000  0.57474000  1.0
  C  C47  1  0.72679000  0.38576000  0.09461000  1.0
  C  C48  1  0.40040000  0.28662000  0.88911000  1.0
  C  C49  1  0.71116000  0.78127000  0.85905000  1.0
  C  C50  1  0.87990000  0.87004000  0.51404000  1.0
  C  C51  1  0.71419000  0.11711000  0.85053000  1.0
  N  N52  1  0.12752000  0.52629000  0.48503000  1.0
  N  N53  1  0.84258000  0.48810000  0.48491000  1.0
  O  O54  1  0.61699000  0.30372000  0.49438000  1.0
  O  O55  1  0.38048000  0.34200000  0.51207000  1.0
  O  O56  1  0.57340000  0.46776000  0.67553000  1.0
  O  O57  1  0.34265000  0.54034000  0.66651000  1.0
  O  O58  1  0.59891000  0.67457000  0.49600000  1.0
  O  O59  1  0.36996000  0.71456000  0.45651000  1.0
  O  O60  1  0.61743000  0.51390000  0.30672000  1.0
  O  O61  1  0.38349000  0.51584000  0.30353000  1.0
  O  O62  1  0.64194000  0.49913000  0.05673000  1.0
  O  O63  1  0.48673000  0.37542000  0.91387000  1.0
  O  O64  1  0.62652000  0.81095000  0.75743000  1.0
  O  O65  1  0.81521000  0.81889000  0.62336000  1.0
  O  O66  1  0.61972000  0.06647000  0.78504000  1.0
  F  F67  1  0.08638000  0.67675000  0.33106000  1.0
  F  F68  1  0.93293000  0.20328000  0.62622000  1.0
  F  F69  1  0.34987000  0.69686000  0.86990000  1.0
