# generated using pymatgen
data_Ag2H24C13S3(N3O2)2
_symmetry_space_group_name_H-M   'P 1'
_cell_length_a   8.10718000
_cell_length_b   8.12286000
_cell_length_c   16.96500000
_cell_angle_alpha   84.10450000
_cell_angle_beta   84.09300000
_cell_angle_gamma   66.64750000
_symmetry_Int_Tables_number   1
_chemical_formula_structural   Ag2H24C13S3(N3O2)2
_chemical_formula_sum   'Ag4 H48 C26 S6 N12 O8'
_cell_volume   1017.89284647
_cell_formula_units_Z   2
loop_
 _symmetry_equiv_pos_site_id
 _symmetry_equiv_pos_as_xyz
  1  'x, y, z'
loop_
 _atom_site_type_symbol
 _atom_site_label
 _atom_site_symmetry_multiplicity
 _atom_site_fract_x
 _atom_site_fract_y
 _atom_site_fract_z
 _atom_site_occupancy
  Ag  Ag0  1  0.21367000  0.16565000  0.73845000  1.0
  Ag  Ag1  1  0.83396000  0.78497000  0.76152000  1.0
  Ag  Ag2  1  0.78633000  0.83436000  0.26155000  1.0
  Ag  Ag3  1  0.16604000  0.21503000  0.23848000  1.0
  H  H4  1  0.36676000  0.79741000  0.84402000  1.0
  H  H5  1  0.20271000  0.63302000  0.65599000  1.0
  H  H6  1  0.63324000  0.20259000  0.15598000  1.0
  H  H7  1  0.79729000  0.36699000  0.34401000  1.0
  H  H8  1  0.85560000  0.83576000  0.57596000  1.0
  H  H9  1  0.16347000  0.14406000  0.92350000  1.0
  H  H10  1  0.14440000  0.16424000  0.42404000  1.0
  H  H11  1  0.83654000  0.85594000  0.07650000  1.0
  H  H12  1  0.37381000  0.27588000  0.58110000  1.0
  H  H13  1  0.72457000  0.62683000  0.91938000  1.0
  H  H14  1  0.62618000  0.72412000  0.41890000  1.0
  H  H15  1  0.27543000  0.37317000  0.08062000  1.0
  H  H16  1  0.57037000  0.45428000  0.83289000  1.0
  H  H17  1  0.54602000  0.42870000  0.66780000  1.0
  H  H18  1  0.42963000  0.54573000  0.16711000  1.0
  H  H19  1  0.45398000  0.57131000  0.33220000  1.0
  H  H20  1  0.63486000  0.58807000  0.75674000  1.0
  H  H21  1  0.41083000  0.36568000  0.74385000  1.0
  H  H22  1  0.36514000  0.41194000  0.24326000  1.0
  H  H23  1  0.58917000  0.63433000  0.25615000  1.0
  H  H24  1  0.79015000  0.97636000  0.43192000  1.0
  H  H25  1  0.02369000  0.20856000  0.06756000  1.0
  H  H26  1  0.20984000  0.02363000  0.56808000  1.0
  H  H27  1  0.97632000  0.79144000  0.93244000  1.0
  H  H28  1  0.88184000  0.10300000  0.47969000  1.0
  H  H29  1  0.89515000  0.11869000  0.01991000  1.0
  H  H30  1  0.11815000  0.89700000  0.52031000  1.0
  H  H31  1  0.10486000  0.88130000  0.98009000  1.0
  H  H32  1  0.60551000  0.35016000  0.47176000  1.0
  H  H33  1  0.64878000  0.39524000  0.02802000  1.0
  H  H34  1  0.39448000  0.64984000  0.52824000  1.0
  H  H35  1  0.35122000  0.60476000  0.97198000  1.0
  H  H36  1  0.49875000  0.21694000  0.44003000  1.0
  H  H37  1  0.78319000  0.49988000  0.06047000  1.0
  H  H38  1  0.50124000  0.78305000  0.55997000  1.0
  H  H39  1  0.21681000  0.50012000  0.93953000  1.0
  H  H40  1  0.73053000  0.59859000  0.62338000  1.0
  H  H41  1  0.40205000  0.26870000  0.87662000  1.0
  H  H42  1  0.26946000  0.40142000  0.37662000  1.0
  H  H43  1  0.59795000  0.73129000  0.12338000  1.0
  H  H44  1  0.83590000  0.35680000  0.63594000  1.0
  H  H45  1  0.64429000  0.16309000  0.86389000  1.0
  H  H46  1  0.16409000  0.64321000  0.36406000  1.0
  H  H47  1  0.35571000  0.83691000  0.13611000  1.0
  H  H48  1  0.81271000  0.46591000  0.53923000  1.0
  H  H49  1  0.53524000  0.18653000  0.96068000  1.0
  H  H50  1  0.18728000  0.53410000  0.46078000  1.0
  H  H51  1  0.46477000  0.81346000  0.03932000  1.0
  C  C52  1  0.24297000  0.75687000  0.74999000  1.0
  C  C53  1  0.75703000  0.24313000  0.25001000  1.0
  C  C54  1  0.52314000  0.54946000  0.78163000  1.0
  C  C55  1  0.45027000  0.47660000  0.71888000  1.0
  C  C56  1  0.47686000  0.45054000  0.21837000  1.0
  C  C57  1  0.54973000  0.52341000  0.28112000  1.0
  C  C58  1  0.76937000  0.05949000  0.48205000  1.0
  C  C59  1  0.93973000  0.23024000  0.01760000  1.0
  C  C60  1  0.23063000  0.94051000  0.51795000  1.0
  C  C61  1  0.06028000  0.76976000  0.98239000  1.0
  C  C62  1  0.58724000  0.22274000  0.48360000  1.0
  C  C63  1  0.77690000  0.41268000  0.01647000  1.0
  C  C64  1  0.41275000  0.77725000  0.51640000  1.0
  C  C65  1  0.22310000  0.58732000  0.98353000  1.0
  C  C66  1  0.60787000  0.04943000  0.60204000  1.0
  C  C67  1  0.95024000  0.39229000  0.89791000  1.0
  C  C68  1  0.39213000  0.95057000  0.39796000  1.0
  C  C69  1  0.04977000  0.60771000  0.10209000  1.0
  C  C70  1  0.02044000  0.48462000  0.60078000  1.0
  C  C71  1  0.51582000  0.97937000  0.89926000  1.0
  C  C72  1  0.97955000  0.51539000  0.39922000  1.0
  C  C73  1  0.48419000  0.02063000  0.10074000  1.0
  C  C74  1  0.83703000  0.47730000  0.60062000  1.0
  C  C75  1  0.52354000  0.16231000  0.89933000  1.0
  C  C76  1  0.16296000  0.52271000  0.39939000  1.0
  C  C77  1  0.47647000  0.83769000  0.10067000  1.0
  S  S78  1  0.05068000  0.94889000  0.74983000  1.0
  S  S79  1  0.94932000  0.05111000  0.25017000  1.0
  S  S80  1  0.54509000  0.97152000  0.69353000  1.0
  S  S81  1  0.02853000  0.45475000  0.80644000  1.0
  S  S82  1  0.45490000  0.02848000  0.30647000  1.0
  S  S83  1  0.97148000  0.54525000  0.19356000  1.0
  N  N84  1  0.36573000  0.70871000  0.80425000  1.0
  N  N85  1  0.29135000  0.63399000  0.69587000  1.0
  N  N86  1  0.63427000  0.29129000  0.19575000  1.0
  N  N87  1  0.70865000  0.36601000  0.30413000  1.0
  N  N88  1  0.75646000  0.95871000  0.55779000  1.0
  N  N89  1  0.04032000  0.24295000  0.94174000  1.0
  N  N90  1  0.24353000  0.04130000  0.44221000  1.0
  N  N91  1  0.95968000  0.75705000  0.05826000  1.0
  N  N92  1  0.51068000  0.20789000  0.56495000  1.0
  N  N93  1  0.79233000  0.49010000  0.93538000  1.0
  N  N94  1  0.48931000  0.79211000  0.43505000  1.0
  N  N95  1  0.20768000  0.50989000  0.06462000  1.0
  O  O96  1  0.15562000  0.33532000  0.60359000  1.0
  O  O97  1  0.66532000  0.84427000  0.89676000  1.0
  O  O98  1  0.84437000  0.66468000  0.39641000  1.0
  O  O99  1  0.33468000  0.15572000  0.10324000  1.0
  O  O100  1  0.03303000  0.63729000  0.59737000  1.0
  O  O101  1  0.36277000  0.96707000  0.90242000  1.0
  O  O102  1  0.96697000  0.36272000  0.40263000  1.0
  O  O103  1  0.63723000  0.03292000  0.09758000  1.0
