# generated using pymatgen
data_H12PbC17N2(ClO)2
_symmetry_space_group_name_H-M   'P 1'
_cell_length_a   8.35250000
_cell_length_b   9.45320000
_cell_length_c   10.75810000
_cell_angle_alpha   95.55790000
_cell_angle_beta   91.83860000
_cell_angle_gamma   92.29350000
_symmetry_Int_Tables_number   1
_chemical_formula_structural   H12PbC17N2(ClO)2
_chemical_formula_sum   'H24 Pb2 C34 N4 Cl4 O4'
_cell_volume   844.21345830
_cell_formula_units_Z   2
loop_
 _symmetry_equiv_pos_site_id
 _symmetry_equiv_pos_as_xyz
  1  'x, y, z'
loop_
 _atom_site_type_symbol
 _atom_site_label
 _atom_site_symmetry_multiplicity
 _atom_site_fract_x
 _atom_site_fract_y
 _atom_site_fract_z
 _atom_site_occupancy
  H  H0  1  0.43150000  0.74207000  0.68580000  1.0
  H  H1  1  0.56856000  0.25792000  0.31405000  1.0
  H  H2  1  0.48736000  0.49491000  0.74636000  1.0
  H  H3  1  0.51260000  0.50515000  0.25368000  1.0
  H  H4  1  0.35904000  0.28612000  0.61666000  1.0
  H  H5  1  0.64097000  0.71387000  0.38343000  1.0
  H  H6  1  0.17670000  0.32421000  0.43753000  1.0
  H  H7  1  0.82344000  0.67567000  0.56246000  1.0
  H  H8  1  0.06441000  0.36357000  0.28143000  1.0
  H  H9  1  0.93557000  0.63633000  0.71849000  1.0
  H  H10  1  0.89879000  0.42352000  0.10067000  1.0
  H  H11  1  0.10121000  0.57645000  0.89924000  1.0
  H  H12  1  0.85088000  0.68203000  0.07658000  1.0
  H  H13  1  0.14903000  0.31795000  0.92346000  1.0
  H  H14  1  0.97342000  0.86689000  0.23838000  1.0
  H  H15  1  0.02642000  0.13303000  0.76174000  1.0
  H  H16  1  0.73160000  0.07709000  0.18985000  1.0
  H  H17  1  0.26834000  0.92305000  0.81014000  1.0
  H  H18  1  0.87304000  0.05492000  0.98972000  1.0
  H  H19  1  0.12695000  0.94522000  0.01030000  1.0
  H  H20  1  0.79672000  0.85372000  0.82794000  1.0
  H  H21  1  0.20346000  0.14631000  0.17214000  1.0
  H  H22  1  0.57627000  0.67999000  0.86907000  1.0
  H  H23  1  0.42383000  0.32008000  0.13095000  1.0
  Pb  Pb24  1  0.24358000  0.91684000  0.47765000  1.0
  Pb  Pb25  1  0.75634000  0.08320000  0.52237000  1.0
  C  C26  1  0.37788000  0.64564000  0.63404000  1.0
  C  C27  1  0.62216000  0.35434000  0.36587000  1.0
  C  C28  1  0.40835000  0.50993000  0.66666667  1.0
  C  C29  1  0.59167000  0.49006000  0.33339000  1.0
  C  C30  1  0.33579000  0.39331000  0.59424000  1.0
  C  C31  1  0.66424000  0.60665000  0.40579000  1.0
  C  C32  1  0.23581000  0.41547000  0.49279000  1.0
  C  C33  1  0.76425000  0.58445000  0.50720000  1.0
  C  C34  1  0.21169000  0.55478000  0.46440000  1.0
  C  C35  1  0.78833000  0.44512000  0.53555000  1.0
  C  C36  1  0.10953000  0.58450000  0.35553000  1.0
  C  C37  1  0.89044000  0.41539000  0.64444000  1.0
  C  C38  1  0.04464000  0.47466000  0.26914000  1.0
  C  C39  1  0.95534000  0.52524000  0.73081000  1.0
  C  C40  1  0.95088000  0.50817000  0.16772000  1.0
  C  C41  1  0.04909000  0.49177000  0.83223000  1.0
  C  C42  1  0.92369000  0.65046000  0.15415000  1.0
  C  C43  1  0.07624000  0.34949000  0.84587000  1.0
  C  C44  1  0.99133000  0.75382000  0.24379000  1.0
  C  C45  1  0.00857000  0.24611000  0.75628000  1.0
  C  C46  1  0.49640000  0.91911000  0.26848000  1.0
  C  C47  1  0.50360000  0.08094000  0.73153000  1.0
  C  C48  1  0.57340000  0.89441000  0.14364000  1.0
  C  C49  1  0.42663000  0.10566000  0.85636000  1.0
  C  C50  1  0.69803000  0.99069000  0.11813000  1.0
  C  C51  1  0.30196000  0.00941000  0.88187000  1.0
  C  C52  1  0.77820000  0.97728000  0.00657000  1.0
  C  C53  1  0.22182000  0.02283000  0.99345000  1.0
  C  C54  1  0.73546000  0.86478000  0.91623000  1.0
  C  C55  1  0.26465000  0.13528000  0.08382000  1.0
  C  C56  1  0.61206000  0.76790000  0.93853000  1.0
  C  C57  1  0.38803000  0.23217000  0.06149000  1.0
  C  C58  1  0.53068000  0.78268000  0.05028000  1.0
  C  C59  1  0.46935000  0.21741000  0.94971000  1.0
  N  N60  1  0.28265000  0.66717000  0.53538000  1.0
  N  N61  1  0.71736000  0.33276000  0.46453000  1.0
  N  N62  1  0.08141000  0.72196000  0.34174000  1.0
  N  N63  1  0.91853000  0.27794000  0.65829000  1.0
  Cl  Cl64  1  0.37301000  0.65957000  0.06254000  1.0
  Cl  Cl65  1  0.62696000  0.34057000  0.93741000  1.0
  Cl  Cl66  1  0.97969000  0.89061000  0.65057000  1.0
  Cl  Cl67  1  0.02021000  0.10931000  0.34949000  1.0
  O  O68  1  0.40686000  0.81898000  0.30352000  1.0
  O  O69  1  0.59304000  0.18111000  0.69646000  1.0
  O  O70  1  0.52649000  0.03739000  0.33395000  1.0
  O  O71  1  0.47357000  0.96263000  0.66609000  1.0
