# generated using pymatgen
data_Pr2H24(CO)15
_symmetry_space_group_name_H-M   'P 1'
_cell_length_a   8.87058000
_cell_length_b   9.81638000
_cell_length_c   16.17570000
_cell_angle_alpha   103.85300000
_cell_angle_beta   103.63400000
_cell_angle_gamma   98.29210000
_symmetry_Int_Tables_number   1
_chemical_formula_structural   Pr2H24(CO)15
_chemical_formula_sum   'Pr4 H48 C30 O30'
_cell_volume   1298.62498580
_cell_formula_units_Z   2
loop_
 _symmetry_equiv_pos_site_id
 _symmetry_equiv_pos_as_xyz
  1  'x, y, z'
loop_
 _atom_site_type_symbol
 _atom_site_label
 _atom_site_symmetry_multiplicity
 _atom_site_fract_x
 _atom_site_fract_y
 _atom_site_fract_z
 _atom_site_occupancy
  Pr  Pr0  1  0.18802000  0.95372000  0.08987000  1.0
  Pr  Pr1  1  0.81198000  0.04629000  0.91013000  1.0
  Pr  Pr2  1  0.35182000  0.92307000  0.36556000  1.0
  Pr  Pr3  1  0.64817000  0.07693000  0.63444000  1.0
  H  H4  1  0.75746000  0.92776000  0.19900000  1.0
  H  H5  1  0.24254000  0.07224000  0.80100000  1.0
  H  H6  1  0.69984000  0.95077000  0.29841000  1.0
  H  H7  1  0.30015000  0.04923000  0.70159000  1.0
  H  H8  1  0.73442000  0.21260000  0.31944000  1.0
  H  H9  1  0.26558000  0.78740000  0.68056000  1.0
  H  H10  1  0.77775000  0.19660000  0.21688000  1.0
  H  H11  1  0.22225000  0.80340000  0.78312000  1.0
  H  H12  1  0.02360000  0.27701000  0.34914000  1.0
  H  H13  1  0.97640000  0.72299000  0.65086000  1.0
  H  H14  1  0.97467000  0.11490000  0.37478000  1.0
  H  H15  1  0.02532000  0.88510000  0.62522000  1.0
  H  H16  1  0.88163000  0.56478000  0.21071000  1.0
  H  H17  1  0.11837000  0.43522000  0.78929000  1.0
  H  H18  1  0.86770000  0.52954000  0.09614000  1.0
  H  H19  1  0.13230000  0.47047000  0.90386000  1.0
  H  H20  1  0.92994000  0.32254000  0.14739000  1.0
  H  H21  1  0.07006000  0.67746000  0.85260000  1.0
  H  H22  1  0.09741000  0.43191000  0.23389000  1.0
  H  H23  1  0.90259000  0.56809000  0.76611000  1.0
  H  H24  1  0.06955000  0.40556000  0.03788000  1.0
  H  H25  1  0.93045000  0.59444000  0.96212000  1.0
  H  H26  1  0.24315000  0.47661000  0.13176000  1.0
  H  H27  1  0.75684000  0.52339000  0.86824000  1.0
  H  H28  1  0.77781000  0.73776000  0.52003000  1.0
  H  H29  1  0.22219000  0.26224000  0.47997000  1.0
  H  H30  1  0.88797000  0.86416000  0.48455000  1.0
  H  H31  1  0.11203000  0.13584000  0.51544000  1.0
  H  H32  1  0.80988000  0.67272000  0.33040000  1.0
  H  H33  1  0.19012000  0.32728000  0.66960000  1.0
  H  H34  1  0.74461000  0.54674000  0.38253000  1.0
  H  H35  1  0.25539000  0.45326000  0.61747000  1.0
  H  H36  1  0.02683000  0.61912000  0.49366000  1.0
  H  H37  1  0.97318000  0.38088000  0.50634000  1.0
  H  H38  1  0.01629000  0.53088000  0.38401000  1.0
  H  H39  1  0.98372000  0.46911000  0.61599000  1.0
  H  H40  1  0.34977000  0.96148000  0.92964000  1.0
  H  H41  1  0.65022000  0.03852000  0.07036000  1.0
  H  H42  1  0.15990000  0.92898000  0.89576000  1.0
  H  H43  1  0.84010000  0.07102000  0.10425000  1.0
  H  H44  1  0.35494000  0.73898000  0.00551000  1.0
  H  H45  1  0.64505000  0.26103000  0.99449000  1.0
  H  H46  1  0.34076000  0.68561000  0.08754000  1.0
  H  H47  1  0.65925000  0.31439000  0.91246000  1.0
  H  H48  1  0.46987000  0.23608000  0.37275000  1.0
  H  H49  1  0.53013000  0.76392000  0.62725000  1.0
  H  H50  1  0.60493000  0.21605000  0.45220000  1.0
  H  H51  1  0.39507000  0.78395000  0.54780000  1.0
  C  C52  1  0.52890000  0.97463000  0.18856000  1.0
  C  C53  1  0.47110000  0.02538000  0.81144000  1.0
  C  C54  1  0.69830000  0.99304000  0.24145000  1.0
  C  C55  1  0.30170000  0.00696000  0.75855000  1.0
  C  C56  1  0.78890000  0.15049000  0.27301000  1.0
  C  C57  1  0.21110000  0.84951000  0.72700000  1.0
  C  C58  1  0.96296000  0.16316000  0.31953000  1.0
  C  C59  1  0.03704000  0.83684000  0.68047000  1.0
  C  C60  1  0.06072000  0.09588000  0.26205000  1.0
  C  C61  1  0.93928000  0.90412000  0.73796000  1.0
  C  C62  1  0.07221000  0.68636000  0.18340000  1.0
  C  C63  1  0.92779000  0.31364000  0.81660000  1.0
  C  C64  1  0.95036000  0.54806000  0.16191000  1.0
  C  C65  1  0.04964000  0.45195000  0.83809000  1.0
  C  C66  1  0.02535000  0.41832000  0.16595000  1.0
  C  C67  1  0.97464000  0.58169000  0.83405000  1.0
  C  C68  1  0.13148000  0.39593000  0.10292000  1.0
  C  C69  1  0.86852000  0.60407000  0.89708000  1.0
  C  C70  1  0.16699000  0.24837000  0.08997000  1.0
  C  C71  1  0.83301000  0.75163000  0.91003000  1.0
  C  C72  1  0.64336000  0.82064000  0.42527000  1.0
  C  C73  1  0.35664000  0.17936000  0.57472000  1.0
  C  C74  1  0.79033000  0.76864000  0.46044000  1.0
  C  C75  1  0.20967000  0.23136000  0.53956000  1.0
  C  C76  1  0.82814000  0.64850000  0.39446000  1.0
  C  C77  1  0.17187000  0.35150000  0.60554000  1.0
  C  C78  1  0.99847000  0.63027000  0.42586000  1.0
  C  C79  1  0.00153000  0.36972000  0.57413000  1.0
  C  C80  1  0.12520000  0.74985000  0.42322000  1.0
  C  C81  1  0.87481000  0.25015000  0.57678000  1.0
  O  O82  1  0.41361000  0.93908000  0.21971000  1.0
  O  O83  1  0.58639000  0.06092000  0.78029000  1.0
  O  O84  1  0.49786000  0.99309000  0.11111000  1.0
  O  O85  1  0.50214000  0.00692000  0.88889000  1.0
  O  O86  1  0.19536000  0.07662000  0.30060000  1.0
  O  O87  1  0.80464000  0.92338000  0.69940000  1.0
  O  O88  1  0.00889000  0.06406000  0.17783000  1.0
  O  O89  1  0.99111000  0.93594000  0.82217000  1.0
  O  O90  1  0.04477000  0.76983000  0.13492000  1.0
  O  O91  1  0.95523000  0.23017000  0.86508000  1.0
  O  O92  1  0.19501000  0.71059000  0.24839000  1.0
  O  O93  1  0.80499000  0.28941000  0.75161000  1.0
  O  O94  1  0.06528000  0.14279000  0.02911000  1.0
  O  O95  1  0.93472000  0.85722000  0.97090000  1.0
  O  O96  1  0.28729000  0.22410000  0.13973000  1.0
  O  O97  1  0.71270000  0.77590000  0.86027000  1.0
  O  O98  1  0.55350000  0.76481000  0.34728000  1.0
  O  O99  1  0.44650000  0.23519000  0.65272000  1.0
  O  O100  1  0.61211000  0.92851000  0.47765000  1.0
  O  O101  1  0.38789000  0.07148000  0.52235000  1.0
  O  O102  1  0.08623000  0.85177000  0.39309000  1.0
  O  O103  1  0.91377000  0.14823000  0.60691000  1.0
  O  O104  1  0.27177000  0.74072000  0.44762000  1.0
  O  O105  1  0.72824000  0.25928000  0.55238000  1.0
  O  O106  1  0.25087000  0.92788000  0.94531000  1.0
  O  O107  1  0.74913000  0.07212000  0.05469000  1.0
  O  O108  1  0.27961000  0.70934000  0.03640000  1.0
  O  O109  1  0.72039000  0.29067000  0.96360000  1.0
  O  O110  1  0.53071000  0.16843000  0.39133000  1.0
  O  O111  1  0.46930000  0.83157000  0.60867000  1.0
