# generated using pymatgen
data_CuH26C20(NO3)2
_symmetry_space_group_name_H-M   'P 1'
_cell_length_a   9.70037000
_cell_length_b   10.94520000
_cell_length_c   11.11580000
_cell_angle_alpha   105.77200000
_cell_angle_beta   96.75410000
_cell_angle_gamma   108.29600000
_symmetry_Int_Tables_number   1
_chemical_formula_structural   CuH26C20(NO3)2
_chemical_formula_sum   'Cu2 H52 C40 N4 O12'
_cell_volume   1051.40966736
_cell_formula_units_Z   2
loop_
 _symmetry_equiv_pos_site_id
 _symmetry_equiv_pos_as_xyz
  1  'x, y, z'
loop_
 _atom_site_type_symbol
 _atom_site_label
 _atom_site_symmetry_multiplicity
 _atom_site_fract_x
 _atom_site_fract_y
 _atom_site_fract_z
 _atom_site_occupancy
  Cu  Cu0  1  0.78614000  0.50530000  0.39097000  1.0
  Cu  Cu1  1  0.21386000  0.49470000  0.60903000  1.0
  H  H2  1  0.98983000  0.27320000  0.68747000  1.0
  H  H3  1  0.01017000  0.72680000  0.31253000  1.0
  H  H4  1  0.75558000  0.32869000  0.84015000  1.0
  H  H5  1  0.24442000  0.67130000  0.15985000  1.0
  H  H6  1  0.70382000  0.42579000  0.74973000  1.0
  H  H7  1  0.29618000  0.57421000  0.25027000  1.0
  H  H8  1  0.89587000  0.45800000  0.80802000  1.0
  H  H9  1  0.10414000  0.54200000  0.19198000  1.0
  H  H10  1  0.63684000  0.08302000  0.50170000  1.0
  H  H11  1  0.36316000  0.91698000  0.49830000  1.0
  H  H12  1  0.54967000  0.20138000  0.56045000  1.0
  H  H13  1  0.45033000  0.79862000  0.43954000  1.0
  H  H14  1  0.59616000  0.10776000  0.65677000  1.0
  H  H15  1  0.40384000  0.89224000  0.34323000  1.0
  H  H16  1  0.70969000  0.58836000  0.97400000  1.0
  H  H17  1  0.29031000  0.41164000  0.02600000  1.0
  H  H18  1  0.88647000  0.69666000  0.07785000  1.0
  H  H19  1  0.11353000  0.30334000  0.92215000  1.0
  H  H20  1  0.78333000  0.76199000  0.98443000  1.0
  H  H21  1  0.21667000  0.23800000  0.01557000  1.0
  H  H22  1  0.77986000  0.94678000  0.18456000  1.0
  H  H23  1  0.22014000  0.05321000  0.81544000  1.0
  H  H24  1  0.89427000  0.89241000  0.27957000  1.0
  H  H25  1  0.10573000  0.10759000  0.72042000  1.0
  H  H26  1  0.72230000  0.89961000  0.31672000  1.0
  H  H27  1  0.27770000  0.10039000  0.68327000  1.0
  H  H28  1  0.60716000  0.50206000  0.59130000  1.0
  H  H29  1  0.39284000  0.49794000  0.40870000  1.0
  H  H30  1  0.55898000  0.66907000  0.76337000  1.0
  H  H31  1  0.44102000  0.33094000  0.23663000  1.0
  H  H32  1  0.84413000  0.98770000  0.64646000  1.0
  H  H33  1  0.15587000  0.01231000  0.35354000  1.0
  H  H34  1  0.88945000  0.80463000  0.48343000  1.0
  H  H35  1  0.11055000  0.19537000  0.51657000  1.0
  H  H36  1  0.62419000  0.01009000  0.78406000  1.0
  H  H37  1  0.37581000  0.98990000  0.21593000  1.0
  H  H38  1  0.59754000  0.90161000  0.87848000  1.0
  H  H39  1  0.40247000  0.09839000  0.12152000  1.0
  H  H40  1  0.89721000  0.10019000  0.86739000  1.0
  H  H41  1  0.10279000  0.89981000  0.13261000  1.0
  H  H42  1  0.88029000  0.98813000  0.95743000  1.0
  H  H43  1  0.11971000  0.01188000  0.04258000  1.0
  H  H44  1  0.60603000  0.16877000  0.94268000  1.0
  H  H45  1  0.39397000  0.83123000  0.05732000  1.0
  H  H46  1  0.60763000  0.35143000  0.12694000  1.0
  H  H47  1  0.39237000  0.64857000  0.87306000  1.0
  H  H48  1  0.01320000  0.17641000  0.15832000  1.0
  H  H49  1  0.98680000  0.82360000  0.84169000  1.0
  H  H50  1  0.98958000  0.35435000  0.34104000  1.0
  H  H51  1  0.01041000  0.64565000  0.65897000  1.0
  H  H52  1  0.48562000  0.64564000  0.12539000  1.0
  H  H53  1  0.51437000  0.35436000  0.87461000  1.0
  C  C54  1  0.83476000  0.34505000  0.54880000  1.0
  C  C55  1  0.16525000  0.65495000  0.45121000  1.0
  C  C56  1  0.78497000  0.27125000  0.64604000  1.0
  C  C57  1  0.21503000  0.72875000  0.35396000  1.0
  C  C58  1  0.78465000  0.37835000  0.76826000  1.0
  C  C59  1  0.21535000  0.62165000  0.23174000  1.0
  C  C60  1  0.63234000  0.15904000  0.58754000  1.0
  C  C61  1  0.36766000  0.84096000  0.41245000  1.0
  C  C62  1  0.68067000  0.62873000  0.22425000  1.0
  C  C63  1  0.31933000  0.37127000  0.77575000  1.0
  C  C64  1  0.69607000  0.72965000  0.14809000  1.0
  C  C65  1  0.30393000  0.27035000  0.85191000  1.0
  C  C66  1  0.77449000  0.69164000  0.03974000  1.0
  C  C67  1  0.22551000  0.30836000  0.96026000  1.0
  C  C68  1  0.77891000  0.87596000  0.23833000  1.0
  C  C69  1  0.22109000  0.12403000  0.76167000  1.0
  C  C70  1  0.65785000  0.61052000  0.60680000  1.0
  C  C71  1  0.34216000  0.38948000  0.39320000  1.0
  C  C72  1  0.63156000  0.70600000  0.70335000  1.0
  C  C73  1  0.36845000  0.29400000  0.29665000  1.0
  C  C74  1  0.69858000  0.84466000  0.72134000  1.0
  C  C75  1  0.30142000  0.15535000  0.27866000  1.0
  C  C76  1  0.79136000  0.88113000  0.63909000  1.0
  C  C77  1  0.20864000  0.11888000  0.36091000  1.0
  C  C78  1  0.81491000  0.78023000  0.54644000  1.0
  C  C79  1  0.18509000  0.21977000  0.45356000  1.0
  C  C80  1  0.67570000  0.95095000  0.82693000  1.0
  C  C81  1  0.32430000  0.04905000  0.17307000  1.0
  C  C82  1  0.82354000  0.04764000  0.92059000  1.0
  C  C83  1  0.17646000  0.95236000  0.07941000  1.0
  C  C84  1  0.81129000  0.15451000  0.03248000  1.0
  C  C85  1  0.18870000  0.84549000  0.96752000  1.0
  C  C86  1  0.69591000  0.20534000  0.02710000  1.0
  C  C87  1  0.30409000  0.79466000  0.97290000  1.0
  C  C88  1  0.69432000  0.30821000  0.13219000  1.0
  C  C89  1  0.30568000  0.69179000  0.86781000  1.0
  C  C90  1  0.92008000  0.21098000  0.14707000  1.0
  C  C91  1  0.07992000  0.78902000  0.85293000  1.0
  C  C92  1  0.91004000  0.31168000  0.24930000  1.0
  C  C93  1  0.08996000  0.68832000  0.75070000  1.0
  N  N94  1  0.74858000  0.64652000  0.52963000  1.0
  N  N95  1  0.25143000  0.35348000  0.47037000  1.0
  N  N96  1  0.79826000  0.35963000  0.24235000  1.0
  N  N97  1  0.20173000  0.64037000  0.75765000  1.0
  O  O98  1  0.73616000  0.37998000  0.49333000  1.0
  O  O99  1  0.26383000  0.62002000  0.50667000  1.0
  O  O100  1  0.96485000  0.36809000  0.53304000  1.0
  O  O101  1  0.03515000  0.63192000  0.46696000  1.0
  O  O102  1  0.88788000  0.20838000  0.67594000  1.0
  O  O103  1  0.11212000  0.79162000  0.32405000  1.0
  O  O104  1  0.80309000  0.62474000  0.27905000  1.0
  O  O105  1  0.19690000  0.37526000  0.72095000  1.0
  O  O106  1  0.55236000  0.55793000  0.22748000  1.0
  O  O107  1  0.44765000  0.44207000  0.77252000  1.0
  O  O108  1  0.54806000  0.71622000  0.09457000  1.0
  O  O109  1  0.45194000  0.28378000  0.90543000  1.0
