# generated using pymatgen
data_ZnH10C12N4O9
_symmetry_space_group_name_H-M   'P 1'
_cell_length_a   7.68346000
_cell_length_b   9.72705000
_cell_length_c   10.90940000
_cell_angle_alpha   67.86410000
_cell_angle_beta   85.03190000
_cell_angle_gamma   67.21390000
_symmetry_Int_Tables_number   1
_chemical_formula_structural   ZnH10C12N4O9
_chemical_formula_sum   'Zn2 H20 C24 N8 O18'
_cell_volume   694.61978674
_cell_formula_units_Z   2
loop_
 _symmetry_equiv_pos_site_id
 _symmetry_equiv_pos_as_xyz
  1  'x, y, z'
loop_
 _atom_site_type_symbol
 _atom_site_label
 _atom_site_symmetry_multiplicity
 _atom_site_fract_x
 _atom_site_fract_y
 _atom_site_fract_z
 _atom_site_occupancy
  Zn  Zn0  1  0.34221000  0.42133000  0.43849000  1.0
  Zn  Zn1  1  0.65779000  0.57867000  0.56151000  1.0
  H  H2  1  0.88344000  0.86497000  0.32341000  1.0
  H  H3  1  0.11656000  0.13503000  0.67659000  1.0
  H  H4  1  0.43369000  0.63488000  0.21748000  1.0
  H  H5  1  0.56631000  0.36512000  0.78252000  1.0
  H  H6  1  0.29256000  0.57973000  0.17732000  1.0
  H  H7  1  0.70744000  0.42028000  0.82268000  1.0
  H  H8  1  0.14891000  0.93446000  0.06475000  1.0
  H  H9  1  0.85109000  0.06554000  0.93525000  1.0
  H  H10  1  0.15013000  0.40517000  0.66189000  1.0
  H  H11  1  0.84988000  0.59483000  0.33811000  1.0
  H  H12  1  0.34882000  0.25638000  0.69985000  1.0
  H  H13  1  0.65118000  0.74362000  0.30015000  1.0
  H  H14  1  0.30095000  0.00561000  0.42503000  1.0
  H  H15  1  0.69905000  0.99439000  0.57498000  1.0
  H  H16  1  0.55533000  0.29083000  0.14401000  1.0
  H  H17  1  0.44467000  0.70917000  0.85599000  1.0
  H  H18  1  0.78115000  0.36948000  0.20373000  1.0
  H  H19  1  0.21885000  0.63052000  0.79627000  1.0
  H  H20  1  0.06636000  0.41036000  0.90293000  1.0
  H  H21  1  0.93364000  0.58964000  0.09707000  1.0
  C  C22  1  0.23758000  0.74586000  0.44012000  1.0
  C  C23  1  0.76241000  0.25414000  0.55988000  1.0
  C  C24  1  0.10582000  0.91862000  0.37898000  1.0
  C  C25  1  0.89418000  0.08138000  0.62102000  1.0
  C  C26  1  0.92990000  0.95914000  0.31949000  1.0
  C  C27  1  0.07010000  0.04086000  0.68051000  1.0
  C  C28  1  0.16442000  0.03844000  0.37735000  1.0
  C  C29  1  0.83558000  0.96156000  0.62265000  1.0
  C  C30  1  0.81526000  0.12201000  0.25621000  1.0
  C  C31  1  0.18474000  0.87799000  0.74379000  1.0
  C  C32  1  0.11105000  0.32721000  0.31833000  1.0
  C  C33  1  0.88896000  0.67279000  0.68167000  1.0
  C  C34  1  0.04809000  0.20065000  0.31487000  1.0
  C  C35  1  0.95191000  0.79935000  0.68513000  1.0
  C  C36  1  0.87280000  0.24340000  0.25314000  1.0
  C  C37  1  0.12720000  0.75660000  0.74686000  1.0
  C  C38  1  0.41766000  0.10870000  0.12142000  1.0
  C  C39  1  0.58234000  0.89130000  0.87858000  1.0
  C  C40  1  0.29862000  0.27513000  0.04362000  1.0
  C  C41  1  0.70138000  0.72487000  0.95638000  1.0
  C  C42  1  0.07744000  0.18018000  0.98689000  1.0
  C  C43  1  0.92257000  0.81981000  0.01311000  1.0
  C  C44  1  0.36514000  0.97847000  0.12512000  1.0
  C  C45  1  0.63487000  0.02153000  0.87488000  1.0
  N  N46  1  0.19442000  0.02490000  0.05958000  1.0
  N  N47  1  0.80558000  0.97510000  0.94042000  1.0
  N  N48  1  0.63959000  0.16962000  0.19118000  1.0
  N  N49  1  0.36041000  0.83038000  0.80882000  1.0
  N  N50  1  0.58121000  0.06363000  0.18662000  1.0
  N  N51  1  0.41879000  0.93636000  0.81338000  1.0
  N  N52  1  0.13679000  0.29903000  0.97800000  1.0
  N  N53  1  0.86321000  0.70097000  0.02200000  1.0
  O  O54  1  0.18487000  0.64316000  0.42664000  1.0
  O  O55  1  0.81512000  0.35684000  0.57336000  1.0
  O  O56  1  0.39046000  0.71801000  0.49818000  1.0
  O  O57  1  0.60954000  0.28198000  0.50182000  1.0
  O  O58  1  0.41076000  0.53701000  0.23187000  1.0
  O  O59  1  0.58924000  0.46299000  0.76813000  1.0
  O  O60  1  0.26949000  0.27683000  0.38166000  1.0
  O  O61  1  0.73051000  0.72317000  0.61834000  1.0
  O  O62  1  0.00547000  0.47436000  0.26084000  1.0
  O  O63  1  0.99452000  0.52564000  0.73916000  1.0
  O  O64  1  0.33747000  0.39191000  0.03333000  1.0
  O  O65  1  0.66253000  0.60809000  0.96667000  1.0
  O  O66  1  0.46191000  0.83161000  0.18239000  1.0
  O  O67  1  0.53809000  0.16838000  0.81762000  1.0
  O  O68  1  0.92423000  0.21091000  0.93154000  1.0
  O  O69  1  0.07577000  0.78909000  0.06846000  1.0
  O  O70  1  0.24653000  0.32717000  0.62836000  1.0
  O  O71  1  0.75347000  0.67283000  0.37164000  1.0
