# generated using pymatgen
data_Er2CuH26C22(NO11)2
_symmetry_space_group_name_H-M   'P 1'
_cell_length_a   6.24124000
_cell_length_b   8.77446000
_cell_length_c   13.45030000
_cell_angle_alpha   88.02240000
_cell_angle_beta   85.68850000
_cell_angle_gamma   88.15070000
_symmetry_Int_Tables_number   1
_chemical_formula_structural   Er2CuH26C22(NO11)2
_chemical_formula_sum   'Er2 Cu1 H26 C22 N2 O22'
_cell_volume   733.73814683
_cell_formula_units_Z   1
loop_
 _symmetry_equiv_pos_site_id
 _symmetry_equiv_pos_as_xyz
  1  'x, y, z'
loop_
 _atom_site_type_symbol
 _atom_site_label
 _atom_site_symmetry_multiplicity
 _atom_site_fract_x
 _atom_site_fract_y
 _atom_site_fract_z
 _atom_site_occupancy
  Er  Er0  1  0.39229000  0.66468000  0.10211000  1.0
  Er  Er1  1  0.60771000  0.33532000  0.89789000  1.0
  Cu  Cu2  1  0.99999000  0.00000000  0.50000000  1.0
  H  H3  1  0.07561000  0.78514000  0.24504000  1.0
  H  H4  1  0.92438000  0.21486000  0.75496000  1.0
  H  H5  1  0.94150000  0.73495000  0.15340000  1.0
  H  H6  1  0.05850000  0.26506000  0.84660000  1.0
  H  H7  1  0.58265000  0.91559000  0.19265000  1.0
  H  H8  1  0.41735000  0.08442000  0.80735000  1.0
  H  H9  1  0.62569000  0.96911000  0.07976000  1.0
  H  H10  1  0.37432000  0.03090000  0.92024000  1.0
  H  H11  1  0.76525000  0.53229000  0.21116000  1.0
  H  H12  1  0.23476000  0.46771000  0.78884000  1.0
  H  H13  1  0.81535000  0.48837000  0.09732000  1.0
  H  H14  1  0.18466000  0.51163000  0.90268000  1.0
  H  H15  1  0.28778000  0.59138000  0.52793000  1.0
  H  H16  1  0.71221000  0.40861000  0.47207000  1.0
  H  H17  1  0.53669000  0.58239000  0.66754000  1.0
  H  H18  1  0.46330000  0.41760000  0.33245000  1.0
  H  H19  1  0.85202000  0.75352000  0.65366000  1.0
  H  H20  1  0.14796000  0.24648000  0.34635000  1.0
  H  H21  1  0.93046000  0.04319000  0.16378000  1.0
  H  H22  1  0.06954000  0.95681000  0.83622000  1.0
  H  H23  1  0.89113000  0.22697000  0.21216000  1.0
  H  H24  1  0.10887000  0.77303000  0.78784000  1.0
  H  H25  1  0.27807000  0.13569000  0.19704000  1.0
  H  H26  1  0.72193000  0.86432000  0.80296000  1.0
  H  H27  1  0.26929000  0.12274000  0.06734000  1.0
  H  H28  1  0.73071000  0.87726000  0.93267000  1.0
  C  C29  1  0.64298000  0.85709000  0.44248000  1.0
  C  C30  1  0.35700000  0.14291000  0.55752000  1.0
  C  C31  1  0.47316000  0.75761000  0.44020000  1.0
  C  C32  1  0.52683000  0.24239000  0.55980000  1.0
  C  C33  1  0.42768000  0.66295000  0.52472000  1.0
  C  C34  1  0.57231000  0.33704000  0.47528000  1.0
  C  C35  1  0.56224000  0.65924000  0.60275000  1.0
  C  C36  1  0.43775000  0.34075000  0.39725000  1.0
  C  C37  1  0.73805000  0.75380000  0.59626000  1.0
  C  C38  1  0.26194000  0.24619000  0.40374000  1.0
  C  C39  1  0.68895000  0.98538000  0.36696000  1.0
  C  C40  1  0.31104000  0.01461000  0.63304000  1.0
  C  C41  1  0.34316000  0.74704000  0.35050000  1.0
  C  C42  1  0.65684000  0.25295000  0.64950000  1.0
  C  C43  1  0.84036000  0.21682000  0.05844000  1.0
  C  C44  1  0.15965000  0.78319000  0.94155000  1.0
  C  C45  1  0.95943000  0.16397000  0.14722000  1.0
  C  C46  1  0.04057000  0.83604000  0.85278000  1.0
  C  C47  1  0.20208000  0.18582000  0.13168000  1.0
  C  C48  1  0.79793000  0.81418000  0.86833000  1.0
  C  C49  1  0.26841000  0.34949000  0.12022000  1.0
  C  C50  1  0.73160000  0.65052000  0.87978000  1.0
  N  N51  1  0.77128000  0.85256000  0.51907000  1.0
  N  N52  1  0.22870000  0.14743000  0.48094000  1.0
  O  O53  1  0.84590000  0.07032000  0.38403000  1.0
  O  O54  1  0.15409000  0.92968000  0.61598000  1.0
  O  O55  1  0.07459000  0.78211000  0.17000000  1.0
  O  O56  1  0.92541000  0.21790000  0.83000000  1.0
  O  O57  1  0.57082000  0.00857000  0.29647000  1.0
  O  O58  1  0.42918000  0.99144000  0.70353000  1.0
  O  O59  1  0.58824000  0.87783000  0.12341000  1.0
  O  O60  1  0.41178000  0.12218000  0.87659000  1.0
  O  O61  1  0.73923000  0.56424000  0.14312000  1.0
  O  O62  1  0.26078000  0.43575000  0.85688000  1.0
  O  O63  1  0.14868000  0.79194000  0.35886000  1.0
  O  O64  1  0.85131000  0.20805000  0.64114000  1.0
  O  O65  1  0.44175000  0.68481000  0.27499000  1.0
  O  O66  1  0.55826000  0.31519000  0.72501000  1.0
  O  O67  1  0.70474000  0.13334000  0.02185000  1.0
  O  O68  1  0.29527000  0.86666000  0.97815000  1.0
  O  O69  1  0.87290000  0.35056000  0.01874000  1.0
  O  O70  1  0.12711000  0.64944000  0.98126000  1.0
  O  O71  1  0.40236000  0.39049000  0.04750000  1.0
  O  O72  1  0.59765000  0.60950000  0.95250000  1.0
  O  O73  1  0.20142000  0.44818000  0.18313000  1.0
  O  O74  1  0.79858000  0.55182000  0.81687000  1.0
