# generated using pymatgen
data_CuH9C15(NO2)3
_symmetry_space_group_name_H-M   'P 1'
_cell_length_a   8.94310810
_cell_length_b   9.03780000
_cell_length_c   10.48480000
_cell_angle_alpha   86.66060000
_cell_angle_beta   72.82540042
_cell_angle_gamma   70.67895194
_symmetry_Int_Tables_number   1
_chemical_formula_structural   CuH9C15(NO2)3
_chemical_formula_sum   'Cu2 H18 C30 N6 O12'
_cell_volume   763.32461992
_cell_formula_units_Z   2
loop_
 _symmetry_equiv_pos_site_id
 _symmetry_equiv_pos_as_xyz
  1  'x, y, z'
loop_
 _atom_site_type_symbol
 _atom_site_label
 _atom_site_symmetry_multiplicity
 _atom_site_fract_x
 _atom_site_fract_y
 _atom_site_fract_z
 _atom_site_occupancy
  Cu  Cu0  1  0.84405000  0.71666000  0.34165000  1.0
  Cu  Cu1  1  0.15596000  0.28333000  0.65835000  1.0
  H  H2  1  0.60608000  0.58275000  0.54558000  1.0
  H  H3  1  0.39393000  0.41725000  0.45442000  1.0
  H  H4  1  0.29611000  0.64412000  0.61742000  1.0
  H  H5  1  0.70389000  0.35588000  0.38259000  1.0
  H  H6  1  0.12475000  0.87031000  0.51801000  1.0
  H  H7  1  0.87526000  0.12966000  0.48198000  1.0
  H  H8  1  0.26337000  0.03937000  0.36336000  1.0
  H  H9  1  0.73663000  0.96061000  0.63662000  1.0
  H  H10  1  0.40971000  0.15269000  0.21450000  1.0
  H  H11  1  0.59029000  0.84732000  0.78551000  1.0
  H  H12  1  0.59638000  0.28832000  0.07434000  1.0
  H  H13  1  0.40361000  0.71169000  0.92566000  1.0
  H  H14  1  0.89918000  0.18972000  0.06369000  1.0
  H  H15  1  0.10082000  0.81028000  0.93630000  1.0
  H  H16  1  0.00188000  0.94963000  0.18766000  1.0
  H  H17  1  0.99811000  0.05038000  0.81233000  1.0
  H  H18  1  0.54475000  0.43020000  0.83100000  1.0
  H  H19  1  0.45525000  0.56980000  0.16901000  1.0
  C  C20  1  0.17239000  0.59135000  0.15573000  1.0
  C  C21  1  0.82761000  0.40865000  0.84427000  1.0
  C  C22  1  0.08302000  0.54144000  0.07266000  1.0
  C  C23  1  0.91699000  0.45855000  0.92735000  1.0
  C  C24  1  0.16718000  0.43815000  0.95930000  1.0
  C  C25  1  0.83281000  0.56185000  0.04072000  1.0
  C  C26  1  0.35299000  0.36232000  0.91194000  1.0
  C  C27  1  0.64701000  0.63767000  0.08807000  1.0
  C  C28  1  0.52511000  0.68112000  0.50677000  1.0
  C  C29  1  0.47490000  0.31888000  0.49323000  1.0
  C  C30  1  0.35379000  0.71567000  0.54564000  1.0
  C  C31  1  0.64622000  0.28433000  0.45435000  1.0
  C  C32  1  0.25878000  0.84300000  0.49055000  1.0
  C  C33  1  0.74122000  0.15701000  0.50944000  1.0
  C  C34  1  0.33647000  0.93474000  0.40186000  1.0
  C  C35  1  0.66353000  0.06526000  0.59814000  1.0
  C  C36  1  0.50881000  0.89328000  0.36703000  1.0
  C  C37  1  0.49119000  0.10671000  0.63297000  1.0
  C  C38  1  0.60632000  0.98142000  0.27746000  1.0
  C  C39  1  0.39368000  0.01858000  0.72254000  1.0
  C  C40  1  0.54066000  0.11160000  0.20837000  1.0
  C  C41  1  0.45933000  0.88841000  0.79163000  1.0
  C  C42  1  0.64568000  0.18743000  0.12921000  1.0
  C  C43  1  0.35431000  0.81259000  0.87079000  1.0
  C  C44  1  0.81324000  0.13233000  0.12222000  1.0
  C  C45  1  0.18676000  0.86766000  0.87778000  1.0
  C  C46  1  0.87178000  0.00012000  0.19122000  1.0
  C  C47  1  0.12822000  0.99988000  0.80877000  1.0
  C  C48  1  0.00341000  0.56327000  0.54599000  1.0
  C  C49  1  0.99659000  0.43673000  0.45401000  1.0
  N  N50  1  0.91773000  0.60170000  0.11068000  1.0
  N  N51  1  0.08227000  0.39829000  0.88933000  1.0
  N  N52  1  0.60025000  0.76604000  0.41820000  1.0
  N  N53  1  0.39975000  0.23396000  0.58180000  1.0
  N  N54  1  0.77067000  0.92644000  0.26602000  1.0
  N  N55  1  0.22934000  0.07356000  0.73397000  1.0
  O  O56  1  0.08787000  0.68490000  0.25692000  1.0
  O  O57  1  0.91213000  0.31510000  0.74308000  1.0
  O  O58  1  0.32850000  0.53720000  0.11537000  1.0
  O  O59  1  0.67150000  0.46281000  0.88463000  1.0
  O  O60  1  0.42620000  0.44786000  0.82467000  1.0
  O  O61  1  0.57380000  0.55214000  0.17534000  1.0
  O  O62  1  0.41957000  0.23283000  0.94925000  1.0
  O  O63  1  0.58043000  0.76717000  0.05075000  1.0
  O  O64  1  0.92052000  0.70430000  0.54008000  1.0
  O  O65  1  0.07947000  0.29571000  0.45993000  1.0
  O  O66  1  0.09663000  0.51235000  0.62241000  1.0
  O  O67  1  0.90338000  0.48764000  0.37758000  1.0
