# generated using pymatgen
data_LaH19C27O8
_symmetry_space_group_name_H-M   'P 1'
_cell_length_a   13.90500000
_cell_length_b   14.59440000
_cell_length_c   22.49350000
_cell_angle_alpha   108.91100000
_cell_angle_beta   100.71200000
_cell_angle_gamma   90.01310000
_symmetry_Int_Tables_number   1
_chemical_formula_structural   LaH19C27O8
_chemical_formula_sum   'La4 H76 C108 O32'
_cell_volume   4234.09259491
_cell_formula_units_Z   4
loop_
 _symmetry_equiv_pos_site_id
 _symmetry_equiv_pos_as_xyz
  1  'x, y, z'
loop_
 _atom_site_type_symbol
 _atom_site_label
 _atom_site_symmetry_multiplicity
 _atom_site_fract_x
 _atom_site_fract_y
 _atom_site_fract_z
 _atom_site_occupancy
  La  La0  1  0.46265000  0.41768000  0.40524000  1.0
  La  La1  1  0.03723000  0.01232000  0.59476000  1.0
  La  La2  1  0.53735000  0.58232000  0.59475000  1.0
  La  La3  1  0.96277000  0.98767000  0.40524000  1.0
  H  H4  1  0.80228000  0.72927000  0.53636000  1.0
  H  H5  1  0.69804000  0.19336000  0.46367000  1.0
  H  H6  1  0.19771000  0.27073000  0.46364000  1.0
  H  H7  1  0.30197000  0.80664000  0.53633000  1.0
  H  H8  1  0.92317000  0.72925000  0.37372000  1.0
  H  H9  1  0.57689000  0.35582000  0.62618000  1.0
  H  H10  1  0.07683000  0.27074000  0.62628000  1.0
  H  H11  1  0.42311000  0.64418000  0.37382000  1.0
  H  H12  1  0.70122000  0.50821000  0.35452000  1.0
  H  H13  1  0.79898000  0.15430000  0.64564000  1.0
  H  H14  1  0.29878000  0.49179000  0.64549000  1.0
  H  H15  1  0.20102000  0.84570000  0.35436000  1.0
  H  H16  1  0.86707000  0.69451000  0.27093000  1.0
  H  H17  1  0.63284000  0.42415000  0.72914000  1.0
  H  H18  1  0.13293000  0.30548000  0.72907000  1.0
  H  H19  1  0.36716000  0.57585000  0.27086000  1.0
  H  H20  1  0.88582000  0.61330000  0.16152000  1.0
  H  H21  1  0.61401000  0.45221000  0.83853000  1.0
  H  H22  1  0.11418000  0.38670000  0.83848000  1.0
  H  H23  1  0.38599000  0.54779000  0.16147000  1.0
  H  H24  1  0.80202000  0.33780000  0.17633000  1.0
  H  H25  1  0.69798000  0.16204000  0.82380000  1.0
  H  H26  1  0.19798000  0.66220000  0.82367000  1.0
  H  H27  1  0.30202000  0.83796000  0.17620000  1.0
  H  H28  1  0.78296000  0.41919000  0.28589000  1.0
  H  H29  1  0.71711000  0.13399000  0.71426000  1.0
  H  H30  1  0.21703000  0.58081000  0.71411000  1.0
  H  H31  1  0.28289000  0.86601000  0.28574000  1.0
  H  H32  1  0.87292000  0.54711000  0.06667000  1.0
  H  H33  1  0.62710000  0.48074000  0.93347000  1.0
  H  H34  1  0.12708000  0.45289000  0.93333000  1.0
  H  H35  1  0.37291000  0.51926000  0.06653000  1.0
  H  H36  1  0.90365000  0.46453000  0.96083000  1.0
  H  H37  1  0.59646000  0.50378000  0.03932000  1.0
  H  H38  1  0.09635000  0.53547000  0.03917000  1.0
  H  H39  1  0.40354000  0.49622000  0.96068000  1.0
  H  H40  1  0.88836000  0.19045000  0.99452000  1.0
  H  H41  1  0.61168000  0.19603000  0.00555000  1.0
  H  H42  1  0.11164000  0.80955000  0.00547000  1.0
  H  H43  1  0.38832000  0.80397000  0.99445000  1.0
  H  H44  1  0.86210000  0.27349000  0.10116000  1.0
  H  H45  1  0.63791000  0.17264000  0.89890000  1.0
  H  H46  1  0.13790000  0.72651000  0.89884000  1.0
  H  H47  1  0.36209000  0.82736000  0.10110000  1.0
  H  H48  1  0.91293000  0.39395000  0.87099000  1.0
  H  H49  1  0.58736000  0.52301000  0.12897000  1.0
  H  H50  1  0.08707000  0.60606000  0.12901000  1.0
  H  H51  1  0.41264000  0.47699000  0.87103000  1.0
  H  H52  1  0.95281000  0.30762000  0.76560000  1.0
  H  H53  1  0.54744000  0.54225000  0.23440000  1.0
  H  H54  1  0.04719000  0.69238000  0.23440000  1.0
  H  H55  1  0.45256000  0.45774000  0.76560000  1.0
  H  H56  1  0.96025000  0.04076000  0.80714000  1.0
  H  H57  1  0.53936000  0.23390000  0.19302000  1.0
  H  H58  1  0.03975000  0.95924000  0.19286000  1.0
  H  H59  1  0.46064000  0.76609000  0.80698000  1.0
  H  H60  1  0.92384000  0.12552000  0.91381000  1.0
  H  H61  1  0.57608000  0.21185000  0.08636000  1.0
  H  H62  1  0.07616000  0.87448000  0.08619000  1.0
  H  H63  1  0.42392000  0.78814000  0.91363000  1.0
  H  H64  1  0.28907000  0.54119000  0.37057000  1.0
  H  H65  1  0.21086000  0.17047000  0.62941000  1.0
  H  H66  1  0.71093000  0.45881000  0.62943000  1.0
  H  H67  1  0.78913000  0.82953000  0.37059000  1.0
  H  H68  1  0.27387000  0.45033000  0.30953000  1.0
  H  H69  1  0.22594000  0.14069000  0.69048000  1.0
  H  H70  1  0.72613000  0.54967000  0.69047000  1.0
  H  H71  1  0.77406000  0.85930000  0.30952000  1.0
  H  H72  1  0.38334000  0.20117000  0.35013000  1.0
  H  H73  1  0.11664000  0.85109000  0.64995000  1.0
  H  H74  1  0.61666000  0.79883000  0.64987000  1.0
  H  H75  1  0.88337000  0.14892000  0.35005000  1.0
  H  H76  1  0.31805000  0.26989000  0.39340000  1.0
  H  H77  1  0.18190000  0.87659000  0.60666000  1.0
  H  H78  1  0.68195000  0.73010000  0.60660000  1.0
  H  H79  1  0.81810000  0.12341000  0.39334000  1.0
  C  C80  1  0.67473000  0.56885000  0.47532000  1.0
  C  C81  1  0.82550000  0.09408000  0.52479000  1.0
  C  C82  1  0.32526000  0.43115000  0.52468000  1.0
  C  C83  1  0.17450000  0.90592000  0.47522000  1.0
  C  C84  1  0.74437000  0.61401000  0.44762000  1.0
  C  C85  1  0.75596000  0.16702000  0.55252000  1.0
  C  C86  1  0.25563000  0.38600000  0.55239000  1.0
  C  C87  1  0.24404000  0.83298000  0.44749000  1.0
  C  C88  1  0.80375000  0.69698000  0.48564000  1.0
  C  C89  1  0.69657000  0.21186000  0.51441000  1.0
  C  C90  1  0.19625000  0.30302000  0.51436000  1.0
  C  C91  1  0.30344000  0.78814000  0.48559000  1.0
  C  C92  1  0.86591000  0.73920000  0.45823000  1.0
  C  C93  1  0.63426000  0.28133000  0.54175000  1.0
  C  C94  1  0.13409000  0.26080000  0.54178000  1.0
  C  C95  1  0.36574000  0.71867000  0.45826000  1.0
  C  C96  1  0.87082000  0.69742000  0.39334000  1.0
  C  C97  1  0.62934000  0.30449000  0.60663000  1.0
  C  C98  1  0.12918000  0.30257000  0.60666000  1.0
  C  C99  1  0.37066000  0.69551000  0.39336000  1.0
  C  C100  1  0.81352000  0.61197000  0.35486000  1.0
  C  C101  1  0.68670000  0.25771000  0.64523000  1.0
  C  C102  1  0.18648000  0.38802000  0.64514000  1.0
  C  C103  1  0.31331000  0.74229000  0.35478000  1.0
  C  C104  1  0.74937000  0.57233000  0.38291000  1.0
  C  C105  1  0.75090000  0.19006000  0.61722000  1.0
  C  C106  1  0.25063000  0.42766000  0.61709000  1.0
  C  C107  1  0.24910000  0.80994000  0.38278000  1.0
  C  C108  1  0.92741000  0.82862000  0.49952000  1.0
  C  C109  1  0.57251000  0.32919000  0.50039000  1.0
  C  C110  1  0.07259000  0.17137000  0.50048000  1.0
  C  C111  1  0.42749000  0.67081000  0.49961000  1.0
  C  C112  1  0.82250000  0.56371000  0.28758000  1.0
  C  C113  1  0.67759000  0.27677000  0.71252000  1.0
  C  C114  1  0.17750000  0.43628000  0.71242000  1.0
  C  C115  1  0.32241000  0.72323000  0.28748000  1.0
  C  C116  1  0.85087000  0.61615000  0.25044000  1.0
  C  C117  1  0.64911000  0.36627000  0.74964000  1.0
  C  C118  1  0.14913000  0.38385000  0.74956000  1.0
  C  C119  1  0.35089000  0.63374000  0.25036000  1.0
  C  C120  1  0.86231000  0.56941000  0.18786000  1.0
  C  C121  1  0.63762000  0.38206000  0.81223000  1.0
  C  C122  1  0.13769000  0.43059000  0.81214000  1.0
  C  C123  1  0.36239000  0.61794000  0.18777000  1.0
  C  C124  1  0.84747000  0.46797000  0.15930000  1.0
  C  C125  1  0.65250000  0.30916000  0.84082000  1.0
  C  C126  1  0.15253000  0.53203000  0.84070000  1.0
  C  C127  1  0.34750000  0.69084000  0.15918000  1.0
  C  C128  1  0.81735000  0.41611000  0.19642000  1.0
  C  C129  1  0.68266000  0.22027000  0.80370000  1.0
  C  C130  1  0.18265000  0.58389000  0.80358000  1.0
  C  C131  1  0.31734000  0.77973000  0.19630000  1.0
  C  C132  1  0.80508000  0.46258000  0.25876000  1.0
  C  C133  1  0.69499000  0.20448000  0.74137000  1.0
  C  C134  1  0.19492000  0.53742000  0.74124000  1.0
  C  C135  1  0.30501000  0.79552000  0.25863000  1.0
  C  C136  1  0.86470000  0.41806000  0.09399000  1.0
  C  C137  1  0.63528000  0.32440000  0.90611000  1.0
  C  C138  1  0.13530000  0.58194000  0.90601000  1.0
  C  C139  1  0.36472000  0.67560000  0.09389000  1.0
  C  C140  1  0.87727000  0.46861000  0.05192000  1.0
  C  C141  1  0.62276000  0.41695000  0.94821000  1.0
  C  C142  1  0.12273000  0.53139000  0.94808000  1.0
  C  C143  1  0.37724000  0.58304000  0.05179000  1.0
  C  C144  1  0.89416000  0.42091000  0.99075000  1.0
  C  C145  1  0.60593000  0.43030000  0.00938000  1.0
  C  C146  1  0.10584000  0.57909000  0.00926000  1.0
  C  C147  1  0.39407000  0.56970000  0.99062000  1.0
  C  C148  1  0.89901000  0.31938000  0.96737000  1.0
  C  C149  1  0.60109000  0.35211000  0.03273000  1.0
  C  C150  1  0.10099000  0.68062000  0.03263000  1.0
  C  C151  1  0.39891000  0.64789000  0.96727000  1.0
  C  C152  1  0.88630000  0.26912000  0.00955000  1.0
  C  C153  1  0.61375000  0.25971000  0.99054000  1.0
  C  C154  1  0.11370000  0.73088000  0.99045000  1.0
  C  C155  1  0.38625000  0.74029000  0.00946000  1.0
  C  C156  1  0.87023000  0.31672000  0.07077000  1.0
  C  C157  1  0.62978000  0.24622000  0.92932000  1.0
  C  C158  1  0.12978000  0.68328000  0.92923000  1.0
  C  C159  1  0.37022000  0.75378000  0.07068000  1.0
  C  C160  1  0.91745000  0.26785000  0.90246000  1.0
  C  C161  1  0.58266000  0.36549000  0.09764000  1.0
  C  C162  1  0.08254000  0.73216000  0.09754000  1.0
  C  C163  1  0.41734000  0.63451000  0.90236000  1.0
  C  C164  1  0.92469000  0.31677000  0.85853000  1.0
  C  C165  1  0.57552000  0.45836000  0.14151000  1.0
  C  C166  1  0.07531000  0.68323000  0.14147000  1.0
  C  C167  1  0.42448000  0.54163000  0.85849000  1.0
  C  C168  1  0.94656000  0.26858000  0.79875000  1.0
  C  C169  1  0.55362000  0.47004000  0.20128000  1.0
  C  C170  1  0.05344000  0.73143000  0.20126000  1.0
  C  C171  1  0.44638000  0.52995000  0.79871000  1.0
  C  C172  1  0.96124000  0.16907000  0.78020000  1.0
  C  C173  1  0.53873000  0.38914000  0.21986000  1.0
  C  C174  1  0.03876000  0.83094000  0.21980000  1.0
  C  C175  1  0.46127000  0.61085000  0.78014000  1.0
  C  C176  1  0.95033000  0.11846000  0.82215000  1.0
  C  C177  1  0.54949000  0.29654000  0.17797000  1.0
  C  C178  1  0.04967000  0.88154000  0.17785000  1.0
  C  C179  1  0.45051000  0.70345000  0.82202000  1.0
  C  C180  1  0.92946000  0.16707000  0.88204000  1.0
  C  C181  1  0.57052000  0.28516000  0.11809000  1.0
  C  C182  1  0.07054000  0.83293000  0.11795000  1.0
  C  C183  1  0.42948000  0.71483000  0.88190000  1.0
  C  C184  1  0.99128000  0.11753000  0.71825000  1.0
  C  C185  1  0.50862000  0.39969000  0.28181000  1.0
  C  C186  1  0.00872000  0.88248000  0.28175000  1.0
  C  C187  1  0.49137000  0.60030000  0.71818000  1.0
  O  O188  1  0.28740000  0.47019000  0.35614000  1.0
  O  O189  1  0.21251000  0.11393000  0.64388000  1.0
  O  O190  1  0.71260000  0.52980000  0.64386000  1.0
  O  O191  1  0.78749000  0.88607000  0.35612000  1.0
  O  O192  1  0.34440000  0.25747000  0.35398000  1.0
  O  O193  1  0.15553000  0.90357000  0.64607000  1.0
  O  O194  1  0.65561000  0.74253000  0.64601000  1.0
  O  O195  1  0.84447000  0.09643000  0.35393000  1.0
  O  O196  1  0.62935000  0.48869000  0.43927000  1.0
  O  O197  1  0.87076000  0.04985000  0.56079000  1.0
  O  O198  1  0.37065000  0.51132000  0.56073000  1.0
  O  O199  1  0.12923000  0.95014000  0.43921000  1.0
  O  O200  1  0.66454000  0.61273000  0.53268000  1.0
  O  O201  1  0.83569000  0.08062000  0.46743000  1.0
  O  O202  1  0.33546000  0.38728000  0.46733000  1.0
  O  O203  1  0.16432000  0.91937000  0.53258000  1.0
  O  O204  1  0.95083000  0.84542000  0.55944000  1.0
  O  O205  1  0.54909000  0.28602000  0.44049000  1.0
  O  O206  1  0.04917000  0.15457000  0.44057000  1.0
  O  O207  1  0.45091000  0.71399000  0.55952000  1.0
  O  O208  1  0.95431000  0.88763000  0.47282000  1.0
  O  O209  1  0.54535000  0.41476000  0.52705000  1.0
  O  O210  1  0.04570000  0.11237000  0.52718000  1.0
  O  O211  1  0.45465000  0.58524000  0.47295000  1.0
  O  O212  1  0.01866000  0.16692000  0.68556000  1.0
  O  O213  1  0.48168000  0.48190000  0.31458000  1.0
  O  O214  1  0.98134000  0.83309000  0.31444000  1.0
  O  O215  1  0.51831000  0.51809000  0.68542000  1.0
  O  O216  1  0.99073000  0.02459000  0.69911000  1.0
  O  O217  1  0.50871000  0.32584000  0.30087000  1.0
  O  O218  1  0.00928000  0.97541000  0.30089000  1.0
  O  O219  1  0.49128000  0.67416000  0.69912000  1.0
