# generated using pymatgen
data_Zn4H38C55(NO5)4
_symmetry_space_group_name_H-M   'P 1'
_cell_length_a   9.66232000
_cell_length_b   11.04840000
_cell_length_c   26.32420000
_cell_angle_alpha   92.15740000
_cell_angle_beta   96.12080000
_cell_angle_gamma   90.26610000
_symmetry_Int_Tables_number   1
_chemical_formula_structural   Zn4H38C55(NO5)4
_chemical_formula_sum   'Zn4 H38 C55 N4 O20'
_cell_volume   2792.08533430
_cell_formula_units_Z   1
loop_
 _symmetry_equiv_pos_site_id
 _symmetry_equiv_pos_as_xyz
  1  'x, y, z'
loop_
 _atom_site_type_symbol
 _atom_site_label
 _atom_site_symmetry_multiplicity
 _atom_site_fract_x
 _atom_site_fract_y
 _atom_site_fract_z
 _atom_site_occupancy
  Zn  Zn0  1  0.63713000  0.50961000  0.50332000  1.0
  Zn  Zn1  1  0.34983000  0.50235000  0.49414000  1.0
  Zn  Zn2  1  0.36258000  0.49243000  0.91335000  1.0
  Zn  Zn3  1  0.65029000  0.48983000  0.92525000  1.0
  H  H4  1  0.09230000  0.36363000  0.44033000  1.0
  H  H5  1  0.15924000  0.64029000  0.55104000  1.0
  H  H6  1  0.83068000  0.37134000  0.44881000  1.0
  H  H7  1  0.72197000  0.11405000  0.50224000  1.0
  H  H8  1  0.27679000  0.12622000  0.49067000  1.0
  H  H9  1  0.70880000  0.88733000  0.50017000  1.0
  H  H10  1  0.26101000  0.47811000  0.32609000  1.0
  H  H11  1  0.69993000  0.52635000  0.35111000  1.0
  H  H12  1  0.73581000  0.53243000  0.09421000  1.0
  H  H13  1  0.29730000  0.46942000  0.06688000  1.0
  H  H14  1  0.30164000  0.56297000  0.75120000  1.0
  H  H15  1  0.71221000  0.41437000  0.76176000  1.0
  H  H16  1  0.30110000  0.56860000  0.65614000  1.0
  H  H17  1  0.90917000  0.37101000  0.98294000  1.0
  H  H18  1  0.84049000  0.61072000  0.86569000  1.0
  H  H19  1  0.16976000  0.37238000  0.97209000  1.0
  H  H20  1  0.27577000  0.09765000  0.91447000  1.0
  H  H21  1  0.72122000  0.11387000  0.92854000  1.0
  H  H22  1  0.28766000  0.87128000  0.91657000  1.0
  H  H23  1  0.81760000  0.74193000  0.54720000  1.0
  H  H24  1  0.81755000  0.63280000  0.59372000  1.0
  H  H25  1  0.96934000  0.72714000  0.59209000  1.0
  H  H26  1  0.13890000  0.96148000  0.48222000  1.0
  H  H27  1  0.20164000  0.82037000  0.45861000  1.0
  H  H28  1  0.19915000  0.84668000  0.52476000  1.0
  H  H29  1  0.81471000  0.34999000  0.69005000  1.0
  H  H30  1  0.72298000  0.34709000  0.62737000  1.0
  H  H31  1  0.81718000  0.47747000  0.65084000  1.0
  H  H32  1  0.17422000  0.71589000  0.86495000  1.0
  H  H33  1  0.18642000  0.58894000  0.82369000  1.0
  H  H34  1  0.02847000  0.67579000  0.81941000  1.0
  H  H35  1  0.85817000  0.95111000  0.93685000  1.0
  H  H36  1  0.79386000  0.81513000  0.96108000  1.0
  H  H37  1  0.79801000  0.82697000  0.89488000  1.0
  H  H38  1  0.14287000  0.47209000  0.10209000  1.0
  H  H39  1  0.10770000  0.49906000  0.27150000  1.0
  H  H40  1  0.95761000  0.53367000  0.19973000  1.0
  H  H41  1  0.84383000  0.57979000  0.31571000  1.0
  C  C42  1  0.50250000  0.26908000  0.49766000  1.0
  C  C43  1  0.47709000  0.50027000  0.39877000  1.0
  C  C44  1  0.49059000  0.74357000  0.49768000  1.0
  C  C45  1  0.49841000  0.50621000  0.59880000  1.0
  C  C46  1  0.49620000  0.25482000  0.92003000  1.0
  C  C47  1  0.52026000  0.49843000  0.01923000  1.0
  C  C48  1  0.50560000  0.72876000  0.91991000  1.0
  C  C49  1  0.51080000  0.48588000  0.81923000  1.0
  C  C50  1  0.94125000  0.58788000  0.53305000  1.0
  C  C51  1  0.04749000  0.42706000  0.46662000  1.0
  C  C52  1  0.08417000  0.58125000  0.52817000  1.0
  C  C53  1  0.90561000  0.43143000  0.47126000  1.0
  C  C54  1  0.48629000  0.87921000  0.49639000  1.0
  C  C55  1  0.49913000  0.13346000  0.49684000  1.0
  C  C56  1  0.36092000  0.94593000  0.49311000  1.0
  C  C57  1  0.62220000  0.06667000  0.49963000  1.0
  C  C58  1  0.37130000  0.07230000  0.49322000  1.0
  C  C59  1  0.61446000  0.94116000  0.49892000  1.0
  C  C60  1  0.35764000  0.49172000  0.30897000  1.0
  C  C61  1  0.36167000  0.49255000  0.25578000  1.0
  C  C62  1  0.23901000  0.47970000  0.22020000  1.0
  C  C63  1  0.60848000  0.51938000  0.32296000  1.0
  C  C64  1  0.61753000  0.52249000  0.27017000  1.0
  C  C65  1  0.74706000  0.54035000  0.24949000  1.0
  C  C66  1  0.63667000  0.51996000  0.10946000  1.0
  C  C67  1  0.63105000  0.52178000  0.16254000  1.0
  C  C68  1  0.75535000  0.53908000  0.19743000  1.0
  C  C69  1  0.38746000  0.48498000  0.09512000  1.0
  C  C70  1  0.37741000  0.48765000  0.14778000  1.0
  C  C71  1  0.24662000  0.47465000  0.16825000  1.0
  C  C72  1  0.48037000  0.50412000  0.34213000  1.0
  C  C73  1  0.49289000  0.50727000  0.23585000  1.0
  C  C74  1  0.51554000  0.50164000  0.07600000  1.0
  C  C75  1  0.50051000  0.50609000  0.18245000  1.0
  C  C76  1  0.50727000  0.49771000  0.65574000  1.0
  C  C77  1  0.50842000  0.48969000  0.76224000  1.0
  C  C78  1  0.62563000  0.45220000  0.68505000  1.0
  C  C79  1  0.39141000  0.53278000  0.73256000  1.0
  C  C80  1  0.62299000  0.44968000  0.73810000  1.0
  C  C81  1  0.39157000  0.53613000  0.67991000  1.0
  C  C82  1  0.05815000  0.56267000  0.88379000  1.0
  C  C83  1  0.95333000  0.42509000  0.95476000  1.0
  C  C84  1  0.91572000  0.55921000  0.88978000  1.0
  C  C85  1  0.09464000  0.42610000  0.94888000  1.0
  C  C86  1  0.51028000  0.86477000  0.92135000  1.0
  C  C87  1  0.49881000  0.11920000  0.92099000  1.0
  C  C88  1  0.63605000  0.93277000  0.92536000  1.0
  C  C89  1  0.37535000  0.05121000  0.91756000  1.0
  C  C90  1  0.62632000  0.05911000  0.92532000  1.0
  C  C91  1  0.38239000  0.92577000  0.91826000  1.0
  C  C92  1  0.88495000  0.67769000  0.56893000  1.0
  C  C93  1  0.21723000  0.89065000  0.48928000  1.0
  C  C94  1  0.75157000  0.40364000  0.66211000  1.0
  C  C95  1  0.11347000  0.64009000  0.84534000  1.0
  C  C96  1  0.77947000  0.87867000  0.92995000  1.0
  N  N97  1  0.85374000  0.51126000  0.50394000  1.0
  N  N98  1  0.13549000  0.50278000  0.49529000  1.0
  N  N99  1  0.14588000  0.49435000  0.91388000  1.0
  N  N100  1  0.86500000  0.49191000  0.92477000  1.0
  O  O101  1  0.62072000  0.32192000  0.50619000  1.0
  O  O102  1  0.38521000  0.32163000  0.48992000  1.0
  O  O103  1  0.35938000  0.50928000  0.41632000  1.0
  O  O104  1  0.59421000  0.48878000  0.42555000  1.0
  O  O105  1  0.37740000  0.68655000  0.50168000  1.0
  O  O106  1  0.60858000  0.69357000  0.49516000  1.0
  O  O107  1  0.61199000  0.52363000  0.57917000  1.0
  O  O108  1  0.37837000  0.49681000  0.57387000  1.0
  O  O109  1  0.37871000  0.30543000  0.90990000  1.0
  O  O110  1  0.61331000  0.30958000  0.92936000  1.0
  O  O111  1  0.63799000  0.51259000  0.00244000  1.0
  O  O112  1  0.40441000  0.48151000  0.99159000  1.0
  O  O113  1  0.61862000  0.67169000  0.91576000  1.0
  O  O114  1  0.38752000  0.67823000  0.92227000  1.0
  O  O115  1  0.39467000  0.50057000  0.83769000  1.0
  O  O116  1  0.62745000  0.46915000  0.84511000  1.0
  O  O117  1  0.12496000  0.45825000  0.13712000  1.0
  O  O118  1  0.10802000  0.46990000  0.23612000  1.0
  O  O119  1  0.87524000  0.55511000  0.17629000  1.0
  O  O120  1  0.86907000  0.55913000  0.28161000  1.0
