# generated using pymatgen
data_NiH14C14(NO)8
_symmetry_space_group_name_H-M   'P 1'
_cell_length_a   7.11055000
_cell_length_b   8.46202000
_cell_length_c   13.84810000
_cell_angle_alpha   89.99940000
_cell_angle_beta   97.60620000
_cell_angle_gamma   89.99970000
_symmetry_Int_Tables_number   1
_chemical_formula_structural   NiH14C14(NO)8
_chemical_formula_sum   'Ni2 H28 C28 N16 O16'
_cell_volume   825.90341576
_cell_formula_units_Z   2
loop_
 _symmetry_equiv_pos_site_id
 _symmetry_equiv_pos_as_xyz
  1  'x, y, z'
loop_
 _atom_site_type_symbol
 _atom_site_label
 _atom_site_symmetry_multiplicity
 _atom_site_fract_x
 _atom_site_fract_y
 _atom_site_fract_z
 _atom_site_occupancy
  Ni  Ni0  1  0.00000000  0.00000000  0.00000000  1.0
  Ni  Ni1  1  0.50000000  0.50000000  0.50000000  1.0
  H  H2  1  0.62096000  0.45848000  0.81897000  1.0
  H  H3  1  0.87904000  0.95848000  0.68102000  1.0
  H  H4  1  0.37903000  0.54152000  0.18103000  1.0
  H  H5  1  0.12097000  0.04152000  0.31898000  1.0
  H  H6  1  0.79643000  0.18664000  0.81499000  1.0
  H  H7  1  0.70358000  0.68665000  0.68502000  1.0
  H  H8  1  0.20356000  0.81335000  0.18502000  1.0
  H  H9  1  0.29643000  0.31336000  0.31498000  1.0
  H  H10  1  0.67873000  0.73502000  0.12692000  1.0
  H  H11  1  0.82126000  0.23502000  0.37307000  1.0
  H  H12  1  0.32127000  0.26498000  0.87308000  1.0
  H  H13  1  0.17875000  0.76499000  0.62693000  1.0
  H  H14  1  0.85545000  0.68651000  0.27214000  1.0
  H  H15  1  0.64454000  0.18650000  0.22785000  1.0
  H  H16  1  0.14455000  0.31349000  0.72786000  1.0
  H  H17  1  0.35547000  0.81350000  0.77215000  1.0
  H  H18  1  0.97999000  0.50759000  0.29663000  1.0
  H  H19  1  0.52001000  0.00759000  0.20336000  1.0
  H  H20  1  0.02001000  0.49241000  0.70337000  1.0
  H  H21  1  0.47999000  0.99241000  0.79664000  1.0
  H  H22  1  0.86104000  0.82813000  0.85909000  1.0
  H  H23  1  0.63897000  0.32813000  0.64091000  1.0
  H  H24  1  0.13897000  0.17187000  0.14091000  1.0
  H  H25  1  0.36104000  0.67187000  0.35909000  1.0
  H  H26  1  0.71571000  0.81846000  0.93436000  1.0
  H  H27  1  0.78429000  0.31846000  0.56564000  1.0
  H  H28  1  0.28429000  0.18154000  0.06564000  1.0
  H  H29  1  0.21572000  0.68154000  0.43436000  1.0
  C  C30  1  0.79615000  0.26153000  0.87845000  1.0
  C  C31  1  0.70385000  0.76153000  0.62155000  1.0
  C  C32  1  0.20384000  0.73847000  0.12155000  1.0
  C  C33  1  0.29615000  0.23848000  0.37845000  1.0
  C  C34  1  0.74117000  0.46500000  0.96937000  1.0
  C  C35  1  0.75883000  0.96500000  0.53063000  1.0
  C  C36  1  0.25883000  0.53500000  0.03063000  1.0
  C  C37  1  0.24117000  0.03500000  0.46937000  1.0
  C  C38  1  0.84852000  0.35091000  0.02601000  1.0
  C  C39  1  0.65149000  0.85091000  0.47398000  1.0
  C  C40  1  0.15149000  0.64908000  0.97399000  1.0
  C  C41  1  0.34851000  0.14909000  0.52601000  1.0
  C  C42  1  0.89991000  0.37979000  0.12760000  1.0
  C  C43  1  0.60009000  0.87979000  0.37240000  1.0
  C  C44  1  0.10009000  0.62020000  0.87240000  1.0
  C  C45  1  0.39990000  0.12020000  0.62759000  1.0
  C  C46  1  0.72379000  0.62669000  0.09457000  1.0
  C  C47  1  0.77620000  0.12669000  0.40542000  1.0
  C  C48  1  0.27621000  0.37331000  0.90542000  1.0
  C  C49  1  0.22379000  0.87331000  0.59458000  1.0
  C  C50  1  0.84630000  0.55805000  0.26175000  1.0
  C  C51  1  0.65369000  0.05805000  0.23824000  1.0
  C  C52  1  0.15369000  0.44195000  0.73825000  1.0
  C  C53  1  0.34631000  0.94195000  0.76176000  1.0
  C  C54  1  0.67877000  0.49416000  0.31028000  1.0
  C  C55  1  0.82123000  0.99417000  0.18973000  1.0
  C  C56  1  0.32122000  0.50583000  0.68972000  1.0
  C  C57  1  0.17878000  0.00583000  0.81028000  1.0
  N  N58  1  0.88289000  0.22463000  0.96666000  1.0
  N  N59  1  0.61711000  0.72462000  0.53334000  1.0
  N  N60  1  0.11711000  0.77537000  0.03334000  1.0
  N  N61  1  0.38289000  0.27538000  0.46666000  1.0
  N  N62  1  0.71058000  0.40610000  0.87662000  1.0
  N  N63  1  0.78941000  0.90609000  0.62338000  1.0
  N  N64  1  0.28941000  0.59390000  0.12338000  1.0
  N  N65  1  0.21059000  0.09391000  0.37662000  1.0
  N  N66  1  0.68086000  0.60574000  0.00032000  1.0
  N  N67  1  0.81913000  0.10574000  0.49967000  1.0
  N  N68  1  0.31914000  0.39426000  0.99968000  1.0
  N  N69  1  0.18087000  0.89426000  0.50033000  1.0
  N  N70  1  0.82499000  0.52419000  0.15727000  1.0
  N  N71  1  0.67500000  0.02419000  0.34273000  1.0
  N  N72  1  0.17501000  0.47581000  0.84273000  1.0
  N  N73  1  0.32500000  0.97581000  0.65727000  1.0
  O  O74  1  0.99889000  0.29632000  0.18967000  1.0
  O  O75  1  0.50111000  0.79632000  0.31033000  1.0
  O  O76  1  0.00111000  0.70368000  0.81033000  1.0
  O  O77  1  0.49889000  0.20368000  0.68967000  1.0
  O  O78  1  0.53290000  0.44363000  0.25725000  1.0
  O  O79  1  0.96710000  0.94363000  0.24275000  1.0
  O  O80  1  0.46710000  0.55637000  0.74275000  1.0
  O  O81  1  0.03290000  0.05636000  0.75725000  1.0
  O  O82  1  0.70714000  0.49803000  0.40273000  1.0
  O  O83  1  0.79286000  0.99803000  0.09727000  1.0
  O  O84  1  0.29285000  0.50197000  0.59727000  1.0
  O  O85  1  0.20714000  0.00197000  0.90274000  1.0
  O  O86  1  0.78332000  0.89589000  0.89821000  1.0
  O  O87  1  0.71669000  0.39589000  0.60179000  1.0
  O  O88  1  0.21669000  0.10411000  0.10179000  1.0
  O  O89  1  0.28332000  0.60411000  0.39821000  1.0
