# generated using pymatgen
data_CdH12C12(NCl)2
_symmetry_space_group_name_H-M   'P 1'
_cell_length_a   7.26761000
_cell_length_b   10.09420000
_cell_length_c   10.09400000
_cell_angle_alpha   61.46300000
_cell_angle_beta   76.03290000
_cell_angle_gamma   76.03190000
_symmetry_Int_Tables_number   1
_chemical_formula_structural   CdH12C12(NCl)2
_chemical_formula_sum   'Cd2 H24 C24 N4 Cl4'
_cell_volume   624.36361122
_cell_formula_units_Z   2
loop_
 _symmetry_equiv_pos_site_id
 _symmetry_equiv_pos_as_xyz
  1  'x, y, z'
loop_
 _atom_site_type_symbol
 _atom_site_label
 _atom_site_symmetry_multiplicity
 _atom_site_fract_x
 _atom_site_fract_y
 _atom_site_fract_z
 _atom_site_occupancy
  Cd  Cd0  1  0.75000000  0.07030000  0.92970000  1.0
  Cd  Cd1  1  0.25000000  0.92970000  0.07030000  1.0
  H  H2  1  0.01096000  0.51586000  0.13360000  1.0
  H  H3  1  0.48905000  0.86641000  0.48413000  1.0
  H  H4  1  0.98906000  0.48412000  0.86641000  1.0
  H  H5  1  0.51096000  0.13359000  0.51587000  1.0
  H  H6  1  0.07976000  0.33011000  0.13940000  1.0
  H  H7  1  0.42025000  0.86061000  0.66988000  1.0
  H  H8  1  0.92025000  0.66988000  0.86061000  1.0
  H  H9  1  0.57975000  0.13939000  0.33012000  1.0
  H  H10  1  0.24430000  0.41480000  0.16745000  1.0
  H  H11  1  0.25571000  0.83257000  0.58518000  1.0
  H  H12  1  0.75570000  0.58517000  0.83257000  1.0
  H  H13  1  0.74429000  0.16744000  0.41481000  1.0
  H  H14  1  0.83395000  0.52722000  0.35857000  1.0
  H  H15  1  0.66606000  0.64142000  0.47278000  1.0
  H  H16  1  0.16604000  0.47278000  0.64142000  1.0
  H  H17  1  0.33393000  0.35857000  0.52722000  1.0
  H  H18  1  0.20451000  0.11089000  0.40140000  1.0
  H  H19  1  0.29552000  0.59862000  0.88909000  1.0
  H  H20  1  0.79550000  0.88910000  0.59862000  1.0
  H  H21  1  0.70449000  0.40140000  0.11090000  1.0
  H  H22  1  0.08161000  0.99750000  0.68353000  1.0
  H  H23  1  0.41839000  0.31649000  0.00248000  1.0
  H  H24  1  0.91839000  0.00250000  0.31648000  1.0
  H  H25  1  0.58161000  0.68352000  0.99752000  1.0
  C  C26  1  0.82514000  0.33681000  0.58483000  1.0
  C  C27  1  0.67487000  0.41515000  0.66320000  1.0
  C  C28  1  0.17484000  0.66320000  0.41516000  1.0
  C  C29  1  0.32512000  0.58485000  0.33680000  1.0
  C  C30  1  0.89065000  0.40927000  0.42833000  1.0
  C  C31  1  0.60935000  0.57169000  0.59070000  1.0
  C  C32  1  0.10934000  0.59071000  0.57167000  1.0
  C  C33  1  0.39064000  0.42832000  0.40928000  1.0
  C  C34  1  0.09794000  0.17801000  0.45073000  1.0
  C  C35  1  0.40206000  0.54931000  0.82197000  1.0
  C  C36  1  0.90206000  0.82197000  0.54930000  1.0
  C  C37  1  0.59794000  0.45070000  0.17803000  1.0
  C  C38  1  0.02674000  0.32950000  0.35790000  1.0
  C  C39  1  0.47325000  0.64210000  0.67050000  1.0
  C  C40  1  0.97325000  0.67050000  0.64209000  1.0
  C  C41  1  0.52675000  0.35791000  0.32948000  1.0
  C  C42  1  0.02984000  0.11422000  0.60601000  1.0
  C  C43  1  0.47016000  0.39399000  0.88578000  1.0
  C  C44  1  0.97016000  0.88578000  0.39399000  1.0
  C  C45  1  0.52984000  0.60602000  0.11421000  1.0
  C  C46  1  0.09222000  0.40226000  0.19005000  1.0
  C  C47  1  0.40780000  0.80996000  0.59773000  1.0
  C  C48  1  0.90779000  0.59773000  0.80995000  1.0
  C  C49  1  0.59221000  0.19004000  0.40227000  1.0
  N  N50  1  0.89513000  0.19063000  0.67112000  1.0
  N  N51  1  0.60487000  0.32888000  0.80936000  1.0
  N  N52  1  0.10487000  0.80936000  0.32888000  1.0
  N  N53  1  0.39512000  0.67112000  0.19063000  1.0
  Cl  Cl54  1  0.50288000  0.00905000  0.17541000  1.0
  Cl  Cl55  1  0.99713000  0.82459000  0.99094000  1.0
  Cl  Cl56  1  0.49712000  0.99096000  0.82459000  1.0
  Cl  Cl57  1  0.00288000  0.17541000  0.00905000  1.0
