# generated using pymatgen
data_ZnH21C16(N2O3)2
_symmetry_space_group_name_H-M   'P 1'
_cell_length_a   10.07230000
_cell_length_b   10.98870000
_cell_length_c   11.02360000
_cell_angle_alpha   84.20530000
_cell_angle_beta   86.02710000
_cell_angle_gamma   86.52400000
_symmetry_Int_Tables_number   1
_chemical_formula_structural   ZnH21C16(N2O3)2
_chemical_formula_sum   'Zn2 H42 C32 N8 O12'
_cell_volume   1209.18716814
_cell_formula_units_Z   2
loop_
 _symmetry_equiv_pos_site_id
 _symmetry_equiv_pos_as_xyz
  1  'x, y, z'
loop_
 _atom_site_type_symbol
 _atom_site_label
 _atom_site_symmetry_multiplicity
 _atom_site_fract_x
 _atom_site_fract_y
 _atom_site_fract_z
 _atom_site_occupancy
  Zn  Zn0  1  0.36152000  0.53096000  0.52738000  1.0
  Zn  Zn1  1  0.66344000  0.51399000  0.51098000  1.0
  H  H2  1  0.70322000  0.90272000  0.51217000  1.0
  H  H3  1  0.22709000  0.78758000  0.01458000  1.0
  H  H4  1  0.98684000  0.74963000  0.32145000  1.0
  H  H5  1  0.85611000  0.69392000  0.17438000  1.0
  H  H6  1  0.73786000  0.77119000  0.27363000  1.0
  H  H7  1  0.75314000  0.60921000  0.28687000  1.0
  H  H8  1  0.03173000  0.81373000  0.46858000  1.0
  H  H9  1  0.11668000  0.83802000  0.65735000  1.0
  H  H10  1  0.25343000  0.86244000  0.54530000  1.0
  H  H11  1  0.24330000  0.71983000  0.63321000  1.0
  H  H12  1  0.10306000  0.06995000  0.66735000  1.0
  H  H13  1  0.71510000  0.12812000  0.49312000  1.0
  H  H14  1  0.27853000  0.08423000  0.64159000  1.0
  H  H15  1  0.18319000  0.05446000  0.51903000  1.0
  H  H16  1  0.25868000  0.36922000  0.73180000  1.0
  H  H17  1  0.22550000  0.24548000  0.92818000  1.0
  H  H18  1  0.29704000  0.15878000  0.80989000  1.0
  H  H19  1  0.12363000  0.15421000  0.85354000  1.0
  H  H20  1  0.95324000  0.17552000  0.53374000  1.0
  H  H21  1  0.82281000  0.02549000  0.64263000  1.0
  H  H22  1  0.75894000  0.13180000  0.74541000  1.0
  H  H23  1  0.92505000  0.06647000  0.75571000  1.0
  H  H24  1  0.40993000  0.13917000  0.49467000  1.0
  H  H25  1  0.90874000  0.20272000  0.88629000  1.0
  H  H26  1  0.80458000  0.33094000  0.92972000  1.0
  H  H27  1  0.97863000  0.34826000  0.89333000  1.0
  H  H28  1  0.34393000  0.81008000  0.29380000  1.0
  H  H29  1  0.45134000  0.91569000  0.20483000  1.0
  H  H30  1  0.28481000  0.96576000  0.25114000  1.0
  H  H31  1  0.87977000  0.67529000  0.83734000  1.0
  H  H32  1  0.71926000  0.74887000  0.87039000  1.0
  H  H33  1  0.74567000  0.66348000  0.73892000  1.0
  H  H34  1  0.18733000  0.34837000  0.11112000  1.0
  H  H35  1  0.69127000  0.52199000  0.13174000  1.0
  H  H36  1  0.96359000  0.34554000  0.18122000  1.0
  H  H37  1  0.96494000  0.46718000  0.06050000  1.0
  H  H38  1  0.96545000  0.49865000  0.21591000  1.0
  H  H39  1  0.16879000  0.61185000  0.13726000  1.0
  H  H40  1  0.18162000  0.48037000  0.90539000  1.0
  H  H41  1  0.16190000  0.66432000  0.80246000  1.0
  H  H42  1  0.17077000  0.86117000  0.87553000  1.0
  H  H43  1  0.33178000  0.78271000  0.87824000  1.0
  C  C44  1  0.49874000  0.54993000  0.75099000  1.0
  C  C45  1  0.94704000  0.61052000  0.44562000  1.0
  C  C46  1  0.07197000  0.63354000  0.49943000  1.0
  C  C47  1  0.52554000  0.29394000  0.52685000  1.0
  C  C48  1  0.08219000  0.43551000  0.57566000  1.0
  C  C49  1  0.10697000  0.31307000  0.64681000  1.0
  C  C50  1  0.93551000  0.30859000  0.64724000  1.0
  C  C51  1  0.47322000  0.51114000  0.28845000  1.0
  C  C52  1  0.53137000  0.75571000  0.46357000  1.0
  C  C53  1  0.61917000  0.95920000  0.47612000  1.0
  C  C54  1  0.52452000  0.89296000  0.43554000  1.0
  C  C55  1  0.49668000  0.55136000  0.88655000  1.0
  C  C56  1  0.61910000  0.08909000  0.48496000  1.0
  C  C57  1  0.51106000  0.16702000  0.49801000  1.0
  C  C58  1  0.37521000  0.54259000  0.95699000  1.0
  C  C59  1  0.22697000  0.77991000  0.91587000  1.0
  C  C60  1  0.80890000  0.69192000  0.26746000  1.0
  C  C61  1  0.18410000  0.79585000  0.58848000  1.0
  C  C62  1  0.18196000  0.10416000  0.60072000  1.0
  C  C63  1  0.20770000  0.21412000  0.83914000  1.0
  C  C64  1  0.84852000  0.10239000  0.69116000  1.0
  C  C65  1  0.89070000  0.30277000  0.87099000  1.0
  C  C66  1  0.61145000  0.54651000  0.95619000  1.0
  C  C67  1  0.37115000  0.90588000  0.27771000  1.0
  C  C68  1  0.77188000  0.66851000  0.83317000  1.0
  C  C69  1  0.00432000  0.43459000  0.15005000  1.0
  C  C70  1  0.59984000  0.52600000  0.08411000  1.0
  C  C71  1  0.47760000  0.51553000  0.15214000  1.0
  C  C72  1  0.36492000  0.52474000  0.08407000  1.0
  C  C73  1  0.21342000  0.53144000  0.09391000  1.0
  C  C74  1  0.22275000  0.55519000  0.94768000  1.0
  C  C75  1  0.95098000  0.42539000  0.55797000  1.0
  N  N76  1  0.87701000  0.51250000  0.48937000  1.0
  N  N77  1  0.14768000  0.54075000  0.55095000  1.0
  N  N78  1  0.16121000  0.66972000  0.89430000  1.0
  N  N79  1  0.91186000  0.69501000  0.35321000  1.0
  N  N80  1  0.10582000  0.75248000  0.49608000  1.0
  N  N81  1  0.17575000  0.32053000  0.75417000  1.0
  N  N82  1  0.88854000  0.20220000  0.60234000  1.0
  N  N83  1  0.14938000  0.42413000  0.15079000  1.0
  O  O84  1  0.38485000  0.56681000  0.70405000  1.0
  O  O85  1  0.85541000  0.34206000  0.74928000  1.0
  O  O86  1  0.41227000  0.94964000  0.38777000  1.0
  O  O87  1  0.74034000  0.55895000  0.90950000  1.0
  O  O88  1  0.60884000  0.52626000  0.69323000  1.0
  O  O89  1  0.41929000  0.35254000  0.56476000  1.0
  O  O90  1  0.64153000  0.33525000  0.51365000  1.0
  O  O91  1  0.35879000  0.50887000  0.34541000  1.0
  O  O92  1  0.58429000  0.51499000  0.33614000  1.0
  O  O93  1  0.42152000  0.70503000  0.46369000  1.0
  O  O94  1  0.64344000  0.70297000  0.48941000  1.0
  O  O95  1  0.16127000  0.23026000  0.55946000  1.0
