# generated using pymatgen
data_ZnH15C19(NO2)2
_symmetry_space_group_name_H-M   'P 1'
_cell_length_a   7.43864000
_cell_length_b   9.87212000
_cell_length_c   12.10050000
_cell_angle_alpha   83.02950000
_cell_angle_beta   85.76740000
_cell_angle_gamma   68.35530000
_symmetry_Int_Tables_number   1
_chemical_formula_structural   ZnH15C19(NO2)2
_chemical_formula_sum   'Zn2 H30 C38 N4 O8'
_cell_volume   819.43473662
_cell_formula_units_Z   2
loop_
 _symmetry_equiv_pos_site_id
 _symmetry_equiv_pos_as_xyz
  1  'x, y, z'
loop_
 _atom_site_type_symbol
 _atom_site_label
 _atom_site_symmetry_multiplicity
 _atom_site_fract_x
 _atom_site_fract_y
 _atom_site_fract_z
 _atom_site_occupancy
  Zn  Zn0  1  0.18921000  0.06631000  0.02553000  1.0
  Zn  Zn1  1  0.81079000  0.93369000  0.97447000  1.0
  H  H2  1  0.95935000  0.04644000  0.60907000  1.0
  H  H3  1  0.04064000  0.95356000  0.39093000  1.0
  H  H4  1  0.10254000  0.16883000  0.45491000  1.0
  H  H5  1  0.89745000  0.83117000  0.54510000  1.0
  H  H6  1  0.40715000  0.20867000  0.48327000  1.0
  H  H7  1  0.59285000  0.79133000  0.51673000  1.0
  H  H8  1  0.57174000  0.11762000  0.66453000  1.0
  H  H9  1  0.42826000  0.88238000  0.33548000  1.0
  H  H10  1  0.42313000  0.26531000  0.92901000  1.0
  H  H11  1  0.57687000  0.73469000  0.07099000  1.0
  H  H12  1  0.23407000  0.54566000  0.81957000  1.0
  H  H13  1  0.76592000  0.45434000  0.18043000  1.0
  H  H14  1  0.77504000  0.26272000  0.00015000  1.0
  H  H15  1  0.22495000  0.73728000  0.99984000  1.0
  H  H16  1  0.73587000  0.30630000  0.85457000  1.0
  H  H17  1  0.26413000  0.69369000  0.14543000  1.0
  H  H18  1  0.65624000  0.44803000  0.94511000  1.0
  H  H19  1  0.34375000  0.55197000  0.05489000  1.0
  H  H20  1  0.89996000  0.69468000  0.78286000  1.0
  H  H21  1  0.10004000  0.30532000  0.21714000  1.0
  H  H22  1  0.72580000  0.65836000  0.87539000  1.0
  H  H23  1  0.27420000  0.34164000  0.12460000  1.0
  H  H24  1  0.00239000  0.43771000  0.63999000  1.0
  H  H25  1  0.99761000  0.56229000  0.36001000  1.0
  H  H26  1  0.84077000  0.38586000  0.49197000  1.0
  H  H27  1  0.15924000  0.61413000  0.50803000  1.0
  H  H28  1  0.28671000  0.65837000  0.62583000  1.0
  H  H29  1  0.71330000  0.34163000  0.37417000  1.0
  H  H30  1  0.44885000  0.70781000  0.77283000  1.0
  H  H31  1  0.55115000  0.29219000  0.22716000  1.0
  C  C32  1  0.08696000  0.93838000  0.80990000  1.0
  C  C33  1  0.91304000  0.06161000  0.19011000  1.0
  C  C34  1  0.18438000  0.01324000  0.72329000  1.0
  C  C35  1  0.81562000  0.98676000  0.27671000  1.0
  C  C36  1  0.09352000  0.06309000  0.62084000  1.0
  C  C37  1  0.90647000  0.93691000  0.37916000  1.0
  C  C38  1  0.17319000  0.13267000  0.53482000  1.0
  C  C39  1  0.82680000  0.86734000  0.46518000  1.0
  C  C40  1  0.34424000  0.15471000  0.55031000  1.0
  C  C41  1  0.65575000  0.84530000  0.44969000  1.0
  C  C42  1  0.43640000  0.10401000  0.65116000  1.0
  C  C43  1  0.56359000  0.89600000  0.34885000  1.0
  C  C44  1  0.35939000  0.03215000  0.73838000  1.0
  C  C45  1  0.64061000  0.96786000  0.26162000  1.0
  C  C46  1  0.47046000  0.97368000  0.84292000  1.0
  C  C47  1  0.52954000  0.02632000  0.15708000  1.0
  C  C48  1  0.27202000  0.32477000  0.91086000  1.0
  C  C49  1  0.72797000  0.67523000  0.08914000  1.0
  C  C50  1  0.18185000  0.46121000  0.85688000  1.0
  C  C51  1  0.81815000  0.53879000  0.14312000  1.0
  C  C52  1  0.96099000  0.36177000  0.91302000  1.0
  C  C53  1  0.03900000  0.63822000  0.08698000  1.0
  C  C54  1  0.77140000  0.34369000  0.92920000  1.0
  C  C55  1  0.22860000  0.65631000  0.07080000  1.0
  C  C56  1  0.83393000  0.61277000  0.80983000  1.0
  C  C57  1  0.16607000  0.38723000  0.19017000  1.0
  C  C58  1  0.73817000  0.57930000  0.71676000  1.0
  C  C59  1  0.26183000  0.42070000  0.28324000  1.0
  C  C60  1  0.84500000  0.48796000  0.63645000  1.0
  C  C61  1  0.15501000  0.51204000  0.36354000  1.0
  C  C62  1  0.75186000  0.45770000  0.55238000  1.0
  C  C63  1  0.24814000  0.54230000  0.44762000  1.0
  C  C64  1  0.54900000  0.51668000  0.54478000  1.0
  C  C65  1  0.45100000  0.48332000  0.45522000  1.0
  C  C66  1  0.44391000  0.60837000  0.62613000  1.0
  C  C67  1  0.55609000  0.39163000  0.37387000  1.0
  C  C68  1  0.53676000  0.63830000  0.71055000  1.0
  C  C69  1  0.46324000  0.36171000  0.28945000  1.0
  N  N70  1  0.13334000  0.26448000  0.94570000  1.0
  N  N71  1  0.86665000  0.73552000  0.05430000  1.0
  N  N72  1  0.98705000  0.48285000  0.85915000  1.0
  N  N73  1  0.01295000  0.51715000  0.14085000  1.0
  O  O74  1  0.39229000  0.92575000  0.92950000  1.0
  O  O75  1  0.60772000  0.07425000  0.07050000  1.0
  O  O76  1  0.64280000  0.97130000  0.83967000  1.0
  O  O77  1  0.35721000  0.02870000  0.16033000  1.0
  O  O78  1  0.98436000  0.01904000  0.88602000  1.0
  O  O79  1  0.01565000  0.98095000  0.11398000  1.0
  O  O80  1  0.09785000  0.81099000  0.80102000  1.0
  O  O81  1  0.90216000  0.18900000  0.19899000  1.0
