# generated using pymatgen
data_CdH9C10S4N5
_symmetry_space_group_name_H-M   'P 1'
_cell_length_a   7.91281000
_cell_length_b   8.04482000
_cell_length_c   25.55510000
_cell_angle_alpha   90.00000000
_cell_angle_beta   90.00000000
_cell_angle_gamma   109.21200000
_symmetry_Int_Tables_number   1
_chemical_formula_structural   CdH9C10S4N5
_chemical_formula_sum   'Cd4 H36 C40 S16 N20'
_cell_volume   1536.16575677
_cell_formula_units_Z   4
loop_
 _symmetry_equiv_pos_site_id
 _symmetry_equiv_pos_as_xyz
  1  'x, y, z'
loop_
 _atom_site_type_symbol
 _atom_site_label
 _atom_site_symmetry_multiplicity
 _atom_site_fract_x
 _atom_site_fract_y
 _atom_site_fract_z
 _atom_site_occupancy
  Cd  Cd0  1  0.11924000  0.25852000  0.34302000  1.0
  Cd  Cd1  1  0.38076000  0.74147000  0.84302000  1.0
  Cd  Cd2  1  0.88076000  0.74147000  0.65699000  1.0
  Cd  Cd3  1  0.61924000  0.25853000  0.15699000  1.0
  H  H4  1  0.90839000  0.15682000  0.50087000  1.0
  H  H5  1  0.59162000  0.84319000  0.00087000  1.0
  H  H6  1  0.09162000  0.84319000  0.49913000  1.0
  H  H7  1  0.40838000  0.15681000  0.99913000  1.0
  H  H8  1  0.93510000  0.00504000  0.24479000  1.0
  H  H9  1  0.56490000  0.99496000  0.74479000  1.0
  H  H10  1  0.06490000  0.99496000  0.75521000  1.0
  H  H11  1  0.43511000  0.00504000  0.25521000  1.0
  H  H12  1  0.67062000  0.73829000  0.22405000  1.0
  H  H13  1  0.82938000  0.26171000  0.72404000  1.0
  H  H14  1  0.32938000  0.26171000  0.77595000  1.0
  H  H15  1  0.17062000  0.73829000  0.27596000  1.0
  H  H16  1  0.46631000  0.58866000  0.29725000  1.0
  H  H17  1  0.03369000  0.41134000  0.79725000  1.0
  H  H18  1  0.53368000  0.41134000  0.70275000  1.0
  H  H19  1  0.96631000  0.58866000  0.20275000  1.0
  H  H20  1  0.53098000  0.71689000  0.38811000  1.0
  H  H21  1  0.96902000  0.28311000  0.88811000  1.0
  H  H22  1  0.46901000  0.28311000  0.61189000  1.0
  H  H23  1  0.03098000  0.71690000  0.11189000  1.0
  H  H24  1  0.71624000  0.94154000  0.44788000  1.0
  H  H25  1  0.78377000  0.05846000  0.94787000  1.0
  H  H26  1  0.28376000  0.05846000  0.55213000  1.0
  H  H27  1  0.21624000  0.94154000  0.05213000  1.0
  H  H28  1  0.48047000  0.61319000  0.52500000  1.0
  H  H29  1  0.01953000  0.38681000  0.02499000  1.0
  H  H30  1  0.51953000  0.38681000  0.47501000  1.0
  H  H31  1  0.98047000  0.61319000  0.97501000  1.0
  H  H32  1  0.36162000  0.68542000  0.57436000  1.0
  H  H33  1  0.13838000  0.31457000  0.07436000  1.0
  H  H34  1  0.63838000  0.31457000  0.42564000  1.0
  H  H35  1  0.86162000  0.68542000  0.92564000  1.0
  H  H36  1  0.32040000  0.71757000  0.50599000  1.0
  H  H37  1  0.17960000  0.28243000  0.00598000  1.0
  H  H38  1  0.67960000  0.28243000  0.49401000  1.0
  H  H39  1  0.82040000  0.71756000  0.99401000  1.0
  C  C40  1  0.84183000  0.93641000  0.27528000  1.0
  C  C41  1  0.65817000  0.06359000  0.77528000  1.0
  C  C42  1  0.15817000  0.06359000  0.72472000  1.0
  C  C43  1  0.34183000  0.93641000  0.22472000  1.0
  C  C44  1  0.69487000  0.78781000  0.26397000  1.0
  C  C45  1  0.80513000  0.21219000  0.76397000  1.0
  C  C46  1  0.30513000  0.21219000  0.73603000  1.0
  C  C47  1  0.19488000  0.78781000  0.23603000  1.0
  C  C48  1  0.58107000  0.70571000  0.30475000  1.0
  C  C49  1  0.91893000  0.29429000  0.80475000  1.0
  C  C50  1  0.41893000  0.29429000  0.69525000  1.0
  C  C51  1  0.08107000  0.70571000  0.19525000  1.0
  C  C52  1  0.61633000  0.77572000  0.35500000  1.0
  C  C53  1  0.88367000  0.22428000  0.85500000  1.0
  C  C54  1  0.38367000  0.22428000  0.64500000  1.0
  C  C55  1  0.11633000  0.77572000  0.14500000  1.0
  C  C56  1  0.76578000  0.92511000  0.36318000  1.0
  C  C57  1  0.73422000  0.07489000  0.86318000  1.0
  C  C58  1  0.23422000  0.07489000  0.63682000  1.0
  C  C59  1  0.26578000  0.92511000  0.13682000  1.0
  C  C60  1  0.80585000  0.00117000  0.41537000  1.0
  C  C61  1  0.69415000  0.99882000  0.91537000  1.0
  C  C62  1  0.19415000  0.99882000  0.58463000  1.0
  C  C63  1  0.30585000  0.00118000  0.08463000  1.0
  C  C64  1  0.13584000  0.36176000  0.47305000  1.0
  C  C65  1  0.36416000  0.63824000  0.97305000  1.0
  C  C66  1  0.86415000  0.63824000  0.52695000  1.0
  C  C67  1  0.63584000  0.36176000  0.02695000  1.0
  C  C68  1  0.35276000  0.63113000  0.53462000  1.0
  C  C69  1  0.14724000  0.36888000  0.03462000  1.0
  C  C70  1  0.64723000  0.36887000  0.46538000  1.0
  C  C71  1  0.85277000  0.63113000  0.96538000  1.0
  C  C72  1  0.29044000  0.37755000  0.22101000  1.0
  C  C73  1  0.20956000  0.62244000  0.72101000  1.0
  C  C74  1  0.70957000  0.62245000  0.77899000  1.0
  C  C75  1  0.79045000  0.37755000  0.27899000  1.0
  C  C76  1  0.29552000  0.00482000  0.41302000  1.0
  C  C77  1  0.20449000  0.99518000  0.91302000  1.0
  C  C78  1  0.70448000  0.99517000  0.58697000  1.0
  C  C79  1  0.79551000  0.00482000  0.08698000  1.0
  S  S80  1  0.25806000  0.47551000  0.42342000  1.0
  S  S81  1  0.24194000  0.52449000  0.92342000  1.0
  S  S82  1  0.74194000  0.52449000  0.57658000  1.0
  S  S83  1  0.75806000  0.47551000  0.07658000  1.0
  S  S84  1  0.17678000  0.42287000  0.53841000  1.0
  S  S85  1  0.32321000  0.57713000  0.03841000  1.0
  S  S86  1  0.82321000  0.57713000  0.46159000  1.0
  S  S87  1  0.67679000  0.42287000  0.96159000  1.0
  S  S88  1  0.39638000  0.46356000  0.16779000  1.0
  S  S89  1  0.10362000  0.53644000  0.66779000  1.0
  S  S90  1  0.60363000  0.53644000  0.83221000  1.0
  S  S91  1  0.89638000  0.46356000  0.33221000  1.0
  S  S92  1  0.36727000  0.09305000  0.35612000  1.0
  S  S93  1  0.13274000  0.90695000  0.85612000  1.0
  S  S94  1  0.63273000  0.90695000  0.64388000  1.0
  S  S95  1  0.86727000  0.09305000  0.14388000  1.0
  N  N96  1  0.87690000  0.00296000  0.32349000  1.0
  N  N97  1  0.62310000  0.99704000  0.82349000  1.0
  N  N98  1  0.12310000  0.99704000  0.67651000  1.0
  N  N99  1  0.37691000  0.00296000  0.17651000  1.0
  N  N100  1  0.94688000  0.13809000  0.42111000  1.0
  N  N101  1  0.55312000  0.86191000  0.92111000  1.0
  N  N102  1  0.05311000  0.86191000  0.57889000  1.0
  N  N103  1  0.44688000  0.13809000  0.07889000  1.0
  N  N104  1  0.99214000  0.21249000  0.46822000  1.0
  N  N105  1  0.50786000  0.78751000  0.96822000  1.0
  N  N106  1  0.00786000  0.78751000  0.53178000  1.0
  N  N107  1  0.49214000  0.21249000  0.03178000  1.0
  N  N108  1  0.21248000  0.31600000  0.25972000  1.0
  N  N109  1  0.28753000  0.68402000  0.75972000  1.0
  N  N110  1  0.78753000  0.68401000  0.74028000  1.0
  N  N111  1  0.71248000  0.31600000  0.24028000  1.0
  N  N112  1  0.24660000  0.94199000  0.45454000  1.0
  N  N113  1  0.25341000  0.05801000  0.95454000  1.0
  N  N114  1  0.75340000  0.05800000  0.54546000  1.0
  N  N115  1  0.74660000  0.94199000  0.04546000  1.0
