# generated using pymatgen
data_ZnH18C22(NO)4
_symmetry_space_group_name_H-M   'P 1'
_cell_length_a   10.43000000
_cell_length_b   10.46100000
_cell_length_c   10.74050151
_cell_angle_alpha   84.43464419
_cell_angle_beta   60.95178554
_cell_angle_gamma   78.47830000
_symmetry_Int_Tables_number   1
_chemical_formula_structural   ZnH18C22(NO)4
_chemical_formula_sum   'Zn2 H36 C44 N8 O8'
_cell_volume   1003.82443008
_cell_formula_units_Z   2
loop_
 _symmetry_equiv_pos_site_id
 _symmetry_equiv_pos_as_xyz
  1  'x, y, z'
loop_
 _atom_site_type_symbol
 _atom_site_label
 _atom_site_symmetry_multiplicity
 _atom_site_fract_x
 _atom_site_fract_y
 _atom_site_fract_z
 _atom_site_occupancy
  Zn  Zn0  1  0.46708000  0.69916000  0.39587000  1.0
  Zn  Zn1  1  0.86296000  0.19916000  0.60413000  1.0
  H  H2  1  0.20102000  0.34864000  0.20198000  1.0
  H  H3  1  0.40301000  0.84864000  0.79801000  1.0
  H  H4  1  0.44090000  0.37516000  0.98526000  1.0
  H  H5  1  0.42616000  0.87516000  0.01474000  1.0
  H  H6  1  0.66146000  0.20096000  0.91700000  1.0
  H  H7  1  0.57845000  0.70096000  0.08300000  1.0
  H  H8  1  0.64460000  0.99952000  0.06868000  1.0
  H  H9  1  0.71327000  0.49952000  0.93133000  1.0
  H  H10  1  0.17339000  0.55953000  0.17446000  1.0
  H  H11  1  0.34785000  0.05953000  0.82554000  1.0
  H  H12  1  0.24447000  0.58751000  0.91868000  1.0
  H  H13  1  0.16315000  0.08751000  0.08132000  1.0
  H  H14  1  0.88717000  0.91652000  0.02255000  1.0
  H  H15  1  0.90972000  0.41651000  0.97745000  1.0
  H  H16  1  0.81020000  0.88290000  0.27704000  1.0
  H  H17  1  0.08724000  0.38290000  0.72296000  1.0
  H  H18  1  0.86618000  0.78904000  0.46164000  1.0
  H  H19  1  0.32782000  0.28904000  0.53836000  1.0
  H  H20  1  0.86789000  0.62292000  0.44731000  1.0
  H  H21  1  0.31521000  0.12292000  0.55269000  1.0
  H  H22  1  0.22365000  0.81997000  0.74255000  1.0
  H  H23  1  0.96621000  0.31997000  0.25744000  1.0
  H  H24  1  0.15607000  0.67956000  0.74161000  1.0
  H  H25  1  0.89769000  0.17956000  0.25839000  1.0
  H  H26  1  0.16199000  0.83516000  0.36764000  1.0
  H  H27  1  0.52964000  0.33516000  0.63236000  1.0
  H  H28  1  0.28165000  0.48120000  0.54092000  1.0
  H  H29  1  0.82257000  0.98120000  0.45908000  1.0
  H  H30  1  0.02929000  0.46720000  0.51380000  1.0
  H  H31  1  0.54310000  0.96720000  0.48620000  1.0
  H  H32  1  0.11052000  0.02839000  0.67962000  1.0
  H  H33  1  0.79014000  0.52839000  0.32038000  1.0
  H  H34  1  0.69680000  0.94710000  0.75898000  1.0
  H  H35  1  0.45578000  0.44709000  0.24102000  1.0
  H  H36  1  0.84817000  0.73135000  0.83325000  1.0
  H  H37  1  0.68143000  0.23134000  0.16674000  1.0
  C  C38  1  0.41589000  0.06353000  0.22019000  1.0
  C  C39  1  0.63608000  0.56353000  0.77981000  1.0
  C  C40  1  0.28885000  0.16070000  0.25622000  1.0
  C  C41  1  0.54507000  0.66070000  0.74378000  1.0
  C  C42  1  0.29972000  0.27321000  0.17223000  1.0
  C  C43  1  0.47195000  0.77321000  0.82777000  1.0
  C  C44  1  0.43321000  0.28747000  0.05059000  1.0
  C  C45  1  0.48379000  0.78748000  0.94941000  1.0
  C  C46  1  0.55773000  0.18861000  0.01163000  1.0
  C  C47  1  0.56936000  0.68861000  0.98837000  1.0
  C  C48  1  0.54861000  0.07755000  0.09644000  1.0
  C  C49  1  0.64505000  0.57755000  0.90356000  1.0
  C  C50  1  0.41299000  0.94923000  0.31623000  1.0
  C  C51  1  0.72922000  0.44923000  0.68377000  1.0
  C  C52  1  0.13676000  0.14100000  0.37091000  1.0
  C  C53  1  0.50767000  0.64100000  0.62909000  1.0
  C  C54  1  0.98626000  0.71919000  0.24468000  1.0
  C  C55  1  0.23095000  0.21919000  0.75532000  1.0
  C  C56  1  0.10856000  0.63681000  0.14182000  1.0
  C  C57  1  0.25038000  0.13681000  0.85817000  1.0
  C  C58  1  0.15001000  0.65318000  0.99759000  1.0
  C  C59  1  0.14760000  0.15317000  0.00241000  1.0
  C  C60  1  0.07187000  0.75483000  0.95246000  1.0
  C  C61  1  0.02432000  0.25483000  0.04754000  1.0
  C  C62  1  0.95002000  0.83704000  0.05483000  1.0
  C  C63  1  0.00486000  0.33703000  0.94516000  1.0
  C  C64  1  0.90689000  0.81863000  0.19927000  1.0
  C  C65  1  0.10616000  0.31862000  0.80073000  1.0
  C  C66  1  0.93635000  0.70004000  0.40194000  1.0
  C  C67  1  0.33829000  0.20004000  0.59806000  1.0
  C  C68  1  0.12383000  0.77409000  0.79455000  1.0
  C  C69  1  0.91838000  0.27409000  0.20545000  1.0
  C  C70  1  0.16380000  0.73603000  0.40939000  1.0
  C  C71  1  0.57319000  0.23603000  0.59061000  1.0
  C  C72  1  0.21890000  0.55032000  0.50016000  1.0
  C  C73  1  0.71906000  0.05032000  0.49984000  1.0
  C  C74  1  0.09388000  0.54407000  0.49036000  1.0
  C  C75  1  0.58424000  0.04407000  0.50965000  1.0
  C  C76  1  0.01593000  0.98048000  0.71394000  1.0
  C  C77  1  0.72987000  0.48048000  0.28606000  1.0
  C  C78  1  0.80496000  0.93288000  0.75377000  1.0
  C  C79  1  0.55873000  0.43288000  0.24623000  1.0
  C  C80  1  0.87890000  0.82495000  0.79014000  1.0
  C  C81  1  0.66904000  0.32495000  0.20986000  1.0
  N  N82  1  0.26174000  0.66955000  0.44885000  1.0
  N  N83  1  0.71058000  0.16955000  0.55115000  1.0
  N  N84  1  0.06063000  0.66236000  0.43326000  1.0
  N  N85  1  0.49389000  0.16236000  0.56674000  1.0
  N  N86  1  0.01227000  0.85665000  0.76396000  1.0
  N  N87  1  0.77622000  0.35665000  0.23604000  1.0
  N  N88  1  0.89182000  0.02943000  0.70611000  1.0
  N  N89  1  0.59793000  0.52943000  0.29389000  1.0
  O  O90  1  0.32420000  0.95883000  0.44758000  1.0
  O  O91  1  0.77178000  0.45883000  0.55242000  1.0
  O  O92  1  0.50821000  0.84467000  0.25587000  1.0
  O  O93  1  0.76408000  0.34467000  0.74413000  1.0
  O  O94  1  0.08184000  0.05016000  0.35797000  1.0
  O  O95  1  0.43980000  0.55017000  0.64203000  1.0
  O  O96  1  0.06740000  0.22847000  0.47070000  1.0
  O  O97  1  0.53810000  0.72847000  0.52930000  1.0
