# generated using pymatgen
data_ZnH17C25NO5
_symmetry_space_group_name_H-M   'P 1'
_cell_length_a   11.02940000
_cell_length_b   18.26290000
_cell_length_c   19.15060000
_cell_angle_alpha   89.72140000
_cell_angle_beta   89.70910000
_cell_angle_gamma   89.73340000
_symmetry_Int_Tables_number   1
_chemical_formula_structural   ZnH17C25NO5
_chemical_formula_sum   'Zn2 H34 C50 N2 O10'
_cell_volume   3857.34629947
_cell_formula_units_Z   2
loop_
 _symmetry_equiv_pos_site_id
 _symmetry_equiv_pos_as_xyz
  1  'x, y, z'
loop_
 _atom_site_type_symbol
 _atom_site_label
 _atom_site_symmetry_multiplicity
 _atom_site_fract_x
 _atom_site_fract_y
 _atom_site_fract_z
 _atom_site_occupancy
  Zn  Zn0  1  0.48484000  0.42308000  0.50189000  1.0
  Zn  Zn1  1  0.48461000  0.57520000  0.49734000  1.0
  H  H2  1  0.09498000  0.56591000  0.41765000  1.0
  H  H3  1  0.86825000  0.56540000  0.42091000  1.0
  H  H4  1  0.64938000  0.30719000  0.55500000  1.0
  H  H5  1  0.32825000  0.30601000  0.44483000  1.0
  H  H6  1  0.65822000  0.17047000  0.55949000  1.0
  H  H7  1  0.32770000  0.16932000  0.43864000  1.0
  H  H8  1  0.29862000  0.06620000  0.49627000  1.0
  H  H9  1  0.68933000  0.06582000  0.50319000  1.0
  H  H10  1  0.29958000  0.93152000  0.49479000  1.0
  H  H11  1  0.68988000  0.93101000  0.50286000  1.0
  H  H12  1  0.64561000  0.82526000  0.56799000  1.0
  H  H13  1  0.34276000  0.83149000  0.42541000  1.0
  H  H14  1  0.63541000  0.68826000  0.56293000  1.0
  H  H15  1  0.34395000  0.69438000  0.42839000  1.0
  H  H16  1  0.21633000  0.42736000  0.61932000  1.0
  H  H17  1  0.76426000  0.42845000  0.62681000  1.0
  H  H18  1  0.10809000  0.37097000  0.71844000  1.0
  H  H19  1  0.88106000  0.37191000  0.72257000  1.0
  H  H20  1  0.63766000  0.60251000  0.69702000  1.0
  H  H21  1  0.63007000  0.60577000  0.29849000  1.0
  H  H22  1  0.71674000  0.60686000  0.81850000  1.0
  H  H23  1  0.70666000  0.61060000  0.17603000  1.0
  H  H24  1  0.52983000  0.40495000  0.86316000  1.0
  H  H25  1  0.54166000  0.40061000  0.13916000  1.0
  H  H26  1  0.70796000  0.39427000  0.93473000  1.0
  H  H27  1  0.70845000  0.39430000  0.06379000  1.0
  H  H28  1  0.62351000  0.62464000  0.06285000  1.0
  H  H29  1  0.62466000  0.62474000  0.93403000  1.0
  H  H30  1  0.54794000  0.30087000  0.76534000  1.0
  H  H31  1  0.54567000  0.32988000  0.67512000  1.0
  H  H32  1  0.41716000  0.28393000  0.71233000  1.0
  H  H33  1  0.56825000  0.32656000  0.33009000  1.0
  H  H34  1  0.57910000  0.30105000  0.23929000  1.0
  H  H35  1  0.44796000  0.27605000  0.28968000  1.0
  C  C36  1  0.50971000  0.50032000  0.36395000  1.0
  C  C37  1  0.50259000  0.50212000  0.63604000  1.0
  C  C38  1  0.63068000  0.50552000  0.84993000  1.0
  C  C39  1  0.63159000  0.50529000  0.14837000  1.0
  C  C40  1  0.55895000  0.44740000  0.82659000  1.0
  C  C41  1  0.56729000  0.44472000  0.17423000  1.0
  C  C42  1  0.51457000  0.44511000  0.75855000  1.0
  C  C43  1  0.52609000  0.44166000  0.24319000  1.0
  C  C44  1  0.54301000  0.50150000  0.71072000  1.0
  C  C45  1  0.54873000  0.50013000  0.28884000  1.0
  C  C46  1  0.68853000  0.44485000  0.96284000  1.0
  C  C47  1  0.68861000  0.44485000  0.03540000  1.0
  C  C48  1  0.66002000  0.50870000  0.07299000  1.0
  C  C49  1  0.66048000  0.50880000  0.92492000  1.0
  C  C50  1  0.64513000  0.57418000  0.03504000  1.0
  C  C51  1  0.64567000  0.57427000  0.96230000  1.0
  C  C52  1  0.57923000  0.27372000  0.53125000  1.0
  C  C53  1  0.39977000  0.27313000  0.46883000  1.0
  C  C54  1  0.58417000  0.19772000  0.53219000  1.0
  C  C55  1  0.39960000  0.19714000  0.46671000  1.0
  C  C56  1  0.49280000  0.15723000  0.49943000  1.0
  C  C57  1  0.24860000  0.49779000  0.50238000  1.0
  C  C58  1  0.72240000  0.49671000  0.50726000  1.0
  C  C59  1  0.38497000  0.03694000  0.49634000  1.0
  C  C60  1  0.60329000  0.03668000  0.50239000  1.0
  C  C61  1  0.38541000  0.96088000  0.49561000  1.0
  C  C62  1  0.60369000  0.96051000  0.50210000  1.0
  C  C63  1  0.49474000  0.92117000  0.49829000  1.0
  C  C64  1  0.49393000  0.07645000  0.49935000  1.0
  C  C65  1  0.57809000  0.79880000  0.53548000  1.0
  C  C66  1  0.40833000  0.80222000  0.45762000  1.0
  C  C67  1  0.57264000  0.72287000  0.53366000  1.0
  C  C68  1  0.40871000  0.72620000  0.45842000  1.0
  C  C69  1  0.49410000  0.84046000  0.49711000  1.0
  C  C70  1  0.11750000  0.42719000  0.62025000  1.0
  C  C71  1  0.86291000  0.42762000  0.62450000  1.0
  C  C72  1  0.05673000  0.39545000  0.67567000  1.0
  C  C73  1  0.92855000  0.39589000  0.67788000  1.0
  C  C74  1  0.92230000  0.46104000  0.56653000  1.0
  C  C75  1  0.05278000  0.46110000  0.56466000  1.0
  C  C76  1  0.11305000  0.49834000  0.50872000  1.0
  C  C77  1  0.85771000  0.49800000  0.51209000  1.0
  C  C78  1  0.04722000  0.53637000  0.45897000  1.0
  C  C79  1  0.91990000  0.53616000  0.46072000  1.0
  C  C80  1  0.61604000  0.55916000  0.73427000  1.0
  C  C81  1  0.61328000  0.56063000  0.26284000  1.0
  C  C82  1  0.65974000  0.56149000  0.80216000  1.0
  C  C83  1  0.65524000  0.56331000  0.19431000  1.0
  C  C84  1  0.49078000  0.32244000  0.72274000  1.0
  C  C85  1  0.51712000  0.31827000  0.28158000  1.0
  N  N86  1  0.48806000  0.31078000  0.50064000  1.0
  N  N87  1  0.48912000  0.68728000  0.49604000  1.0
  O  O88  1  0.51152000  0.43944000  0.39665000  1.0
  O  O89  1  0.47515000  0.44118000  0.60829000  1.0
  O  O90  1  0.48231000  0.56226000  0.39015000  1.0
  O  O91  1  0.50326000  0.56391000  0.60478000  1.0
  O  O92  1  0.30024000  0.43569000  0.49577000  1.0
  O  O93  1  0.67009000  0.43526000  0.51575000  1.0
  O  O94  1  0.30086000  0.55974000  0.50319000  1.0
  O  O95  1  0.67004000  0.55729000  0.49314000  1.0
  O  O96  1  0.43419000  0.39003000  0.74223000  1.0
  O  O97  1  0.45295000  0.38387000  0.26296000  1.0
