# generated using pymatgen
data_CuH9C14SN6
_symmetry_space_group_name_H-M   'P 1'
_cell_length_a   5.65035000
_cell_length_b   8.34119000
_cell_length_c   14.10690000
_cell_angle_alpha   85.90740000
_cell_angle_beta   82.78440000
_cell_angle_gamma   86.31580000
_symmetry_Int_Tables_number   1
_chemical_formula_structural   CuH9C14SN6
_chemical_formula_sum   'Cu2 H18 C28 S2 N12'
_cell_volume   656.89200865
_cell_formula_units_Z   2
loop_
 _symmetry_equiv_pos_site_id
 _symmetry_equiv_pos_as_xyz
  1  'x, y, z'
loop_
 _atom_site_type_symbol
 _atom_site_label
 _atom_site_symmetry_multiplicity
 _atom_site_fract_x
 _atom_site_fract_y
 _atom_site_fract_z
 _atom_site_occupancy
  Cu  Cu0  1  0.40268000  0.65417000  0.49537000  1.0
  Cu  Cu1  1  0.59729000  0.34584000  0.50462000  1.0
  H  H2  1  0.34152000  0.99293000  0.41851000  1.0
  H  H3  1  0.65846000  0.00708000  0.58148000  1.0
  H  H4  1  0.58751000  0.18661000  0.31205000  1.0
  H  H5  1  0.41250000  0.81340000  0.68795000  1.0
  H  H6  1  0.14545000  0.80998000  0.27856000  1.0
  H  H7  1  0.85454000  0.19001000  0.72145000  1.0
  H  H8  1  0.87652000  0.62980000  0.38418000  1.0
  H  H9  1  0.12345000  0.37019000  0.61582000  1.0
  H  H10  1  0.55886000  0.13586000  0.09804000  1.0
  H  H11  1  0.44115000  0.86414000  0.90198000  1.0
  H  H12  1  0.31506000  0.61595000  0.03996000  1.0
  H  H13  1  0.68496000  0.38406000  0.96003000  1.0
  H  H14  1  0.14441000  0.89791000  0.00978000  1.0
  H  H15  1  0.85559000  0.10210000  0.99022000  1.0
  H  H16  1  0.49445000  0.79329000  0.16265000  1.0
  H  H17  1  0.50556000  0.20670000  0.83735000  1.0
  H  H18  1  0.63664000  0.50665000  0.20024000  1.0
  H  H19  1  0.36340000  0.49335000  0.79976000  1.0
  C  C20  1  0.88804000  0.62467000  0.58230000  1.0
  C  C21  1  0.11195000  0.37533000  0.41770000  1.0
  C  C22  1  0.52072000  0.95692000  0.38619000  1.0
  C  C23  1  0.47926000  0.04308000  0.61381000  1.0
  C  C24  1  0.65766000  0.06426000  0.32684000  1.0
  C  C25  1  0.34234000  0.93574000  0.67316000  1.0
  C  C26  1  0.88672000  0.01387000  0.28624000  1.0
  C  C27  1  0.11328000  0.98613000  0.71376000  1.0
  C  C28  1  0.96909000  0.85543000  0.30848000  1.0
  C  C29  1  0.03090000  0.14456000  0.69152000  1.0
  C  C30  1  0.81995000  0.75465000  0.36751000  1.0
  C  C31  1  0.18002000  0.24534000  0.63249000  1.0
  C  C32  1  0.03361000  0.12486000  0.22084000  1.0
  C  C33  1  0.96639000  0.87514000  0.77916000  1.0
  C  C34  1  0.08373000  0.37326000  0.14568000  1.0
  C  C35  1  0.91629000  0.62674000  0.85432000  1.0
  C  C36  1  0.37968000  0.17777000  0.12805000  1.0
  C  C37  1  0.62032000  0.82223000  0.87196000  1.0
  C  C38  1  0.98921000  0.53986000  0.12416000  1.0
  C  C39  1  0.01081000  0.46014000  0.87585000  1.0
  C  C40  1  0.13304000  0.65147000  0.06917000  1.0
  C  C41  1  0.86697000  0.34854000  0.93084000  1.0
  C  C42  1  0.03724000  0.80743000  0.05201000  1.0
  C  C43  1  0.96276000  0.19258000  0.94799000  1.0
  C  C44  1  0.67520000  0.74877000  0.13650000  1.0
  C  C45  1  0.32481000  0.25123000  0.86350000  1.0
  C  C46  1  0.75429000  0.59015000  0.15794000  1.0
  C  C47  1  0.24573000  0.40985000  0.84206000  1.0
  S  S48  1  0.62475000  0.55586000  0.62007000  1.0
  S  S49  1  0.37525000  0.44413000  0.37991000  1.0
  N  N50  1  0.07898000  0.67075000  0.55310000  1.0
  N  N51  1  0.92102000  0.32927000  0.44690000  1.0
  N  N52  1  0.59816000  0.80308000  0.40661000  1.0
  N  N53  1  0.40181000  0.19692000  0.59339000  1.0
  N  N54  1  0.94060000  0.27458000  0.20266000  1.0
  N  N55  1  0.05940000  0.72542000  0.79734000  1.0
  N  N56  1  0.30816000  0.33076000  0.10735000  1.0
  N  N57  1  0.69186000  0.66924000  0.89266000  1.0
  N  N58  1  0.25230000  0.06936000  0.18364000  1.0
  N  N59  1  0.74770000  0.93064000  0.81636000  1.0
  N  N60  1  0.81238000  0.85707000  0.08471000  1.0
  N  N61  1  0.18761000  0.14293000  0.91528000  1.0
