# generated using pymatgen
data_DyH18(C2O)7
_symmetry_space_group_name_H-M   'P 1'
_cell_length_a   12.88350000
_cell_length_b   14.10400000
_cell_length_c   18.82680000
_cell_angle_alpha   90.00010000
_cell_angle_beta   90.00000000
_cell_angle_gamma   89.99990000
_symmetry_Int_Tables_number   1
_chemical_formula_structural   DyH18(C2O)7
_chemical_formula_sum   'Dy8 H144 C112 O56'
_cell_volume   3420.99681728
_cell_formula_units_Z   8
loop_
 _symmetry_equiv_pos_site_id
 _symmetry_equiv_pos_as_xyz
  1  'x, y, z'
loop_
 _atom_site_type_symbol
 _atom_site_label
 _atom_site_symmetry_multiplicity
 _atom_site_fract_x
 _atom_site_fract_y
 _atom_site_fract_z
 _atom_site_occupancy
  Dy  Dy0  1  0.28318000  0.00401000  0.11017000  1.0
  Dy  Dy1  1  0.21682000  0.99599000  0.61017000  1.0
  Dy  Dy2  1  0.71682000  0.50401000  0.38983000  1.0
  Dy  Dy3  1  0.78318000  0.49599000  0.88983000  1.0
  Dy  Dy4  1  0.22735000  0.02113000  0.32759000  1.0
  Dy  Dy5  1  0.27265000  0.97887000  0.82759000  1.0
  Dy  Dy6  1  0.77265000  0.52113000  0.17241000  1.0
  Dy  Dy7  1  0.72735000  0.47887000  0.67241000  1.0
  H  H8  1  0.00677000  0.06865000  0.11829000  1.0
  H  H9  1  0.49323000  0.93135000  0.61828000  1.0
  H  H10  1  0.99323000  0.56865000  0.38172000  1.0
  H  H11  1  0.50677000  0.43135000  0.88172000  1.0
  H  H12  1  0.87671000  0.04083000  0.24792000  1.0
  H  H13  1  0.62329000  0.95917000  0.74792000  1.0
  H  H14  1  0.12329000  0.54083000  0.25208000  1.0
  H  H15  1  0.37671000  0.45918000  0.75208000  1.0
  H  H16  1  0.84719000  0.01382000  0.15848000  1.0
  H  H17  1  0.65282000  0.98617000  0.65848000  1.0
  H  H18  1  0.15281000  0.51383000  0.34152000  1.0
  H  H19  1  0.34719000  0.48618000  0.84152000  1.0
  H  H20  1  0.73388000  0.14862000  0.16760000  1.0
  H  H21  1  0.76612000  0.85138000  0.66760000  1.0
  H  H22  1  0.26612000  0.64862000  0.33240000  1.0
  H  H23  1  0.23388000  0.35138000  0.83240000  1.0
  H  H24  1  0.80249000  0.19251000  0.24166000  1.0
  H  H25  1  0.69751000  0.80748000  0.74166000  1.0
  H  H26  1  0.19751000  0.69251000  0.25834000  1.0
  H  H27  1  0.30249000  0.30749000  0.75834000  1.0
  H  H28  1  0.77730000  0.21664000  0.04659000  1.0
  H  H29  1  0.72270000  0.78336000  0.54659000  1.0
  H  H30  1  0.22269000  0.71664000  0.45341000  1.0
  H  H31  1  0.27730000  0.28336000  0.95341000  1.0
  H  H32  1  0.86847000  0.12302000  0.05519000  1.0
  H  H33  1  0.63153000  0.87698000  0.55519000  1.0
  H  H34  1  0.13152000  0.62302000  0.44481000  1.0
  H  H35  1  0.36847000  0.37698000  0.94481000  1.0
  H  H36  1  0.91060000  0.23602000  0.02667000  1.0
  H  H37  1  0.58940000  0.76398000  0.52667000  1.0
  H  H38  1  0.08940000  0.73602000  0.47333000  1.0
  H  H39  1  0.41060000  0.26398000  0.97333000  1.0
  H  H40  1  0.01075000  0.33255000  0.23213000  1.0
  H  H41  1  0.48925000  0.66745000  0.73213000  1.0
  H  H42  1  0.98924000  0.83255000  0.26787000  1.0
  H  H43  1  0.51075000  0.16745000  0.76787000  1.0
  H  H44  1  0.09245000  0.23611000  0.25476000  1.0
  H  H45  1  0.40755000  0.76389000  0.75476000  1.0
  H  H46  1  0.90755000  0.73611000  0.24524000  1.0
  H  H47  1  0.59245000  0.26389000  0.74524000  1.0
  H  H48  1  0.96020000  0.23293000  0.27887000  1.0
  H  H49  1  0.53980000  0.76707000  0.77887000  1.0
  H  H50  1  0.03980000  0.73293000  0.22113000  1.0
  H  H51  1  0.46020000  0.26707000  0.72113000  1.0
  H  H52  1  0.06417000  0.31768000  0.10097000  1.0
  H  H53  1  0.43583000  0.68232000  0.60097000  1.0
  H  H54  1  0.93582000  0.81768000  0.39903000  1.0
  H  H55  1  0.56417000  0.18232000  0.89903000  1.0
  H  H56  1  0.06645000  0.20319000  0.06025000  1.0
  H  H57  1  0.43355000  0.79681000  0.56025000  1.0
  H  H58  1  0.93355000  0.70319000  0.43975000  1.0
  H  H59  1  0.56645000  0.29681000  0.93975000  1.0
  H  H60  1  0.15057000  0.22847000  0.13144000  1.0
  H  H61  1  0.34943000  0.77153000  0.63144000  1.0
  H  H62  1  0.84943000  0.72847000  0.36857000  1.0
  H  H63  1  0.65057000  0.27153000  0.86857000  1.0
  H  H64  1  0.60284000  0.89924000  0.15286000  1.0
  H  H65  1  0.89716000  0.10076000  0.65287000  1.0
  H  H66  1  0.39716000  0.39924000  0.34714000  1.0
  H  H67  1  0.10284000  0.60076000  0.84714000  1.0
  H  H68  1  0.66518000  0.99903000  0.18874000  1.0
  H  H69  1  0.83482000  0.00097000  0.68874000  1.0
  H  H70  1  0.33482000  0.49903000  0.31126000  1.0
  H  H71  1  0.16518000  0.50097000  0.81126000  1.0
  H  H72  1  0.78817000  0.90188000  0.25160000  1.0
  H  H73  1  0.71183000  0.09812000  0.75160000  1.0
  H  H74  1  0.21183000  0.40188000  0.24840000  1.0
  H  H75  1  0.28817000  0.59812000  0.74840000  1.0
  H  H76  1  0.75288000  0.81629000  0.18758000  1.0
  H  H77  1  0.74712000  0.18371000  0.68758000  1.0
  H  H78  1  0.24712000  0.31629000  0.31242000  1.0
  H  H79  1  0.25288000  0.68371000  0.81242000  1.0
  H  H80  1  0.70497000  0.82164000  0.34093000  1.0
  H  H81  1  0.79503000  0.17836000  0.84093000  1.0
  H  H82  1  0.29503000  0.32164000  0.15907000  1.0
  H  H83  1  0.20497000  0.67836000  0.65907000  1.0
  H  H84  1  0.59444000  0.07480000  0.29354000  1.0
  H  H85  1  0.90556000  0.92520000  0.79354000  1.0
  H  H86  1  0.40556000  0.57480000  0.20646000  1.0
  H  H87  1  0.09444000  0.42520000  0.70646000  1.0
  H  H88  1  0.65797000  0.98507000  0.34295000  1.0
  H  H89  1  0.84203000  0.01493000  0.84295000  1.0
  H  H90  1  0.34203000  0.48507000  0.15705000  1.0
  H  H91  1  0.15797000  0.51493000  0.65705000  1.0
  H  H92  1  0.52428000  0.01028000  0.35864000  1.0
  H  H93  1  0.97572000  0.98972000  0.85864000  1.0
  H  H94  1  0.47572000  0.51028000  0.14136000  1.0
  H  H95  1  0.02428000  0.48972000  0.64136000  1.0
  H  H96  1  0.49649000  0.68733000  0.26311000  1.0
  H  H97  1  0.00351000  0.31267000  0.76311000  1.0
  H  H98  1  0.50351000  0.18733000  0.23689000  1.0
  H  H99  1  0.99649000  0.81267000  0.73689000  1.0
  H  H100  1  0.51557000  0.76262000  0.18888000  1.0
  H  H101  1  0.98443000  0.23738000  0.68888000  1.0
  H  H102  1  0.48443000  0.26262000  0.31112000  1.0
  H  H103  1  0.01557000  0.73738000  0.81112000  1.0
  H  H104  1  0.40698000  0.77984000  0.24598000  1.0
  H  H105  1  0.09302000  0.22016000  0.74598000  1.0
  H  H106  1  0.59302000  0.27984000  0.25402000  1.0
  H  H107  1  0.90698000  0.72016000  0.75402000  1.0
  H  H108  1  0.50351000  0.74527000  0.38264000  1.0
  H  H109  1  0.99649000  0.25473000  0.88264000  1.0
  H  H110  1  0.49649000  0.24527000  0.11736000  1.0
  H  H111  1  0.00351000  0.75473000  0.61736000  1.0
  H  H112  1  0.43093000  0.85080000  0.36963000  1.0
  H  H113  1  0.06907000  0.14920000  0.86963000  1.0
  H  H114  1  0.56907000  0.35080000  0.13037000  1.0
  H  H115  1  0.93093000  0.64920000  0.63037000  1.0
  H  H116  1  0.55768000  0.85710000  0.40633000  1.0
  H  H117  1  0.94233000  0.14290000  0.90633000  1.0
  H  H118  1  0.44232000  0.35710000  0.09367000  1.0
  H  H119  1  0.05768000  0.64290000  0.59367000  1.0
  H  H120  1  0.46764000  0.81042000  0.09076000  1.0
  H  H121  1  0.03237000  0.18958000  0.59076000  1.0
  H  H122  1  0.53236000  0.31042000  0.40924000  1.0
  H  H123  1  0.96763000  0.68958000  0.90925000  1.0
  H  H124  1  0.58077000  0.66779000  0.11222000  1.0
  H  H125  1  0.91924000  0.33222000  0.61222000  1.0
  H  H126  1  0.41924000  0.16778000  0.38778000  1.0
  H  H127  1  0.08077000  0.83221000  0.88778000  1.0
  H  H128  1  0.52583000  0.57586000  0.89793000  1.0
  H  H129  1  0.97417000  0.42414000  0.39793000  1.0
  H  H130  1  0.47417000  0.07586000  0.60207000  1.0
  H  H131  1  0.02583000  0.92414000  0.10207000  1.0
  H  H132  1  0.41213000  0.71703000  0.87734000  1.0
  H  H133  1  0.08787000  0.28297000  0.37734000  1.0
  H  H134  1  0.58787000  0.21703000  0.62266000  1.0
  H  H135  1  0.91213000  0.78297000  0.12266000  1.0
  H  H136  1  0.26648000  0.79805000  0.13411000  1.0
  H  H137  1  0.23352000  0.20195000  0.63411000  1.0
  H  H138  1  0.73352000  0.29805000  0.36589000  1.0
  H  H139  1  0.76648000  0.70195000  0.86589000  1.0
  H  H140  1  0.21422000  0.84233000  0.20417000  1.0
  H  H141  1  0.28578000  0.15767000  0.70417000  1.0
  H  H142  1  0.78578000  0.34233000  0.29583000  1.0
  H  H143  1  0.71422000  0.65767000  0.79583000  1.0
  H  H144  1  0.37952000  0.10596000  0.98193000  1.0
  H  H145  1  0.12048000  0.89404000  0.48193000  1.0
  H  H146  1  0.62048000  0.60596000  0.51807000  1.0
  H  H147  1  0.87952000  0.39404000  0.01807000  1.0
  H  H148  1  0.38951000  0.15886000  0.05769000  1.0
  H  H149  1  0.11049000  0.84115000  0.55769000  1.0
  H  H150  1  0.61049000  0.65886000  0.44231000  1.0
  H  H151  1  0.88951000  0.34115000  0.94231000  1.0
  C  C152  1  0.98884000  0.09614000  0.17145000  1.0
  C  C153  1  0.51116000  0.90386000  0.67145000  1.0
  C  C154  1  0.01116000  0.59614000  0.32855000  1.0
  C  C155  1  0.48884000  0.40386000  0.82855000  1.0
  C  C156  1  0.87719000  0.06941000  0.19378000  1.0
  C  C157  1  0.62281000  0.93059000  0.69378000  1.0
  C  C158  1  0.12281000  0.56941000  0.30623000  1.0
  C  C159  1  0.37719000  0.43059000  0.80622000  1.0
  C  C160  1  0.81216000  0.16080000  0.18892000  1.0
  C  C161  1  0.68784000  0.83920000  0.68892000  1.0
  C  C162  1  0.18784000  0.66080000  0.31108000  1.0
  C  C163  1  0.31216000  0.33921000  0.81108000  1.0
  C  C164  1  0.87511000  0.22748000  0.14063000  1.0
  C  C165  1  0.62489000  0.77251000  0.64063000  1.0
  C  C166  1  0.12489000  0.72749000  0.35937000  1.0
  C  C167  1  0.37511000  0.27252000  0.85937000  1.0
  C  C168  1  0.99131000  0.20768000  0.16505000  1.0
  C  C169  1  0.50869000  0.79232000  0.66505000  1.0
  C  C170  1  0.00868000  0.70768000  0.33495000  1.0
  C  C171  1  0.49131000  0.29232000  0.83495000  1.0
  C  C172  1  0.07040000  0.05580000  0.22084000  1.0
  C  C173  1  0.42960000  0.94420000  0.72084000  1.0
  C  C174  1  0.92960000  0.55580000  0.27916000  1.0
  C  C175  1  0.57040000  0.44420000  0.77916000  1.0
  C  C176  1  0.84676000  0.33152000  0.15131000  1.0
  C  C177  1  0.65324000  0.66848000  0.65131000  1.0
  C  C178  1  0.15324000  0.83152000  0.34869000  1.0
  C  C179  1  0.34676000  0.16848000  0.84869000  1.0
  C  C180  1  0.85715000  0.19955000  0.06261000  1.0
  C  C181  1  0.64285000  0.80045000  0.56261000  1.0
  C  C182  1  0.14285000  0.69956000  0.43739000  1.0
  C  C183  1  0.35715000  0.30045000  0.93739000  1.0
  C  C184  1  0.01405000  0.25493000  0.23689000  1.0
  C  C185  1  0.48595000  0.74507000  0.73690000  1.0
  C  C186  1  0.98595000  0.75493000  0.26311000  1.0
  C  C187  1  0.51405000  0.24507000  0.76311000  1.0
  C  C188  1  0.07210000  0.24118000  0.11094000  1.0
  C  C189  1  0.42790000  0.75882000  0.61095000  1.0
  C  C190  1  0.92790000  0.74118000  0.38906000  1.0
  C  C191  1  0.57210000  0.25882000  0.88906000  1.0
  C  C192  1  0.55411000  0.93171000  0.26038000  1.0
  C  C193  1  0.94589000  0.06829000  0.76038000  1.0
  C  C194  1  0.44589000  0.43171000  0.23962000  1.0
  C  C195  1  0.05411000  0.56829000  0.73962000  1.0
  C  C196  1  0.63702000  0.92763000  0.20175000  1.0
  C  C197  1  0.86298000  0.07237000  0.70175000  1.0
  C  C198  1  0.36299000  0.42763000  0.29825000  1.0
  C  C199  1  0.13702000  0.57237000  0.79826000  1.0
  C  C200  1  0.72241000  0.86194000  0.22985000  1.0
  C  C201  1  0.77759000  0.13806000  0.72985000  1.0
  C  C202  1  0.27759000  0.36194000  0.27015000  1.0
  C  C203  1  0.22241000  0.63806000  0.77015000  1.0
  C  C204  1  0.67243000  0.80192000  0.28900000  1.0
  C  C205  1  0.82757000  0.19807000  0.78900000  1.0
  C  C206  1  0.32757000  0.30192000  0.21100000  1.0
  C  C207  1  0.17243000  0.69808000  0.71100000  1.0
  C  C208  1  0.55326000  0.82731000  0.29171000  1.0
  C  C209  1  0.94674000  0.17269000  0.79171000  1.0
  C  C210  1  0.44674000  0.32731000  0.20829000  1.0
  C  C211  1  0.05326000  0.67269000  0.70829000  1.0
  C  C212  1  0.44740000  0.95607000  0.22998000  1.0
  C  C213  1  0.05260000  0.04393000  0.72998000  1.0
  C  C214  1  0.55260000  0.45607000  0.27002000  1.0
  C  C215  1  0.94740000  0.54393000  0.77002000  1.0
  C  C216  1  0.68953000  0.69592000  0.28213000  1.0
  C  C217  1  0.81047000  0.30408000  0.78214000  1.0
  C  C218  1  0.31047000  0.19591000  0.21787000  1.0
  C  C219  1  0.18953000  0.80409000  0.71787000  1.0
  C  C220  1  0.58412000  0.00450000  0.31758000  1.0
  C  C221  1  0.91588000  0.99550000  0.81758000  1.0
  C  C222  1  0.41588000  0.50450000  0.18242000  1.0
  C  C223  1  0.08412000  0.49550000  0.68242000  1.0
  C  C224  1  0.48964000  0.76070000  0.24415000  1.0
  C  C225  1  0.01035000  0.23930000  0.74415000  1.0
  C  C226  1  0.51036000  0.26070000  0.25585000  1.0
  C  C227  1  0.98964000  0.73930000  0.75585000  1.0
  C  C228  1  0.50922000  0.82026000  0.36710000  1.0
  C  C229  1  0.99078000  0.17974000  0.86710000  1.0
  C  C230  1  0.49078000  0.32025000  0.13290000  1.0
  C  C231  1  0.00922000  0.67974000  0.63290000  1.0
  C  C232  1  0.43146000  0.77024000  0.98352000  1.0
  C  C233  1  0.06854000  0.22976000  0.48352000  1.0
  C  C234  1  0.56854000  0.27024000  0.51648000  1.0
  C  C235  1  0.93146000  0.72976000  0.01648000  1.0
  C  C236  1  0.47944000  0.75704000  0.04961000  1.0
  C  C237  1  0.02057000  0.24296000  0.54961000  1.0
  C  C238  1  0.52056000  0.25704000  0.45039000  1.0
  C  C239  1  0.97943000  0.74296000  0.95039000  1.0
  C  C240  1  0.54234000  0.67836000  0.06126000  1.0
  C  C241  1  0.95766000  0.32164000  0.56126000  1.0
  C  C242  1  0.45767000  0.17836000  0.43874000  1.0
  C  C243  1  0.04234000  0.82164000  0.93874000  1.0
  C  C244  1  0.55778000  0.61169000  0.00699000  1.0
  C  C245  1  0.94221000  0.38831000  0.50699000  1.0
  C  C246  1  0.44222000  0.11168000  0.49301000  1.0
  C  C247  1  0.05779000  0.88831000  0.99301000  1.0
  C  C248  1  0.51110000  0.62618000  0.94049000  1.0
  C  C249  1  0.98890000  0.37381000  0.44049000  1.0
  C  C250  1  0.48890000  0.12618000  0.55951000  1.0
  C  C251  1  0.01110000  0.87381000  0.05951000  1.0
  C  C252  1  0.44839000  0.70482000  0.92876000  1.0
  C  C253  1  0.05161000  0.29518000  0.42876000  1.0
  C  C254  1  0.55161000  0.20482000  0.57124000  1.0
  C  C255  1  0.94840000  0.79518000  0.07124000  1.0
  C  C256  1  0.36298000  0.85452000  0.97138000  1.0
  C  C257  1  0.13702000  0.14548000  0.47138000  1.0
  C  C258  1  0.63702000  0.35452000  0.52862000  1.0
  C  C259  1  0.86298000  0.64548000  0.02862000  1.0
  C  C260  1  0.62560000  0.52692000  0.01946000  1.0
  C  C261  1  0.87440000  0.47308000  0.51946000  1.0
  C  C262  1  0.37440000  0.02692000  0.48054000  1.0
  C  C263  1  0.12560000  0.97308000  0.98054000  1.0
  O  O264  1  0.15987000  0.03125000  0.19554000  1.0
  O  O265  1  0.34013000  0.96875000  0.69553000  1.0
  O  O266  1  0.84013000  0.53125000  0.30446000  1.0
  O  O267  1  0.65987000  0.46875000  0.80446000  1.0
  O  O268  1  0.05355000  0.04699000  0.28671000  1.0
  O  O269  1  0.44645000  0.95301000  0.78671000  1.0
  O  O270  1  0.94646000  0.54699000  0.21329000  1.0
  O  O271  1  0.55355000  0.45301000  0.71329000  1.0
  O  O272  1  0.86279000  0.39344000  0.10295000  1.0
  O  O273  1  0.63721000  0.60656000  0.60295000  1.0
  O  O274  1  0.13721000  0.89344000  0.39705000  1.0
  O  O275  1  0.36279000  0.10656000  0.89705000  1.0
  O  O276  1  0.80519000  0.35981000  0.20950000  1.0
  O  O277  1  0.69481000  0.64019000  0.70950000  1.0
  O  O278  1  0.19481000  0.85981000  0.29050000  1.0
  O  O279  1  0.30519000  0.14019000  0.79050000  1.0
  O  O280  1  0.37329000  0.97323000  0.27263000  1.0
  O  O281  1  0.12671000  0.02677000  0.77263000  1.0
  O  O282  1  0.62671000  0.47323000  0.22736000  1.0
  O  O283  1  0.87329000  0.52677000  0.72736000  1.0
  O  O284  1  0.43528000  0.95641000  0.16284000  1.0
  O  O285  1  0.06472000  0.04359000  0.66284000  1.0
  O  O286  1  0.56473000  0.45640000  0.33716000  1.0
  O  O287  1  0.93527000  0.54359000  0.83715000  1.0
  O  O288  1  0.67366000  0.64708000  0.33834000  1.0
  O  O289  1  0.82634000  0.35292000  0.83834000  1.0
  O  O290  1  0.32634000  0.14708000  0.16166000  1.0
  O  O291  1  0.17366000  0.85292000  0.66166000  1.0
  O  O292  1  0.71679000  0.66152000  0.22265000  1.0
  O  O293  1  0.78320000  0.33848000  0.72264000  1.0
  O  O294  1  0.28320000  0.16152000  0.27736000  1.0
  O  O295  1  0.21680000  0.83847000  0.77736000  1.0
  O  O296  1  0.34148000  0.87621000  0.90779000  1.0
  O  O297  1  0.15853000  0.12379000  0.40779000  1.0
  O  O298  1  0.65852000  0.37621000  0.59220000  1.0
  O  O299  1  0.84148000  0.62379000  0.09221000  1.0
  O  O300  1  0.32974000  0.89861000  0.02583000  1.0
  O  O301  1  0.17026000  0.10140000  0.52583000  1.0
  O  O302  1  0.67026000  0.39861000  0.47417000  1.0
  O  O303  1  0.82974000  0.60140000  0.97417000  1.0
  O  O304  1  0.64821000  0.47472000  0.96600000  1.0
  O  O305  1  0.85179000  0.52528000  0.46599000  1.0
  O  O306  1  0.35179000  0.97472000  0.53401000  1.0
  O  O307  1  0.14821000  0.02528000  0.03401000  1.0
  O  O308  1  0.65693000  0.51038000  0.08203000  1.0
  O  O309  1  0.84307000  0.48961000  0.58203000  1.0
  O  O310  1  0.34308000  0.01038000  0.41797000  1.0
  O  O311  1  0.15693000  0.98961000  0.91797000  1.0
  O  O312  1  0.22725000  0.85162000  0.15226000  1.0
  O  O313  1  0.27275000  0.14838000  0.65226000  1.0
  O  O314  1  0.77275000  0.35162000  0.34774000  1.0
  O  O315  1  0.72725000  0.64838000  0.84774000  1.0
  O  O316  1  0.38632000  0.09700000  0.03471000  1.0
  O  O317  1  0.11368000  0.90300000  0.53471000  1.0
  O  O318  1  0.61368000  0.59700000  0.46529000  1.0
  O  O319  1  0.88633000  0.40301000  0.96529000  1.0
