# generated using pymatgen
data_NiH17C19(NO3)2
_symmetry_space_group_name_H-M   'P 1'
_cell_length_a   10.33360000
_cell_length_b   11.42326837
_cell_length_c   18.31050000
_cell_angle_alpha   90.00183320
_cell_angle_beta   89.99860000
_cell_angle_gamma   63.10045593
_symmetry_Int_Tables_number   1
_chemical_formula_structural   NiH17C19(NO3)2
_chemical_formula_sum   'Ni4 H68 C76 N8 O24'
_cell_volume   1927.57039568
_cell_formula_units_Z   4
loop_
 _symmetry_equiv_pos_site_id
 _symmetry_equiv_pos_as_xyz
  1  'x, y, z'
loop_
 _atom_site_type_symbol
 _atom_site_label
 _atom_site_symmetry_multiplicity
 _atom_site_fract_x
 _atom_site_fract_y
 _atom_site_fract_z
 _atom_site_occupancy
  Ni  Ni0  1  0.38724000  0.63272000  0.89114000  1.0
  Ni  Ni1  1  0.61274000  0.36731000  0.39111000  1.0
  Ni  Ni2  1  0.98031000  0.63288000  0.60889000  1.0
  Ni  Ni3  1  0.01970000  0.36710000  0.10891000  1.0
  H  H4  1  0.62156000  0.15316000  0.75858000  1.0
  H  H5  1  0.37851000  0.84688000  0.25857000  1.0
  H  H6  1  0.22541000  0.15341000  0.74149000  1.0
  H  H7  1  0.77449000  0.84665000  0.24155000  1.0
  H  H8  1  0.81783000  0.91998000  0.76868000  1.0
  H  H9  1  0.18220000  0.08003000  0.26866000  1.0
  H  H10  1  0.26248000  0.92020000  0.73152000  1.0
  H  H11  1  0.73746000  0.07982000  0.23156000  1.0
  H  H12  1  0.33535000  0.69511000  0.74769000  1.0
  H  H13  1  0.66462000  0.30486000  0.24766000  1.0
  H  H14  1  0.96998000  0.69517000  0.75239000  1.0
  H  H15  1  0.03005000  0.30477000  0.25238000  1.0
  H  H16  1  0.45532000  0.55137000  0.76746000  1.0
  H  H17  1  0.54472000  0.44863000  0.26743000  1.0
  H  H18  1  0.99362000  0.55148000  0.73255000  1.0
  H  H19  1  0.00637000  0.44848000  0.23256000  1.0
  H  H20  1  0.07041000  0.05334000  0.89796000  1.0
  H  H21  1  0.92963000  0.94665000  0.39795000  1.0
  H  H22  1  0.87697000  0.05315000  0.60191000  1.0
  H  H23  1  0.12301000  0.94679000  0.10194000  1.0
  H  H24  1  0.94722000  0.21576000  0.00462000  1.0
  H  H25  1  0.05287000  0.78424000  0.50460000  1.0
  H  H26  1  0.83716000  0.21589000  0.49511000  1.0
  H  H27  1  0.16274000  0.78411000  0.99517000  1.0
  H  H28  1  0.98191000  0.56174000  0.99531000  1.0
  H  H29  1  0.01817000  0.43826000  0.49529000  1.0
  H  H30  1  0.45613000  0.56158000  0.50484000  1.0
  H  H31  1  0.54378000  0.43843000  0.00484000  1.0
  H  H32  1  0.33307000  0.47092000  0.82549000  1.0
  H  H33  1  0.66701000  0.52911000  0.32548000  1.0
  H  H34  1  0.19631000  0.47098000  0.67450000  1.0
  H  H35  1  0.80365000  0.52901000  0.17454000  1.0
  H  H36  1  0.18182000  0.59963000  0.84486000  1.0
  H  H37  1  0.81823000  0.40043000  0.34485000  1.0
  H  H38  1  0.21884000  0.59967000  0.65517000  1.0
  H  H39  1  0.78103000  0.40038000  0.15518000  1.0
  H  H40  1  0.84366000  0.43294000  0.80200000  1.0
  H  H41  1  0.15641000  0.56704000  0.30197000  1.0
  H  H42  1  0.72410000  0.43278000  0.69785000  1.0
  H  H43  1  0.27583000  0.56714000  0.19786000  1.0
  H  H44  1  0.39630000  0.86077000  0.82851000  1.0
  H  H45  1  0.60364000  0.13929000  0.32848000  1.0
  H  H46  1  0.74302000  0.86145000  0.67143000  1.0
  H  H47  1  0.25702000  0.13856000  0.17144000  1.0
  H  H48  1  0.73477000  0.74923000  0.03453000  1.0
  H  H49  1  0.26528000  0.25072000  0.53455000  1.0
  H  H50  1  0.51632000  0.74890000  0.46570000  1.0
  H  H51  1  0.48369000  0.25106000  0.96567000  1.0
  H  H52  1  0.83223000  0.90983000  0.95560000  1.0
  H  H53  1  0.16782000  0.09013000  0.45561000  1.0
  H  H54  1  0.25825000  0.90940000  0.54431000  1.0
  H  H55  1  0.74176000  0.09063000  0.04427000  1.0
  H  H56  1  0.68315000  0.04866000  0.92053000  1.0
  H  H57  1  0.31690000  0.95130000  0.42055000  1.0
  H  H58  1  0.26799000  0.04842000  0.57947000  1.0
  H  H59  1  0.73205000  0.95163000  0.07946000  1.0
  H  H60  1  0.51931000  0.00195000  0.85182000  1.0
  H  H61  1  0.48068000  0.99806000  0.35181000  1.0
  H  H62  1  0.47870000  0.00238000  0.64809000  1.0
  H  H63  1  0.52137000  0.99764000  0.14808000  1.0
  H  H64  1  0.60722000  0.61876000  0.00321000  1.0
  H  H65  1  0.39277000  0.38123000  0.50323000  1.0
  H  H66  1  0.77437000  0.61871000  0.49707000  1.0
  H  H67  1  0.22565000  0.38122000  0.99704000  1.0
  H  H68  1  0.90517000  0.59689000  0.86341000  1.0
  H  H69  1  0.09492000  0.40308000  0.36339000  1.0
  H  H70  1  0.49833000  0.59673000  0.63667000  1.0
  H  H71  1  0.50157000  0.40320000  0.13665000  1.0
  C  C72  1  0.60015000  0.36306000  0.82842000  1.0
  C  C73  1  0.39989000  0.63695000  0.32839000  1.0
  C  C74  1  0.03699000  0.36318000  0.67150000  1.0
  C  C75  1  0.96294000  0.63681000  0.17156000  1.0
  C  C76  1  0.73219000  0.23157000  0.82622000  1.0
  C  C77  1  0.26787000  0.76846000  0.32621000  1.0
  C  C78  1  0.03665000  0.23160000  0.67362000  1.0
  C  C79  1  0.96326000  0.76840000  0.17367000  1.0
  C  C80  1  0.72041000  0.12891000  0.78969000  1.0
  C  C81  1  0.27962000  0.87113000  0.28968000  1.0
  C  C82  1  0.15098000  0.12904000  0.71029000  1.0
  C  C83  1  0.84892000  0.87100000  0.21033000  1.0
  C  C84  1  0.82907000  0.00040000  0.79496000  1.0
  C  C85  1  0.17096000  0.99962000  0.29495000  1.0
  C  C86  1  0.17091000  0.00051000  0.70510000  1.0
  C  C87  1  0.82902000  0.99950000  0.20512000  1.0
  C  C88  1  0.96958000  0.07605000  0.86906000  1.0
  C  C89  1  0.03048000  0.92394000  0.36904000  1.0
  C  C90  1  0.95501000  0.07598000  0.63081000  1.0
  C  C91  1  0.04493000  0.92399000  0.13084000  1.0
  C  C92  1  0.88875000  0.31048000  0.89825000  1.0
  C  C93  1  0.11132000  0.68953000  0.39822000  1.0
  C  C94  1  0.80122000  0.31039000  0.60155000  1.0
  C  C95  1  0.19871000  0.68958000  0.10159000  1.0
  C  C96  1  0.07029000  0.83450000  0.84593000  1.0
  C  C97  1  0.92973000  0.16549000  0.34591000  1.0
  C  C98  1  0.09579000  0.83445000  0.65408000  1.0
  C  C99  1  0.90419000  0.16553000  0.15408000  1.0
  C  C100  1  0.93520000  0.29847000  0.97072000  1.0
  C  C101  1  0.06487000  0.70154000  0.47071000  1.0
  C  C102  1  0.76651000  0.29849000  0.52912000  1.0
  C  C103  1  0.23342000  0.70152000  0.02916000  1.0
  C  C104  1  0.95522000  0.49288000  0.96552000  1.0
  C  C105  1  0.04485000  0.50715000  0.46551000  1.0
  C  C106  1  0.55188000  0.49277000  0.53454000  1.0
  C  C107  1  0.44803000  0.50726000  0.03454000  1.0
  C  C108  1  0.87753000  0.42006000  0.85893000  1.0
  C  C109  1  0.12255000  0.57996000  0.35891000  1.0
  C  C110  1  0.70288000  0.41995000  0.64095000  1.0
  C  C111  1  0.29702000  0.58003000  0.14097000  1.0
  C  C112  1  0.95361000  0.97286000  0.83602000  1.0
  C  C113  1  0.04640000  0.02715000  0.33601000  1.0
  C  C114  1  0.07408000  0.97285000  0.66397000  1.0
  C  C115  1  0.92585000  0.02715000  0.16400000  1.0
  C  C116  1  0.63849000  0.88820000  0.94540000  1.0
  C  C117  1  0.36152000  0.11179000  0.44541000  1.0
  C  C118  1  0.47344000  0.88820000  0.55469000  1.0
  C  C119  1  0.52661000  0.11181000  0.05466000  1.0
  C  C120  1  0.47291000  0.83982000  0.87318000  1.0
  C  C121  1  0.52705000  0.16021000  0.37316000  1.0
  C  C122  1  0.68741000  0.84028000  0.62684000  1.0
  C  C123  1  0.31265000  0.15972000  0.12683000  1.0
  C  C124  1  0.66045000  0.77912000  0.98817000  1.0
  C  C125  1  0.33958000  0.22086000  0.48818000  1.0
  C  C126  1  0.56067000  0.77900000  0.51201000  1.0
  C  C127  1  0.43935000  0.22097000  0.01199000  1.0
  C  C128  1  0.71444000  0.97053000  0.96145000  1.0
  C  C129  1  0.28559000  0.02947000  0.46145000  1.0
  C  C130  1  0.31512000  0.97030000  0.53855000  1.0
  C  C131  1  0.68489000  0.02973000  0.03854000  1.0
  C  C132  1  0.54160000  0.91772000  0.88687000  1.0
  C  C133  1  0.45838000  0.08229000  0.38687000  1.0
  C  C134  1  0.54075000  0.91803000  0.61312000  1.0
  C  C135  1  0.45930000  0.08199000  0.11312000  1.0
  C  C136  1  0.58892000  0.70500000  0.97099000  1.0
  C  C137  1  0.41106000  0.29500000  0.47101000  1.0
  C  C138  1  0.70635000  0.70504000  0.52921000  1.0
  C  C139  1  0.29368000  0.29492000  0.02918000  1.0
  C  C140  1  0.86101000  0.20582000  0.86470000  1.0
  C  C141  1  0.13906000  0.79420000  0.36467000  1.0
  C  C142  1  0.93372000  0.20577000  0.63509000  1.0
  C  C143  1  0.06621000  0.79420000  0.13513000  1.0
  C  C144  1  0.91184000  0.51136000  0.89272000  1.0
  C  C145  1  0.08822000  0.48866000  0.39269000  1.0
  C  C146  1  0.57709000  0.51120000  0.60729000  1.0
  C  C147  1  0.42282000  0.48877000  0.10729000  1.0
  N  N148  1  0.96587000  0.38823000  0.00376000  1.0
  N  N149  1  0.03417000  0.61179000  0.50374000  1.0
  N  N150  1  0.64584000  0.38820000  0.49623000  1.0
  N  N151  1  0.35410000  0.61184000  0.99625000  1.0
  N  N152  1  0.49598000  0.73448000  0.91438000  1.0
  N  N153  1  0.50399000  0.26553000  0.41438000  1.0
  N  N154  1  0.76973000  0.73481000  0.58572000  1.0
  N  N155  1  0.23029000  0.26517000  0.08571000  1.0
  O  O156  1  0.58531000  0.43519000  0.88382000  1.0
  O  O157  1  0.41472000  0.56484000  0.38379000  1.0
  O  O158  1  0.97956000  0.43542000  0.61615000  1.0
  O  O159  1  0.02037000  0.56458000  0.11620000  1.0
  O  O160  1  0.18545000  0.82079000  0.87779000  1.0
  O  O161  1  0.81455000  0.17923000  0.37775000  1.0
  O  O162  1  0.99445000  0.82076000  0.62209000  1.0
  O  O163  1  0.00555000  0.17920000  0.12212000  1.0
  O  O164  1  0.42269000  0.64675000  0.77882000  1.0
  O  O165  1  0.57731000  0.35327000  0.27881000  1.0
  O  O166  1  0.93096000  0.64691000  0.72122000  1.0
  O  O167  1  0.06905000  0.35307000  0.22120000  1.0
  O  O168  1  0.50962000  0.39118000  0.77567000  1.0
  O  O169  1  0.49043000  0.60883000  0.27564000  1.0
  O  O170  1  0.09933000  0.39131000  0.72428000  1.0
  O  O171  1  0.90064000  0.60868000  0.22436000  1.0
  O  O172  1  0.04570000  0.74009000  0.82382000  1.0
  O  O173  1  0.95430000  0.25992000  0.32380000  1.0
  O  O174  1  0.21468000  0.74003000  0.67634000  1.0
  O  O175  1  0.78526000  0.25996000  0.17632000  1.0
  O  O176  1  0.27275000  0.52596000  0.86605000  1.0
  O  O177  1  0.72727000  0.47408000  0.36604000  1.0
  O  O178  1  0.20155000  0.52603000  0.63395000  1.0
  O  O179  1  0.79843000  0.47396000  0.13397000  1.0
