# generated using pymatgen
data_ZnH8C14O5
_symmetry_space_group_name_H-M   'P 1'
_cell_length_a   7.37545000
_cell_length_b   10.52330000
_cell_length_c   15.72250000
_cell_angle_alpha   89.99970000
_cell_angle_beta   89.99990000
_cell_angle_gamma   103.19900000
_symmetry_Int_Tables_number   1
_chemical_formula_structural   ZnH8C14O5
_chemical_formula_sum   'Zn4 H32 C56 O20'
_cell_volume   1188.05079744
_cell_formula_units_Z   4
loop_
 _symmetry_equiv_pos_site_id
 _symmetry_equiv_pos_as_xyz
  1  'x, y, z'
loop_
 _atom_site_type_symbol
 _atom_site_label
 _atom_site_symmetry_multiplicity
 _atom_site_fract_x
 _atom_site_fract_y
 _atom_site_fract_z
 _atom_site_occupancy
  Zn  Zn0  1  0.73633000  0.44880000  0.96240000  1.0
  Zn  Zn1  1  0.23633000  0.94880000  0.53761000  1.0
  Zn  Zn2  1  0.26367000  0.55121000  0.03760000  1.0
  Zn  Zn3  1  0.76368000  0.05121000  0.46239000  1.0
  H  H4  1  0.18719000  0.64523000  0.84139000  1.0
  H  H5  1  0.68718000  0.14523000  0.65860000  1.0
  H  H6  1  0.81282000  0.35477000  0.15861000  1.0
  H  H7  1  0.31282000  0.85477000  0.34140000  1.0
  H  H8  1  0.93438000  0.60819000  0.73386000  1.0
  H  H9  1  0.43437000  0.10819000  0.76614000  1.0
  H  H10  1  0.06562000  0.39180000  0.26614000  1.0
  H  H11  1  0.56563000  0.89181000  0.23386000  1.0
  H  H12  1  0.06399000  0.24339000  0.66378000  1.0
  H  H13  1  0.56399000  0.74338000  0.83622000  1.0
  H  H14  1  0.93599000  0.75661000  0.33622000  1.0
  H  H15  1  0.43601000  0.25661000  0.16378000  1.0
  H  H16  1  0.31998000  0.28149000  0.77252000  1.0
  H  H17  1  0.81997000  0.78149000  0.72748000  1.0
  H  H18  1  0.68002000  0.71851000  0.22747000  1.0
  H  H19  1  0.18002000  0.21851000  0.27252000  1.0
  H  H20  1  0.01185000  0.60103000  0.53996000  1.0
  H  H21  1  0.51184000  0.10103000  0.96003000  1.0
  H  H22  1  0.98815000  0.39896000  0.46003000  1.0
  H  H23  1  0.48815000  0.89897000  0.03997000  1.0
  H  H24  1  0.85389000  0.76974000  0.48555000  1.0
  H  H25  1  0.35389000  0.26973000  0.01445000  1.0
  H  H26  1  0.14611000  0.23026000  0.51445000  1.0
  H  H27  1  0.64611000  0.73027000  0.98555000  1.0
  H  H28  1  0.35235000  0.58470000  0.61835000  1.0
  H  H29  1  0.85235000  0.08470000  0.88165000  1.0
  H  H30  1  0.64765000  0.41530000  0.38165000  1.0
  H  H31  1  0.14765000  0.91530000  0.11835000  1.0
  H  H32  1  0.50642000  0.40865000  0.66680000  1.0
  H  H33  1  0.00641000  0.90864000  0.83320000  1.0
  H  H34  1  0.49358000  0.59136000  0.33320000  1.0
  H  H35  1  0.99359000  0.09136000  0.16680000  1.0
  C  C36  1  0.42562000  0.49171000  0.87501000  1.0
  C  C37  1  0.92562000  0.99171000  0.62499000  1.0
  C  C38  1  0.57438000  0.50829000  0.12499000  1.0
  C  C39  1  0.07439000  0.00829000  0.37501000  1.0
  C  C40  1  0.27122000  0.46613000  0.81301000  1.0
  C  C41  1  0.77121000  0.96613000  0.68699000  1.0
  C  C42  1  0.72879000  0.53386000  0.18699000  1.0
  C  C43  1  0.22879000  0.03387000  0.31301000  1.0
  C  C44  1  0.16020000  0.55708000  0.80270000  1.0
  C  C45  1  0.66020000  0.05708000  0.69730000  1.0
  C  C46  1  0.83979000  0.44292000  0.19730000  1.0
  C  C47  1  0.33980000  0.94292000  0.30270000  1.0
  C  C48  1  0.01845000  0.53669000  0.74256000  1.0
  C  C49  1  0.51845000  0.03668000  0.75744000  1.0
  C  C50  1  0.98154000  0.46331000  0.25744000  1.0
  C  C51  1  0.48156000  0.96331000  0.24256000  1.0
  C  C52  1  0.98579000  0.42337000  0.69279000  1.0
  C  C53  1  0.48579000  0.92337000  0.80721000  1.0
  C  C54  1  0.01420000  0.57663000  0.30721000  1.0
  C  C55  1  0.51421000  0.07663000  0.19279000  1.0
  C  C56  1  0.09286000  0.33022000  0.70353000  1.0
  C  C57  1  0.59286000  0.83022000  0.79647000  1.0
  C  C58  1  0.90713000  0.66978000  0.29647000  1.0
  C  C59  1  0.40714000  0.16978000  0.20353000  1.0
  C  C60  1  0.23480000  0.35235000  0.76319000  1.0
  C  C61  1  0.73480000  0.85235000  0.73681000  1.0
  C  C62  1  0.76519000  0.64765000  0.23681000  1.0
  C  C63  1  0.26520000  0.14765000  0.26319000  1.0
  C  C64  1  0.76568000  0.49547000  0.60577000  1.0
  C  C65  1  0.26568000  0.99547000  0.89424000  1.0
  C  C66  1  0.23431000  0.50453000  0.39424000  1.0
  C  C67  1  0.73432000  0.00453000  0.10577000  1.0
  C  C68  1  0.86638000  0.59625000  0.55524000  1.0
  C  C69  1  0.36637000  0.09625000  0.94476000  1.0
  C  C70  1  0.13362000  0.40374000  0.44476000  1.0
  C  C71  1  0.63363000  0.90375000  0.05524000  1.0
  C  C72  1  0.77811000  0.69114000  0.52571000  1.0
  C  C73  1  0.27810000  0.19114000  0.97429000  1.0
  C  C74  1  0.22190000  0.30886000  0.47429000  1.0
  C  C75  1  0.72190000  0.80886000  0.02571000  1.0
  C  C76  1  0.59359000  0.68835000  0.54885000  1.0
  C  C77  1  0.09358000  0.18834000  0.95115000  1.0
  C  C78  1  0.40642000  0.31166000  0.45115000  1.0
  C  C79  1  0.90642000  0.81165000  0.04885000  1.0
  C  C80  1  0.50709000  0.79635000  0.52177000  1.0
  C  C81  1  0.00708000  0.29634000  0.97824000  1.0
  C  C82  1  0.49292000  0.20365000  0.47824000  1.0
  C  C83  1  0.99292000  0.70366000  0.02176000  1.0
  C  C84  1  0.49521000  0.58643000  0.59997000  1.0
  C  C85  1  0.99520000  0.08642000  0.90003000  1.0
  C  C86  1  0.50479000  0.41358000  0.40003000  1.0
  C  C87  1  0.00480000  0.91358000  0.09997000  1.0
  C  C88  1  0.58061000  0.48881000  0.62752000  1.0
  C  C89  1  0.08060000  0.98881000  0.87248000  1.0
  C  C90  1  0.41939000  0.51119000  0.37248000  1.0
  C  C91  1  0.91940000  0.01119000  0.12752000  1.0
  O  O92  1  0.55864000  0.43319000  0.86582000  1.0
  O  O93  1  0.05864000  0.93319000  0.63418000  1.0
  O  O94  1  0.44136000  0.56681000  0.13418000  1.0
  O  O95  1  0.94136000  0.06681000  0.36582000  1.0
  O  O96  1  0.42496000  0.57489000  0.93492000  1.0
  O  O97  1  0.92496000  0.07489000  0.56508000  1.0
  O  O98  1  0.57504000  0.42510000  0.06507000  1.0
  O  O99  1  0.07505000  0.92511000  0.43492000  1.0
  O  O100  1  0.59046000  0.87925000  0.46698000  1.0
  O  O101  1  0.09047000  0.37925000  0.03302000  1.0
  O  O102  1  0.40954000  0.12076000  0.53302000  1.0
  O  O103  1  0.90954000  0.62076000  0.96698000  1.0
  O  O104  1  0.34929000  0.79955000  0.55454000  1.0
  O  O105  1  0.84927000  0.29954000  0.94547000  1.0
  O  O106  1  0.65073000  0.20046000  0.44546000  1.0
  O  O107  1  0.15073000  0.70046000  0.05453000  1.0
  O  O108  1  0.84701000  0.39504000  0.63273000  1.0
  O  O109  1  0.34700000  0.89504000  0.86727000  1.0
  O  O110  1  0.15299000  0.60496000  0.36727000  1.0
  O  O111  1  0.65300000  0.10496000  0.13273000  1.0
