# generated using pymatgen
data_NaH11C6SO8
_symmetry_space_group_name_H-M   'P 1'
_cell_length_a   5.59034000
_cell_length_b   6.45549000
_cell_length_c   14.99110000
_cell_angle_alpha   77.71330000
_cell_angle_beta   85.18170000
_cell_angle_gamma   83.81900000
_symmetry_Int_Tables_number   1
_chemical_formula_structural   NaH11C6SO8
_chemical_formula_sum   'Na2 H22 C12 S2 O16'
_cell_volume   524.49985995
_cell_formula_units_Z   2
loop_
 _symmetry_equiv_pos_site_id
 _symmetry_equiv_pos_as_xyz
  1  'x, y, z'
loop_
 _atom_site_type_symbol
 _atom_site_label
 _atom_site_symmetry_multiplicity
 _atom_site_fract_x
 _atom_site_fract_y
 _atom_site_fract_z
 _atom_site_occupancy
  Na  Na0  1  0.65610000  0.72708000  0.50331000  1.0
  Na  Na1  1  0.34388000  0.27292000  0.49669000  1.0
  H  H2  1  0.00986000  0.88055000  0.78604000  1.0
  H  H3  1  0.99016000  0.11944000  0.21396000  1.0
  H  H4  1  0.39636000  0.05928000  0.74637000  1.0
  H  H5  1  0.60363000  0.94072000  0.25363000  1.0
  H  H6  1  0.55212000  0.82010000  0.72502000  1.0
  H  H7  1  0.44790000  0.17988000  0.27499000  1.0
  H  H8  1  0.71811000  0.28935000  0.85905000  1.0
  H  H9  1  0.28191000  0.71065000  0.14096000  1.0
  H  H10  1  0.90559000  0.24581000  0.75957000  1.0
  H  H11  1  0.09441000  0.75419000  0.24043000  1.0
  H  H12  1  0.03362000  0.20341000  0.86845000  1.0
  H  H13  1  0.96640000  0.79659000  0.13155000  1.0
  H  H14  1  0.91197000  0.84877000  0.97699000  1.0
  H  H15  1  0.08803000  0.15123000  0.02301000  1.0
  H  H16  1  0.60596000  0.84577000  0.02678000  1.0
  H  H17  1  0.39404000  0.15421000  0.97322000  1.0
  H  H18  1  0.75244000  0.61651000  0.98905000  1.0
  H  H19  1  0.24756000  0.38348000  0.01095000  1.0
  H  H20  1  0.47844000  0.59059000  0.34547000  1.0
  H  H21  1  0.52153000  0.40941000  0.65453000  1.0
  H  H22  1  0.25846000  0.71439000  0.39201000  1.0
  H  H23  1  0.74151000  0.28562000  0.60799000  1.0
  C  C24  1  0.16277000  0.81216000  0.74757000  1.0
  C  C25  1  0.83725000  0.18784000  0.25243000  1.0
  C  C26  1  0.40085000  0.88472000  0.76593000  1.0
  C  C27  1  0.59917000  0.11527000  0.23407000  1.0
  C  C28  1  0.15623000  0.57293000  0.77039000  1.0
  C  C29  1  0.84379000  0.42706000  0.22961000  1.0
  C  C30  1  0.44923000  0.81539000  0.86577000  1.0
  C  C31  1  0.55078000  0.18462000  0.13422000  1.0
  C  C32  1  0.89754000  0.29882000  0.82459000  1.0
  C  C33  1  0.10246000  0.70118000  0.17542000  1.0
  C  C34  1  0.73602000  0.79074000  0.97593000  1.0
  C  C35  1  0.26400000  0.20925000  0.02407000  1.0
  S  S36  1  0.09315000  0.91139000  0.62785000  1.0
  S  S37  1  0.90684000  0.08862000  0.37215000  1.0
  O  O38  1  0.40721000  0.61806000  0.40448000  1.0
  O  O39  1  0.59279000  0.38194000  0.59551000  1.0
  O  O40  1  0.89407000  0.79415000  0.61481000  1.0
  O  O41  1  0.10591000  0.20585000  0.38518000  1.0
  O  O42  1  0.02859000  0.14259000  0.62107000  1.0
  O  O43  1  0.97138000  0.85741000  0.37894000  1.0
  O  O44  1  0.31493000  0.87306000  0.57228000  1.0
  O  O45  1  0.68506000  0.12696000  0.42771000  1.0
  O  O46  1  0.32482000  0.44202000  0.75680000  1.0
  O  O47  1  0.67519000  0.55799000  0.24320000  1.0
  O  O48  1  0.31630000  0.71406000  0.92443000  1.0
  O  O49  1  0.68369000  0.28599000  0.07558000  1.0
  O  O50  1  0.93867000  0.52148000  0.80710000  1.0
  O  O51  1  0.06135000  0.47852000  0.19290000  1.0
  O  O52  1  0.65951000  0.87736000  0.88415000  1.0
  O  O53  1  0.34051000  0.12264000  0.11585000  1.0
