# generated using pymatgen
data_FeH16C16(SN5)2
_symmetry_space_group_name_H-M   'P 1'
_cell_length_a   9.02754829
_cell_length_b   9.02751000
_cell_length_c   13.53460000
_cell_angle_alpha   90.00110000
_cell_angle_beta   90.00092397
_cell_angle_gamma   119.20558578
_symmetry_Int_Tables_number   1
_chemical_formula_structural   FeH16C16(SN5)2
_chemical_formula_sum   'Fe2 H32 C32 S4 N20'
_cell_volume   962.79768015
_cell_formula_units_Z   2
loop_
 _symmetry_equiv_pos_site_id
 _symmetry_equiv_pos_as_xyz
  1  'x, y, z'
loop_
 _atom_site_type_symbol
 _atom_site_label
 _atom_site_symmetry_multiplicity
 _atom_site_fract_x
 _atom_site_fract_y
 _atom_site_fract_z
 _atom_site_occupancy
  Fe  Fe0  1  0.00029000  0.00029000  0.00000000  1.0
  Fe  Fe1  1  0.49962000  0.49962000  0.50000000  1.0
  H  H2  1  0.27778000  0.33264000  0.86578000  1.0
  H  H3  1  0.22223000  0.16736000  0.36578000  1.0
  H  H4  1  0.16736000  0.22223000  0.63422000  1.0
  H  H5  1  0.33264000  0.27776000  0.13422000  1.0
  H  H6  1  0.72222000  0.66740000  0.13423000  1.0
  H  H7  1  0.77777000  0.83260000  0.63423000  1.0
  H  H8  1  0.83259000  0.77777000  0.36577000  1.0
  H  H9  1  0.66740000  0.72223000  0.86578000  1.0
  H  H10  1  0.31693000  0.91058000  0.96894000  1.0
  H  H11  1  0.18311000  0.58943000  0.46895000  1.0
  H  H12  1  0.58942000  0.18308000  0.53106000  1.0
  H  H13  1  0.91056000  0.31689000  0.03105000  1.0
  H  H14  1  0.68302000  0.08942000  0.03108000  1.0
  H  H15  1  0.81696000  0.41057000  0.53108000  1.0
  H  H16  1  0.41058000  0.81699000  0.46891000  1.0
  H  H17  1  0.08944000  0.68305000  0.96893000  1.0
  H  H18  1  0.59747000  0.11072000  0.85184000  1.0
  H  H19  1  0.90257000  0.38931000  0.35185000  1.0
  H  H20  1  0.38929000  0.90255000  0.64816000  1.0
  H  H21  1  0.11069000  0.59743000  0.14816000  1.0
  H  H22  1  0.40246000  0.88925000  0.14818000  1.0
  H  H23  1  0.09754000  0.61075000  0.64818000  1.0
  H  H24  1  0.61076000  0.09756000  0.35182000  1.0
  H  H25  1  0.88927000  0.40249000  0.85183000  1.0
  H  H26  1  0.64713000  0.35284000  0.72880000  1.0
  H  H27  1  0.85288000  0.14717000  0.22880000  1.0
  H  H28  1  0.14717000  0.85288000  0.77120000  1.0
  H  H29  1  0.35282000  0.64712000  0.27120000  1.0
  H  H30  1  0.53356000  0.46643000  0.74890000  1.0
  H  H31  1  0.96644000  0.03357000  0.24890000  1.0
  H  H32  1  0.03357000  0.96644000  0.75110000  1.0
  H  H33  1  0.46643000  0.53356000  0.25110000  1.0
  C  C34  1  0.32324000  0.24300000  0.87956000  1.0
  C  C35  1  0.17677000  0.25699000  0.37956000  1.0
  C  C36  1  0.25699000  0.17676000  0.62044000  1.0
  C  C37  1  0.24301000  0.32323000  0.12044000  1.0
  C  C38  1  0.67673000  0.75702000  0.12046000  1.0
  C  C39  1  0.82326000  0.74297000  0.62046000  1.0
  C  C40  1  0.74297000  0.82327000  0.37955000  1.0
  C  C41  1  0.75702000  0.67674000  0.87955000  1.0
  C  C42  1  0.34957000  0.02739000  0.93040000  1.0
  C  C43  1  0.15047000  0.47262000  0.43041000  1.0
  C  C44  1  0.47261000  0.15045000  0.56960000  1.0
  C  C45  1  0.02738000  0.34954000  0.06960000  1.0
  C  C46  1  0.65036000  0.97261000  0.06963000  1.0
  C  C47  1  0.84963000  0.52738000  0.56963000  1.0
  C  C48  1  0.52739000  0.84965000  0.43037000  1.0
  C  C49  1  0.97263000  0.65039000  0.93037000  1.0
  C  C50  1  0.49127000  0.12681000  0.87516000  1.0
  C  C51  1  0.00877000  0.37321000  0.37517000  1.0
  C  C52  1  0.37320000  0.00875000  0.62483000  1.0
  C  C53  1  0.12679000  0.49124000  0.12483000  1.0
  C  C54  1  0.50865000  0.87316000  0.12485000  1.0
  C  C55  1  0.99134000  0.62683000  0.62484000  1.0
  C  C56  1  0.62684000  0.99136000  0.37515000  1.0
  C  C57  1  0.87318000  0.50868000  0.87516000  1.0
  C  C58  1  0.59638000  0.40360000  0.78490000  1.0
  C  C59  1  0.90363000  0.09642000  0.28490000  1.0
  C  C60  1  0.09641000  0.90363000  0.71510000  1.0
  C  C61  1  0.40359000  0.59637000  0.21510000  1.0
  C  C62  1  0.88832000  0.11176000  0.81196000  1.0
  C  C63  1  0.61167000  0.38823000  0.31196000  1.0
  C  C64  1  0.38823000  0.61167000  0.68804000  1.0
  C  C65  1  0.11176000  0.88832000  0.18804000  1.0
  S  S66  1  0.84025000  0.15972000  0.70504000  1.0
  S  S67  1  0.65976000  0.34030000  0.20504000  1.0
  S  S68  1  0.34030000  0.65976000  0.79496000  1.0
  S  S69  1  0.15970000  0.84024000  0.29496000  1.0
  N  N70  1  0.47315000  0.26279000  0.84375000  1.0
  N  N71  1  0.02686000  0.23722000  0.34375000  1.0
  N  N72  1  0.23721000  0.02686000  0.65625000  1.0
  N  N73  1  0.26279000  0.47314000  0.15625000  1.0
  N  N74  1  0.52679000  0.73718000  0.15625000  1.0
  N  N75  1  0.97320000  0.76281000  0.65625000  1.0
  N  N76  1  0.76282000  0.97322000  0.34375000  1.0
  N  N77  1  0.73720000  0.52681000  0.84375000  1.0
  N  N78  1  0.24550000  0.09982000  0.93158000  1.0
  N  N79  1  0.25453000  0.40017000  0.43159000  1.0
  N  N80  1  0.40017000  0.25452000  0.56841000  1.0
  N  N81  1  0.09982000  0.24547000  0.06841000  1.0
  N  N82  1  0.75443000  0.90022000  0.06846000  1.0
  N  N83  1  0.74556000  0.59978000  0.56847000  1.0
  N  N84  1  0.59979000  0.74559000  0.43153000  1.0
  N  N85  1  0.90021000  0.75445000  0.93154000  1.0
  N  N86  1  0.92447000  0.07574000  0.88941000  1.0
  N  N87  1  0.57550000  0.42423000  0.38942000  1.0
  N  N88  1  0.42424000  0.57550000  0.61058000  1.0
  N  N89  1  0.07574000  0.92447000  0.11059000  1.0
