# generated using pymatgen
data_Li2MoH22C20(NO5)2
_symmetry_space_group_name_H-M   'P 1'
_cell_length_a   8.86909000
_cell_length_b   9.65296000
_cell_length_c   15.52530000
_cell_angle_alpha   88.72150000
_cell_angle_beta   89.98770000
_cell_angle_gamma   62.66100000
_symmetry_Int_Tables_number   1
_chemical_formula_structural   Li2MoH22C20(NO5)2
_chemical_formula_sum   'Li4 Mo2 H44 C40 N4 O20'
_cell_volume   1180.33626959
_cell_formula_units_Z   2
loop_
 _symmetry_equiv_pos_site_id
 _symmetry_equiv_pos_as_xyz
  1  'x, y, z'
loop_
 _atom_site_type_symbol
 _atom_site_label
 _atom_site_symmetry_multiplicity
 _atom_site_fract_x
 _atom_site_fract_y
 _atom_site_fract_z
 _atom_site_occupancy
  Li  Li0  1  0.51397000  0.90776000  0.43017000  1.0
  Li  Li1  1  0.42189000  0.09219000  0.06996000  1.0
  Li  Li2  1  0.48602000  0.09225000  0.56983000  1.0
  Li  Li3  1  0.57811000  0.90780000  0.93005000  1.0
  Mo  Mo4  1  0.73650000  0.99996000  0.25012000  1.0
  Mo  Mo5  1  0.26348000  0.00004000  0.74988000  1.0
  H  H6  1  0.74241000  0.63590000  0.05999000  1.0
  H  H7  1  0.37821000  0.36412000  0.44019000  1.0
  H  H8  1  0.25758000  0.36410000  0.94001000  1.0
  H  H9  1  0.62180000  0.63588000  0.55981000  1.0
  H  H10  1  0.63598000  0.44217000  0.10161000  1.0
  H  H11  1  0.07821000  0.55797000  0.39846000  1.0
  H  H12  1  0.36401000  0.55783000  0.89839000  1.0
  H  H13  1  0.92181000  0.44202000  0.60154000  1.0
  H  H14  1  0.52051000  0.44710000  0.24776000  1.0
  H  H15  1  0.96800000  0.55294000  0.25227000  1.0
  H  H16  1  0.47949000  0.55290000  0.75225000  1.0
  H  H17  1  0.03201000  0.44706000  0.74774000  1.0
  H  H18  1  0.45071000  0.54467000  0.38293000  1.0
  H  H19  1  0.99588000  0.45563000  0.11721000  1.0
  H  H20  1  0.54928000  0.45534000  0.61707000  1.0
  H  H21  1  0.00411000  0.54437000  0.88279000  1.0
  H  H22  1  0.89043000  0.80254000  0.44540000  1.0
  H  H23  1  0.69290000  0.19751000  0.05450000  1.0
  H  H24  1  0.10957000  0.19746000  0.55460000  1.0
  H  H25  1  0.30710000  0.80249000  0.94550000  1.0
  H  H26  1  0.89815000  0.01285000  0.66078000  1.0
  H  H27  1  0.91132000  0.98714000  0.83916000  1.0
  H  H28  1  0.10185000  0.98716000  0.33922000  1.0
  H  H29  1  0.08869000  0.01285000  0.16084000  1.0
  H  H30  1  0.97269000  0.81876000  0.70204000  1.0
  H  H31  1  0.79182000  0.18125000  0.79792000  1.0
  H  H32  1  0.02730000  0.18124000  0.29796000  1.0
  H  H33  1  0.20819000  0.81874000  0.20208000  1.0
  H  H34  1  0.75819000  0.92411000  0.66418000  1.0
  H  H35  1  0.68265000  0.07585000  0.83573000  1.0
  H  H36  1  0.24181000  0.07590000  0.33582000  1.0
  H  H37  1  0.31735000  0.92415000  0.16427000  1.0
  H  H38  1  0.19092000  0.66559000  0.59275000  1.0
  H  H39  1  0.85679000  0.33437000  0.90723000  1.0
  H  H40  1  0.80908000  0.33441000  0.40725000  1.0
  H  H41  1  0.14320000  0.66563000  0.09277000  1.0
  H  H42  1  0.17621000  0.85119000  0.56549000  1.0
  H  H43  1  0.02756000  0.14878000  0.93449000  1.0
  H  H44  1  0.82380000  0.14881000  0.43451000  1.0
  H  H45  1  0.97243000  0.85123000  0.06551000  1.0
  H  H46  1  0.14677000  0.73907000  0.48350000  1.0
  H  H47  1  0.88595000  0.26091000  0.01648000  1.0
  H  H48  1  0.85324000  0.26092000  0.51650000  1.0
  H  H49  1  0.11405000  0.73910000  0.98352000  1.0
  C  C50  1  0.61207000  0.75475000  0.26530000  1.0
  C  C51  1  0.36691000  0.24495000  0.23494000  1.0
  C  C52  1  0.38793000  0.24525000  0.73470000  1.0
  C  C53  1  0.63309000  0.75505000  0.76506000  1.0
  C  C54  1  0.68579000  0.74388000  0.18246000  1.0
  C  C55  1  0.42962000  0.25588000  0.31779000  1.0
  C  C56  1  0.31421000  0.25612000  0.81754000  1.0
  C  C57  1  0.57039000  0.74412000  0.68221000  1.0
  C  C58  1  0.69084000  0.63547000  0.12372000  1.0
  C  C59  1  0.32625000  0.36444000  0.37648000  1.0
  C  C60  1  0.30916000  0.36453000  0.87628000  1.0
  C  C61  1  0.67376000  0.63556000  0.62352000  1.0
  C  C62  1  0.62958000  0.52864000  0.14730000  1.0
  C  C63  1  0.15828000  0.47136000  0.35284000  1.0
  C  C64  1  0.37041000  0.47136000  0.85271000  1.0
  C  C65  1  0.84173000  0.52864000  0.64717000  1.0
  C  C66  1  0.56479000  0.53143000  0.22855000  1.0
  C  C67  1  0.09646000  0.46854000  0.27156000  1.0
  C  C68  1  0.43521000  0.46857000  0.77145000  1.0
  C  C69  1  0.90354000  0.53146000  0.72844000  1.0
  C  C70  1  0.55392000  0.64402000  0.28902000  1.0
  C  C71  1  0.19822000  0.35585000  0.21115000  1.0
  C  C72  1  0.44607000  0.35598000  0.71098000  1.0
  C  C73  1  0.80178000  0.64415000  0.78885000  1.0
  C  C74  1  0.48668000  0.63980000  0.37274000  1.0
  C  C75  1  0.12686000  0.36036000  0.12738000  1.0
  C  C76  1  0.51331000  0.36021000  0.62726000  1.0
  C  C77  1  0.87313000  0.63964000  0.87263000  1.0
  C  C78  1  0.83259000  0.85280000  0.50730000  1.0
  C  C79  1  0.68539000  0.14726000  0.99259000  1.0
  C  C80  1  0.16741000  0.14721000  0.49270000  1.0
  C  C81  1  0.31460000  0.85274000  0.00741000  1.0
  C  C82  1  0.88852000  0.90418000  0.65385000  1.0
  C  C83  1  0.79305000  0.09579000  0.84610000  1.0
  C  C84  1  0.11148000  0.09582000  0.34614000  1.0
  C  C85  1  0.20695000  0.90421000  0.15390000  1.0
  C  C86  1  0.12425000  0.77057000  0.55134000  1.0
  C  C87  1  0.89502000  0.22939000  0.94864000  1.0
  C  C88  1  0.87575000  0.22942000  0.44866000  1.0
  C  C89  1  0.10498000  0.77061000  0.05135000  1.0
  N  N90  1  0.94269000  0.84276000  0.56832000  1.0
  N  N91  1  0.78564000  0.15722000  0.93163000  1.0
  N  N92  1  0.05731000  0.15725000  0.43168000  1.0
  N  N93  1  0.21436000  0.84278000  0.06837000  1.0
  O  O94  1  0.60474000  0.86734000  0.31380000  1.0
  O  O95  1  0.47209000  0.13226000  0.18647000  1.0
  O  O96  1  0.39527000  0.13266000  0.68620000  1.0
  O  O97  1  0.52791000  0.86774000  0.81353000  1.0
  O  O98  1  0.74874000  0.84544000  0.16535000  1.0
  O  O99  1  0.59405000  0.15428000  0.33495000  1.0
  O  O100  1  0.25126000  0.15456000  0.83465000  1.0
  O  O101  1  0.40596000  0.84572000  0.66505000  1.0
  O  O102  1  0.46651000  0.73014000  0.43317000  1.0
  O  O103  1  0.19700000  0.27018000  0.06688000  1.0
  O  O104  1  0.53347000  0.26987000  0.56683000  1.0
  O  O105  1  0.80300000  0.72983000  0.93312000  1.0
  O  O106  1  0.80494000  0.10239000  0.18145000  1.0
  O  O107  1  0.90770000  0.89791000  0.31860000  1.0
  O  O108  1  0.19507000  0.89762000  0.81854000  1.0
  O  O109  1  0.09232000  0.10208000  0.68140000  1.0
  O  O110  1  0.67359000  0.91647000  0.51561000  1.0
  O  O111  1  0.59003000  0.08361000  0.98425000  1.0
  O  O112  1  0.32641000  0.08354000  0.48439000  1.0
  O  O113  1  0.40997000  0.91638000  0.01575000  1.0
