# generated using pymatgen
data_Er2CoH28(C8O9)2
_symmetry_space_group_name_H-M   'P 1'
_cell_length_a   8.74738000
_cell_length_b   8.91376000
_cell_length_c   10.36660000
_cell_angle_alpha   84.14550000
_cell_angle_beta   70.57740000
_cell_angle_gamma   80.68570000
_symmetry_Int_Tables_number   1
_chemical_formula_structural   Er2CoH28(C8O9)2
_chemical_formula_sum   'Er2 Co1 H28 C16 O18'
_cell_volume   751.24607856
_cell_formula_units_Z   1
loop_
 _symmetry_equiv_pos_site_id
 _symmetry_equiv_pos_as_xyz
  1  'x, y, z'
loop_
 _atom_site_type_symbol
 _atom_site_label
 _atom_site_symmetry_multiplicity
 _atom_site_fract_x
 _atom_site_fract_y
 _atom_site_fract_z
 _atom_site_occupancy
  Er  Er0  1  0.92358000  0.07805000  0.68683000  1.0
  Er  Er1  1  0.07645000  0.92197000  0.31316000  1.0
  Co  Co2  1  0.00001000  0.99999000  0.00000000  1.0
  H  H3  1  0.85178000  0.35285000  0.08147000  1.0
  H  H4  1  0.14822000  0.64711000  0.91853000  1.0
  H  H5  1  0.66958000  0.43705000  0.04155000  1.0
  H  H6  1  0.33042000  0.56291000  0.95846000  1.0
  H  H7  1  0.86122000  0.49988000  0.95067000  1.0
  H  H8  1  0.13877000  0.50011000  0.04936000  1.0
  H  H9  1  0.72889000  0.74481000  0.08335000  1.0
  H  H10  1  0.27112000  0.25522000  0.91665000  1.0
  H  H11  1  0.59096000  0.72375000  0.99208000  1.0
  H  H12  1  0.40905000  0.27625000  0.00791000  1.0
  H  H13  1  0.55136000  0.88284000  0.09085000  1.0
  H  H14  1  0.44864000  0.11717000  0.90914000  1.0
  H  H15  1  0.50237000  0.87105000  0.56398000  1.0
  H  H16  1  0.49764000  0.12886000  0.43603000  1.0
  H  H17  1  0.44959000  0.71742000  0.68624000  1.0
  H  H18  1  0.55037000  0.28252000  0.31379000  1.0
  H  H19  1  0.53046000  0.86901000  0.72837000  1.0
  H  H20  1  0.46954000  0.13092000  0.27165000  1.0
  H  H21  1  0.19631000  0.32286000  0.24756000  1.0
  H  H22  1  0.80363000  0.67721000  0.75244000  1.0
  H  H23  1  0.25275000  0.42194000  0.36371000  1.0
  H  H24  1  0.74721000  0.57814000  0.63627000  1.0
  H  H25  1  0.05567000  0.46773000  0.35124000  1.0
  H  H26  1  0.94427000  0.53231000  0.64879000  1.0
  H  H27  1  0.74445000  0.12247000  0.48980000  1.0
  H  H28  1  0.25558000  0.87752000  0.51020000  1.0
  H  H29  1  0.61679000  0.17253000  0.63581000  1.0
  H  H30  1  0.38323000  0.82744000  0.36419000  1.0
  C  C31  1  0.27909000  0.91952000  0.73597000  1.0
  C  C32  1  0.72092000  0.08046000  0.26403000  1.0
  C  C33  1  0.80140000  0.39989000  0.00000000  1.0
  C  C34  1  0.19860000  0.60009000  0.00001000  1.0
  C  C35  1  0.65058000  0.80449000  0.02583000  1.0
  C  C36  1  0.34941000  0.19555000  0.97416000  1.0
  C  C37  1  0.83660000  0.28562000  0.89373000  1.0
  C  C38  1  0.16342000  0.71437000  0.10626000  1.0
  C  C39  1  0.74643000  0.89442000  0.90490000  1.0
  C  C40  1  0.25357000  0.10560000  0.09509000  1.0
  C  C41  1  0.45166000  0.84122000  0.67367000  1.0
  C  C42  1  0.54834000  0.15872000  0.32635000  1.0
  C  C43  1  0.15418000  0.37252000  0.34742000  1.0
  C  C44  1  0.84576000  0.62754000  0.65259000  1.0
  C  C45  1  0.09010000  0.25926000  0.46160000  1.0
  C  C46  1  0.90991000  0.74078000  0.53840000  1.0
  O  O47  1  0.19254000  0.96251000  0.65594000  1.0
  O  O48  1  0.80749000  0.03749000  0.34405000  1.0
  O  O49  1  0.05608000  0.29212000  0.58496000  1.0
  O  O50  1  0.94391000  0.70792000  0.41504000  1.0
  O  O51  1  0.90228000  0.89449000  0.87987000  1.0
  O  O52  1  0.09772000  0.10551000  0.12012000  1.0
  O  O53  1  0.96850000  0.18614000  0.87155000  1.0
  O  O54  1  0.03152000  0.81386000  0.12844000  1.0
  O  O55  1  0.68001000  0.97093000  0.82277000  1.0
  O  O56  1  0.31999000  0.02910000  0.17722000  1.0
  O  O57  1  0.74608000  0.28587000  0.82107000  1.0
  O  O58  1  0.25394000  0.71413000  0.17891000  1.0
  O  O59  1  0.06241000  0.12793000  0.43789000  1.0
  O  O60  1  0.93763000  0.87210000  0.56210000  1.0
  O  O61  1  0.72854000  0.17545000  0.57586000  1.0
  O  O62  1  0.27148000  0.82454000  0.42414000  1.0
  O  O63  1  0.22970000  0.93557000  0.86354000  1.0
  O  O64  1  0.77031000  0.06440000  0.13646000  1.0
