# generated using pymatgen
data_CdH20C32(NO)4
_symmetry_space_group_name_H-M   'P 1'
_cell_length_a   10.92860000
_cell_length_b   10.92860000
_cell_length_c   23.78120000
_cell_angle_alpha   83.47050000
_cell_angle_beta   83.47080000
_cell_angle_gamma   82.59440000
_symmetry_Int_Tables_number   1
_chemical_formula_structural   CdH20C32(NO)4
_chemical_formula_sum   'Cd4 H80 C128 N16 O16'
_cell_volume   2784.15030215
_cell_formula_units_Z   4
loop_
 _symmetry_equiv_pos_site_id
 _symmetry_equiv_pos_as_xyz
  1  'x, y, z'
loop_
 _atom_site_type_symbol
 _atom_site_label
 _atom_site_symmetry_multiplicity
 _atom_site_fract_x
 _atom_site_fract_y
 _atom_site_fract_z
 _atom_site_occupancy
  Cd  Cd0  1  0.58416000  0.12398000  0.02483000  1.0
  Cd  Cd1  1  0.87602000  0.41584000  0.47516000  1.0
  Cd  Cd2  1  0.41584000  0.87602000  0.97517000  1.0
  Cd  Cd3  1  0.12398000  0.58416000  0.52483000  1.0
  H  H4  1  0.68218000  0.16616000  0.89195000  1.0
  H  H5  1  0.83385000  0.31781000  0.60805000  1.0
  H  H6  1  0.31782000  0.83385000  0.10805000  1.0
  H  H7  1  0.16615000  0.68218000  0.39195000  1.0
  H  H8  1  0.68873000  0.33594000  0.81147000  1.0
  H  H9  1  0.66406000  0.31126000  0.68852000  1.0
  H  H10  1  0.31127000  0.66406000  0.18853000  1.0
  H  H11  1  0.33594000  0.68874000  0.31147000  1.0
  H  H12  1  0.42812000  0.56461000  0.91774000  1.0
  H  H13  1  0.43540000  0.57187000  0.58227000  1.0
  H  H14  1  0.57187000  0.43540000  0.08226000  1.0
  H  H15  1  0.56460000  0.42813000  0.41773000  1.0
  H  H16  1  0.43156000  0.38630000  0.99235000  1.0
  H  H17  1  0.61370000  0.56844000  0.50765000  1.0
  H  H18  1  0.56843000  0.61370000  0.00765000  1.0
  H  H19  1  0.38630000  0.43156000  0.49234000  1.0
  H  H20  1  0.38542000  0.66442000  0.84251000  1.0
  H  H21  1  0.33559000  0.61457000  0.65748000  1.0
  H  H22  1  0.61457000  0.33558000  0.15748000  1.0
  H  H23  1  0.66442000  0.38543000  0.34252000  1.0
  H  H24  1  0.57235000  0.82189000  0.68720000  1.0
  H  H25  1  0.17811000  0.42765000  0.81280000  1.0
  H  H26  1  0.42766000  0.17811000  0.31280000  1.0
  H  H27  1  0.82189000  0.57235000  0.18720000  1.0
  H  H28  1  0.86935000  0.48627000  0.73004000  1.0
  H  H29  1  0.51372000  0.13065000  0.76996000  1.0
  H  H30  1  0.13066000  0.51374000  0.26996000  1.0
  H  H31  1  0.48627000  0.86935000  0.23004000  1.0
  H  H32  1  0.04865000  0.47159000  0.65385000  1.0
  H  H33  1  0.52840000  0.95135000  0.84616000  1.0
  H  H34  1  0.95136000  0.52841000  0.34615000  1.0
  H  H35  1  0.47160000  0.04865000  0.15385000  1.0
  H  H36  1  0.87900000  0.76078000  0.55156000  1.0
  H  H37  1  0.23922000  0.12099000  0.94844000  1.0
  H  H38  1  0.12099000  0.23922000  0.44844000  1.0
  H  H39  1  0.76078000  0.87900000  0.05156000  1.0
  H  H40  1  0.69433000  0.78592000  0.62173000  1.0
  H  H41  1  0.21408000  0.30567000  0.87827000  1.0
  H  H42  1  0.30566000  0.21407000  0.37827000  1.0
  H  H43  1  0.78592000  0.69433000  0.12173000  1.0
  H  H44  1  0.43499000  0.95814000  0.68011000  1.0
  H  H45  1  0.04188000  0.56501000  0.81989000  1.0
  H  H46  1  0.56501000  0.04188000  0.31989000  1.0
  H  H47  1  0.95812000  0.43499000  0.18011000  1.0
  H  H48  1  0.26758000  0.13004000  0.68030000  1.0
  H  H49  1  0.86997000  0.73241000  0.81970000  1.0
  H  H50  1  0.73241000  0.86996000  0.31970000  1.0
  H  H51  1  0.13003000  0.26758000  0.18030000  1.0
  H  H52  1  0.08891000  0.97911000  0.82990000  1.0
  H  H53  1  0.02089000  0.91110000  0.67010000  1.0
  H  H54  1  0.91110000  0.02089000  0.17011000  1.0
  H  H55  1  0.97911000  0.08890000  0.32990000  1.0
  H  H56  1  0.25138000  0.80197000  0.83839000  1.0
  H  H57  1  0.19803000  0.74863000  0.66160000  1.0
  H  H58  1  0.74864000  0.19804000  0.16161000  1.0
  H  H59  1  0.80196000  0.25137000  0.33840000  1.0
  H  H60  1  0.95572000  0.01946000  0.05182000  1.0
  H  H61  1  0.98054000  0.04428000  0.44818000  1.0
  H  H62  1  0.04427000  0.98054000  0.94818000  1.0
  H  H63  1  0.01946000  0.95572000  0.55182000  1.0
  H  H64  1  0.18112000  0.99149000  0.05747000  1.0
  H  H65  1  0.00851000  0.81888000  0.44253000  1.0
  H  H66  1  0.81887000  0.00852000  0.94253000  1.0
  H  H67  1  0.99149000  0.18112000  0.55747000  1.0
  H  H68  1  0.82893000  0.45105000  0.06300000  1.0
  H  H69  1  0.54894000  0.17106000  0.43701000  1.0
  H  H70  1  0.17107000  0.54895000  0.93700000  1.0
  H  H71  1  0.45106000  0.82893000  0.56300000  1.0
  H  H72  1  0.93795000  0.63486000  0.06913000  1.0
  H  H73  1  0.36514000  0.06203000  0.43088000  1.0
  H  H74  1  0.06204000  0.36514000  0.93087000  1.0
  H  H75  1  0.63486000  0.93796000  0.56913000  1.0
  H  H76  1  0.16518000  0.60830000  0.07686000  1.0
  H  H77  1  0.39170000  0.83481000  0.42314000  1.0
  H  H78  1  0.83482000  0.39170000  0.92314000  1.0
  H  H79  1  0.60830000  0.16518000  0.57687000  1.0
  H  H80  1  0.28509000  0.40039000  0.07504000  1.0
  H  H81  1  0.59962000  0.71490000  0.42496000  1.0
  H  H82  1  0.71491000  0.59962000  0.92496000  1.0
  H  H83  1  0.40038000  0.28509000  0.57504000  1.0
  C  C84  1  0.62698000  0.25605000  0.89551000  1.0
  C  C85  1  0.74396000  0.37301000  0.60449000  1.0
  C  C86  1  0.37302000  0.74396000  0.10449000  1.0
  C  C87  1  0.25604000  0.62698000  0.39551000  1.0
  C  C88  1  0.63078000  0.35025000  0.85108000  1.0
  C  C89  1  0.64975000  0.36920000  0.64892000  1.0
  C  C90  1  0.36921000  0.64975000  0.14892000  1.0
  C  C91  1  0.35025000  0.63080000  0.35108000  1.0
  C  C92  1  0.55807000  0.46443000  0.85725000  1.0
  C  C93  1  0.53557000  0.44191000  0.64275000  1.0
  C  C94  1  0.44192000  0.53557000  0.14275000  1.0
  C  C95  1  0.46443000  0.55808000  0.35725000  1.0
  C  C96  1  0.48499000  0.47789000  0.90920000  1.0
  C  C97  1  0.52211000  0.51500000  0.59080000  1.0
  C  C98  1  0.51500000  0.52211000  0.09080000  1.0
  C  C99  1  0.47789000  0.48500000  0.40920000  1.0
  C  C100  1  0.48660000  0.37879000  0.95138000  1.0
  C  C101  1  0.62122000  0.51339000  0.54862000  1.0
  C  C102  1  0.51339000  0.62121000  0.04861000  1.0
  C  C103  1  0.37879000  0.48660000  0.45138000  1.0
  C  C104  1  0.55863000  0.56618000  0.81022000  1.0
  C  C105  1  0.43383000  0.44136000  0.68978000  1.0
  C  C106  1  0.44137000  0.43383000  0.18978000  1.0
  C  C107  1  0.56617000  0.55863000  0.31022000  1.0
  C  C108  1  0.46133000  0.66328000  0.80868000  1.0
  C  C109  1  0.33673000  0.53867000  0.69132000  1.0
  C  C110  1  0.53867000  0.33672000  0.19132000  1.0
  C  C111  1  0.66327000  0.46133000  0.30868000  1.0
  C  C112  1  0.46251000  0.75799000  0.76362000  1.0
  C  C113  1  0.24202000  0.53748000  0.73637000  1.0
  C  C114  1  0.53749000  0.24202000  0.23637000  1.0
  C  C115  1  0.75799000  0.46252000  0.26363000  1.0
  C  C116  1  0.56490000  0.74975000  0.72243000  1.0
  C  C117  1  0.25026000  0.43510000  0.77757000  1.0
  C  C118  1  0.43510000  0.25026000  0.27757000  1.0
  C  C119  1  0.74974000  0.56490000  0.22243000  1.0
  C  C120  1  0.65814000  0.64911000  0.72649000  1.0
  C  C121  1  0.35089000  0.34186000  0.77351000  1.0
  C  C122  1  0.34186000  0.35089000  0.27351000  1.0
  C  C123  1  0.64911000  0.65814000  0.22649000  1.0
  C  C124  1  0.76618000  0.63800000  0.68274000  1.0
  C  C125  1  0.36199000  0.23382000  0.81726000  1.0
  C  C126  1  0.23382000  0.36200000  0.31726000  1.0
  C  C127  1  0.63800000  0.76618000  0.18274000  1.0
  C  C128  1  0.86847000  0.54842000  0.69092000  1.0
  C  C129  1  0.45158000  0.13153000  0.80908000  1.0
  C  C130  1  0.13154000  0.45158000  0.30908000  1.0
  C  C131  1  0.54842000  0.86847000  0.19092000  1.0
  C  C132  1  0.96783000  0.54046000  0.64896000  1.0
  C  C133  1  0.45954000  0.03217000  0.85104000  1.0
  C  C134  1  0.03217000  0.45955000  0.35104000  1.0
  C  C135  1  0.54047000  0.96783000  0.14896000  1.0
  C  C136  1  0.87366000  0.70217000  0.59187000  1.0
  C  C137  1  0.29783000  0.12634000  0.90813000  1.0
  C  C138  1  0.12633000  0.29783000  0.40813000  1.0
  C  C139  1  0.70217000  0.87366000  0.09187000  1.0
  C  C140  1  0.77080000  0.71559000  0.63155000  1.0
  C  C141  1  0.28441000  0.22920000  0.86845000  1.0
  C  C142  1  0.22919000  0.28441000  0.36845000  1.0
  C  C143  1  0.71559000  0.77080000  0.13155000  1.0
  C  C144  1  0.36082000  0.86191000  0.75989000  1.0
  C  C145  1  0.13809000  0.63918000  0.74010000  1.0
  C  C146  1  0.63918000  0.13809000  0.24011000  1.0
  C  C147  1  0.86191000  0.36082000  0.25989000  1.0
  C  C148  1  0.36141000  0.95718000  0.71501000  1.0
  C  C149  1  0.04283000  0.63858000  0.78499000  1.0
  C  C150  1  0.63858000  0.04283000  0.28499000  1.0
  C  C151  1  0.95717000  0.36142000  0.21501000  1.0
  C  C152  1  0.26586000  0.05501000  0.71475000  1.0
  C  C153  1  0.94500000  0.73413000  0.78525000  1.0
  C  C154  1  0.73414000  0.94499000  0.28525000  1.0
  C  C155  1  0.05500000  0.26586000  0.21475000  1.0
  C  C156  1  0.16794000  0.97214000  0.79739000  1.0
  C  C157  1  0.02786000  0.83206000  0.70261000  1.0
  C  C158  1  0.83206000  0.02786000  0.20261000  1.0
  C  C159  1  0.97214000  0.16794000  0.29739000  1.0
  C  C160  1  0.25944000  0.87109000  0.80182000  1.0
  C  C161  1  0.12892000  0.74056000  0.69818000  1.0
  C  C162  1  0.74057000  0.12892000  0.19818000  1.0
  C  C163  1  0.87108000  0.25944000  0.30182000  1.0
  C  C164  1  0.80239000  0.22071000  0.04551000  1.0
  C  C165  1  0.77929000  0.19761000  0.45449000  1.0
  C  C166  1  0.19761000  0.77930000  0.95449000  1.0
  C  C167  1  0.22071000  0.80239000  0.54551000  1.0
  C  C168  1  0.93547000  0.21538000  0.05665000  1.0
  C  C169  1  0.78462000  0.06453000  0.44335000  1.0
  C  C170  1  0.06453000  0.78463000  0.94335000  1.0
  C  C171  1  0.21538000  0.93546000  0.55666000  1.0
  C  C172  1  0.00263000  0.09881000  0.05714000  1.0
  C  C173  1  0.90119000  0.99737000  0.44286000  1.0
  C  C174  1  0.99736000  0.90120000  0.94286000  1.0
  C  C175  1  0.09881000  0.00263000  0.55714000  1.0
  C  C176  1  0.13040000  0.08313000  0.06061000  1.0
  C  C177  1  0.91687000  0.86960000  0.43939000  1.0
  C  C178  1  0.86960000  0.91688000  0.93939000  1.0
  C  C179  1  0.08313000  0.13039000  0.56061000  1.0
  C  C180  1  0.19462000  0.18356000  0.06315000  1.0
  C  C181  1  0.81645000  0.80538000  0.43685000  1.0
  C  C182  1  0.80538000  0.81645000  0.93684000  1.0
  C  C183  1  0.18355000  0.19461000  0.56316000  1.0
  C  C184  1  0.12774000  0.30515000  0.06663000  1.0
  C  C185  1  0.69486000  0.87225000  0.43336000  1.0
  C  C186  1  0.87226000  0.69486000  0.93336000  1.0
  C  C187  1  0.30514000  0.12774000  0.56664000  1.0
  C  C188  1  0.99513000  0.32053000  0.06385000  1.0
  C  C189  1  0.67948000  0.00487000  0.43615000  1.0
  C  C190  1  0.00487000  0.67948000  0.93615000  1.0
  C  C191  1  0.32052000  0.99513000  0.56385000  1.0
  C  C192  1  0.92855000  0.44105000  0.06562000  1.0
  C  C193  1  0.55895000  0.07144000  0.43438000  1.0
  C  C194  1  0.07145000  0.55895000  0.93438000  1.0
  C  C195  1  0.44105000  0.92855000  0.56562000  1.0
  C  C196  1  0.98895000  0.54220000  0.06998000  1.0
  C  C197  1  0.45780000  0.01105000  0.43002000  1.0
  C  C198  1  0.01106000  0.45780000  0.93002000  1.0
  C  C199  1  0.54220000  0.98895000  0.56999000  1.0
  C  C200  1  0.11822000  0.52763000  0.07340000  1.0
  C  C201  1  0.47237000  0.88177000  0.42660000  1.0
  C  C202  1  0.88178000  0.47237000  0.92660000  1.0
  C  C203  1  0.52763000  0.11822000  0.57340000  1.0
  C  C204  1  0.18582000  0.41224000  0.07168000  1.0
  C  C205  1  0.58777000  0.81417000  0.42832000  1.0
  C  C206  1  0.81418000  0.58777000  0.92832000  1.0
  C  C207  1  0.41223000  0.18582000  0.57169000  1.0
  C  C208  1  0.33289000  0.15735000  0.05714000  1.0
  C  C209  1  0.84265000  0.66711000  0.44286000  1.0
  C  C210  1  0.66711000  0.84265000  0.94286000  1.0
  C  C211  1  0.15735000  0.33289000  0.55714000  1.0
  N  N212  1  0.55580000  0.26912000  0.94501000  1.0
  N  N213  1  0.73088000  0.44419000  0.55499000  1.0
  N  N214  1  0.44420000  0.73088000  0.05499000  1.0
  N  N215  1  0.26912000  0.55580000  0.44501000  1.0
  N  N216  1  0.97088000  0.61583000  0.60012000  1.0
  N  N217  1  0.38417000  0.02912000  0.89988000  1.0
  N  N218  1  0.02912000  0.38417000  0.39988000  1.0
  N  N219  1  0.61583000  0.97088000  0.10012000  1.0
  N  N220  1  0.16971000  0.06461000  0.75508000  1.0
  N  N221  1  0.93539000  0.83028000  0.74492000  1.0
  N  N222  1  0.83028000  0.93539000  0.24492000  1.0
  N  N223  1  0.06461000  0.16971000  0.25508000  1.0
  N  N224  1  0.65478000  0.55831000  0.76963000  1.0
  N  N225  1  0.44169000  0.34521000  0.73037000  1.0
  N  N226  1  0.34522000  0.44169000  0.23037000  1.0
  N  N227  1  0.55831000  0.65479000  0.26963000  1.0
  O  O228  1  0.78588000  0.14983000  0.00804000  1.0
  O  O229  1  0.85017000  0.21412000  0.49196000  1.0
  O  O230  1  0.21411000  0.85018000  0.99196000  1.0
  O  O231  1  0.14982000  0.78588000  0.50804000  1.0
  O  O232  1  0.71567000  0.28407000  0.07285000  1.0
  O  O233  1  0.71592000  0.28433000  0.42715000  1.0
  O  O234  1  0.28433000  0.71593000  0.92715000  1.0
  O  O235  1  0.28408000  0.71566000  0.57285000  1.0
  O  O236  1  0.40136000  0.22922000  0.07366000  1.0
  O  O237  1  0.77078000  0.59864000  0.42634000  1.0
  O  O238  1  0.59864000  0.77078000  0.92634000  1.0
  O  O239  1  0.22922000  0.40136000  0.57366000  1.0
  O  O240  1  0.38097000  0.06041000  0.03262000  1.0
  O  O241  1  0.93959000  0.61903000  0.46738000  1.0
  O  O242  1  0.61903000  0.93959000  0.96738000  1.0
  O  O243  1  0.06041000  0.38097000  0.53262000  1.0
