# generated using pymatgen
data_CdH14C14N2O7
_symmetry_space_group_name_H-M   'P 1'
_cell_length_a   9.27433000
_cell_length_b   10.32680000
_cell_length_c   19.78490000
_cell_angle_alpha   90.00260000
_cell_angle_beta   90.00000000
_cell_angle_gamma   109.06300000
_symmetry_Int_Tables_number   1
_chemical_formula_structural   CdH14C14N2O7
_chemical_formula_sum   'Cd4 H56 C56 N8 O28'
_cell_volume   1790.96671397
_cell_formula_units_Z   4
loop_
 _symmetry_equiv_pos_site_id
 _symmetry_equiv_pos_as_xyz
  1  'x, y, z'
loop_
 _atom_site_type_symbol
 _atom_site_label
 _atom_site_symmetry_multiplicity
 _atom_site_fract_x
 _atom_site_fract_y
 _atom_site_fract_z
 _atom_site_occupancy
  Cd  Cd0  1  0.76452000  0.61905000  0.01168000  1.0
  Cd  Cd1  1  0.73548000  0.88095000  0.51169000  1.0
  Cd  Cd2  1  0.23546000  0.38093000  0.98831000  1.0
  Cd  Cd3  1  0.26454000  0.11902000  0.48832000  1.0
  H  H4  1  0.53375000  0.41158000  0.08204000  1.0
  H  H5  1  0.96626000  0.08843000  0.58204000  1.0
  H  H6  1  0.46624000  0.58842000  0.91797000  1.0
  H  H7  1  0.03377000  0.91159000  0.41796000  1.0
  H  H8  1  0.49478000  0.54474000  0.08832000  1.0
  H  H9  1  0.00523000  0.95527000  0.58832000  1.0
  H  H10  1  0.50522000  0.45526000  0.91168000  1.0
  H  H11  1  0.99478000  0.04473000  0.41169000  1.0
  H  H12  1  0.07616000  0.72151000  0.96347000  1.0
  H  H13  1  0.42382000  0.77848000  0.46348000  1.0
  H  H14  1  0.92383000  0.27850000  0.03652000  1.0
  H  H15  1  0.57619000  0.22152000  0.53652000  1.0
  H  H16  1  0.98494000  0.83345000  0.96346000  1.0
  H  H17  1  0.51504000  0.66654000  0.46345000  1.0
  H  H18  1  0.01503000  0.16654000  0.03654000  1.0
  H  H19  1  0.48495000  0.33345000  0.53654000  1.0
  H  H20  1  0.46673000  0.75788000  0.35780000  1.0
  H  H21  1  0.03327000  0.74211000  0.85779000  1.0
  H  H22  1  0.53326000  0.24213000  0.64220000  1.0
  H  H23  1  0.96673000  0.25789000  0.14220000  1.0
  H  H24  1  0.93617000  0.49764000  0.11287000  1.0
  H  H25  1  0.56380000  0.00237000  0.61287000  1.0
  H  H26  1  0.06381000  0.50235000  0.88714000  1.0
  H  H27  1  0.43621000  0.99762000  0.38712000  1.0
  H  H28  1  0.13213000  0.56073000  0.20300000  1.0
  H  H29  1  0.36785000  0.93929000  0.70299000  1.0
  H  H30  1  0.86784000  0.43929000  0.79701000  1.0
  H  H31  1  0.63215000  0.06072000  0.29699000  1.0
  H  H32  1  0.12197000  0.97606000  0.18899000  1.0
  H  H33  1  0.37801000  0.52396000  0.68898000  1.0
  H  H34  1  0.87800000  0.02393000  0.81101000  1.0
  H  H35  1  0.62199000  0.47604000  0.31103000  1.0
  H  H36  1  0.92834000  0.89533000  0.09666000  1.0
  H  H37  1  0.57166000  0.60467000  0.59665000  1.0
  H  H38  1  0.07163000  0.10467000  0.90334000  1.0
  H  H39  1  0.42836000  0.39532000  0.40336000  1.0
  H  H40  1  0.32910000  0.93614000  0.25365000  1.0
  H  H41  1  0.17091000  0.56388000  0.75364000  1.0
  H  H42  1  0.67088000  0.06386000  0.74636000  1.0
  H  H43  1  0.82909000  0.43614000  0.24636000  1.0
  H  H44  1  0.48668000  0.24917000  0.86877000  1.0
  H  H45  1  0.01332000  0.25081000  0.36876000  1.0
  H  H46  1  0.51330000  0.75082000  0.13123000  1.0
  H  H47  1  0.98667000  0.74918000  0.63124000  1.0
  H  H48  1  0.36740000  0.00907000  0.82857000  1.0
  H  H49  1  0.13261000  0.49091000  0.32856000  1.0
  H  H50  1  0.63258000  0.99091000  0.17144000  1.0
  H  H51  1  0.86742000  0.50908000  0.67144000  1.0
  H  H52  1  0.45768000  0.82413000  0.87214000  1.0
  H  H53  1  0.04235000  0.67585000  0.37214000  1.0
  H  H54  1  0.54231000  0.17586000  0.12787000  1.0
  H  H55  1  0.95770000  0.32414000  0.62786000  1.0
  H  H56  1  0.77392000  0.11132000  0.00210000  1.0
  H  H57  1  0.72612000  0.38868000  0.50210000  1.0
  H  H58  1  0.22608000  0.88868000  0.99790000  1.0
  H  H59  1  0.27391000  0.61129000  0.49790000  1.0
  C  C60  1  0.97972000  0.60239000  0.13147000  1.0
  C  C61  1  0.52027000  0.89763000  0.63146000  1.0
  C  C62  1  0.02027000  0.39761000  0.86852000  1.0
  C  C63  1  0.47972000  0.10237000  0.36853000  1.0
  C  C64  1  0.08805000  0.63802000  0.18241000  1.0
  C  C65  1  0.41192000  0.86200000  0.68239000  1.0
  C  C66  1  0.91191000  0.36199000  0.81759000  1.0
  C  C67  1  0.58807000  0.13799000  0.31760000  1.0
  C  C68  1  0.14472000  0.77517000  0.20379000  1.0
  C  C69  1  0.35527000  0.72484000  0.70377000  1.0
  C  C70  1  0.85525000  0.22483000  0.79621000  1.0
  C  C71  1  0.64475000  0.27516000  0.29623000  1.0
  C  C72  1  0.08263000  0.86860000  0.17393000  1.0
  C  C73  1  0.41738000  0.63141000  0.67393000  1.0
  C  C74  1  0.91733000  0.13140000  0.82606000  1.0
  C  C75  1  0.58265000  0.36858000  0.32608000  1.0
  C  C76  1  0.97485000  0.82496000  0.12286000  1.0
  C  C77  1  0.52512000  0.67506000  0.62285000  1.0
  C  C78  1  0.02510000  0.17504000  0.87714000  1.0
  C  C79  1  0.47489000  0.32495000  0.37715000  1.0
  C  C80  1  0.27148000  0.82524000  0.25067000  1.0
  C  C81  1  0.22851000  0.67478000  0.75065000  1.0
  C  C82  1  0.72849000  0.17478000  0.74934000  1.0
  C  C83  1  0.77149000  0.32523000  0.24934000  1.0
  C  C84  1  0.71121000  0.33956000  0.96576000  1.0
  C  C85  1  0.78881000  0.16045000  0.46576000  1.0
  C  C86  1  0.28876000  0.66043000  0.03424000  1.0
  C  C87  1  0.21121000  0.83954000  0.53424000  1.0
  C  C88  1  0.63976000  0.19808000  0.93840000  1.0
  C  C89  1  0.86027000  0.30191000  0.43840000  1.0
  C  C90  1  0.36023000  0.80191000  0.06159000  1.0
  C  C91  1  0.13973000  0.69808000  0.56159000  1.0
  C  C92  1  0.52449000  0.16763000  0.88913000  1.0
  C  C93  1  0.97553000  0.33236000  0.38912000  1.0
  C  C94  1  0.47551000  0.83236000  0.11087000  1.0
  C  C95  1  0.02447000  0.66764000  0.61088000  1.0
  C  C96  1  0.45853000  0.03337000  0.86607000  1.0
  C  C97  1  0.04150000  0.46663000  0.36607000  1.0
  C  C98  1  0.54147000  0.96662000  0.13392000  1.0
  C  C99  1  0.95852000  0.53337000  0.63393000  1.0
  C  C100  1  0.50899000  0.92867000  0.89050000  1.0
  C  C101  1  0.99105000  0.57134000  0.39051000  1.0
  C  C102  1  0.49103000  0.07133000  0.10950000  1.0
  C  C103  1  0.00900000  0.42867000  0.60951000  1.0
  C  C104  1  0.62596000  0.95863000  0.93874000  1.0
  C  C105  1  0.87407000  0.54138000  0.43874000  1.0
  C  C106  1  0.37404000  0.04137000  0.06127000  1.0
  C  C107  1  0.12597000  0.45863000  0.56128000  1.0
  C  C108  1  0.68782000  0.09232000  0.96289000  1.0
  C  C109  1  0.81222000  0.40770000  0.46289000  1.0
  C  C110  1  0.31216000  0.90768000  0.03712000  1.0
  C  C111  1  0.18781000  0.59231000  0.53712000  1.0
  C  C112  1  0.68960000  0.85362000  0.96609000  1.0
  C  C113  1  0.81044000  0.64640000  0.46609000  1.0
  C  C114  1  0.31040000  0.14638000  0.03392000  1.0
  C  C115  1  0.18959000  0.35361000  0.53392000  1.0
  N  N116  1  0.92593000  0.69421000  0.10102000  1.0
  N  N117  1  0.57407000  0.80580000  0.60101000  1.0
  N  N118  1  0.07406000  0.30580000  0.89899000  1.0
  N  N119  1  0.42593000  0.19420000  0.39899000  1.0
  N  N120  1  0.32044000  0.74261000  0.28580000  1.0
  N  N121  1  0.17956000  0.75741000  0.78579000  1.0
  N  N122  1  0.67956000  0.25743000  0.71420000  1.0
  N  N123  1  0.82042000  0.24260000  0.21420000  1.0
  O  O124  1  0.58197000  0.50932000  0.09408000  1.0
  O  O125  1  0.91804000  0.99070000  0.59409000  1.0
  O  O126  1  0.41802000  0.49068000  0.90592000  1.0
  O  O127  1  0.08198000  0.00932000  0.40591000  1.0
  O  O128  1  0.99104000  0.74908000  0.94245000  1.0
  O  O129  1  0.50895000  0.75090000  0.44244000  1.0
  O  O130  1  0.00893000  0.25090000  0.05756000  1.0
  O  O131  1  0.49107000  0.24910000  0.55756000  1.0
  O  O132  1  0.45413000  0.81449000  0.31877000  1.0
  O  O133  1  0.04588000  0.68550000  0.81877000  1.0
  O  O134  1  0.54582000  0.18550000  0.68122000  1.0
  O  O135  1  0.95414000  0.31452000  0.18122000  1.0
  O  O136  1  0.67033000  0.43690000  0.94033000  1.0
  O  O137  1  0.82967000  0.06308000  0.44034000  1.0
  O  O138  1  0.32967000  0.56309000  0.05966000  1.0
  O  O139  1  0.17034000  0.93690000  0.55966000  1.0
  O  O140  1  0.80885000  0.36235000  0.01306000  1.0
  O  O141  1  0.69119000  0.13769000  0.51307000  1.0
  O  O142  1  0.19114000  0.63767000  0.98693000  1.0
  O  O143  1  0.30884000  0.86232000  0.48693000  1.0
  O  O144  1  0.61572000  0.72588000  0.95587000  1.0
  O  O145  1  0.88431000  0.77413000  0.45586000  1.0
  O  O146  1  0.38428000  0.27412000  0.04414000  1.0
  O  O147  1  0.11573000  0.22588000  0.54414000  1.0
  O  O148  1  0.81413000  0.89368000  0.99855000  1.0
  O  O149  1  0.68591000  0.60635000  0.49855000  1.0
  O  O150  1  0.18589000  0.10635000  0.00145000  1.0
  O  O151  1  0.31412000  0.39364000  0.50145000  1.0
