# generated using pymatgen
data_YbH24C24(NO2)6
_symmetry_space_group_name_H-M   'P 1'
_cell_length_a   15.72930000
_cell_length_b   15.72930000
_cell_length_c   16.77300000
_cell_angle_alpha   89.99980000
_cell_angle_beta   89.99990000
_cell_angle_gamma   60.00000000
_symmetry_Int_Tables_number   1
_chemical_formula_structural   YbH24C24(NO2)6
_chemical_formula_sum   'Yb4 H96 C96 N24 O48'
_cell_volume   3593.85184899
_cell_formula_units_Z   4
loop_
 _symmetry_equiv_pos_site_id
 _symmetry_equiv_pos_as_xyz
  1  'x, y, z'
loop_
 _atom_site_type_symbol
 _atom_site_label
 _atom_site_symmetry_multiplicity
 _atom_site_fract_x
 _atom_site_fract_y
 _atom_site_fract_z
 _atom_site_occupancy
  Yb  Yb0  1  0.66666667  0.66666667  0.82657000  1.0
  Yb  Yb1  1  0.33333333  0.33333333  0.67343000  1.0
  Yb  Yb2  1  0.33333333  0.33333333  0.17343000  1.0
  Yb  Yb3  1  0.66666667  0.66666667  0.32657000  1.0
  H  H4  1  0.73692000  0.51310000  0.00407000  1.0
  H  H5  1  0.51311000  0.74998000  0.00407000  1.0
  H  H6  1  0.74998000  0.73691000  0.00407000  1.0
  H  H7  1  0.25003000  0.48689000  0.49593000  1.0
  H  H8  1  0.48689000  0.26308000  0.49593000  1.0
  H  H9  1  0.26309000  0.25002000  0.49593000  1.0
  H  H10  1  0.26308000  0.48690000  0.99593000  1.0
  H  H11  1  0.48689000  0.25002000  0.99593000  1.0
  H  H12  1  0.25003000  0.26308000  0.99593000  1.0
  H  H13  1  0.74997000  0.51311000  0.50407000  1.0
  H  H14  1  0.51311000  0.73691000  0.50407000  1.0
  H  H15  1  0.73691000  0.74998000  0.50407000  1.0
  H  H16  1  0.84175000  0.34931000  0.06631000  1.0
  H  H17  1  0.34931000  0.80894000  0.06630000  1.0
  H  H18  1  0.80894000  0.84175000  0.06631000  1.0
  H  H19  1  0.19106000  0.65069000  0.43370000  1.0
  H  H20  1  0.65069000  0.15825000  0.43369000  1.0
  H  H21  1  0.15825000  0.19106000  0.43370000  1.0
  H  H22  1  0.15825000  0.65069000  0.93369000  1.0
  H  H23  1  0.65069000  0.19106000  0.93370000  1.0
  H  H24  1  0.19106000  0.15825000  0.93369000  1.0
  H  H25  1  0.80894000  0.34931000  0.56631000  1.0
  H  H26  1  0.34931000  0.84175000  0.56631000  1.0
  H  H27  1  0.84175000  0.80894000  0.56630000  1.0
  H  H28  1  0.09471000  0.32204000  0.94377000  1.0
  H  H29  1  0.32204000  0.58326000  0.94377000  1.0
  H  H30  1  0.58325000  0.09471000  0.94377000  1.0
  H  H31  1  0.41675000  0.67795000  0.55623000  1.0
  H  H32  1  0.67796000  0.90529000  0.55623000  1.0
  H  H33  1  0.90530000  0.41674000  0.55623000  1.0
  H  H34  1  0.90529000  0.67797000  0.05623000  1.0
  H  H35  1  0.67796000  0.41674000  0.05623000  1.0
  H  H36  1  0.41675000  0.90529000  0.05623000  1.0
  H  H37  1  0.58325000  0.32204000  0.44377000  1.0
  H  H38  1  0.32204000  0.09471000  0.44377000  1.0
  H  H39  1  0.09470000  0.58326000  0.44377000  1.0
  H  H40  1  0.08678000  0.44828000  0.86595000  1.0
  H  H41  1  0.44828000  0.46494000  0.86595000  1.0
  H  H42  1  0.46494000  0.08678000  0.86595000  1.0
  H  H43  1  0.53506000  0.55172000  0.63405000  1.0
  H  H44  1  0.55172000  0.91322000  0.63405000  1.0
  H  H45  1  0.91322000  0.53506000  0.63405000  1.0
  H  H46  1  0.91322000  0.55172000  0.13405000  1.0
  H  H47  1  0.55172000  0.53506000  0.13405000  1.0
  H  H48  1  0.53506000  0.91322000  0.13405000  1.0
  H  H49  1  0.46494000  0.44828000  0.36595000  1.0
  H  H50  1  0.44828000  0.08678000  0.36595000  1.0
  H  H51  1  0.08678000  0.46494000  0.36595000  1.0
  H  H52  1  0.02090000  0.25110000  0.03465000  1.0
  H  H53  1  0.25111000  0.72799000  0.03465000  1.0
  H  H54  1  0.72800000  0.02090000  0.03465000  1.0
  H  H55  1  0.27200000  0.74890000  0.46535000  1.0
  H  H56  1  0.74890000  0.97910000  0.46535000  1.0
  H  H57  1  0.97910000  0.27201000  0.46535000  1.0
  H  H58  1  0.97910000  0.74890000  0.96535000  1.0
  H  H59  1  0.74889000  0.27201000  0.96535000  1.0
  H  H60  1  0.27200000  0.97910000  0.96535000  1.0
  H  H61  1  0.72800000  0.25110000  0.53465000  1.0
  H  H62  1  0.25110000  0.02091000  0.53465000  1.0
  H  H63  1  0.02090000  0.72799000  0.53465000  1.0
  H  H64  1  0.88728000  0.61790000  0.84625000  1.0
  H  H65  1  0.61790000  0.49482000  0.84625000  1.0
  H  H66  1  0.49482000  0.88728000  0.84625000  1.0
  H  H67  1  0.50519000  0.38209000  0.65375000  1.0
  H  H68  1  0.38210000  0.11272000  0.65375000  1.0
  H  H69  1  0.11272000  0.50518000  0.65375000  1.0
  H  H70  1  0.11272000  0.38210000  0.15375000  1.0
  H  H71  1  0.38210000  0.50518000  0.15375000  1.0
  H  H72  1  0.50518000  0.11272000  0.15375000  1.0
  H  H73  1  0.49482000  0.61790000  0.34625000  1.0
  H  H74  1  0.61790000  0.88728000  0.34625000  1.0
  H  H75  1  0.88728000  0.49482000  0.34625000  1.0
  H  H76  1  0.09082000  0.57677000  0.80476000  1.0
  H  H77  1  0.57676000  0.33242000  0.80476000  1.0
  H  H78  1  0.33241000  0.09083000  0.80476000  1.0
  H  H79  1  0.66759000  0.42323000  0.69524000  1.0
  H  H80  1  0.42324000  0.90917000  0.69524000  1.0
  H  H81  1  0.90918000  0.66758000  0.69524000  1.0
  H  H82  1  0.90918000  0.42323000  0.19524000  1.0
  H  H83  1  0.42323000  0.66759000  0.19524000  1.0
  H  H84  1  0.66759000  0.90917000  0.19524000  1.0
  H  H85  1  0.33241000  0.57677000  0.30476000  1.0
  H  H86  1  0.57676000  0.09083000  0.30476000  1.0
  H  H87  1  0.09082000  0.33242000  0.30476000  1.0
  H  H88  1  0.98601000  0.69449000  0.81924000  1.0
  H  H89  1  0.69449000  0.31950000  0.81924000  1.0
  H  H90  1  0.31950000  0.98601000  0.81924000  1.0
  H  H91  1  0.68050000  0.30551000  0.68076000  1.0
  H  H92  1  0.30551000  0.01399000  0.68076000  1.0
  H  H93  1  0.01399000  0.68050000  0.68076000  1.0
  H  H94  1  0.01399000  0.30551000  0.18076000  1.0
  H  H95  1  0.30551000  0.68050000  0.18076000  1.0
  H  H96  1  0.68050000  0.01399000  0.18076000  1.0
  H  H97  1  0.31950000  0.69449000  0.31925000  1.0
  H  H98  1  0.69449000  0.98601000  0.31924000  1.0
  H  H99  1  0.98601000  0.31950000  0.31924000  1.0
  C  C100  1  0.85457000  0.51121000  0.93758000  1.0
  C  C101  1  0.51121000  0.63422000  0.93758000  1.0
  C  C102  1  0.63422000  0.85457000  0.93758000  1.0
  C  C103  1  0.36578000  0.48879000  0.56242000  1.0
  C  C104  1  0.48879000  0.14543000  0.56242000  1.0
  C  C105  1  0.14543000  0.36578000  0.56242000  1.0
  C  C106  1  0.14543000  0.48880000  0.06242000  1.0
  C  C107  1  0.48879000  0.36578000  0.06242000  1.0
  C  C108  1  0.36578000  0.14543000  0.06242000  1.0
  C  C109  1  0.63422000  0.51121000  0.43758000  1.0
  C  C110  1  0.51120000  0.85458000  0.43758000  1.0
  C  C111  1  0.85457000  0.63422000  0.43758000  1.0
  C  C112  1  0.81528000  0.47041000  0.99158000  1.0
  C  C113  1  0.47042000  0.71431000  0.99158000  1.0
  C  C114  1  0.71431000  0.81527000  0.99158000  1.0
  C  C115  1  0.28570000  0.52957000  0.50842000  1.0
  C  C116  1  0.52958000  0.18473000  0.50842000  1.0
  C  C117  1  0.18473000  0.28569000  0.50842000  1.0
  C  C118  1  0.18472000  0.52959000  0.00842000  1.0
  C  C119  1  0.52958000  0.28569000  0.00842000  1.0
  C  C120  1  0.28569000  0.18473000  0.00842000  1.0
  C  C121  1  0.71431000  0.47041000  0.49158000  1.0
  C  C122  1  0.47041000  0.81528000  0.49158000  1.0
  C  C123  1  0.81527000  0.71431000  0.49158000  1.0
  C  C124  1  0.95857000  0.45562000  0.92205000  1.0
  C  C125  1  0.45562000  0.58581000  0.92205000  1.0
  C  C126  1  0.58581000  0.95857000  0.92205000  1.0
  C  C127  1  0.41419000  0.54438000  0.57795000  1.0
  C  C128  1  0.54438000  0.04143000  0.57795000  1.0
  C  C129  1  0.04143000  0.41419000  0.57795000  1.0
  C  C130  1  0.04143000  0.54438000  0.07795000  1.0
  C  C131  1  0.54437000  0.41420000  0.07795000  1.0
  C  C132  1  0.41419000  0.04143000  0.07795000  1.0
  C  C133  1  0.58581000  0.45562000  0.42205000  1.0
  C  C134  1  0.45562000  0.95857000  0.42205000  1.0
  C  C135  1  0.95857000  0.58581000  0.42205000  1.0
  C  C136  1  0.87427000  0.37871000  0.02506000  1.0
  C  C137  1  0.37871000  0.74702000  0.02506000  1.0
  C  C138  1  0.74702000  0.87428000  0.02506000  1.0
  C  C139  1  0.25298000  0.62129000  0.47494000  1.0
  C  C140  1  0.62130000  0.12572000  0.47494000  1.0
  C  C141  1  0.12573000  0.25298000  0.47494000  1.0
  C  C142  1  0.12573000  0.62130000  0.97494000  1.0
  C  C143  1  0.62129000  0.25298000  0.97494000  1.0
  C  C144  1  0.25298000  0.12572000  0.97494000  1.0
  C  C145  1  0.74702000  0.37871000  0.52506000  1.0
  C  C146  1  0.37870000  0.87428000  0.52506000  1.0
  C  C147  1  0.87427000  0.74703000  0.52506000  1.0
  C  C148  1  0.01667000  0.36224000  0.95768000  1.0
  C  C149  1  0.36224000  0.62109000  0.95768000  1.0
  C  C150  1  0.62109000  0.01667000  0.95768000  1.0
  C  C151  1  0.37891000  0.63776000  0.54232000  1.0
  C  C152  1  0.63776000  0.98333000  0.54232000  1.0
  C  C153  1  0.98333000  0.37891000  0.54232000  1.0
  C  C154  1  0.98333000  0.63776000  0.04232000  1.0
  C  C155  1  0.63776000  0.37891000  0.04232000  1.0
  C  C156  1  0.37891000  0.98333000  0.04232000  1.0
  C  C157  1  0.62109000  0.36224000  0.45768000  1.0
  C  C158  1  0.36224000  0.01667000  0.45768000  1.0
  C  C159  1  0.01667000  0.62109000  0.45768000  1.0
  C  C160  1  0.00718000  0.49234000  0.87384000  1.0
  C  C161  1  0.49235000  0.50048000  0.87384000  1.0
  C  C162  1  0.50048000  0.00717000  0.87384000  1.0
  C  C163  1  0.49953000  0.50765000  0.62616000  1.0
  C  C164  1  0.50766000  0.99282000  0.62616000  1.0
  C  C165  1  0.99283000  0.49952000  0.62616000  1.0
  C  C166  1  0.99282000  0.50766000  0.12616000  1.0
  C  C167  1  0.50765000  0.49952000  0.12616000  1.0
  C  C168  1  0.49952000  0.99283000  0.12616000  1.0
  C  C169  1  0.50048000  0.49234000  0.37384000  1.0
  C  C170  1  0.49234000  0.00718000  0.37384000  1.0
  C  C171  1  0.00717000  0.50048000  0.37384000  1.0
  C  C172  1  0.97554000  0.32323000  0.00789000  1.0
  C  C173  1  0.32323000  0.70123000  0.00789000  1.0
  C  C174  1  0.70123000  0.97554000  0.00789000  1.0
  C  C175  1  0.29877000  0.67677000  0.49211000  1.0
  C  C176  1  0.67677000  0.02446000  0.49211000  1.0
  C  C177  1  0.02446000  0.29877000  0.49211000  1.0
  C  C178  1  0.02446000  0.67677000  0.99211000  1.0
  C  C179  1  0.67677000  0.29877000  0.99211000  1.0
  C  C180  1  0.29877000  0.02446000  0.99211000  1.0
  C  C181  1  0.70123000  0.32323000  0.50789000  1.0
  C  C182  1  0.32323000  0.97554000  0.50789000  1.0
  C  C183  1  0.97554000  0.70123000  0.50789000  1.0
  C  C184  1  0.01152000  0.62084000  0.79466000  1.0
  C  C185  1  0.62084000  0.36764000  0.79466000  1.0
  C  C186  1  0.36764000  0.01152000  0.79466000  1.0
  C  C187  1  0.63236000  0.37916000  0.70534000  1.0
  C  C188  1  0.37916000  0.98848000  0.70534000  1.0
  C  C189  1  0.98848000  0.63236000  0.70534000  1.0
  C  C190  1  0.98848000  0.37916000  0.20534000  1.0
  C  C191  1  0.37916000  0.63236000  0.20534000  1.0
  C  C192  1  0.63236000  0.98848000  0.20534000  1.0
  C  C193  1  0.36764000  0.62084000  0.29466000  1.0
  C  C194  1  0.62084000  0.01152000  0.29466000  1.0
  C  C195  1  0.01152000  0.36764000  0.29466000  1.0
  N  N196  1  0.71630000  0.79171000  0.73582000  1.0
  N  N197  1  0.79171000  0.49200000  0.73582000  1.0
  N  N198  1  0.49199000  0.71630000  0.73583000  1.0
  N  N199  1  0.50801000  0.20829000  0.76418000  1.0
  N  N200  1  0.20829000  0.28370000  0.76418000  1.0
  N  N201  1  0.28371000  0.50800000  0.76418000  1.0
  N  N202  1  0.28370000  0.20829000  0.26418000  1.0
  N  N203  1  0.20829000  0.50800000  0.26418000  1.0
  N  N204  1  0.50801000  0.28370000  0.26417000  1.0
  N  N205  1  0.49199000  0.79171000  0.23582000  1.0
  N  N206  1  0.79171000  0.71630000  0.23583000  1.0
  N  N207  1  0.71629000  0.49200000  0.23582000  1.0
  N  N208  1  0.96253000  0.57779000  0.83802000  1.0
  N  N209  1  0.57780000  0.45968000  0.83802000  1.0
  N  N210  1  0.45968000  0.96253000  0.83802000  1.0
  N  N211  1  0.54032000  0.42220000  0.66198000  1.0
  N  N212  1  0.42221000  0.03747000  0.66198000  1.0
  N  N213  1  0.03748000  0.54032000  0.66198000  1.0
  N  N214  1  0.03747000  0.42221000  0.16198000  1.0
  N  N215  1  0.42220000  0.54032000  0.16198000  1.0
  N  N216  1  0.54032000  0.03747000  0.16198000  1.0
  N  N217  1  0.45968000  0.57779000  0.33802000  1.0
  N  N218  1  0.57779000  0.96253000  0.33802000  1.0
  N  N219  1  0.96252000  0.45968000  0.33802000  1.0
  O  O220  1  0.79947000  0.59639000  0.90335000  1.0
  O  O221  1  0.59639000  0.60414000  0.90336000  1.0
  O  O222  1  0.60414000  0.79947000  0.90335000  1.0
  O  O223  1  0.39586000  0.40361000  0.59665000  1.0
  O  O224  1  0.40361000  0.20053000  0.59665000  1.0
  O  O225  1  0.20053000  0.39586000  0.59665000  1.0
  O  O226  1  0.20053000  0.40361000  0.09665000  1.0
  O  O227  1  0.40361000  0.39586000  0.09664000  1.0
  O  O228  1  0.39586000  0.20053000  0.09665000  1.0
  O  O229  1  0.60414000  0.59639000  0.40335000  1.0
  O  O230  1  0.59639000  0.79947000  0.40335000  1.0
  O  O231  1  0.79947000  0.60414000  0.40335000  1.0
  O  O232  1  0.76659000  0.74392000  0.79687000  1.0
  O  O233  1  0.74391000  0.48950000  0.79687000  1.0
  O  O234  1  0.48950000  0.76659000  0.79687000  1.0
  O  O235  1  0.51051000  0.25608000  0.70313000  1.0
  O  O236  1  0.25609000  0.23341000  0.70313000  1.0
  O  O237  1  0.23341000  0.51050000  0.70313000  1.0
  O  O238  1  0.23341000  0.25609000  0.20313000  1.0
  O  O239  1  0.25609000  0.51050000  0.20313000  1.0
  O  O240  1  0.51050000  0.23341000  0.20313000  1.0
  O  O241  1  0.48949000  0.74392000  0.29687000  1.0
  O  O242  1  0.74391000  0.76659000  0.29687000  1.0
  O  O243  1  0.76659000  0.48950000  0.29687000  1.0
  O  O244  1  0.63926000  0.78514000  0.72151000  1.0
  O  O245  1  0.78513000  0.57561000  0.72151000  1.0
  O  O246  1  0.57559000  0.63926000  0.72151000  1.0
  O  O247  1  0.42440000  0.21486000  0.77849000  1.0
  O  O248  1  0.21486000  0.36073000  0.77849000  1.0
  O  O249  1  0.36074000  0.42440000  0.77849000  1.0
  O  O250  1  0.36074000  0.21486000  0.27849000  1.0
  O  O251  1  0.21487000  0.42439000  0.27849000  1.0
  O  O252  1  0.42441000  0.36073000  0.27849000  1.0
  O  O253  1  0.57560000  0.78514000  0.22151000  1.0
  O  O254  1  0.78514000  0.63927000  0.22151000  1.0
  O  O255  1  0.63926000  0.57561000  0.22151000  1.0
  O  O256  1  0.74013000  0.84055000  0.69332000  1.0
  O  O257  1  0.84055000  0.41932000  0.69332000  1.0
  O  O258  1  0.41931000  0.74014000  0.69332000  1.0
  O  O259  1  0.58068000  0.15945000  0.80668000  1.0
  O  O260  1  0.15945000  0.25986000  0.80668000  1.0
  O  O261  1  0.25987000  0.58068000  0.80668000  1.0
  O  O262  1  0.25987000  0.15945000  0.30668000  1.0
  O  O263  1  0.15945000  0.58068000  0.30668000  1.0
  O  O264  1  0.58069000  0.25986000  0.30668000  1.0
  O  O265  1  0.41932000  0.84055000  0.19332000  1.0
  O  O266  1  0.84055000  0.74014000  0.19332000  1.0
  O  O267  1  0.74013000  0.41932000  0.19332000  1.0
