# generated using pymatgen
data_CuH2C8N3
_symmetry_space_group_name_H-M   'P 1'
_cell_length_a   35.37460000
_cell_length_b   35.77640000
_cell_length_c   35.76740000
_cell_angle_alpha   89.99840000
_cell_angle_beta   89.99320000
_cell_angle_gamma   89.99180000
_symmetry_Int_Tables_number   1
_chemical_formula_structural   CuH2C8N3
_chemical_formula_sum   'Cu12 H24 C96 N36'
_cell_volume   45266.35647957
_cell_formula_units_Z   12
loop_
 _symmetry_equiv_pos_site_id
 _symmetry_equiv_pos_as_xyz
  1  'x, y, z'
loop_
 _atom_site_type_symbol
 _atom_site_label
 _atom_site_symmetry_multiplicity
 _atom_site_fract_x
 _atom_site_fract_y
 _atom_site_fract_z
 _atom_site_occupancy
  Cu  Cu0  1  0.37505000  0.59070000  0.65977000  1.0
  Cu  Cu1  1  0.33830000  0.62636000  0.58730000  1.0
  Cu  Cu2  1  0.41182000  0.66333000  0.62414000  1.0
  Cu  Cu3  1  0.62475000  0.91006000  0.15941000  1.0
  Cu  Cu4  1  0.66144000  0.87435000  0.08693000  1.0
  Cu  Cu5  1  0.58787000  0.83771000  0.12362000  1.0
  Cu  Cu6  1  0.87477000  0.40938000  0.84017000  1.0
  Cu  Cu7  1  0.83778000  0.37358000  0.91260000  1.0
  Cu  Cu8  1  0.91148000  0.33673000  0.87586000  1.0
  Cu  Cu9  1  0.12502000  0.08989000  0.34047000  1.0
  Cu  Cu10  1  0.16198000  0.12570000  0.41301000  1.0
  Cu  Cu11  1  0.08824000  0.16228000  0.37625000  1.0
  H  H12  1  0.31987000  0.52193000  0.67348000  1.0
  H  H13  1  0.26930000  0.57008000  0.57408000  1.0
  H  H14  1  0.48070000  0.67662000  0.68021000  1.0
  H  H15  1  0.43037000  0.57712000  0.72836000  1.0
  H  H16  1  0.32521000  0.68193000  0.51909000  1.0
  H  H17  1  0.42499000  0.73158000  0.56892000  1.0
  H  H18  1  0.68009000  0.97843000  0.17325000  1.0
  H  H19  1  0.73051000  0.93024000  0.07375000  1.0
  H  H20  1  0.51883000  0.82464000  0.17976000  1.0
  H  H21  1  0.56959000  0.92385000  0.22804000  1.0
  H  H22  1  0.67463000  0.81915000  0.01863000  1.0
  H  H23  1  0.57461000  0.76957000  0.06815000  1.0
  H  H24  1  0.81948000  0.47810000  0.82651000  1.0
  H  H25  1  0.76874000  0.42977000  0.92573000  1.0
  H  H26  1  0.98061000  0.32353000  0.81987000  1.0
  H  H27  1  0.93036000  0.42305000  0.77167000  1.0
  H  H28  1  0.82452000  0.31802000  0.98072000  1.0
  H  H29  1  0.92449000  0.26842000  0.93115000  1.0
  H  H30  1  0.18044000  0.02147000  0.32672000  1.0
  H  H31  1  0.23100000  0.06975000  0.42605000  1.0
  H  H32  1  0.01898000  0.17525000  0.32015000  1.0
  H  H33  1  0.06967000  0.07597000  0.27192000  1.0
  H  H34  1  0.17524000  0.18101000  0.48119000  1.0
  H  H35  1  0.07517000  0.23056000  0.43177000  1.0
  C  C36  1  0.31235000  0.53859000  0.64927000  1.0
  C  C37  1  0.28223000  0.53356000  0.62389000  1.0
  C  C38  1  0.28649000  0.56323000  0.59823000  1.0
  C  C39  1  0.46354000  0.65246000  0.68707000  1.0
  C  C40  1  0.46784000  0.62680000  0.71671000  1.0
  C  C41  1  0.43780000  0.60136000  0.71171000  1.0
  C  C42  1  0.34946000  0.68915000  0.53616000  1.0
  C  C43  1  0.37509000  0.71903000  0.53179000  1.0
  C  C44  1  0.40072000  0.71455000  0.56165000  1.0
  C  C45  1  0.68758000  0.96178000  0.14902000  1.0
  C  C46  1  0.71767000  0.96670000  0.12363000  1.0
  C  C47  1  0.71334000  0.93713000  0.09790000  1.0
  C  C48  1  0.53610000  0.84872000  0.18660000  1.0
  C  C49  1  0.53193000  0.87437000  0.21626000  1.0
  C  C50  1  0.56206000  0.89968000  0.21132000  1.0
  C  C51  1  0.65030000  0.81195000  0.03560000  1.0
  C  C52  1  0.62461000  0.78214000  0.03110000  1.0
  C  C53  1  0.59892000  0.78657000  0.06094000  1.0
  C  C54  1  0.81192000  0.46139000  0.85068000  1.0
  C  C55  1  0.78175000  0.46635000  0.87601000  1.0
  C  C56  1  0.78600000  0.43665000  0.90164000  1.0
  C  C57  1  0.96344000  0.34769000  0.81299000  1.0
  C  C58  1  0.96783000  0.37337000  0.78337000  1.0
  C  C59  1  0.93775000  0.39880000  0.78833000  1.0
  C  C60  1  0.84884000  0.31080000  0.96374000  1.0
  C  C61  1  0.87449000  0.28094000  0.96821000  1.0
  C  C62  1  0.90020000  0.28545000  0.93840000  1.0
  C  C63  1  0.18792000  0.03817000  0.35091000  1.0
  C  C64  1  0.21806000  0.03328000  0.37624000  1.0
  C  C65  1  0.21377000  0.06287000  0.40194000  1.0
  C  C66  1  0.03623000  0.15116000  0.31328000  1.0
  C  C67  1  0.03197000  0.12545000  0.28365000  1.0
  C  C68  1  0.06217000  0.10018000  0.28859000  1.0
  C  C69  1  0.15088000  0.18821000  0.46425000  1.0
  C  C70  1  0.12521000  0.21804000  0.46875000  1.0
  C  C71  1  0.09948000  0.21355000  0.43895000  1.0
  C  C72  1  0.84904000  0.09836000  0.12507000  1.0
  C  C73  1  0.87504000  0.15025000  0.09934000  1.0
  C  C74  1  0.90100000  0.12454000  0.15133000  1.0
  C  C75  1  0.15128000  0.40114000  0.62516000  1.0
  C  C76  1  0.12538000  0.34908000  0.59954000  1.0
  C  C77  1  0.09931000  0.37485000  0.65146000  1.0
  C  C78  1  0.34938000  0.90153000  0.37504000  1.0
  C  C79  1  0.37544000  0.84966000  0.40075000  1.0
  C  C80  1  0.40131000  0.87531000  0.34873000  1.0
  C  C81  1  0.65092000  0.59889000  0.87501000  1.0
  C  C82  1  0.59904000  0.62524000  0.84868000  1.0
  C  C83  1  0.62504000  0.65095000  0.90059000  1.0
  C  C84  1  0.74542000  0.99454000  0.12390000  1.0
  C  C85  1  0.76968000  0.01905000  0.12418000  1.0
  C  C86  1  0.79640000  0.04584000  0.12450000  1.0
  C  C87  1  0.82079000  0.07015000  0.12485000  1.0
  C  C88  1  0.25457000  0.50554000  0.62415000  1.0
  C  C89  1  0.23042000  0.48089000  0.62438000  1.0
  C  C90  1  0.20376000  0.45395000  0.62469000  1.0
  C  C91  1  0.17949000  0.42949000  0.62491000  1.0
  C  C92  1  0.24584000  0.00547000  0.37594000  1.0
  C  C93  1  0.27011000  0.98097000  0.37571000  1.0
  C  C94  1  0.29682000  0.95415000  0.37544000  1.0
  C  C95  1  0.32116000  0.92979000  0.37522000  1.0
  C  C96  1  0.75407000  0.49435000  0.87579000  1.0
  C  C97  1  0.72989000  0.51897000  0.87549000  1.0
  C  C98  1  0.70328000  0.54596000  0.87532000  1.0
  C  C99  1  0.67907000  0.57049000  0.87522000  1.0
  C  C100  1  0.00424000  0.12507000  0.25574000  1.0
  C  C101  1  0.97996000  0.12474000  0.23122000  1.0
  C  C102  1  0.95333000  0.12465000  0.20426000  1.0
  C  C103  1  0.92915000  0.12467000  0.17971000  1.0
  C  C104  1  0.49551000  0.62654000  0.74465000  1.0
  C  C105  1  0.51981000  0.62625000  0.76913000  1.0
  C  C106  1  0.54652000  0.62589000  0.79598000  1.0
  C  C107  1  0.57085000  0.62551000  0.82037000  1.0
  C  C108  1  0.99562000  0.37364000  0.75550000  1.0
  C  C109  1  0.01998000  0.37395000  0.73105000  1.0
  C  C110  1  0.04674000  0.37431000  0.70421000  1.0
  C  C111  1  0.07107000  0.37462000  0.67979000  1.0
  C  C112  1  0.50429000  0.87469000  0.24421000  1.0
  C  C113  1  0.48010000  0.87499000  0.26879000  1.0
  C  C114  1  0.45355000  0.87514000  0.29578000  1.0
  C  C115  1  0.42943000  0.87515000  0.32036000  1.0
  C  C116  1  0.87448000  0.25324000  0.99583000  1.0
  C  C117  1  0.87458000  0.22897000  0.02010000  1.0
  C  C118  1  0.87476000  0.20242000  0.04683000  1.0
  C  C119  1  0.87499000  0.17834000  0.07121000  1.0
  C  C120  1  0.37515000  0.74671000  0.50417000  1.0
  C  C121  1  0.37528000  0.77097000  0.47992000  1.0
  C  C122  1  0.37541000  0.79749000  0.45319000  1.0
  C  C123  1  0.37547000  0.82159000  0.42885000  1.0
  C  C124  1  0.62464000  0.75451000  0.00344000  1.0
  C  C125  1  0.62472000  0.73021000  0.97922000  1.0
  C  C126  1  0.62484000  0.70349000  0.95269000  1.0
  C  C127  1  0.62502000  0.67915000  0.92859000  1.0
  C  C128  1  0.12529000  0.24572000  0.49640000  1.0
  C  C129  1  0.12537000  0.27000000  0.52065000  1.0
  C  C130  1  0.12540000  0.29666000  0.54727000  1.0
  C  C131  1  0.12542000  0.32091000  0.57149000  1.0
  N  N132  1  0.31661000  0.58405000  0.60776000  1.0
  N  N133  1  0.33265000  0.56874000  0.63931000  1.0
  N  N134  1  0.41744000  0.61129000  0.68160000  1.0
  N  N135  1  0.43342000  0.64286000  0.66630000  1.0
  N  N136  1  0.39092000  0.68449000  0.58199000  1.0
  N  N137  1  0.35923000  0.66869000  0.56617000  1.0
  N  N138  1  0.68313000  0.91645000  0.10743000  1.0
  N  N139  1  0.66716000  0.93176000  0.13899000  1.0
  N  N140  1  0.58236000  0.88968000  0.18119000  1.0
  N  N141  1  0.56627000  0.85820000  0.16584000  1.0
  N  N142  1  0.60875000  0.81653000  0.08140000  1.0
  N  N143  1  0.64050000  0.83227000  0.06566000  1.0
  N  N144  1  0.81617000  0.41588000  0.89212000  1.0
  N  N145  1  0.83227000  0.43126000  0.86063000  1.0
  N  N146  1  0.91730000  0.38885000  0.81839000  1.0
  N  N147  1  0.93324000  0.35726000  0.83371000  1.0
  N  N148  1  0.89043000  0.31549000  0.91800000  1.0
  N  N149  1  0.85867000  0.33125000  0.93374000  1.0
  N  N150  1  0.18356000  0.08356000  0.39245000  1.0
  N  N151  1  0.16751000  0.06822000  0.36093000  1.0
  N  N152  1  0.08253000  0.11022000  0.31866000  1.0
  N  N153  1  0.06646000  0.14173000  0.33401000  1.0
  N  N154  1  0.10926000  0.18353000  0.41851000  1.0
  N  N155  1  0.14104000  0.16782000  0.43423000  1.0
  N  N156  1  0.84747000  0.12421000  0.09758000  1.0
  N  N157  1  0.90259000  0.15199000  0.12543000  1.0
  N  N158  1  0.87499000  0.09695000  0.15272000  1.0
  N  N159  1  0.15290000  0.37521000  0.59775000  1.0
  N  N160  1  0.09782000  0.34734000  0.62564000  1.0
  N  N161  1  0.12526000  0.40253000  0.65279000  1.0
  N  N162  1  0.34787000  0.87571000  0.40255000  1.0
  N  N163  1  0.40295000  0.84788000  0.37462000  1.0
  N  N164  1  0.37529000  0.90290000  0.34734000  1.0
  N  N165  1  0.62494000  0.59753000  0.84736000  1.0
  N  N166  1  0.59752000  0.65275000  0.87449000  1.0
  N  N167  1  0.65253000  0.62480000  0.90242000  1.0
