# generated using pymatgen
data_GdH8C9O8
_symmetry_space_group_name_H-M   'P 1'
_cell_length_a   7.76569000
_cell_length_b   8.22105000
_cell_length_c   18.99210000
_cell_angle_alpha   90.00000000
_cell_angle_beta   90.00000000
_cell_angle_gamma   105.99300000
_symmetry_Int_Tables_number   1
_chemical_formula_structural   GdH8C9O8
_chemical_formula_sum   'Gd4 H32 C36 O32'
_cell_volume   1165.56681943
_cell_formula_units_Z   4
loop_
 _symmetry_equiv_pos_site_id
 _symmetry_equiv_pos_as_xyz
  1  'x, y, z'
loop_
 _atom_site_type_symbol
 _atom_site_label
 _atom_site_symmetry_multiplicity
 _atom_site_fract_x
 _atom_site_fract_y
 _atom_site_fract_z
 _atom_site_occupancy
  Gd  Gd0  1  0.75806000  0.25171000  0.51782000  1.0
  Gd  Gd1  1  0.74194000  0.74829000  0.01782000  1.0
  Gd  Gd2  1  0.24194000  0.74829000  0.48218000  1.0
  Gd  Gd3  1  0.25806000  0.25171000  0.98218000  1.0
  H  H4  1  0.60826000  0.43384000  0.36983000  1.0
  H  H5  1  0.89173000  0.56615000  0.86983000  1.0
  H  H6  1  0.39173000  0.56615000  0.63017000  1.0
  H  H7  1  0.10826000  0.43385000  0.13017000  1.0
  H  H8  1  0.65872000  0.58267000  0.25313000  1.0
  H  H9  1  0.84129000  0.41733000  0.75313000  1.0
  H  H10  1  0.34128000  0.41733000  0.74687000  1.0
  H  H11  1  0.15871000  0.58267000  0.24687000  1.0
  H  H12  1  0.31514000  0.14366000  0.15365000  1.0
  H  H13  1  0.18486000  0.85634000  0.65365000  1.0
  H  H14  1  0.68486000  0.85634000  0.84635000  1.0
  H  H15  1  0.81514000  0.14366000  0.34635000  1.0
  H  H16  1  0.25933000  0.99605000  0.27111000  1.0
  H  H17  1  0.24066000  0.00395000  0.77111000  1.0
  H  H18  1  0.74066000  0.00395000  0.72889000  1.0
  H  H19  1  0.75933000  0.99605000  0.22889000  1.0
  H  H20  1  0.51618000  0.24784000  0.63950000  1.0
  H  H21  1  0.98383000  0.75216000  0.13950000  1.0
  H  H22  1  0.48382000  0.75216000  0.36050000  1.0
  H  H23  1  0.01618000  0.24784000  0.86050000  1.0
  H  H24  1  0.38123000  0.16064000  0.57804000  1.0
  H  H25  1  0.11877000  0.83936000  0.07804000  1.0
  H  H26  1  0.61877000  0.83935000  0.42196000  1.0
  H  H27  1  0.88123000  0.16064000  0.92196000  1.0
  H  H28  1  0.77586000  0.62139000  0.48381000  1.0
  H  H29  1  0.72414000  0.37861000  0.98381000  1.0
  H  H30  1  0.22414000  0.37861000  0.51619000  1.0
  H  H31  1  0.27586000  0.62139000  0.01619000  1.0
  H  H32  1  0.60526000  0.55138000  0.53332000  1.0
  H  H33  1  0.89474000  0.44862000  0.03332000  1.0
  H  H34  1  0.39474000  0.44862000  0.46668000  1.0
  H  H35  1  0.10526000  0.55138000  0.96668000  1.0
  C  C36  1  0.43090000  0.20610000  0.32682000  1.0
  C  C37  1  0.06909000  0.79390000  0.82682000  1.0
  C  C38  1  0.56909000  0.79390000  0.67318000  1.0
  C  C39  1  0.93090000  0.20610000  0.17318000  1.0
  C  C40  1  0.54207000  0.37210000  0.32249000  1.0
  C  C41  1  0.95793000  0.62790000  0.82249000  1.0
  C  C42  1  0.45793000  0.62790000  0.67751000  1.0
  C  C43  1  0.04207000  0.37210000  0.17751000  1.0
  C  C44  1  0.57047000  0.45455000  0.25779000  1.0
  C  C45  1  0.92953000  0.54546000  0.75779000  1.0
  C  C46  1  0.42952000  0.54545000  0.74221000  1.0
  C  C47  1  0.07047000  0.45455000  0.24221000  1.0
  C  C48  1  0.48909000  0.37182000  0.19683000  1.0
  C  C49  1  0.01091000  0.62818000  0.69683000  1.0
  C  C50  1  0.51091000  0.62818000  0.80317000  1.0
  C  C51  1  0.98909000  0.37182000  0.30317000  1.0
  C  C52  1  0.37660000  0.20641000  0.20147000  1.0
  C  C53  1  0.12339000  0.79360000  0.70147000  1.0
  C  C54  1  0.62339000  0.79360000  0.79853000  1.0
  C  C55  1  0.87660000  0.20641000  0.29853000  1.0
  C  C56  1  0.34657000  0.12453000  0.26611000  1.0
  C  C57  1  0.15343000  0.87548000  0.76612000  1.0
  C  C58  1  0.65343000  0.87548000  0.73388000  1.0
  C  C59  1  0.84657000  0.12453000  0.23389000  1.0
  C  C60  1  0.40934000  0.11014000  0.39461000  1.0
  C  C61  1  0.09065000  0.88986000  0.89461000  1.0
  C  C62  1  0.59065000  0.88986000  0.60539000  1.0
  C  C63  1  0.90934000  0.11014000  0.10539000  1.0
  C  C64  1  0.52177000  0.45909000  0.12699000  1.0
  C  C65  1  0.97823000  0.54091000  0.62699000  1.0
  C  C66  1  0.47823000  0.54091000  0.87301000  1.0
  C  C67  1  0.02177000  0.45909000  0.37301000  1.0
  C  C68  1  0.07284000  0.06040000  0.52298000  1.0
  C  C69  1  0.42717000  0.93960000  0.02298000  1.0
  C  C70  1  0.92717000  0.93960000  0.47702000  1.0
  C  C71  1  0.57284000  0.06040000  0.97702000  1.0
  O  O72  1  0.51618000  0.17099000  0.44516000  1.0
  O  O73  1  0.98382000  0.82901000  0.94517000  1.0
  O  O74  1  0.48382000  0.82901000  0.55483000  1.0
  O  O75  1  0.01618000  0.17099000  0.05483000  1.0
  O  O76  1  0.28797000  0.97083000  0.39827000  1.0
  O  O77  1  0.21203000  0.02917000  0.89827000  1.0
  O  O78  1  0.71203000  0.02917000  0.60173000  1.0
  O  O79  1  0.78797000  0.97083000  0.10173000  1.0
  O  O80  1  0.64173000  0.59982000  0.12308000  1.0
  O  O81  1  0.85827000  0.40018000  0.62307000  1.0
  O  O82  1  0.35827000  0.40018000  0.87693000  1.0
  O  O83  1  0.14173000  0.59982000  0.37692000  1.0
  O  O84  1  0.42858000  0.38890000  0.07430000  1.0
  O  O85  1  0.07143000  0.61111000  0.57430000  1.0
  O  O86  1  0.57143000  0.61111000  0.92570000  1.0
  O  O87  1  0.92858000  0.38890000  0.42570000  1.0
  O  O88  1  0.05275000  0.20539000  0.53562000  1.0
  O  O89  1  0.44725000  0.79460000  0.03562000  1.0
  O  O90  1  0.94725000  0.79461000  0.46438000  1.0
  O  O91  1  0.55275000  0.20539000  0.96438000  1.0
  O  O92  1  0.20159000  0.00582000  0.54376000  1.0
  O  O93  1  0.29842000  0.99418000  0.04376000  1.0
  O  O94  1  0.79842000  0.99418000  0.45624000  1.0
  O  O95  1  0.70159000  0.00582000  0.95624000  1.0
  O  O96  1  0.49168000  0.25279000  0.58947000  1.0
  O  O97  1  0.00832000  0.74721000  0.08947000  1.0
  O  O98  1  0.50832000  0.74721000  0.41053000  1.0
  O  O99  1  0.99168000  0.25279000  0.91053000  1.0
  O  O100  1  0.68688000  0.51771000  0.50111000  1.0
  O  O101  1  0.81312000  0.48229000  0.00111000  1.0
  O  O102  1  0.31312000  0.48229000  0.49888000  1.0
  O  O103  1  0.18688000  0.51771000  0.99889000  1.0
