# generated using pymatgen
data_Zr3H30C37O18
_symmetry_space_group_name_H-M   'P 1'
_cell_length_a   14.79385445
_cell_length_b   14.83851838
_cell_length_c   14.86440000
_cell_angle_alpha   60.10482086
_cell_angle_beta   60.23189772
_cell_angle_gamma   60.33979123
_symmetry_Int_Tables_number   1
_chemical_formula_structural   Zr3H30C37O18
_chemical_formula_sum   'Zr6 H60 C74 O36'
_cell_volume   2319.06136060
_cell_formula_units_Z   2
loop_
 _symmetry_equiv_pos_site_id
 _symmetry_equiv_pos_as_xyz
  1  'x, y, z'
loop_
 _atom_site_type_symbol
 _atom_site_label
 _atom_site_symmetry_multiplicity
 _atom_site_fract_x
 _atom_site_fract_y
 _atom_site_fract_z
 _atom_site_occupancy
  Zr  Zr0  1  0.61147000  0.38126000  0.11884000  1.0
  Zr  Zr1  1  0.37780000  0.62612000  0.87689000  1.0
  Zr  Zr2  1  0.61380000  0.38764000  0.87570000  1.0
  Zr  Zr3  1  0.37692000  0.62087000  0.11831000  1.0
  Zr  Zr4  1  0.61805000  0.61847000  0.88354000  1.0
  Zr  Zr5  1  0.37520000  0.38532000  0.11293000  1.0
  H  H6  1  0.77662000  0.40958000  0.90408000  1.0
  H  H7  1  0.40701000  0.78410000  0.90693000  1.0
  H  H8  1  0.40376000  0.41456000  0.89676000  1.0
  H  H9  1  0.39662000  0.40702000  0.27850000  1.0
  H  H10  1  0.87996000  0.72304000  0.81350000  1.0
  H  H11  1  0.96482000  0.62777000  0.74054000  1.0
  H  H12  1  0.13246000  0.64155000  0.72851000  1.0
  H  H13  1  0.04820000  0.73348000  0.80632000  1.0
  H  H14  1  0.31939000  0.03672000  0.39788000  1.0
  H  H15  1  0.23775000  0.12459000  0.47841000  1.0
  H  H16  1  0.24683000  0.96124000  0.65069000  1.0
  H  H17  1  0.32650000  0.87270000  0.57097000  1.0
  H  H18  1  0.36112000  0.85268000  0.26168000  1.0
  H  H19  1  0.26393000  0.94117000  0.18987000  1.0
  H  H20  1  0.26891000  0.10479000  0.19838000  1.0
  H  H21  1  0.37546000  0.01591000  0.25795000  1.0
  H  H22  1  0.99456000  0.77266000  0.32627000  1.0
  H  H23  1  0.07789000  0.72439000  0.40566000  1.0
  H  H24  1  0.90804000  0.72617000  0.57554000  1.0
  H  H25  1  0.82690000  0.76779000  0.49590000  1.0
  H  H26  1  0.93816000  0.27954000  0.94323000  1.0
  H  H27  1  0.11300000  0.29026000  0.91039000  1.0
  H  H28  1  0.26529000  0.94034000  0.97611000  1.0
  H  H29  1  0.27699000  0.11904000  0.92953000  1.0
  H  H30  1  0.75459000  0.38822000  0.34725000  1.0
  H  H31  1  0.70396000  0.27482000  0.42744000  1.0
  H  H32  1  0.69661000  0.27865000  0.59884000  1.0
  H  H33  1  0.75488000  0.38678000  0.51626000  1.0
  H  H34  1  0.11502000  0.30209000  0.21174000  1.0
  H  H35  1  0.22121000  0.28033000  0.09054000  1.0
  H  H36  1  0.11409000  0.22405000  0.15281000  1.0
  H  H37  1  0.94566000  0.23779000  0.15400000  1.0
  H  H38  1  0.82899000  0.34009000  0.20346000  1.0
  H  H39  1  0.94650000  0.28365000  0.24326000  1.0
  H  H40  1  0.74918000  0.93717000  0.52609000  1.0
  H  H41  1  0.68383000  0.84851000  0.65113000  1.0
  H  H42  1  0.65061000  0.98622000  0.63651000  1.0
  H  H43  1  0.67822000  0.10963000  0.47893000  1.0
  H  H44  1  0.61065000  0.21727000  0.38353000  1.0
  H  H45  1  0.72375000  0.10658000  0.34526000  1.0
  H  H46  1  0.73427000  0.09425000  0.82572000  1.0
  H  H47  1  0.62055000  0.19072000  0.78100000  1.0
  H  H48  1  0.69592000  0.06784000  0.74737000  1.0
  H  H49  1  0.70121000  0.89194000  0.77978000  1.0
  H  H50  1  0.72224000  0.78976000  0.90317000  1.0
  H  H51  1  0.77140000  0.90169000  0.84174000  1.0
  H  H52  1  0.89443000  0.27848000  0.62431000  1.0
  H  H53  1  0.91418000  0.28994000  0.72475000  1.0
  H  H54  1  0.02954000  0.22861000  0.62830000  1.0
  H  H55  1  0.06141000  0.25421000  0.47224000  1.0
  H  H56  1  0.18972000  0.28015000  0.39965000  1.0
  H  H57  1  0.08980000  0.34928000  0.33648000  1.0
  H  H58  1  0.36471000  0.73175000  0.57280000  1.0
  H  H59  1  0.27368000  0.65958000  0.67383000  1.0
  H  H60  1  0.26341000  0.73528000  0.53909000  1.0
  H  H61  1  0.21942000  0.63964000  0.52079000  1.0
  H  H62  1  0.27399000  0.57749000  0.42106000  1.0
  H  H63  1  0.28235000  0.70733000  0.37952000  1.0
  H  H64  1  0.00218000  0.73529000  0.18592000  1.0
  H  H65  1  0.71322000  0.08017000  0.15529000  1.0
  C  C66  1  0.80025000  0.49174000  0.00635000  1.0
  C  C67  1  0.50353000  0.80825000  0.69888000  1.0
  C  C68  1  0.19846000  0.50282000  0.98614000  1.0
  C  C69  1  0.49041000  0.19817000  0.30082000  1.0
  C  C70  1  0.79754000  0.19612000  0.99787000  1.0
  C  C71  1  0.49391000  0.49670000  0.30543000  1.0
  C  C72  1  0.18865000  0.80351000  0.00348000  1.0
  C  C73  1  0.50057000  0.51532000  0.68670000  1.0
  C  C74  1  0.80007000  0.50488000  0.69456000  1.0
  C  C75  1  0.50062000  0.19798000  0.99784000  1.0
  C  C76  1  0.18512000  0.50970000  0.29162000  1.0
  C  C77  1  0.50697000  0.79416000  0.00963000  1.0
  C  C78  1  0.90813000  0.48104000  0.00071000  1.0
  C  C79  1  0.10888000  0.48576000  0.98327000  1.0
  C  C80  1  0.96102000  0.55553000  0.91227000  1.0
  C  C81  1  0.06695000  0.39729000  0.06413000  1.0
  C  C82  1  0.05619000  0.56012000  0.90518000  1.0
  C  C83  1  0.96446000  0.39869000  0.07756000  1.0
  C  C84  1  0.95377000  0.65068000  0.80615000  1.0
  C  C85  1  0.05977000  0.65794000  0.79954000  1.0
  C  C86  1  0.49161000  0.10660000  0.40797000  1.0
  C  C87  1  0.50293000  0.91302000  0.60308000  1.0
  C  C88  1  0.41386000  0.05278000  0.46470000  1.0
  C  C89  1  0.58014000  0.96994000  0.55091000  1.0
  C  C90  1  0.41886000  0.96079000  0.55933000  1.0
  C  C91  1  0.57239000  0.06696000  0.45709000  1.0
  C  C92  1  0.31038000  0.05206000  0.46731000  1.0
  C  C93  1  0.31549000  0.94919000  0.57532000  1.0
  C  C94  1  0.51469000  0.89102000  0.00867000  1.0
  C  C95  1  0.50642000  0.09515000  0.99723000  1.0
  C  C96  1  0.43502000  0.94259000  0.08645000  1.0
  C  C97  1  0.58715000  0.04571000  0.91503000  1.0
  C  C98  1  0.43441000  0.03798000  0.08376000  1.0
  C  C99  1  0.59760000  0.94012000  0.92723000  1.0
  C  C100  1  0.34090000  0.92961000  0.19477000  1.0
  C  C101  1  0.34486000  0.03392000  0.19495000  1.0
  C  C102  1  0.08545000  0.50604000  0.39246000  1.0
  C  C103  1  0.90136000  0.50039000  0.59533000  1.0
  C  C104  1  0.02462000  0.59517000  0.43071000  1.0
  C  C105  1  0.96587000  0.40548000  0.56208000  1.0
  C  C106  1  0.93363000  0.59362000  0.52663000  1.0
  C  C107  1  0.05065000  0.41146000  0.45804000  1.0
  C  C108  1  0.01082000  0.71339000  0.40372000  1.0
  C  C109  1  0.90549000  0.71248000  0.51084000  1.0
  C  C110  1  0.89788000  0.09367000  0.00157000  1.0
  C  C111  1  0.00016000  0.10325000  0.97551000  1.0
  C  C112  1  0.88914000  0.99253000  0.03181000  1.0
  C  C113  1  0.01018000  0.20533000  0.94727000  1.0
  C  C114  1  0.10804000  0.21129000  0.92974000  1.0
  C  C115  1  0.08648000  0.90433000  0.00524000  1.0
  C  C116  1  0.98651000  0.89778000  0.02750000  1.0
  C  C117  1  0.09516000  0.00594000  0.98239000  1.0
  C  C118  1  0.19438000  0.01458000  0.96540000  1.0
  C  C119  1  0.20056000  0.11477000  0.94021000  1.0
  C  C120  1  0.48838000  0.49874000  0.40743000  1.0
  C  C121  1  0.49475000  0.51556000  0.58935000  1.0
  C  C122  1  0.57827000  0.43575000  0.44539000  1.0
  C  C123  1  0.40454000  0.58567000  0.54830000  1.0
  C  C124  1  0.57896000  0.44058000  0.53622000  1.0
  C  C125  1  0.39666000  0.57008000  0.46594000  1.0
  C  C126  1  0.69462000  0.35451000  0.42382000  1.0
  C  C127  1  0.69325000  0.35656000  0.52965000  1.0
  C  C128  1  0.13271000  0.29592000  0.13347000  1.0
  C  C129  1  0.91875000  0.31071000  0.17512000  1.0
  C  C130  1  0.67118000  0.93233000  0.59353000  1.0
  C  C131  1  0.65002000  0.12830000  0.41416000  1.0
  C  C132  1  0.66373000  0.10245000  0.81176000  1.0
  C  C133  1  0.70364000  0.87809000  0.85850000  1.0
  C  C134  1  0.95004000  0.29515000  0.63866000  1.0
  C  C135  1  0.10049000  0.31767000  0.41607000  1.0
  C  C136  1  0.32058000  0.68257000  0.58578000  1.0
  C  C137  1  0.28757000  0.62689000  0.44564000  1.0
  C  C138  1  0.98537000  0.78884000  0.04467000  1.0
  C  C139  1  0.77854000  0.98101000  0.07107000  1.0
  O  O140  1  0.75332000  0.42013000  0.08256000  1.0
  O  O141  1  0.42384000  0.77325000  0.73564000  1.0
  O  O142  1  0.23420000  0.58218000  0.90985000  1.0
  O  O143  1  0.57346000  0.23252000  0.24678000  1.0
  O  O144  1  0.76393000  0.23748000  0.91759000  1.0
  O  O145  1  0.42361000  0.57550000  0.25871000  1.0
  O  O146  1  0.22849000  0.76600000  0.07891000  1.0
  O  O147  1  0.57455000  0.43383000  0.72749000  1.0
  O  O148  1  0.76537000  0.57924000  0.73504000  1.0
  O  O149  1  0.42052000  0.23779000  0.07290000  1.0
  O  O150  1  0.22716000  0.43648000  0.24791000  1.0
  O  O151  1  0.57864000  0.75357000  0.93296000  1.0
  O  O152  1  0.57557000  0.24121000  0.92396000  1.0
  O  O153  1  0.22511000  0.58525000  0.25708000  1.0
  O  O154  1  0.42516000  0.76076000  0.08338000  1.0
  O  O155  1  0.75273000  0.43482000  0.73188000  1.0
  O  O156  1  0.75605000  0.23115000  0.07775000  1.0
  O  O157  1  0.43039000  0.59262000  0.72659000  1.0
  O  O158  1  0.22635000  0.76618000  0.92658000  1.0
  O  O159  1  0.56995000  0.41801000  0.26896000  1.0
  O  O160  1  0.40947000  0.23704000  0.26736000  1.0
  O  O161  1  0.76078000  0.57248000  0.93146000  1.0
  O  O162  1  0.58110000  0.75918000  0.73959000  1.0
  O  O163  1  0.23338000  0.43688000  0.06795000  1.0
  O  O164  1  0.42564000  0.43414000  0.19887000  1.0
  O  O165  1  0.42958000  0.43995000  0.92566000  1.0
  O  O166  1  0.42913000  0.70447000  0.93447000  1.0
  O  O167  1  0.69682000  0.43340000  0.93263000  1.0
  O  O168  1  0.54565000  0.55466000  0.85062000  1.0
  O  O169  1  0.54500000  0.54885000  0.05092000  1.0
  O  O170  1  0.34876000  0.55426000  0.04431000  1.0
  O  O171  1  0.54342000  0.35607000  0.04460000  1.0
  O  O172  1  0.99580000  0.70777000  0.14235000  1.0
  O  O173  1  0.98116000  0.76983000  0.97692000  1.0
  O  O174  1  0.69242000  0.03746000  0.13948000  1.0
  O  O175  1  0.76349000  0.92320000  0.04743000  1.0
