# generated using pymatgen
data_Zn4H7C13N3O13
_symmetry_space_group_name_H-M   'P 1'
_cell_length_a   10.83640000
_cell_length_b   10.88000000
_cell_length_c   10.92230000
_cell_angle_alpha   85.89590000
_cell_angle_beta   81.55040000
_cell_angle_gamma   82.24960000
_symmetry_Int_Tables_number   1
_chemical_formula_structural   Zn4H7C13N3O13
_chemical_formula_sum   'Zn4 H7 C13 N3 O13'
_cell_volume   1260.36514022
_cell_formula_units_Z   1
loop_
 _symmetry_equiv_pos_site_id
 _symmetry_equiv_pos_as_xyz
  1  'x, y, z'
loop_
 _atom_site_type_symbol
 _atom_site_label
 _atom_site_symmetry_multiplicity
 _atom_site_fract_x
 _atom_site_fract_y
 _atom_site_fract_z
 _atom_site_occupancy
  Zn  Zn0  1  0.59144000  0.37828000  0.60979000  1.0
  Zn  Zn1  1  0.61169000  0.58662000  0.38878000  1.0
  Zn  Zn2  1  0.37702000  0.61981000  0.60620000  1.0
  Zn  Zn3  1  0.40657000  0.40534000  0.41205000  1.0
  H  H4  1  0.49117000  0.99083000  0.63025000  1.0
  H  H5  1  0.97714000  0.65081000  0.51533000  1.0
  H  H6  1  0.01302000  0.36454000  0.50531000  1.0
  H  H7  1  0.48735000  0.94334000  0.25789000  1.0
  H  H8  1  0.47341000  0.09885000  0.30198000  1.0
  H  H9  1  0.30835000  0.48311000  0.12176000  1.0
  H  H10  1  0.25663000  0.50413000  0.97326000  1.0
  C  C11  1  0.53250000  0.49428000  0.17499000  1.0
  C  C12  1  0.48375000  0.03727000  0.53978000  1.0
  C  C13  1  0.47662000  0.96634000  0.44247000  1.0
  C  C14  1  0.44482000  0.49682000  0.97500000  1.0
  C  C15  1  0.66805000  0.51343000  0.97520000  1.0
  C  C16  1  0.54672000  0.49783000  0.03919000  1.0
  C  C17  1  0.02562000  0.55637000  0.50984000  1.0
  C  C18  1  0.96371000  0.45883000  0.50366000  1.0
  C  C19  1  0.46191000  0.50401000  0.83442000  1.0
  C  C20  1  0.82605000  0.47090000  0.50202000  1.0
  C  C21  1  0.16296000  0.53885000  0.51555000  1.0
  C  C22  1  0.48263000  0.82730000  0.46525000  1.0
  C  C23  1  0.49360000  0.16844000  0.52669000  1.0
  N  N24  1  0.46990000  0.00679000  0.32377000  1.0
  N  N25  1  0.32616000  0.49030000  0.02735000  1.0
  N  N26  1  0.76903000  0.52752000  0.92626000  1.0
  O  O27  1  0.49479000  0.50105000  0.50833000  1.0
  O  O28  1  0.53708000  0.76327000  0.37446000  1.0
  O  O29  1  0.47081000  0.22875000  0.42314000  1.0
  O  O30  1  0.43337000  0.78651000  0.57051000  1.0
  O  O31  1  0.52555000  0.21953000  0.61820000  1.0
  O  O32  1  0.77174000  0.37870000  0.55160000  1.0
  O  O33  1  0.22596000  0.43939000  0.47306000  1.0
  O  O34  1  0.62540000  0.51774000  0.22542000  1.0
  O  O35  1  0.37587000  0.57391000  0.78567000  1.0
  O  O36  1  0.42653000  0.46771000  0.23587000  1.0
  O  O37  1  0.55612000  0.43739000  0.78148000  1.0
  O  O38  1  0.77439000  0.56986000  0.45039000  1.0
  O  O39  1  0.20626000  0.62588000  0.56249000  1.0
