# generated using pymatgen
data_MnH28C32S3(NO3)2
_symmetry_space_group_name_H-M   'P 1'
_cell_length_a   9.15581000
_cell_length_b   9.97647000
_cell_length_c   16.82210000
_cell_angle_alpha   95.04730000
_cell_angle_beta   91.60910000
_cell_angle_gamma   96.78290000
_symmetry_Int_Tables_number   1
_chemical_formula_structural   MnH28C32S3(NO3)2
_chemical_formula_sum   'Mn2 H56 C64 S6 N4 O12'
_cell_volume   1518.75411471
_cell_formula_units_Z   2
loop_
 _symmetry_equiv_pos_site_id
 _symmetry_equiv_pos_as_xyz
  1  'x, y, z'
loop_
 _atom_site_type_symbol
 _atom_site_label
 _atom_site_symmetry_multiplicity
 _atom_site_fract_x
 _atom_site_fract_y
 _atom_site_fract_z
 _atom_site_occupancy
  Mn  Mn0  1  0.90855000  0.79559000  0.53318000  1.0
  Mn  Mn1  1  0.09145000  0.20440000  0.46682000  1.0
  H  H2  1  0.57977000  0.17704000  0.31671000  1.0
  H  H3  1  0.42023000  0.82296000  0.68329000  1.0
  H  H4  1  0.65831000  0.18137000  0.16654000  1.0
  H  H5  1  0.34169000  0.81863000  0.83346000  1.0
  H  H6  1  0.11716000  0.93697000  0.88208000  1.0
  H  H7  1  0.88284000  0.06303000  0.11792000  1.0
  H  H8  1  0.98615000  0.89012000  0.73832000  1.0
  H  H9  1  0.01386000  0.10988000  0.26168000  1.0
  H  H10  1  0.80921000  0.16455000  0.99248000  1.0
  H  H11  1  0.19079000  0.83545000  0.00752000  1.0
  H  H12  1  0.04780000  0.28565000  0.04937000  1.0
  H  H13  1  0.95220000  0.71435000  0.95063000  1.0
  H  H14  1  0.05935000  0.52052000  0.11452000  1.0
  H  H15  1  0.94065000  0.47949000  0.88548000  1.0
  H  H16  1  0.83211000  0.63524000  0.12140000  1.0
  H  H17  1  0.16789000  0.36476000  0.87860000  1.0
  H  H18  1  0.59403000  0.51331000  0.06556000  1.0
  H  H19  1  0.40597000  0.48669000  0.93444000  1.0
  H  H20  1  0.63902000  0.03164000  0.83153000  1.0
  H  H21  1  0.36097000  0.96836000  0.16847000  1.0
  H  H22  1  0.81847000  0.06899000  0.72507000  1.0
  H  H23  1  0.18153000  0.93101000  0.27493000  1.0
  H  H24  1  0.88380000  0.30030000  0.68281000  1.0
  H  H25  1  0.11621000  0.69970000  0.31720000  1.0
  H  H26  1  0.76379000  0.49328000  0.74502000  1.0
  H  H27  1  0.23621000  0.50672000  0.25498000  1.0
  H  H28  1  0.58597000  0.45647000  0.85134000  1.0
  H  H29  1  0.41403000  0.54353000  0.14866000  1.0
  H  H30  1  0.22040000  0.93988000  0.47616000  1.0
  H  H31  1  0.77959000  0.06012000  0.52384000  1.0
  H  H32  1  0.42618000  0.98270000  0.41912000  1.0
  H  H33  1  0.57382000  0.01730000  0.58088000  1.0
  H  H34  1  0.47057000  0.84027000  0.35687000  1.0
  H  H35  1  0.52943000  0.15973000  0.64313000  1.0
  H  H36  1  0.57128000  0.88791000  0.44917000  1.0
  H  H37  1  0.42872000  0.11209000  0.55083000  1.0
  H  H38  1  0.30371000  0.59808000  0.49534000  1.0
  H  H39  1  0.69629000  0.40192000  0.50466000  1.0
  H  H40  1  0.49739000  0.65713000  0.49493000  1.0
  H  H41  1  0.50261000  0.34287000  0.50507000  1.0
  H  H42  1  0.39377000  0.60402000  0.40315000  1.0
  H  H43  1  0.60623000  0.39598000  0.59684000  1.0
  H  H44  1  0.00988000  0.50500000  0.42000000  1.0
  H  H45  1  0.99012000  0.49500000  0.57999000  1.0
  H  H46  1  0.58685000  0.44067000  0.36456000  1.0
  H  H47  1  0.41316000  0.55932000  0.63544000  1.0
  H  H48  1  0.64084000  0.52654000  0.27965000  1.0
  H  H49  1  0.35916000  0.47346000  0.72035000  1.0
  H  H50  1  0.65725000  0.61673000  0.37723000  1.0
  H  H51  1  0.34275000  0.38327000  0.62277000  1.0
  H  H52  1  0.98905000  0.39105000  0.30382000  1.0
  H  H53  1  0.01095000  0.60895000  0.69618000  1.0
  H  H54  1  0.85483000  0.43099000  0.23243000  1.0
  H  H55  1  0.14517000  0.56901000  0.76757000  1.0
  H  H56  1  0.81419000  0.29335000  0.29243000  1.0
  H  H57  1  0.18581000  0.70664000  0.70757000  1.0
  C  C58  1  0.28146000  0.22773000  0.35171000  1.0
  C  C59  1  0.71854000  0.77227000  0.64829000  1.0
  C  C60  1  0.36488000  0.22248000  0.27792000  1.0
  C  C61  1  0.63512000  0.77751000  0.72208000  1.0
  C  C62  1  0.50903000  0.19812000  0.26736000  1.0
  C  C63  1  0.49097000  0.80187000  0.73263000  1.0
  C  C64  1  0.55093000  0.20108000  0.18734000  1.0
  C  C65  1  0.44907000  0.79892000  0.81266000  1.0
  C  C66  1  0.43661000  0.22362000  0.13590000  1.0
  C  C67  1  0.56339000  0.77638000  0.86410000  1.0
  C  C68  1  0.43199000  0.21584000  0.04950000  1.0
  C  C69  1  0.56801000  0.78416000  0.95050000  1.0
  C  C70  1  0.54146000  0.25570000  0.99759000  1.0
  C  C71  1  0.45854000  0.74430000  0.00241000  1.0
  C  C72  1  0.49890000  0.21669000  0.91536000  1.0
  C  C73  1  0.50110000  0.78332000  0.08464000  1.0
  C  C74  1  0.35604000  0.14926000  0.90580000  1.0
  C  C75  1  0.64397000  0.85074000  0.09420000  1.0
  C  C76  1  0.26668000  0.09617000  0.83540000  1.0
  C  C77  1  0.73332000  0.90383000  0.16460000  1.0
  C  C78  1  0.14861000  0.99321000  0.83137000  1.0
  C  C79  1  0.85139000  0.00679000  0.16863000  1.0
  C  C80  1  0.07831000  0.96778000  0.75525000  1.0
  C  C81  1  0.92169000  0.03222000  0.24475000  1.0
  C  C82  1  0.14077000  0.05196000  0.70088000  1.0
  C  C83  1  0.85923000  0.94804000  0.29912000  1.0
  C  C84  1  0.08981000  0.06072000  0.61797000  1.0
  C  C85  1  0.91019000  0.93928000  0.38203000  1.0
  C  C86  1  0.68544000  0.32998000  0.02663000  1.0
  C  C87  1  0.31456000  0.67001000  0.97337000  1.0
  C  C88  1  0.81471000  0.26742000  0.02135000  1.0
  C  C89  1  0.18529000  0.73259000  0.97865000  1.0
  C  C90  1  0.94806000  0.33532000  0.05363000  1.0
  C  C91  1  0.05194000  0.66468000  0.94637000  1.0
  C  C92  1  0.95474000  0.46711000  0.09023000  1.0
  C  C93  1  0.04526000  0.53289000  0.90977000  1.0
  C  C94  1  0.82734000  0.53149000  0.09400000  1.0
  C  C95  1  0.17266000  0.46851000  0.90600000  1.0
  C  C96  1  0.69356000  0.46321000  0.06260000  1.0
  C  C97  1  0.30644000  0.53679000  0.93740000  1.0
  C  C98  1  0.60015000  0.24095000  0.84907000  1.0
  C  C99  1  0.39985000  0.75905000  0.15093000  1.0
  C  C100  1  0.66683000  0.13282000  0.81257000  1.0
  C  C101  1  0.33317000  0.86718000  0.18744000  1.0
  C  C102  1  0.76791000  0.15382000  0.75306000  1.0
  C  C103  1  0.23209000  0.84617000  0.24695000  1.0
  C  C104  1  0.80400000  0.28369000  0.72896000  1.0
  C  C105  1  0.19600000  0.71631000  0.27104000  1.0
  C  C106  1  0.73694000  0.39177000  0.76395000  1.0
  C  C107  1  0.26307000  0.60823000  0.23606000  1.0
  C  C108  1  0.63615000  0.37084000  0.82385000  1.0
  C  C109  1  0.36385000  0.62916000  0.17615000  1.0
  C  C110  1  0.23290000  0.83414000  0.48546000  1.0
  C  C111  1  0.76710000  0.16586000  0.51454000  1.0
  C  C112  1  0.46258000  0.88183000  0.41905000  1.0
  C  C113  1  0.53742000  0.11817000  0.58095000  1.0
  C  C114  1  0.38982000  0.65431000  0.46378000  1.0
  C  C115  1  0.61017000  0.34569000  0.53622000  1.0
  C  C116  1  0.89627000  0.53126000  0.41934000  1.0
  C  C117  1  0.10373000  0.46874000  0.58065000  1.0
  C  C118  1  0.66615000  0.51968000  0.34314000  1.0
  C  C119  1  0.33385000  0.48032000  0.65686000  1.0
  C  C120  1  0.87191000  0.39627000  0.29163000  1.0
  C  C121  1  0.12809000  0.60373000  0.70837000  1.0
  S  S122  1  0.27996000  0.24712000  0.18828000  1.0
  S  S123  1  0.72004000  0.75287000  0.81172000  1.0
  S  S124  1  0.27694000  0.13328000  0.99742000  1.0
  S  S125  1  0.72306000  0.86672000  0.00258000  1.0
  S  S126  1  0.28789000  0.16123000  0.74394000  1.0
  S  S127  1  0.71211000  0.83877000  0.25606000  1.0
  N  N128  1  0.35677000  0.79233000  0.45881000  1.0
  N  N129  1  0.64323000  0.20767000  0.54119000  1.0
  N  N130  1  0.81654000  0.48793000  0.35245000  1.0
  N  N131  1  0.18346000  0.51207000  0.64754000  1.0
  O  O132  1  0.33333333  0.18706000  0.41482000  1.0
  O  O133  1  0.66666667  0.81294000  0.58518000  1.0
  O  O134  1  0.15479000  0.27129000  0.34819000  1.0
  O  O135  1  0.84521000  0.72870000  0.65181000  1.0
  O  O136  1  0.16603000  0.14411000  0.57717000  1.0
  O  O137  1  0.83397000  0.85590000  0.42283000  1.0
  O  O138  1  0.97033000  0.98864000  0.59288000  1.0
  O  O139  1  0.02967000  0.01137000  0.40712000  1.0
  O  O140  1  0.13403000  0.76005000  0.51790000  1.0
  O  O141  1  0.86597000  0.23994000  0.48210000  1.0
  O  O142  1  0.84678000  0.59550000  0.47847000  1.0
  O  O143  1  0.15323000  0.40450000  0.52152000  1.0
