# generated using pymatgen
data_CuH10C5S2I
_symmetry_space_group_name_H-M   'P 1'
_cell_length_a   8.32295000
_cell_length_b   8.59572000
_cell_length_c   12.37160000
_cell_angle_alpha   89.99970000
_cell_angle_beta   94.39460000
_cell_angle_gamma   89.99940000
_symmetry_Int_Tables_number   1
_chemical_formula_structural   CuH10C5S2I
_chemical_formula_sum   'Cu4 H40 C20 S8 I4'
_cell_volume   882.48371507
_cell_formula_units_Z   4
loop_
 _symmetry_equiv_pos_site_id
 _symmetry_equiv_pos_as_xyz
  1  'x, y, z'
loop_
 _atom_site_type_symbol
 _atom_site_label
 _atom_site_symmetry_multiplicity
 _atom_site_fract_x
 _atom_site_fract_y
 _atom_site_fract_z
 _atom_site_occupancy
  Cu  Cu0  1  0.62657000  0.41166000  0.48350000  1.0
  Cu  Cu1  1  0.37342000  0.91166000  0.01650000  1.0
  Cu  Cu2  1  0.37342000  0.58834000  0.51650000  1.0
  Cu  Cu3  1  0.62657000  0.08834000  0.98350000  1.0
  H  H4  1  0.72710000  0.00635000  0.31819000  1.0
  H  H5  1  0.27289000  0.50634000  0.18180000  1.0
  H  H6  1  0.27289000  0.99365000  0.68180000  1.0
  H  H7  1  0.72710000  0.49366000  0.81820000  1.0
  H  H8  1  0.55776000  0.00140000  0.22145000  1.0
  H  H9  1  0.44225000  0.50139000  0.27855000  1.0
  H  H10  1  0.44224000  0.99860000  0.77855000  1.0
  H  H11  1  0.55775000  0.49860000  0.72145000  1.0
  H  H12  1  0.54207000  0.09108000  0.35138000  1.0
  H  H13  1  0.45793000  0.59107000  0.14861000  1.0
  H  H14  1  0.45792000  0.90892000  0.64861000  1.0
  H  H15  1  0.54207000  0.40893000  0.85139000  1.0
  H  H16  1  0.70733000  0.57495000  0.24077000  1.0
  H  H17  1  0.29268000  0.07494000  0.25923000  1.0
  H  H18  1  0.29268000  0.42505000  0.75924000  1.0
  H  H19  1  0.70732000  0.92506000  0.74077000  1.0
  H  H20  1  0.88580000  0.59143000  0.32804000  1.0
  H  H21  1  0.11421000  0.09142000  0.17196000  1.0
  H  H22  1  0.11422000  0.40857000  0.67196000  1.0
  H  H23  1  0.88579000  0.90858000  0.82804000  1.0
  H  H24  1  0.56036000  0.29078000  0.20488000  1.0
  H  H25  1  0.43964000  0.79078000  0.29512000  1.0
  H  H26  1  0.43964000  0.70922000  0.79512000  1.0
  H  H27  1  0.56036000  0.20921000  0.70488000  1.0
  H  H28  1  0.03459000  0.42480000  0.20347000  1.0
  H  H29  1  0.96541000  0.92481000  0.29652000  1.0
  H  H30  1  0.96541000  0.57519000  0.79653000  1.0
  H  H31  1  0.03459000  0.07519000  0.70347000  1.0
  H  H32  1  0.95478000  0.59578000  0.13954000  1.0
  H  H33  1  0.04522000  0.09578000  0.36045000  1.0
  H  H34  1  0.04523000  0.40421000  0.86045000  1.0
  H  H35  1  0.95478000  0.90422000  0.63955000  1.0
  H  H36  1  0.90885000  0.37097000  0.01554000  1.0
  H  H37  1  0.09115000  0.87096000  0.48445000  1.0
  H  H38  1  0.09115000  0.62904000  0.98445000  1.0
  H  H39  1  0.90886000  0.12904000  0.51555000  1.0
  H  H40  1  0.72022000  0.44070000  0.05423000  1.0
  H  H41  1  0.27978000  0.94068000  0.44577000  1.0
  H  H42  1  0.27977000  0.55931000  0.94577000  1.0
  H  H43  1  0.72022000  0.05932000  0.55424000  1.0
  C  C44  1  0.62119000  0.07180000  0.28554000  1.0
  C  C45  1  0.37881000  0.57179000  0.21445000  1.0
  C  C46  1  0.37881000  0.92820000  0.71445000  1.0
  C  C47  1  0.62118000  0.42821000  0.78555000  1.0
  C  C48  1  0.82049000  0.51642000  0.26788000  1.0
  C  C49  1  0.17951000  0.01642000  0.23211000  1.0
  C  C50  1  0.17951000  0.48358000  0.73212000  1.0
  C  C51  1  0.82049000  0.98358000  0.76789000  1.0
  C  C52  1  0.66755000  0.22672000  0.23795000  1.0
  C  C53  1  0.33245000  0.72671000  0.26204000  1.0
  C  C54  1  0.33245000  0.77329000  0.76205000  1.0
  C  C55  1  0.66755000  0.27329000  0.73796000  1.0
  C  C56  1  0.92195000  0.48274000  0.17372000  1.0
  C  C57  1  0.07805000  0.98274000  0.32628000  1.0
  C  C58  1  0.07805000  0.51726000  0.82628000  1.0
  C  C59  1  0.92195000  0.01726000  0.67372000  1.0
  C  C60  1  0.83460000  0.38608000  0.08448000  1.0
  C  C61  1  0.16539000  0.88608000  0.41552000  1.0
  C  C62  1  0.16539000  0.61392000  0.91552000  1.0
  C  C63  1  0.83461000  0.11393000  0.58448000  1.0
  S  S64  1  0.77587000  0.34302000  0.34348000  1.0
  S  S65  1  0.22414000  0.84302000  0.15651000  1.0
  S  S66  1  0.22413000  0.65698000  0.65652000  1.0
  S  S67  1  0.77587000  0.15698000  0.84349000  1.0
  S  S68  1  0.79331000  0.18855000  0.12660000  1.0
  S  S69  1  0.20669000  0.68855000  0.37340000  1.0
  S  S70  1  0.20669000  0.81145000  0.87340000  1.0
  S  S71  1  0.79330000  0.31146000  0.62660000  1.0
  I  I72  1  0.34196000  0.28476000  0.49182000  1.0
  I  I73  1  0.65804000  0.78476000  0.00818000  1.0
  I  I74  1  0.65804000  0.71523000  0.50818000  1.0
  I  I75  1  0.34195000  0.21523000  0.99182000  1.0
