# generated using pymatgen
data_MnH6(C2O3)2
_symmetry_space_group_name_H-M   'P 1'
_cell_length_a   7.59418000
_cell_length_b   9.06401000
_cell_length_c   9.29168000
_cell_angle_alpha   89.99970000
_cell_angle_beta   89.99980000
_cell_angle_gamma   89.99940000
_symmetry_Int_Tables_number   1
_chemical_formula_structural   MnH6(C2O3)2
_chemical_formula_sum   'Mn4 H24 C16 O24'
_cell_volume   639.58093157
_cell_formula_units_Z   4
loop_
 _symmetry_equiv_pos_site_id
 _symmetry_equiv_pos_as_xyz
  1  'x, y, z'
loop_
 _atom_site_type_symbol
 _atom_site_label
 _atom_site_symmetry_multiplicity
 _atom_site_fract_x
 _atom_site_fract_y
 _atom_site_fract_z
 _atom_site_occupancy
  Mn  Mn0  1  0.85561000  0.77731000  0.75263000  1.0
  Mn  Mn1  1  0.64439000  0.22269000  0.25264000  1.0
  Mn  Mn2  1  0.14441000  0.27732000  0.74737000  1.0
  Mn  Mn3  1  0.35559000  0.72269000  0.24737000  1.0
  H  H4  1  0.83659000  0.56708000  0.52948000  1.0
  H  H5  1  0.66339000  0.43291000  0.02949000  1.0
  H  H6  1  0.16340000  0.06709000  0.97051000  1.0
  H  H7  1  0.33661000  0.93292000  0.47050000  1.0
  H  H8  1  0.71681000  0.69427000  0.46484000  1.0
  H  H9  1  0.78319000  0.30572000  0.96484000  1.0
  H  H10  1  0.28318000  0.19428000  0.03516000  1.0
  H  H11  1  0.21682000  0.80572000  0.53516000  1.0
  H  H12  1  0.54659000  0.13300000  0.82564000  1.0
  H  H13  1  0.95343000  0.86699000  0.32564000  1.0
  H  H14  1  0.45341000  0.63302000  0.67436000  1.0
  H  H15  1  0.04658000  0.36698000  0.17435000  1.0
  H  H16  1  0.67451000  0.05177000  0.96521000  1.0
  H  H17  1  0.82551000  0.94823000  0.46522000  1.0
  H  H18  1  0.32550000  0.55177000  0.53478000  1.0
  H  H19  1  0.17449000  0.44823000  0.03478000  1.0
  H  H20  1  0.35521000  0.82354000  0.84090000  1.0
  H  H21  1  0.14481000  0.17646000  0.34088000  1.0
  H  H22  1  0.64479000  0.32355000  0.65915000  1.0
  H  H23  1  0.85520000  0.67645000  0.15914000  1.0
  H  H24  1  0.45989000  0.90506000  0.99137000  1.0
  H  H25  1  0.04013000  0.09494000  0.49136000  1.0
  H  H26  1  0.54015000  0.40508000  0.50866000  1.0
  H  H27  1  0.95984000  0.59492000  0.00864000  1.0
  C  C28  1  0.82210000  0.09772000  0.77692000  1.0
  C  C29  1  0.67790000  0.90228000  0.27692000  1.0
  C  C30  1  0.17789000  0.59774000  0.72307000  1.0
  C  C31  1  0.32210000  0.40227000  0.22308000  1.0
  C  C32  1  0.65214000  0.05333000  0.84824000  1.0
  C  C33  1  0.84786000  0.94666000  0.34824000  1.0
  C  C34  1  0.34785000  0.55335000  0.65175000  1.0
  C  C35  1  0.15214000  0.44666000  0.15175000  1.0
  C  C36  1  0.48264000  0.83743000  0.89542000  1.0
  C  C37  1  0.01737000  0.16257000  0.39542000  1.0
  C  C38  1  0.51736000  0.33744000  0.60460000  1.0
  C  C39  1  0.98262000  0.66256000  0.10459000  1.0
  C  C40  1  0.55547000  0.68852000  0.94114000  1.0
  C  C41  1  0.94455000  0.31148000  0.44113000  1.0
  C  C42  1  0.44454000  0.18852000  0.55888000  1.0
  C  C43  1  0.05544000  0.81147000  0.05886000  1.0
  O  O44  1  0.89914000  0.00871000  0.69316000  1.0
  O  O45  1  0.60087000  0.99130000  0.19317000  1.0
  O  O46  1  0.10085000  0.50872000  0.80682000  1.0
  O  O47  1  0.39914000  0.49128000  0.30683000  1.0
  O  O48  1  0.69122000  0.63811000  0.87680000  1.0
  O  O49  1  0.80878000  0.36188000  0.37681000  1.0
  O  O50  1  0.30878000  0.13813000  0.62322000  1.0
  O  O51  1  0.19121000  0.86187000  0.12320000  1.0
  O  O52  1  0.60368000  0.90940000  0.79931000  1.0
  O  O53  1  0.89631000  0.09060000  0.29932000  1.0
  O  O54  1  0.39630000  0.40942000  0.70069000  1.0
  O  O55  1  0.10368000  0.59059000  0.20068000  1.0
  O  O56  1  0.88071000  0.22609000  0.80952000  1.0
  O  O57  1  0.61929000  0.77391000  0.30953000  1.0
  O  O58  1  0.11928000  0.72611000  0.69045000  1.0
  O  O59  1  0.38071000  0.27390000  0.19046000  1.0
  O  O60  1  0.47638000  0.62013000  0.04089000  1.0
  O  O61  1  0.02365000  0.37986000  0.54088000  1.0
  O  O62  1  0.52363000  0.12016000  0.45910000  1.0
  O  O63  1  0.97637000  0.87984000  0.95910000  1.0
  O  O64  1  0.77420000  0.65869000  0.55469000  1.0
  O  O65  1  0.72579000  0.34130000  0.05469000  1.0
  O  O66  1  0.22580000  0.15870000  0.94531000  1.0
  O  O67  1  0.27422000  0.84130000  0.44531000  1.0
