# generated using pymatgen
data_MnPH12C7NO5
_symmetry_space_group_name_H-M   'P 1'
_cell_length_a   9.02422000
_cell_length_b   10.23940000
_cell_length_c   11.10670000
_cell_angle_alpha   107.44100000
_cell_angle_beta   90.00000000
_cell_angle_gamma   89.99980000
_symmetry_Int_Tables_number   1
_chemical_formula_structural   MnPH12C7NO5
_chemical_formula_sum   'Mn4 P4 H48 C28 N4 O20'
_cell_volume   979.10547412
_cell_formula_units_Z   4
loop_
 _symmetry_equiv_pos_site_id
 _symmetry_equiv_pos_as_xyz
  1  'x, y, z'
loop_
 _atom_site_type_symbol
 _atom_site_label
 _atom_site_symmetry_multiplicity
 _atom_site_fract_x
 _atom_site_fract_y
 _atom_site_fract_z
 _atom_site_occupancy
  Mn  Mn0  1  0.89932000  0.35795000  0.84420000  1.0
  Mn  Mn1  1  0.60068000  0.85795000  0.84420000  1.0
  Mn  Mn2  1  0.10068000  0.64205000  0.15580000  1.0
  Mn  Mn3  1  0.39932000  0.14205000  0.15580000  1.0
  P  P4  1  0.68885000  0.18401000  0.99581000  1.0
  P  P5  1  0.81115000  0.68401000  0.99581000  1.0
  P  P6  1  0.31115000  0.81599000  0.00419000  1.0
  P  P7  1  0.18885000  0.31599000  0.00419000  1.0
  H  H8  1  0.74304000  0.14349000  0.24045000  1.0
  H  H9  1  0.75696000  0.64349000  0.24045000  1.0
  H  H10  1  0.25696000  0.85651000  0.75955000  1.0
  H  H11  1  0.24304000  0.35651000  0.75955000  1.0
  H  H12  1  0.95199000  0.15144000  0.03509000  1.0
  H  H13  1  0.54801000  0.65144000  0.03509000  1.0
  H  H14  1  0.04801000  0.84856000  0.96491000  1.0
  H  H15  1  0.45199000  0.34856000  0.96491000  1.0
  H  H16  1  0.83986000  0.00709000  0.03452000  1.0
  H  H17  1  0.66014000  0.50709000  0.03452000  1.0
  H  H18  1  0.16014000  0.99291000  0.96548000  1.0
  H  H19  1  0.33986000  0.49291000  0.96549000  1.0
  H  H20  1  0.98559000  0.33426000  0.23127000  1.0
  H  H21  1  0.51441000  0.83426000  0.23127000  1.0
  H  H22  1  0.01441000  0.66574000  0.76873000  1.0
  H  H23  1  0.48560000  0.16574000  0.76873000  1.0
  H  H24  1  0.79226000  0.36662000  0.23044000  1.0
  H  H25  1  0.70774000  0.86662000  0.23044000  1.0
  H  H26  1  0.20774000  0.63338000  0.76956000  1.0
  H  H27  1  0.29227000  0.13338000  0.76956000  1.0
  H  H28  1  0.89234000  0.45875000  0.44719000  1.0
  H  H29  1  0.60766000  0.95875000  0.44719000  1.0
  H  H30  1  0.10766000  0.54125000  0.55281000  1.0
  H  H31  1  0.39234000  0.04125000  0.55281000  1.0
  H  H32  1  0.76190000  0.32756000  0.44017000  1.0
  H  H33  1  0.73810000  0.82756000  0.44017000  1.0
  H  H34  1  0.23810000  0.67244000  0.55983000  1.0
  H  H35  1  0.26190000  0.17244000  0.55984000  1.0
  H  H36  1  0.09973000  0.29173000  0.43438000  1.0
  H  H37  1  0.40027000  0.79173000  0.43438000  1.0
  H  H38  1  0.90027000  0.70827000  0.56562000  1.0
  H  H39  1  0.59973000  0.20828000  0.56562000  1.0
  H  H40  1  0.85274000  0.08450000  0.42842000  1.0
  H  H41  1  0.64726000  0.58450000  0.42842000  1.0
  H  H42  1  0.14726000  0.91550000  0.57158000  1.0
  H  H43  1  0.35274000  0.41550000  0.57158000  1.0
  H  H44  1  0.04587000  0.05020000  0.42197000  1.0
  H  H45  1  0.45413000  0.55020000  0.42197000  1.0
  H  H46  1  0.95413000  0.94980000  0.57803000  1.0
  H  H47  1  0.54587000  0.44980000  0.57803000  1.0
  H  H48  1  0.93518000  0.96944000  0.20679000  1.0
  H  H49  1  0.56482000  0.46944000  0.20679000  1.0
  H  H50  1  0.06482000  0.03056000  0.79321000  1.0
  H  H51  1  0.43518000  0.53056000  0.79321000  1.0
  H  H52  1  0.06838000  0.10112000  0.21798000  1.0
  H  H53  1  0.43162000  0.60112000  0.21798000  1.0
  H  H54  1  0.93162000  0.89888000  0.78202000  1.0
  H  H55  1  0.56838000  0.39888000  0.78202000  1.0
  C  C56  1  0.84688000  0.11937000  0.06685000  1.0
  C  C57  1  0.65312000  0.61937000  0.06685000  1.0
  C  C58  1  0.15312000  0.88063000  0.93315000  1.0
  C  C59  1  0.34688000  0.38063000  0.93315000  1.0
  C  C60  1  0.87759000  0.31201000  0.26633000  1.0
  C  C61  1  0.62241000  0.81201000  0.26633000  1.0
  C  C62  1  0.12241000  0.68799000  0.73367000  1.0
  C  C63  1  0.37759000  0.18799000  0.73367000  1.0
  C  C64  1  0.87279000  0.34832000  0.40934000  1.0
  C  C65  1  0.62721000  0.84832000  0.40934000  1.0
  C  C66  1  0.12721000  0.65168000  0.59066000  1.0
  C  C67  1  0.37279000  0.15168000  0.59067000  1.0
  C  C68  1  0.98756000  0.26583000  0.45893000  1.0
  C  C69  1  0.51244000  0.76583000  0.45893000  1.0
  C  C70  1  0.01244000  0.73417000  0.54107000  1.0
  C  C71  1  0.48756000  0.23417000  0.54107000  1.0
  C  C72  1  0.95980000  0.11265000  0.39582000  1.0
  C  C73  1  0.54020000  0.61265000  0.39582000  1.0
  C  C74  1  0.04020000  0.88735000  0.60418000  1.0
  C  C75  1  0.45980000  0.38735000  0.60418000  1.0
  C  C76  1  0.96062000  0.07787000  0.25296000  1.0
  C  C77  1  0.53938000  0.57787000  0.25296000  1.0
  C  C78  1  0.03938000  0.92213000  0.74704000  1.0
  C  C79  1  0.46062000  0.42213000  0.74704000  1.0
  C  C80  1  0.97742000  0.30365000  0.60199000  1.0
  C  C81  1  0.52258000  0.80365000  0.60199000  1.0
  C  C82  1  0.02258000  0.69635000  0.39801000  1.0
  C  C83  1  0.47742000  0.19635000  0.39801000  1.0
  N  N84  1  0.84793000  0.16165000  0.20795000  1.0
  N  N85  1  0.65207000  0.66165000  0.20796000  1.0
  N  N86  1  0.15207000  0.83835000  0.79204000  1.0
  N  N87  1  0.34793000  0.33835000  0.79205000  1.0
  O  O88  1  0.73848000  0.30312000  0.94857000  1.0
  O  O89  1  0.76151000  0.80312000  0.94857000  1.0
  O  O90  1  0.26152000  0.69688000  0.05143000  1.0
  O  O91  1  0.23849000  0.19688000  0.05143000  1.0
  O  O92  1  0.63595000  0.06135000  0.88755000  1.0
  O  O93  1  0.86405000  0.56135000  0.88755000  1.0
  O  O94  1  0.36405000  0.93865000  0.11245000  1.0
  O  O95  1  0.13595000  0.43865000  0.11245000  1.0
  O  O96  1  0.57531000  0.23505000  0.10283000  1.0
  O  O97  1  0.92469000  0.73505000  0.10283000  1.0
  O  O98  1  0.42469000  0.76495000  0.89717000  1.0
  O  O99  1  0.07531000  0.26495000  0.89717000  1.0
  O  O100  1  0.08051000  0.37278000  0.66991000  1.0
  O  O101  1  0.41949000  0.87279000  0.66991000  1.0
  O  O102  1  0.91949000  0.62721000  0.33009000  1.0
  O  O103  1  0.58051000  0.12721000  0.33009000  1.0
  O  O104  1  0.86087000  0.26686000  0.65003000  1.0
  O  O105  1  0.63913000  0.76686000  0.65003000  1.0
  O  O106  1  0.13913000  0.73314000  0.34997000  1.0
  O  O107  1  0.36087000  0.23314000  0.34997000  1.0
