# generated using pymatgen
data_ZnH16C26NO4
_symmetry_space_group_name_H-M   'P 1'
_cell_length_a   10.90160000
_cell_length_b   18.25330000
_cell_length_c   19.45840000
_cell_angle_alpha   89.82490000
_cell_angle_beta   88.77080000
_cell_angle_gamma   89.94050000
_symmetry_Int_Tables_number   1
_chemical_formula_structural   ZnH16C26NO4
_chemical_formula_sum   'Zn2 H32 C52 N2 O8'
_cell_volume   3871.11948709
_cell_formula_units_Z   2
loop_
 _symmetry_equiv_pos_site_id
 _symmetry_equiv_pos_as_xyz
  1  'x, y, z'
loop_
 _atom_site_type_symbol
 _atom_site_label
 _atom_site_symmetry_multiplicity
 _atom_site_fract_x
 _atom_site_fract_y
 _atom_site_fract_z
 _atom_site_occupancy
  Zn  Zn0  1  0.50017000  0.42406000  0.50039000  1.0
  Zn  Zn1  1  0.49987000  0.57605000  0.49958000  1.0
  H  H2  1  0.09210000  0.75297000  0.53823000  1.0
  H  H3  1  0.90771000  0.24698000  0.46206000  1.0
  H  H4  1  0.90572000  0.75328000  0.46315000  1.0
  H  H5  1  0.09462000  0.24667000  0.53672000  1.0
  H  H6  1  0.52892000  0.61794000  0.84194000  1.0
  H  H7  1  0.47068000  0.38192000  0.15811000  1.0
  H  H8  1  0.44747000  0.61759000  0.15597000  1.0
  H  H9  1  0.55226000  0.38228000  0.84395000  1.0
  H  H10  1  0.64560000  0.41108000  0.94660000  1.0
  H  H11  1  0.35409000  0.58876000  0.05339000  1.0
  H  H12  1  0.61167000  0.41104000  0.07234000  1.0
  H  H13  1  0.38799000  0.58878000  0.92764000  1.0
  H  H14  1  0.66262000  0.30741000  0.55274000  1.0
  H  H15  1  0.33735000  0.69265000  0.44731000  1.0
  H  H16  1  0.33733000  0.30788000  0.44715000  1.0
  H  H17  1  0.66275000  0.69218000  0.55275000  1.0
  H  H18  1  0.67090000  0.17051000  0.55455000  1.0
  H  H19  1  0.32906000  0.82957000  0.44548000  1.0
  H  H20  1  0.32924000  0.17104000  0.44525000  1.0
  H  H21  1  0.67083000  0.82902000  0.55470000  1.0
  H  H22  1  0.42304000  0.06779000  0.39886000  1.0
  H  H23  1  0.57697000  0.93227000  0.60114000  1.0
  H  H24  1  0.57704000  0.06718000  0.60107000  1.0
  H  H25  1  0.42295000  0.93288000  0.39893000  1.0
  H  H26  1  0.19532000  0.36305000  0.56301000  1.0
  H  H27  1  0.80514000  0.63694000  0.43669000  1.0
  H  H28  1  0.80610000  0.36343000  0.43629000  1.0
  H  H29  1  0.19360000  0.63653000  0.56410000  1.0
  H  H30  1  0.54460000  0.61676000  0.71386000  1.0
  H  H31  1  0.45505000  0.38319000  0.28620000  1.0
  H  H32  1  0.43034000  0.61744000  0.28396000  1.0
  H  H33  1  0.56961000  0.38251000  0.71596000  1.0
  C  C34  1  0.44497000  0.50089000  0.36968000  1.0
  C  C35  1  0.55499000  0.49916000  0.63031000  1.0
  C  C36  1  0.55745000  0.49962000  0.70723000  1.0
  C  C37  1  0.44240000  0.50032000  0.29275000  1.0
  C  C38  1  0.58002000  0.44950000  0.96967000  1.0
  C  C39  1  0.41965000  0.55032000  0.03031000  1.0
  C  C40  1  0.56065000  0.44933000  0.04058000  1.0
  C  C41  1  0.43900000  0.55048000  0.95941000  1.0
  C  C42  1  0.48005000  0.49969000  0.07247000  1.0
  C  C43  1  0.51960000  0.50013000  0.92751000  1.0
  C  C44  1  0.59088000  0.27442000  0.52986000  1.0
  C  C45  1  0.40910000  0.72565000  0.47015000  1.0
  C  C46  1  0.40910000  0.27470000  0.47007000  1.0
  C  C47  1  0.59094000  0.72536000  0.52990000  1.0
  C  C48  1  0.59406000  0.19835000  0.53087000  1.0
  C  C49  1  0.40591000  0.80171000  0.46914000  1.0
  C  C50  1  0.40604000  0.19865000  0.46896000  1.0
  C  C51  1  0.59400000  0.80141000  0.53101000  1.0
  C  C52  1  0.50006000  0.15845000  0.49991000  1.0
  C  C53  1  0.49996000  0.84162000  0.50008000  1.0
  C  C54  1  0.45526000  0.03827000  0.44382000  1.0
  C  C55  1  0.54476000  0.96178000  0.55617000  1.0
  C  C56  1  0.54482000  0.03795000  0.55612000  1.0
  C  C57  1  0.45519000  0.96210000  0.44387000  1.0
  C  C58  1  0.49996000  0.92243000  0.50005000  1.0
  C  C59  1  0.50006000  0.07764000  0.49994000  1.0
  C  C60  1  0.26344000  0.50024000  0.53032000  1.0
  C  C61  1  0.73662000  0.49990000  0.46967000  1.0
  C  C62  1  0.11106000  0.36317000  0.53449000  1.0
  C  C63  1  0.88919000  0.63679000  0.46538000  1.0
  C  C64  1  0.89025000  0.36342000  0.46489000  1.0
  C  C65  1  0.10961000  0.63654000  0.53537000  1.0
  C  C66  1  0.05489000  0.29820000  0.51916000  1.0
  C  C67  1  0.94530000  0.70175000  0.48079000  1.0
  C  C68  1  0.94700000  0.29835000  0.47988000  1.0
  C  C69  1  0.05292000  0.70160000  0.52031000  1.0
  C  C70  1  0.93946000  0.43268000  0.48557000  1.0
  C  C71  1  0.06054000  0.56729000  0.51456000  1.0
  C  C72  1  0.06124000  0.43260000  0.51419000  1.0
  C  C73  1  0.93888000  0.56736000  0.48583000  1.0
  C  C74  1  0.87532000  0.50000000  0.47640000  1.0
  C  C75  1  0.12472000  0.49996000  0.52364000  1.0
  C  C76  1  0.54680000  0.56584000  0.74317000  1.0
  C  C77  1  0.45292000  0.43409000  0.25685000  1.0
  C  C78  1  0.43791000  0.56618000  0.25561000  1.0
  C  C79  1  0.56199000  0.43375000  0.74434000  1.0
  C  C80  1  0.53687000  0.56606000  0.81452000  1.0
  C  C81  1  0.46278000  0.43383000  0.18550000  1.0
  C  C82  1  0.44705000  0.56586000  0.18420000  1.0
  C  C83  1  0.55273000  0.43404000  0.81575000  1.0
  C  C84  1  0.53776000  0.50009000  0.85215000  1.0
  C  C85  1  0.46196000  0.49977000  0.14784000  1.0
  N  N86  1  0.49997000  0.31186000  0.49996000  1.0
  N  N87  1  0.50005000  0.68823000  0.50001000  1.0
  O  O88  1  0.44794000  0.43895000  0.40017000  1.0
  O  O89  1  0.55081000  0.56115000  0.59999000  1.0
  O  O90  1  0.55349000  0.43690000  0.60079000  1.0
  O  O91  1  0.44782000  0.56322000  0.39899000  1.0
  O  O92  1  0.32013000  0.43913000  0.53139000  1.0
  O  O93  1  0.68025000  0.56113000  0.46956000  1.0
  O  O94  1  0.68078000  0.43858000  0.47053000  1.0
  O  O95  1  0.31893000  0.56166000  0.52846000  1.0
