# generated using pymatgen
data_InH11C12O5
_symmetry_space_group_name_H-M   'P 1'
_cell_length_a   14.71200000
_cell_length_b   18.66800000
_cell_length_c   24.30170000
_cell_angle_alpha   89.99990000
_cell_angle_beta   90.00000000
_cell_angle_gamma   104.85200000
_symmetry_Int_Tables_number   1
_chemical_formula_structural   InH11C12O5
_chemical_formula_sum   'In12 H132 C144 O60'
_cell_volume   6451.32588442
_cell_formula_units_Z   12
loop_
 _symmetry_equiv_pos_site_id
 _symmetry_equiv_pos_as_xyz
  1  'x, y, z'
loop_
 _atom_site_type_symbol
 _atom_site_label
 _atom_site_symmetry_multiplicity
 _atom_site_fract_x
 _atom_site_fract_y
 _atom_site_fract_z
 _atom_site_occupancy
  In  In0  1  0.00000000  0.50000000  0.50000000  1.0
  In  In1  1  0.00000000  0.00000000  0.00000000  1.0
  In  In2  1  0.88072000  0.31112000  0.53076000  1.0
  In  In3  1  0.11928000  0.18888000  0.03076000  1.0
  In  In4  1  0.11928000  0.68888000  0.46924000  1.0
  In  In5  1  0.88072000  0.81111000  0.96925000  1.0
  In  In6  1  0.66785000  0.16823000  0.53279000  1.0
  In  In7  1  0.33215000  0.33177000  0.03279000  1.0
  In  In8  1  0.33215000  0.83176000  0.46721000  1.0
  In  In9  1  0.66785000  0.66823000  0.96721000  1.0
  In  In10  1  0.50000000  0.00000000  0.50000000  1.0
  In  In11  1  0.50000000  0.50000000  0.00000000  1.0
  H  H12  1  0.52811000  0.08399000  0.58916000  1.0
  H  H13  1  0.47191000  0.41599000  0.08915000  1.0
  H  H14  1  0.47192000  0.91598000  0.41085000  1.0
  H  H15  1  0.52811000  0.58400000  0.91084000  1.0
  H  H16  1  0.77020000  0.23797000  0.45385000  1.0
  H  H17  1  0.22981000  0.26203000  0.95385000  1.0
  H  H18  1  0.22981000  0.76203000  0.54615000  1.0
  H  H19  1  0.77019000  0.73797000  0.04615000  1.0
  H  H20  1  0.83160000  0.44020000  0.53968000  1.0
  H  H21  1  0.16840000  0.05980000  0.03968000  1.0
  H  H22  1  0.16840000  0.55980000  0.46032000  1.0
  H  H23  1  0.83160000  0.94020000  0.96032000  1.0
  H  H24  1  0.76945000  0.96107000  0.41180000  1.0
  H  H25  1  0.23054000  0.53893000  0.91180000  1.0
  H  H26  1  0.23054000  0.03893000  0.58820000  1.0
  H  H27  1  0.76945000  0.46107000  0.08820000  1.0
  H  H28  1  0.83465000  0.12757000  0.38507000  1.0
  H  H29  1  0.16535000  0.37243000  0.88507000  1.0
  H  H30  1  0.16535000  0.87243000  0.61493000  1.0
  H  H31  1  0.83465000  0.62757000  0.11493000  1.0
  H  H32  1  0.80806000  0.05991000  0.22509000  1.0
  H  H33  1  0.19194000  0.44010000  0.72509000  1.0
  H  H34  1  0.19194000  0.94009000  0.77491000  1.0
  H  H35  1  0.80806000  0.55991000  0.27491000  1.0
  H  H36  1  0.76304000  0.06732000  0.29234000  1.0
  H  H37  1  0.23696000  0.43268000  0.79234000  1.0
  H  H38  1  0.23696000  0.93268000  0.70766000  1.0
  H  H39  1  0.76304000  0.56732000  0.20766000  1.0
  H  H40  1  0.84675000  0.14293000  0.26304000  1.0
  H  H41  1  0.15324000  0.35707000  0.76304000  1.0
  H  H42  1  0.15325000  0.85707000  0.73696000  1.0
  H  H43  1  0.84675000  0.64293000  0.23696000  1.0
  H  H44  1  0.10700000  0.98478000  0.20701000  1.0
  H  H45  1  0.89300000  0.51522000  0.70701000  1.0
  H  H46  1  0.89300000  0.01522000  0.79299000  1.0
  H  H47  1  0.10701000  0.48478000  0.29299000  1.0
  H  H48  1  0.18050000  0.99618000  0.26544000  1.0
  H  H49  1  0.81950000  0.50382000  0.76544000  1.0
  H  H50  1  0.81950000  0.00382000  0.73456000  1.0
  H  H51  1  0.18050000  0.49618000  0.23456000  1.0
  H  H52  1  0.09785000  0.91054000  0.25453000  1.0
  H  H53  1  0.90215000  0.58946000  0.75453000  1.0
  H  H54  1  0.90215000  0.08946000  0.74548000  1.0
  H  H55  1  0.09785000  0.41054000  0.24547000  1.0
  H  H56  1  0.97458000  0.07621000  0.45184000  1.0
  H  H57  1  0.02541000  0.42379000  0.95184000  1.0
  H  H58  1  0.02542000  0.92379000  0.54816000  1.0
  H  H59  1  0.97458000  0.57621000  0.04816000  1.0
  H  H60  1  0.93758000  0.97918000  0.45768000  1.0
  H  H61  1  0.06241000  0.52082000  0.95768000  1.0
  H  H62  1  0.06242000  0.02082000  0.54232000  1.0
  H  H63  1  0.93758000  0.47918000  0.04232000  1.0
  H  H64  1  0.05850000  0.02213000  0.44892000  1.0
  H  H65  1  0.94149000  0.47787000  0.94892000  1.0
  H  H66  1  0.94149000  0.97787000  0.55108000  1.0
  H  H67  1  0.05851000  0.52213000  0.05108000  1.0
  H  H68  1  0.97844000  0.98325000  0.17667000  1.0
  H  H69  1  0.02156000  0.51675000  0.67667000  1.0
  H  H70  1  0.02156000  0.01675000  0.82333000  1.0
  H  H71  1  0.97844000  0.48325000  0.32333000  1.0
  H  H72  1  0.95058000  0.14044000  0.18292000  1.0
  H  H73  1  0.04942000  0.35956000  0.68292000  1.0
  H  H74  1  0.04942000  0.85956000  0.81708000  1.0
  H  H75  1  0.95058000  0.64044000  0.31708000  1.0
  H  H76  1  0.17566000  0.96142000  0.35259000  1.0
  H  H77  1  0.82434000  0.53858000  0.85259000  1.0
  H  H78  1  0.82434000  0.03858000  0.64741000  1.0
  H  H79  1  0.17566000  0.46142000  0.14741000  1.0
  H  H80  1  0.00049000  0.88177000  0.41847000  1.0
  H  H81  1  0.99951000  0.61823000  0.91847000  1.0
  H  H82  1  0.99951000  0.11822000  0.58153000  1.0
  H  H83  1  0.00049000  0.38177000  0.08153000  1.0
  H  H84  1  0.16814000  0.36035000  0.39616000  1.0
  H  H85  1  0.83187000  0.13965000  0.89616000  1.0
  H  H86  1  0.83186000  0.63965000  0.60384000  1.0
  H  H87  1  0.16814000  0.86035000  0.10384000  1.0
  H  H88  1  0.01364000  0.21568000  0.41289000  1.0
  H  H89  1  0.98636000  0.28432000  0.91289000  1.0
  H  H90  1  0.98636000  0.78432000  0.58711000  1.0
  H  H91  1  0.01364000  0.71569000  0.08711000  1.0
  H  H92  1  0.24153000  0.15218000  0.48010000  1.0
  H  H93  1  0.75847000  0.34782000  0.98010000  1.0
  H  H94  1  0.75847000  0.84781000  0.51990000  1.0
  H  H95  1  0.24153000  0.65219000  0.01990000  1.0
  H  H96  1  0.25346000  0.24884000  0.47688000  1.0
  H  H97  1  0.74653000  0.25116000  0.97688000  1.0
  H  H98  1  0.74653000  0.75116000  0.52312000  1.0
  H  H99  1  0.25347000  0.74884000  0.02312000  1.0
  H  H100  1  0.14013000  0.18817000  0.47624000  1.0
  H  H101  1  0.85987000  0.31183000  0.97625000  1.0
  H  H102  1  0.85987000  0.81183000  0.52375000  1.0
  H  H103  1  0.14013000  0.68817000  0.02376000  1.0
  H  H104  1  0.34956000  0.06839000  0.30480000  1.0
  H  H105  1  0.65044000  0.43161000  0.80480000  1.0
  H  H106  1  0.65045000  0.93161000  0.69520000  1.0
  H  H107  1  0.34956000  0.56839000  0.19520000  1.0
  H  H108  1  0.33068000  0.10973000  0.24128000  1.0
  H  H109  1  0.66932000  0.39026000  0.74128000  1.0
  H  H110  1  0.66932000  0.89027000  0.75872000  1.0
  H  H111  1  0.33069000  0.60974000  0.25872000  1.0
  H  H112  1  0.41984000  0.15679000  0.28732000  1.0
  H  H113  1  0.58016000  0.34321000  0.78732000  1.0
  H  H114  1  0.58016000  0.84321000  0.71268000  1.0
  H  H115  1  0.41984000  0.65679000  0.21268000  1.0
  H  H116  1  0.06563000  0.22428000  0.23722000  1.0
  H  H117  1  0.93438000  0.27572000  0.73722000  1.0
  H  H118  1  0.93437000  0.77572000  0.76278000  1.0
  H  H119  1  0.06563000  0.72428000  0.26278000  1.0
  H  H120  1  0.99966000  0.21493000  0.29949000  1.0
  H  H121  1  0.00034000  0.28506000  0.79950000  1.0
  H  H122  1  0.00034000  0.78507000  0.70050000  1.0
  H  H123  1  0.99966000  0.71493000  0.20051000  1.0
  H  H124  1  0.08389000  0.29841000  0.28475000  1.0
  H  H125  1  0.91611000  0.20159000  0.78475000  1.0
  H  H126  1  0.91611000  0.70159000  0.71525000  1.0
  H  H127  1  0.08390000  0.79841000  0.21525000  1.0
  H  H128  1  0.37170000  0.08790000  0.38979000  1.0
  H  H129  1  0.62830000  0.41210000  0.88979000  1.0
  H  H130  1  0.62830000  0.91210000  0.61021000  1.0
  H  H131  1  0.37170000  0.58790000  0.11021000  1.0
  H  H132  1  0.41077000  0.23859000  0.44852000  1.0
  H  H133  1  0.58922000  0.26141000  0.94852000  1.0
  H  H134  1  0.58923000  0.76141000  0.55148000  1.0
  H  H135  1  0.41077000  0.73859000  0.05148000  1.0
  H  H136  1  0.14275000  0.16284000  0.20134000  1.0
  H  H137  1  0.85725000  0.33716000  0.70134000  1.0
  H  H138  1  0.85725000  0.83716000  0.79866000  1.0
  H  H139  1  0.14275000  0.66284000  0.29866000  1.0
  H  H140  1  0.35409000  0.23916000  0.20731000  1.0
  H  H141  1  0.64591000  0.26084000  0.70731000  1.0
  H  H142  1  0.64591000  0.76084000  0.79269000  1.0
  H  H143  1  0.35409000  0.73916000  0.29269000  1.0
  C  C144  1  0.70156000  0.04069000  0.44904000  1.0
  C  C145  1  0.29843000  0.45931000  0.94905000  1.0
  C  C146  1  0.29844000  0.95931000  0.55095000  1.0
  C  C147  1  0.70156000  0.54069000  0.05096000  1.0
  C  C148  1  0.77302000  0.02019000  0.41356000  1.0
  C  C149  1  0.22698000  0.47981000  0.91357000  1.0
  C  C150  1  0.22698000  0.97981000  0.58643000  1.0
  C  C151  1  0.77302000  0.52019000  0.08644000  1.0
  C  C152  1  0.83689000  0.06939000  0.38384000  1.0
  C  C153  1  0.16311000  0.43061000  0.88384000  1.0
  C  C154  1  0.16311000  0.93061000  0.61616000  1.0
  C  C155  1  0.83689000  0.56939000  0.11616000  1.0
  C  C156  1  0.90829000  0.04775000  0.34914000  1.0
  C  C157  1  0.09171000  0.45224000  0.84914000  1.0
  C  C158  1  0.09171000  0.95224000  0.65086000  1.0
  C  C159  1  0.90829000  0.54776000  0.15086000  1.0
  C  C160  1  0.90406000  0.05343000  0.29150000  1.0
  C  C161  1  0.09594000  0.44657000  0.79150000  1.0
  C  C162  1  0.09594000  0.94657000  0.70850000  1.0
  C  C163  1  0.90406000  0.55343000  0.20850000  1.0
  C  C164  1  0.97031000  0.02915000  0.25888000  1.0
  C  C165  1  0.02969000  0.47085000  0.75888000  1.0
  C  C166  1  0.02969000  0.97085000  0.74112000  1.0
  C  C167  1  0.97031000  0.52915000  0.24112000  1.0
  C  C168  1  0.03782000  0.99777000  0.28426000  1.0
  C  C169  1  0.96218000  0.50223000  0.78426000  1.0
  C  C170  1  0.96218000  0.00223000  0.71574000  1.0
  C  C171  1  0.03782000  0.49777000  0.21574000  1.0
  C  C172  1  0.03969000  0.99120000  0.34211000  1.0
  C  C173  1  0.96031000  0.50879000  0.84211000  1.0
  C  C174  1  0.96031000  0.00880000  0.65789000  1.0
  C  C175  1  0.03969000  0.49120000  0.15789000  1.0
  C  C176  1  0.97760000  0.01958000  0.37490000  1.0
  C  C177  1  0.02239000  0.48042000  0.87490000  1.0
  C  C178  1  0.02240000  0.98042000  0.62510000  1.0
  C  C179  1  0.97760000  0.51958000  0.12510000  1.0
  C  C180  1  0.82638000  0.08198000  0.26657000  1.0
  C  C181  1  0.17362000  0.41802000  0.76657000  1.0
  C  C182  1  0.17362000  0.91802000  0.73343000  1.0
  C  C183  1  0.82638000  0.58198000  0.23343000  1.0
  C  C184  1  0.10873000  0.97091000  0.25069000  1.0
  C  C185  1  0.89127000  0.52909000  0.75069000  1.0
  C  C186  1  0.89127000  0.02909000  0.74931000  1.0
  C  C187  1  0.10873000  0.47091000  0.24931000  1.0
  C  C188  1  0.98782000  0.02446000  0.43647000  1.0
  C  C189  1  0.01217000  0.47554000  0.93647000  1.0
  C  C190  1  0.01217000  0.97554000  0.56353000  1.0
  C  C191  1  0.98783000  0.52446000  0.06353000  1.0
  C  C192  1  0.96769000  0.03156000  0.19859000  1.0
  C  C193  1  0.03231000  0.46844000  0.69859000  1.0
  C  C194  1  0.03230000  0.96844000  0.80141000  1.0
  C  C195  1  0.96770000  0.53156000  0.30141000  1.0
  C  C196  1  0.95694000  0.08767000  0.16645000  1.0
  C  C197  1  0.04306000  0.41233000  0.66645000  1.0
  C  C198  1  0.04306000  0.91233000  0.83355000  1.0
  C  C199  1  0.95694000  0.58767000  0.33355000  1.0
  C  C200  1  0.96857000  0.08469000  0.10606000  1.0
  C  C201  1  0.03143000  0.41531000  0.60606000  1.0
  C  C202  1  0.03143000  0.91531000  0.89394000  1.0
  C  C203  1  0.96857000  0.58469000  0.39394000  1.0
  C  C204  1  0.10309000  0.95087000  0.36718000  1.0
  C  C205  1  0.89690000  0.54912000  0.86718000  1.0
  C  C206  1  0.89690000  0.04913000  0.63282000  1.0
  C  C207  1  0.10310000  0.45088000  0.13282000  1.0
  C  C208  1  0.07371000  0.89732000  0.40513000  1.0
  C  C209  1  0.92629000  0.60268000  0.90513000  1.0
  C  C210  1  0.92629000  0.10268000  0.59487000  1.0
  C  C211  1  0.07371000  0.39732000  0.09487000  1.0
  C  C212  1  0.13156000  0.85059000  0.42860000  1.0
  C  C213  1  0.86844000  0.64941000  0.92860000  1.0
  C  C214  1  0.86844000  0.14941000  0.57140000  1.0
  C  C215  1  0.13156000  0.35059000  0.07140000  1.0
  C  C216  1  0.03805000  0.35581000  0.44215000  1.0
  C  C217  1  0.96195000  0.14419000  0.94215000  1.0
  C  C218  1  0.96195000  0.64419000  0.55785000  1.0
  C  C219  1  0.03805000  0.85581000  0.05785000  1.0
  C  C220  1  0.10162000  0.32296000  0.40895000  1.0
  C  C221  1  0.89838000  0.17704000  0.90895000  1.0
  C  C222  1  0.89838000  0.67704000  0.59105000  1.0
  C  C223  1  0.10162000  0.82296000  0.09105000  1.0
  C  C224  1  0.08114000  0.25011000  0.39804000  1.0
  C  C225  1  0.91886000  0.24989000  0.89804000  1.0
  C  C226  1  0.91886000  0.74989000  0.60195000  1.0
  C  C227  1  0.08114000  0.75011000  0.10196000  1.0
  C  C228  1  0.14667000  0.21493000  0.36870000  1.0
  C  C229  1  0.85332000  0.28507000  0.86870000  1.0
  C  C230  1  0.85332000  0.78507000  0.63130000  1.0
  C  C231  1  0.14668000  0.71493000  0.13130000  1.0
  C  C232  1  0.21438000  0.19099000  0.39934000  1.0
  C  C233  1  0.78562000  0.30901000  0.89935000  1.0
  C  C234  1  0.78562000  0.80901000  0.60065000  1.0
  C  C235  1  0.21438000  0.69099000  0.10066000  1.0
  C  C236  1  0.28076000  0.16206000  0.37088000  1.0
  C  C237  1  0.71924000  0.33794000  0.87088000  1.0
  C  C238  1  0.71924000  0.83794000  0.62912000  1.0
  C  C239  1  0.28076000  0.66206000  0.12912000  1.0
  C  C240  1  0.27788000  0.15533000  0.31289000  1.0
  C  C241  1  0.72211000  0.34467000  0.81289000  1.0
  C  C242  1  0.72212000  0.84467000  0.68711000  1.0
  C  C243  1  0.27789000  0.65533000  0.18711000  1.0
  C  C244  1  0.21029000  0.18104000  0.28288000  1.0
  C  C245  1  0.78970000  0.31896000  0.78288000  1.0
  C  C246  1  0.78971000  0.81896000  0.71712000  1.0
  C  C247  1  0.21030000  0.68104000  0.21712000  1.0
  C  C248  1  0.14283000  0.20945000  0.31107000  1.0
  C  C249  1  0.85717000  0.29055000  0.81107000  1.0
  C  C250  1  0.85717000  0.79055000  0.68893000  1.0
  C  C251  1  0.14284000  0.70945000  0.18893000  1.0
  C  C252  1  0.21231000  0.19486000  0.46132000  1.0
  C  C253  1  0.78769000  0.30513000  0.96132000  1.0
  C  C254  1  0.78769000  0.80514000  0.53868000  1.0
  C  C255  1  0.21231000  0.69487000  0.03868000  1.0
  C  C256  1  0.34775000  0.12092000  0.28478000  1.0
  C  C257  1  0.65224000  0.37908000  0.78478000  1.0
  C  C258  1  0.65225000  0.87909000  0.71522000  1.0
  C  C259  1  0.34776000  0.62092000  0.21522000  1.0
  C  C260  1  0.06940000  0.23777000  0.28111000  1.0
  C  C261  1  0.93060000  0.26223000  0.78112000  1.0
  C  C262  1  0.93060000  0.76223000  0.71888000  1.0
  C  C263  1  0.06940000  0.73777000  0.21889000  1.0
  C  C264  1  0.35721000  0.14098000  0.39994000  1.0
  C  C265  1  0.64278000  0.35903000  0.89994000  1.0
  C  C266  1  0.64278000  0.85903000  0.60006000  1.0
  C  C267  1  0.35722000  0.64097000  0.10006000  1.0
  C  C268  1  0.41583000  0.18350000  0.43653000  1.0
  C  C269  1  0.58417000  0.31650000  0.93653000  1.0
  C  C270  1  0.58417000  0.81650000  0.56347000  1.0
  C  C271  1  0.41583000  0.68350000  0.06347000  1.0
  C  C272  1  0.49219000  0.15698000  0.46196000  1.0
  C  C273  1  0.50781000  0.34303000  0.96197000  1.0
  C  C274  1  0.50781000  0.84303000  0.53803000  1.0
  C  C275  1  0.49219000  0.65697000  0.03803000  1.0
  C  C276  1  0.21001000  0.18340000  0.22246000  1.0
  C  C277  1  0.78999000  0.31660000  0.72246000  1.0
  C  C278  1  0.78999000  0.81660000  0.77754000  1.0
  C  C279  1  0.21001000  0.68340000  0.27754000  1.0
  C  C280  1  0.28457000  0.21398000  0.19042000  1.0
  C  C281  1  0.71543000  0.28602000  0.69042000  1.0
  C  C282  1  0.71543000  0.78602000  0.80958000  1.0
  C  C283  1  0.28457000  0.71398000  0.30958000  1.0
  C  C284  1  0.27370000  0.22364000  0.13061000  1.0
  C  C285  1  0.72629000  0.27636000  0.63061000  1.0
  C  C286  1  0.72630000  0.77636000  0.86940000  1.0
  C  C287  1  0.27370000  0.72364000  0.36939000  1.0
  O  O288  1  0.57315000  0.07048000  0.56447000  1.0
  O  O289  1  0.42685000  0.42952000  0.06448000  1.0
  O  O290  1  0.42686000  0.92952000  0.43552000  1.0
  O  O291  1  0.57315000  0.57048000  0.93553000  1.0
  O  O292  1  0.75406000  0.25847000  0.48831000  1.0
  O  O293  1  0.24595000  0.24153000  0.98830000  1.0
  O  O294  1  0.24594000  0.74153000  0.51169000  1.0
  O  O295  1  0.75406000  0.75847000  0.01170000  1.0
  O  O296  1  0.86884000  0.42070000  0.51326000  1.0
  O  O297  1  0.13116000  0.07930000  0.01326000  1.0
  O  O298  1  0.13116000  0.57930000  0.48674000  1.0
  O  O299  1  0.86884000  0.92070000  0.98674000  1.0
  O  O300  1  0.71363000  0.10845000  0.46228000  1.0
  O  O301  1  0.28637000  0.39155000  0.96228000  1.0
  O  O302  1  0.28637000  0.89155000  0.53772000  1.0
  O  O303  1  0.71363000  0.60845000  0.03772000  1.0
  O  O304  1  0.63246000  0.98698000  0.46393000  1.0
  O  O305  1  0.36753000  0.51302000  0.96394000  1.0
  O  O306  1  0.36753000  0.01302000  0.53606000  1.0
  O  O307  1  0.63246000  0.48698000  0.03607000  1.0
  O  O308  1  0.99314000  0.14725000  0.08113000  1.0
  O  O309  1  0.00686000  0.35275000  0.58113000  1.0
  O  O310  1  0.00686000  0.85275000  0.91887000  1.0
  O  O311  1  0.99314000  0.64725000  0.41887000  1.0
  O  O312  1  0.95623000  0.02121000  0.08352000  1.0
  O  O313  1  0.04377000  0.47879000  0.58352000  1.0
  O  O314  1  0.04377000  0.97879000  0.91648000  1.0
  O  O315  1  0.95623000  0.52121000  0.41648000  1.0
  O  O316  1  0.22015000  0.86771000  0.42050000  1.0
  O  O317  1  0.77985000  0.63229000  0.92050000  1.0
  O  O318  1  0.77985000  0.13230000  0.57951000  1.0
  O  O319  1  0.22015000  0.36771000  0.07951000  1.0
  O  O320  1  0.08431000  0.79422000  0.45565000  1.0
  O  O321  1  0.91569000  0.70577000  0.95565000  1.0
  O  O322  1  0.91569000  0.20578000  0.54435000  1.0
  O  O323  1  0.08431000  0.29422000  0.04435000  1.0
  O  O324  1  0.07051000  0.42290000  0.45759000  1.0
  O  O325  1  0.92949000  0.07710000  0.95759000  1.0
  O  O326  1  0.92949000  0.57710000  0.54241000  1.0
  O  O327  1  0.07051000  0.92290000  0.04241000  1.0
  O  O328  1  0.95655000  0.31453000  0.45354000  1.0
  O  O329  1  0.04345000  0.18547000  0.95354000  1.0
  O  O330  1  0.04345000  0.68547000  0.54646000  1.0
  O  O331  1  0.95656000  0.81453000  0.04646000  1.0
  O  O332  1  0.50246000  0.09366000  0.44680000  1.0
  O  O333  1  0.49755000  0.40634000  0.94680000  1.0
  O  O334  1  0.49755000  0.90634000  0.55320000  1.0
  O  O335  1  0.50246000  0.59366000  0.05320000  1.0
  O  O336  1  0.54417000  0.19917000  0.49735000  1.0
  O  O337  1  0.45583000  0.30083000  0.99735000  1.0
  O  O338  1  0.45583000  0.80083000  0.50265000  1.0
  O  O339  1  0.54417000  0.69917000  0.00265000  1.0
  O  O340  1  0.34339000  0.26747000  0.10620000  1.0
  O  O341  1  0.65661000  0.23253000  0.60620000  1.0
  O  O342  1  0.65661000  0.73253000  0.89380000  1.0
  O  O343  1  0.34339000  0.76747000  0.39380000  1.0
  O  O344  1  0.19604000  0.18950000  0.10827000  1.0
  O  O345  1  0.80395000  0.31050000  0.60827000  1.0
  O  O346  1  0.80396000  0.81050000  0.89173000  1.0
  O  O347  1  0.19604000  0.68950000  0.39173000  1.0
