# generated using pymatgen
data_LiH10C5S2N
_symmetry_space_group_name_H-M   'P 1'
_cell_length_a   9.45207000
_cell_length_b   9.98772964
_cell_length_c   14.20190000
_cell_angle_alpha   103.38555066
_cell_angle_beta   90.01400000
_cell_angle_gamma   118.22521703
_symmetry_Int_Tables_number   1
_chemical_formula_structural   LiH10C5S2N
_chemical_formula_sum   'Li6 H60 C30 S12 N6'
_cell_volume   1139.76101781
_cell_formula_units_Z   6
loop_
 _symmetry_equiv_pos_site_id
 _symmetry_equiv_pos_as_xyz
  1  'x, y, z'
loop_
 _atom_site_type_symbol
 _atom_site_label
 _atom_site_symmetry_multiplicity
 _atom_site_fract_x
 _atom_site_fract_y
 _atom_site_fract_z
 _atom_site_occupancy
  Li  Li0  1  0.93722000  0.00005000  0.74994000  1.0
  Li  Li1  1  0.06277000  0.99994000  0.25006000  1.0
  Li  Li2  1  0.08720000  0.94294000  0.94942000  1.0
  Li  Li3  1  0.14427000  0.05706000  0.55058000  1.0
  Li  Li4  1  0.91280000  0.05706000  0.05058000  1.0
  Li  Li5  1  0.85573000  0.94294000  0.44942000  1.0
  H  H6  1  0.71334000  0.53676000  0.76197000  1.0
  H  H7  1  0.17668000  0.46319000  0.73799000  1.0
  H  H8  1  0.28666000  0.46324000  0.23803000  1.0
  H  H9  1  0.82331000  0.53680000  0.26201000  1.0
  H  H10  1  0.51608000  0.51293000  0.77079000  1.0
  H  H11  1  0.00324000  0.48706000  0.72901000  1.0
  H  H12  1  0.48392000  0.48707000  0.22921000  1.0
  H  H13  1  0.99675000  0.51293000  0.27099000  1.0
  H  H14  1  0.68329000  0.70152000  0.77422000  1.0
  H  H15  1  0.98190000  0.29845000  0.72570000  1.0
  H  H16  1  0.31671000  0.29848000  0.22578000  1.0
  H  H17  1  0.01810000  0.70155000  0.27430000  1.0
  H  H18  1  0.52415000  0.40857000  0.59814000  1.0
  H  H19  1  0.11561000  0.59154000  0.90170000  1.0
  H  H20  1  0.47585000  0.59143000  0.40186000  1.0
  H  H21  1  0.88439000  0.40846000  0.09830000  1.0
  H  H22  1  0.52391000  0.58960000  0.61065000  1.0
  H  H23  1  0.93439000  0.41055000  0.88921000  1.0
  H  H24  1  0.47609000  0.41040000  0.38935000  1.0
  H  H25  1  0.06560000  0.58944000  0.11079000  1.0
  H  H26  1  0.78756000  0.42725000  0.61845000  1.0
  H  H27  1  0.36032000  0.57282000  0.88155000  1.0
  H  H28  1  0.21244000  0.57275000  0.38156000  1.0
  H  H29  1  0.63968000  0.42718000  0.11845000  1.0
  H  H30  1  0.94179000  0.55881000  0.56328000  1.0
  H  H31  1  0.38299000  0.44134000  0.93686000  1.0
  H  H32  1  0.05820000  0.44118000  0.43672000  1.0
  H  H33  1  0.61701000  0.55866000  0.06314000  1.0
  H  H34  1  0.60460000  0.29932000  0.45588000  1.0
  H  H35  1  0.30518000  0.70089000  0.04408000  1.0
  H  H36  1  0.39540000  0.70068000  0.54412000  1.0
  H  H37  1  0.69482000  0.29911000  0.95592000  1.0
  H  H38  1  0.78650000  0.28688000  0.44789000  1.0
  H  H39  1  0.49951000  0.71330000  0.05212000  1.0
  H  H40  1  0.21350000  0.71312000  0.55211000  1.0
  H  H41  1  0.50048000  0.28670000  0.94788000  1.0
  H  H42  1  0.76661000  0.43063000  0.40306000  1.0
  H  H43  1  0.33595000  0.56960000  0.09695000  1.0
  H  H44  1  0.23339000  0.56937000  0.59694000  1.0
  H  H45  1  0.66405000  0.43040000  0.90305000  1.0
  H  H46  1  0.53436000  0.97881000  0.59266000  1.0
  H  H47  1  0.55580000  0.02115000  0.90734000  1.0
  H  H48  1  0.46564000  0.02119000  0.40734000  1.0
  H  H49  1  0.44421000  0.97886000  0.09266000  1.0
  H  H50  1  0.66535000  0.18212000  0.60800000  1.0
  H  H51  1  0.48342000  0.81775000  0.89189000  1.0
  H  H52  1  0.33465000  0.81788000  0.39200000  1.0
  H  H53  1  0.51659000  0.18225000  0.10811000  1.0
  H  H54  1  0.45332000  0.10237000  0.57783000  1.0
  H  H55  1  0.35125000  0.89766000  0.92217000  1.0
  H  H56  1  0.54668000  0.89763000  0.42217000  1.0
  H  H57  1  0.64876000  0.10235000  0.07783000  1.0
  H  H58  1  0.63082000  0.13975000  0.77237000  1.0
  H  H59  1  0.49109000  0.86035000  0.72758000  1.0
  H  H60  1  0.36918000  0.86025000  0.22763000  1.0
  H  H61  1  0.50892000  0.13966000  0.27242000  1.0
  H  H62  1  0.52098000  0.23725000  0.75361000  1.0
  H  H63  1  0.28383000  0.76294000  0.74639000  1.0
  H  H64  1  0.47901000  0.76275000  0.24639000  1.0
  H  H65  1  0.71618000  0.23707000  0.25361000  1.0
  C  C66  1  0.62912000  0.57458000  0.74057000  1.0
  C  C67  1  0.05461000  0.42545000  0.75937000  1.0
  C  C68  1  0.37088000  0.42542000  0.25943000  1.0
  C  C69  1  0.94539000  0.57455000  0.24063000  1.0
  C  C70  1  0.59445000  0.53670000  0.63016000  1.0
  C  C71  1  0.05777000  0.46344000  0.86975000  1.0
  C  C72  1  0.40555000  0.46330000  0.36984000  1.0
  C  C73  1  0.94223000  0.53656000  0.13025000  1.0
  C  C74  1  0.81045000  0.48695000  0.55970000  1.0
  C  C75  1  0.32349000  0.51321000  0.94032000  1.0
  C  C76  1  0.18955000  0.51305000  0.44030000  1.0
  C  C77  1  0.67651000  0.48679000  0.05968000  1.0
  C  C78  1  0.73701000  0.36848000  0.46065000  1.0
  C  C79  1  0.36846000  0.63173000  0.03934000  1.0
  C  C80  1  0.26299000  0.63152000  0.53935000  1.0
  C  C81  1  0.63154000  0.36827000  0.96066000  1.0
  C  C82  1  0.81030000  0.73226000  0.55981000  1.0
  C  C83  1  0.07809000  0.26786000  0.94016000  1.0
  C  C84  1  0.18970000  0.26774000  0.44019000  1.0
  C  C85  1  0.92191000  0.73214000  0.05984000  1.0
  C  C86  1  0.54561000  0.09576000  0.62051000  1.0
  C  C87  1  0.45009000  0.90422000  0.87945000  1.0
  C  C88  1  0.45439000  0.90424000  0.37949000  1.0
  C  C89  1  0.54992000  0.09578000  0.12055000  1.0
  C  C90  1  0.52764000  0.12821000  0.72867000  1.0
  C  C91  1  0.39954000  0.87193000  0.77134000  1.0
  C  C92  1  0.47236000  0.87179000  0.27133000  1.0
  C  C93  1  0.60047000  0.12808000  0.22866000  1.0
  C  C94  1  0.23855000  0.00013000  0.75003000  1.0
  C  C95  1  0.76145000  0.99987000  0.24997000  1.0
  S  S96  1  0.96510000  0.77783000  0.48823000  1.0
  S  S97  1  0.18726000  0.22226000  0.01184000  1.0
  S  S98  1  0.03489000  0.22216000  0.51177000  1.0
  S  S99  1  0.81274000  0.77774000  0.98816000  1.0
  S  S100  1  0.73850000  0.86456000  0.59799000  1.0
  S  S101  1  0.87403000  0.13552000  0.90191000  1.0
  S  S102  1  0.26149000  0.13543000  0.40201000  1.0
  S  S103  1  0.12597000  0.86447000  0.09810000  1.0
  S  S104  1  0.06890000  0.84710000  0.77653000  1.0
  S  S105  1  0.22184000  0.15314000  0.72345000  1.0
  S  S106  1  0.93110000  0.15290000  0.22348000  1.0
  S  S107  1  0.77815000  0.84686000  0.27655000  1.0
  N  N108  1  0.74209000  0.59377000  0.58244000  1.0
  N  N109  1  0.14834000  0.40636000  0.91753000  1.0
  N  N110  1  0.25791000  0.40623000  0.41756000  1.0
  N  N111  1  0.85165000  0.59363000  0.08247000  1.0
  N  N112  1  0.38043000  0.00012000  0.75005000  1.0
  N  N113  1  0.61956000  0.99988000  0.24995000  1.0
