# generated using pymatgen
data_CdH20C20(NO4)2
_symmetry_space_group_name_H-M   'P 1'
_cell_length_a   5.66854000
_cell_length_b   7.97728000
_cell_length_c   11.56780000
_cell_angle_alpha   107.89400000
_cell_angle_beta   98.63430000
_cell_angle_gamma   98.73480000
_symmetry_Int_Tables_number   1
_chemical_formula_structural   CdH20C20(NO4)2
_chemical_formula_sum   'Cd1 H20 C20 N2 O8'
_cell_volume   481.12473125
_cell_formula_units_Z   1
loop_
 _symmetry_equiv_pos_site_id
 _symmetry_equiv_pos_as_xyz
  1  'x, y, z'
loop_
 _atom_site_type_symbol
 _atom_site_label
 _atom_site_symmetry_multiplicity
 _atom_site_fract_x
 _atom_site_fract_y
 _atom_site_fract_z
 _atom_site_occupancy
  Cd  Cd0  1  0.00000000  0.00000000  0.00000000  1.0
  H  H1  1  0.53105000  0.84834000  0.05864000  1.0
  H  H2  1  0.46895000  0.15166000  0.94136000  1.0
  H  H3  1  0.74998000  0.73972000  0.05419000  1.0
  H  H4  1  0.25002000  0.26027000  0.94581000  1.0
  H  H5  1  0.31326000  0.49646000  0.66051000  1.0
  H  H6  1  0.68676000  0.50353000  0.33951000  1.0
  H  H7  1  0.30135000  0.70325000  0.86522000  1.0
  H  H8  1  0.69865000  0.29673000  0.13479000  1.0
  H  H9  1  0.68530000  0.85630000  0.72170000  1.0
  H  H10  1  0.31472000  0.14370000  0.27831000  1.0
  H  H11  1  0.67144000  0.65764000  0.50938000  1.0
  H  H12  1  0.32861000  0.34237000  0.49063000  1.0
  H  H13  1  0.88051000  0.04138000  0.42196000  1.0
  H  H14  1  0.11946000  0.95863000  0.57803000  1.0
  H  H15  1  0.14336000  0.75588000  0.37217000  1.0
  H  H16  1  0.85662000  0.24413000  0.62783000  1.0
  H  H17  1  0.26872000  0.55525000  0.24062000  1.0
  H  H18  1  0.73128000  0.44475000  0.75938000  1.0
  H  H19  1  0.43066000  0.55407000  0.12001000  1.0
  H  H20  1  0.56933000  0.44594000  0.87999000  1.0
  C  C21  1  0.17200000  0.57510000  0.66731000  1.0
  C  C22  1  0.82801000  0.42489000  0.33270000  1.0
  C  C23  1  0.16495000  0.69033000  0.78405000  1.0
  C  C24  1  0.83504000  0.30965000  0.21596000  1.0
  C  C25  1  0.82124000  0.77366000  0.70366000  1.0
  C  C26  1  0.17877000  0.22635000  0.29634000  1.0
  C  C27  1  0.81550000  0.66086000  0.58422000  1.0
  C  C28  1  0.18453000  0.33916000  0.41578000  1.0
  C  C29  1  0.99682000  0.55921000  0.56296000  1.0
  C  C30  1  0.00321000  0.44080000  0.43704000  1.0
  C  C31  1  0.16161000  0.71903000  0.13164000  1.0
  C  C32  1  0.83839000  0.28097000  0.86836000  1.0
  C  C33  1  0.71338000  0.02438000  0.45654000  1.0
  C  C34  1  0.28660000  0.97563000  0.54346000  1.0
  C  C35  1  0.51802000  0.88383000  0.38386000  1.0
  C  C36  1  0.48196000  0.11617000  0.61614000  1.0
  C  C37  1  0.30167000  0.86070000  0.42759000  1.0
  C  C38  1  0.69831000  0.13930000  0.57241000  1.0
  C  C39  1  0.35478000  0.63971000  0.19291000  1.0
  C  C40  1  0.64521000  0.36030000  0.80709000  1.0
  N  N41  1  0.99414000  0.79016000  0.80231000  1.0
  N  N42  1  0.00585000  0.20983000  0.19770000  1.0
  O  O43  1  0.24520000  0.85509000  0.10117000  1.0
  O  O44  1  0.75479000  0.14491000  0.89883000  1.0
  O  O45  1  0.94150000  0.64491000  0.11456000  1.0
  O  O46  1  0.05849000  0.35509000  0.88544000  1.0
  O  O47  1  0.55875000  0.77356000  0.27444000  1.0
  O  O48  1  0.44125000  0.22644000  0.72556000  1.0
  O  O49  1  0.65405000  0.80721000  0.00957000  1.0
  O  O50  1  0.34595000  0.19279000  0.99043000  1.0
