# generated using pymatgen
data_Mn3H28C48N6(O3F2)4
_symmetry_space_group_name_H-M   'P 1'
_cell_length_a   10.79840000
_cell_length_b   14.53736761
_cell_length_c   18.25850000
_cell_angle_alpha   89.99988701
_cell_angle_beta   89.99960000
_cell_angle_gamma   109.68969548
_symmetry_Int_Tables_number   1
_chemical_formula_structural   Mn3H28C48N6(O3F2)4
_chemical_formula_sum   'Mn6 H56 C96 N12 O24 F16'
_cell_volume   2698.64013397
_cell_formula_units_Z   2
loop_
 _symmetry_equiv_pos_site_id
 _symmetry_equiv_pos_as_xyz
  1  'x, y, z'
loop_
 _atom_site_type_symbol
 _atom_site_label
 _atom_site_symmetry_multiplicity
 _atom_site_fract_x
 _atom_site_fract_y
 _atom_site_fract_z
 _atom_site_occupancy
  Mn  Mn0  1  0.82918000  0.83019000  0.98953000  1.0
  Mn  Mn1  1  0.17080000  0.66980000  0.48953000  1.0
  Mn  Mn2  1  0.17081000  0.16982000  0.01046000  1.0
  Mn  Mn3  1  0.82919000  0.33018000  0.51046000  1.0
  Mn  Mn4  1  0.49999000  0.00000000  0.49999000  1.0
  Mn  Mn5  1  0.50001000  0.50000000  0.00001000  1.0
  H  H6  1  0.97244000  0.71273000  0.10339000  1.0
  H  H7  1  0.02756000  0.78727000  0.60339000  1.0
  H  H8  1  0.02755000  0.28727000  0.89661000  1.0
  H  H9  1  0.97244000  0.21273000  0.39661000  1.0
  H  H10  1  0.88646000  0.55744000  0.42628000  1.0
  H  H11  1  0.11352000  0.94257000  0.92628000  1.0
  H  H12  1  0.11354000  0.44256000  0.57372000  1.0
  H  H13  1  0.88647000  0.05743000  0.07372000  1.0
  H  H14  1  0.76382000  0.53839000  0.17833000  1.0
  H  H15  1  0.23617000  0.96161000  0.67833000  1.0
  H  H16  1  0.23619000  0.46161000  0.82167000  1.0
  H  H17  1  0.76383000  0.03839000  0.32167000  1.0
  H  H18  1  0.86898000  0.06252000  0.70747000  1.0
  H  H19  1  0.13100000  0.43748000  0.20746000  1.0
  H  H20  1  0.13102000  0.93749000  0.29253000  1.0
  H  H21  1  0.86899000  0.56251000  0.79253000  1.0
  H  H22  1  0.11575000  0.66501000  0.66212000  1.0
  H  H23  1  0.88424000  0.83498000  0.16211000  1.0
  H  H24  1  0.88424000  0.33497000  0.33788000  1.0
  H  H25  1  0.11577000  0.16503000  0.83788000  1.0
  H  H26  1  0.60335000  0.76244000  0.79150000  1.0
  H  H27  1  0.39663000  0.73754000  0.29150000  1.0
  H  H28  1  0.39664000  0.23758000  0.20851000  1.0
  H  H29  1  0.60338000  0.26244000  0.70851000  1.0
  H  H30  1  0.23608000  0.68562000  0.78183000  1.0
  H  H31  1  0.76391000  0.81437000  0.28182000  1.0
  H  H32  1  0.76392000  0.31438000  0.21817000  1.0
  H  H33  1  0.23609000  0.18562000  0.71817000  1.0
  H  H34  1  0.36498000  0.62246000  0.87436000  1.0
  H  H35  1  0.63500000  0.87754000  0.37435000  1.0
  H  H36  1  0.63502000  0.37755000  0.12564000  1.0
  H  H37  1  0.36500000  0.12245000  0.62565000  1.0
  H  H38  1  0.21861000  0.75526000  0.32788000  1.0
  H  H39  1  0.78138000  0.74474000  0.82787000  1.0
  H  H40  1  0.78139000  0.24473000  0.67212000  1.0
  H  H41  1  0.21863000  0.25527000  0.17213000  1.0
  H  H42  1  0.90636000  0.10365000  0.82170000  1.0
  H  H43  1  0.09363000  0.39635000  0.32169000  1.0
  H  H44  1  0.09365000  0.89635000  0.17830000  1.0
  H  H45  1  0.90637000  0.60365000  0.67830000  1.0
  H  H46  1  0.39720000  0.91004000  0.65825000  1.0
  H  H47  1  0.60278000  0.58994000  0.15824000  1.0
  H  H48  1  0.60280000  0.08994000  0.34176000  1.0
  H  H49  1  0.39721000  0.41006000  0.84176000  1.0
  H  H50  1  0.66751000  0.92902000  0.87112000  1.0
  H  H51  1  0.33248000  0.57099000  0.37111000  1.0
  H  H52  1  0.33250000  0.07099000  0.12888000  1.0
  H  H53  1  0.66753000  0.42902000  0.62888000  1.0
  H  H54  1  0.77277000  0.06663000  0.58463000  1.0
  H  H55  1  0.22722000  0.43336000  0.08462000  1.0
  H  H56  1  0.22723000  0.93336000  0.41537000  1.0
  H  H57  1  0.77278000  0.56664000  0.91537000  1.0
  H  H58  1  0.45289000  0.68658000  0.54485000  1.0
  H  H59  1  0.54710000  0.81341000  0.04484000  1.0
  H  H60  1  0.54712000  0.31343000  0.45515000  1.0
  H  H61  1  0.45288000  0.18658000  0.95516000  1.0
  C  C62  1  0.79323000  0.62245000  0.04826000  1.0
  C  C63  1  0.20676000  0.87754000  0.54826000  1.0
  C  C64  1  0.20677000  0.37755000  0.95174000  1.0
  C  C65  1  0.79323000  0.12245000  0.45175000  1.0
  C  C66  1  0.89554000  0.04824000  0.93314000  1.0
  C  C67  1  0.10445000  0.45176000  0.43313000  1.0
  C  C68  1  0.10446000  0.95176000  0.06686000  1.0
  C  C69  1  0.89555000  0.54824000  0.56686000  1.0
  C  C70  1  0.55054000  0.70298000  0.92939000  1.0
  C  C71  1  0.44944000  0.79701000  0.42939000  1.0
  C  C72  1  0.44945000  0.29703000  0.07061000  1.0
  C  C73  1  0.55056000  0.20297000  0.57061000  1.0
  C  C74  1  0.42179000  0.69664000  0.73128000  1.0
  C  C75  1  0.57820000  0.80335000  0.23127000  1.0
  C  C76  1  0.57821000  0.30337000  0.26873000  1.0
  C  C77  1  0.42180000  0.19664000  0.76873000  1.0
  C  C78  1  0.92793000  0.62353000  0.24411000  1.0
  C  C79  1  0.07207000  0.87648000  0.74411000  1.0
  C  C80  1  0.07206000  0.37647000  0.75589000  1.0
  C  C81  1  0.92794000  0.12353000  0.25589000  1.0
  C  C82  1  0.88528000  0.64866000  0.11153000  1.0
  C  C83  1  0.11472000  0.85134000  0.61153000  1.0
  C  C84  1  0.11473000  0.35135000  0.88847000  1.0
  C  C85  1  0.88527000  0.14865000  0.38847000  1.0
  C  C86  1  0.93386000  0.59601000  0.37687000  1.0
  C  C87  1  0.06612000  0.90399000  0.87687000  1.0
  C  C88  1  0.06615000  0.40399000  0.62313000  1.0
  C  C89  1  0.93387000  0.09601000  0.12313000  1.0
  C  C90  1  0.05736000  0.68798000  0.25403000  1.0
  C  C91  1  0.94264000  0.81203000  0.75403000  1.0
  C  C92  1  0.94265000  0.31203000  0.74597000  1.0
  C  C93  1  0.05736000  0.18797000  0.24597000  1.0
  C  C94  1  0.85554000  0.60030000  0.17584000  1.0
  C  C95  1  0.14447000  0.89971000  0.67584000  1.0
  C  C96  1  0.14446000  0.39970000  0.82415000  1.0
  C  C97  1  0.85554000  0.10029000  0.32416000  1.0
  C  C98  1  0.68163000  0.98628000  0.75917000  1.0
  C  C99  1  0.31835000  0.51373000  0.25916000  1.0
  C  C100  1  0.31837000  0.01373000  0.24083000  1.0
  C  C101  1  0.68165000  0.48628000  0.74084000  1.0
  C  C102  1  0.76318000  0.02949000  0.69956000  1.0
  C  C103  1  0.23681000  0.47051000  0.19955000  1.0
  C  C104  1  0.23683000  0.97052000  0.30045000  1.0
  C  C105  1  0.76319000  0.52949000  0.80045000  1.0
  C  C106  1  0.54791000  0.94438000  0.74156000  1.0
  C  C107  1  0.45207000  0.55562000  0.24155000  1.0
  C  C108  1  0.45210000  0.05563000  0.25844000  1.0
  C  C109  1  0.54792000  0.44438000  0.75845000  1.0
  C  C110  1  0.21993000  0.67405000  0.66436000  1.0
  C  C111  1  0.78006000  0.82594000  0.16435000  1.0
  C  C112  1  0.78006000  0.32594000  0.33564000  1.0
  C  C113  1  0.21994000  0.17406000  0.83564000  1.0
  C  C114  1  0.50173000  0.71380000  0.79752000  1.0
  C  C115  1  0.49825000  0.78618000  0.29751000  1.0
  C  C116  1  0.49826000  0.28621000  0.20248000  1.0
  C  C117  1  0.50175000  0.21380000  0.70249000  1.0
  C  C118  1  0.28688000  0.68438000  0.73044000  1.0
  C  C119  1  0.71311000  0.81561000  0.23043000  1.0
  C  C120  1  0.71311000  0.31562000  0.26956000  1.0
  C  C121  1  0.28690000  0.18439000  0.76956000  1.0
  C  C122  1  0.46194000  0.67658000  0.86442000  1.0
  C  C123  1  0.53804000  0.82341000  0.36441000  1.0
  C  C124  1  0.53805000  0.32343000  0.13559000  1.0
  C  C125  1  0.46197000  0.17657000  0.63559000  1.0
  C  C126  1  0.11867000  0.70451000  0.32183000  1.0
  C  C127  1  0.88131000  0.79549000  0.82183000  1.0
  C  C128  1  0.88134000  0.29549000  0.67817000  1.0
  C  C129  1  0.11868000  0.20451000  0.17817000  1.0
  C  C130  1  0.86912000  0.58024000  0.31013000  1.0
  C  C131  1  0.13087000  0.91977000  0.81014000  1.0
  C  C132  1  0.13088000  0.41977000  0.68987000  1.0
  C  C133  1  0.86913000  0.08023000  0.18987000  1.0
  C  C134  1  0.84571000  0.04584000  0.85733000  1.0
  C  C135  1  0.15428000  0.45416000  0.35732000  1.0
  C  C136  1  0.15430000  0.95417000  0.14267000  1.0
  C  C137  1  0.84572000  0.54583000  0.64267000  1.0
  C  C138  1  0.50118000  0.94453000  0.67075000  1.0
  C  C139  1  0.49882000  0.55547000  0.17073000  1.0
  C  C140  1  0.49883000  0.05547000  0.32926000  1.0
  C  C141  1  0.50117000  0.44453000  0.82926000  1.0
  C  C142  1  0.72958000  0.98366000  0.83350000  1.0
  C  C143  1  0.27041000  0.51635000  0.33349000  1.0
  C  C144  1  0.27042000  0.01635000  0.16650000  1.0
  C  C145  1  0.72959000  0.48365000  0.66650000  1.0
  C  C146  1  0.71085000  0.02994000  0.63025000  1.0
  C  C147  1  0.28914000  0.47006000  0.13024000  1.0
  C  C148  1  0.28915000  0.97006000  0.36975000  1.0
  C  C149  1  0.71086000  0.52994000  0.86975000  1.0
  C  C150  1  0.40632000  0.68583000  0.59781000  1.0
  C  C151  1  0.59367000  0.81416000  0.09780000  1.0
  C  C152  1  0.59369000  0.31418000  0.40220000  1.0
  C  C153  1  0.40632000  0.18583000  0.90220000  1.0
  C  C154  1  0.47837000  0.69733000  0.66208000  1.0
  C  C155  1  0.52163000  0.80266000  0.16208000  1.0
  C  C156  1  0.52165000  0.30269000  0.33792000  1.0
  C  C157  1  0.47836000  0.19733000  0.83792000  1.0
  N  N158  1  0.27781000  0.67491000  0.59878000  1.0
  N  N159  1  0.72220000  0.82509000  0.09877000  1.0
  N  N160  1  0.72220000  0.32509000  0.40122000  1.0
  N  N161  1  0.27780000  0.17491000  0.90122000  1.0
  N  N162  1  0.05807000  0.65796000  0.38224000  1.0
  N  N163  1  0.94192000  0.84205000  0.88224000  1.0
  N  N164  1  0.94194000  0.34204000  0.61776000  1.0
  N  N165  1  0.05807000  0.15795000  0.11777000  1.0
  N  N166  1  0.58156000  0.98806000  0.61542000  1.0
  N  N167  1  0.41843000  0.51193000  0.11542000  1.0
  N  N168  1  0.41844000  0.01193000  0.38458000  1.0
  N  N169  1  0.58156000  0.48807000  0.88458000  1.0
  O  O170  1  0.84125000  0.97789000  0.97710000  1.0
  O  O171  1  0.15873000  0.52211000  0.47709000  1.0
  O  O172  1  0.15875000  0.02212000  0.02290000  1.0
  O  O173  1  0.84126000  0.47788000  0.52290000  1.0
  O  O174  1  0.52017000  0.64689000  0.98501000  1.0
  O  O175  1  0.47982000  0.85310000  0.48501000  1.0
  O  O176  1  0.47982000  0.35311000  0.01499000  1.0
  O  O177  1  0.52017000  0.14689000  0.51499000  1.0
  O  O178  1  0.81955000  0.68324000  0.99497000  1.0
  O  O179  1  0.18043000  0.81675000  0.49497000  1.0
  O  O180  1  0.18044000  0.31676000  0.00503000  1.0
  O  O181  1  0.81956000  0.18323000  0.50503000  1.0
  O  O182  1  0.99075000  0.12555000  0.95010000  1.0
  O  O183  1  0.00924000  0.37444000  0.45009000  1.0
  O  O184  1  0.00925000  0.87445000  0.04990000  1.0
  O  O185  1  0.99075000  0.62555000  0.54990000  1.0
  O  O186  1  0.65003000  0.78167000  0.92647000  1.0
  O  O187  1  0.34995000  0.71832000  0.42647000  1.0
  O  O188  1  0.34996000  0.21834000  0.07354000  1.0
  O  O189  1  0.65004000  0.28166000  0.57353000  1.0
  O  O190  1  0.69513000  0.54321000  0.05020000  1.0
  O  O191  1  0.30487000  0.95677000  0.55020000  1.0
  O  O192  1  0.30488000  0.45678000  0.94980000  1.0
  O  O193  1  0.69512000  0.04322000  0.44980000  1.0
  F  F194  1  0.46012000  0.90293000  0.79552000  1.0
  F  F195  1  0.53987000  0.59708000  0.29551000  1.0
  F  F196  1  0.53989000  0.09709000  0.20448000  1.0
  F  F197  1  0.46012000  0.40290000  0.70449000  1.0
  F  F198  1  0.12650000  0.73577000  0.19525000  1.0
  F  F199  1  0.87349000  0.76424000  0.69525000  1.0
  F  F200  1  0.87350000  0.26424000  0.80475000  1.0
  F  F201  1  0.12651000  0.23577000  0.30475000  1.0
  F  F202  1  0.60832000  0.70911000  0.65728000  1.0
  F  F203  1  0.39166000  0.79086000  0.15728000  1.0
  F  F204  1  0.39168000  0.29091000  0.34272000  1.0
  F  F205  1  0.60834000  0.20912000  0.84273000  1.0
  F  F206  1  0.74191000  0.52055000  0.30842000  1.0
  F  F207  1  0.25807000  0.97945000  0.80842000  1.0
  F  F208  1  0.25809000  0.47945000  0.69158000  1.0
  F  F209  1  0.74193000  0.02055000  0.19158000  1.0
