# generated using pymatgen
data_CdH12C18SN2O7
_symmetry_space_group_name_H-M   'P 1'
_cell_length_a   7.73153000
_cell_length_b   9.09246000
_cell_length_c   13.06470000
_cell_angle_alpha   74.69620000
_cell_angle_beta   88.28370000
_cell_angle_gamma   74.63580000
_symmetry_Int_Tables_number   1
_chemical_formula_structural   CdH12C18SN2O7
_chemical_formula_sum   'Cd2 H24 C36 S2 N4 O14'
_cell_volume   853.41354390
_cell_formula_units_Z   2
loop_
 _symmetry_equiv_pos_site_id
 _symmetry_equiv_pos_as_xyz
  1  'x, y, z'
loop_
 _atom_site_type_symbol
 _atom_site_label
 _atom_site_symmetry_multiplicity
 _atom_site_fract_x
 _atom_site_fract_y
 _atom_site_fract_z
 _atom_site_occupancy
  Cd  Cd0  1  0.98996000  0.94020000  0.36967000  1.0
  Cd  Cd1  1  0.01004000  0.05980000  0.63033000  1.0
  H  H2  1  0.14998000  0.46438000  0.62874000  1.0
  H  H3  1  0.85002000  0.53562000  0.37125000  1.0
  H  H4  1  0.46243000  0.40814000  0.35753000  1.0
  H  H5  1  0.53758000  0.59186000  0.64248000  1.0
  H  H6  1  0.57084000  0.03611000  0.64929000  1.0
  H  H7  1  0.42916000  0.96389000  0.35071000  1.0
  H  H8  1  0.33484000  0.70622000  0.80101000  1.0
  H  H9  1  0.66516000  0.29378000  0.19899000  1.0
  H  H10  1  0.23250000  0.47336000  0.90657000  1.0
  H  H11  1  0.76750000  0.52665000  0.09343000  1.0
  H  H12  1  0.28495000  0.63294000  0.18826000  1.0
  H  H13  1  0.71504000  0.36706000  0.81174000  1.0
  H  H14  1  0.39327000  0.85111000  0.07110000  1.0
  H  H15  1  0.60673000  0.14889000  0.92890000  1.0
  H  H16  1  0.22597000  0.25773000  0.00776000  1.0
  H  H17  1  0.77403000  0.74227000  0.99224000  1.0
  H  H18  1  0.13011000  0.03580000  0.12977000  1.0
  H  H19  1  0.86989000  0.96421000  0.87023000  1.0
  H  H20  1  0.03727000  0.26484000  0.36998000  1.0
  H  H21  1  0.96273000  0.73516000  0.63002000  1.0
  H  H22  1  0.12456000  0.49769000  0.25862000  1.0
  H  H23  1  0.87544000  0.50231000  0.74138000  1.0
  H  H24  1  0.40466000  0.88060000  0.88844000  1.0
  H  H25  1  0.59534000  0.11940000  0.11156000  1.0
  C  C26  1  0.35267000  0.24207000  0.64895000  1.0
  C  C27  1  0.64733000  0.75793000  0.35105000  1.0
  C  C28  1  0.25440000  0.39208000  0.59167000  1.0
  C  C29  1  0.74560000  0.60792000  0.40833000  1.0
  C  C30  1  0.29320000  0.45252000  0.48617000  1.0
  C  C31  1  0.70681000  0.54748000  0.51383000  1.0
  C  C32  1  0.42929000  0.36064000  0.43902000  1.0
  C  C33  1  0.57072000  0.63936000  0.56098000  1.0
  C  C34  1  0.52949000  0.21111000  0.49717000  1.0
  C  C35  1  0.47051000  0.78889000  0.50283000  1.0
  C  C36  1  0.49159000  0.15129000  0.60321000  1.0
  C  C37  1  0.50841000  0.84871000  0.39679000  1.0
  C  C38  1  0.68251000  0.11983000  0.44711000  1.0
  C  C39  1  0.31749000  0.88017000  0.55289000  1.0
  C  C40  1  0.19552000  0.61830000  0.42719000  1.0
  C  C41  1  0.80448000  0.38170000  0.57281000  1.0
  C  C42  1  0.32220000  0.68014000  0.88701000  1.0
  C  C43  1  0.67780000  0.31986000  0.11299000  1.0
  C  C44  1  0.26404000  0.55383000  0.94719000  1.0
  C  C45  1  0.73596000  0.44617000  0.05281000  1.0
  C  C46  1  0.24762000  0.53238000  0.05730000  1.0
  C  C47  1  0.75238000  0.46762000  0.94270000  1.0
  C  C48  1  0.29273000  0.64184000  0.10331000  1.0
  C  C49  1  0.70726000  0.35816000  0.89669000  1.0
  C  C50  1  0.35138000  0.76538000  0.03975000  1.0
  C  C51  1  0.64862000  0.23462000  0.96025000  1.0
  C  C52  1  0.18768000  0.39743000  0.12375000  1.0
  C  C53  1  0.81232000  0.60258000  0.87625000  1.0
  C  C54  1  0.18627000  0.26529000  0.08747000  1.0
  C  C55  1  0.81372000  0.73472000  0.91253000  1.0
  C  C56  1  0.13328000  0.14015000  0.15507000  1.0
  C  C57  1  0.86672000  0.85985000  0.84493000  1.0
  C  C58  1  0.08074000  0.26742000  0.28948000  1.0
  C  C59  1  0.91927000  0.73258000  0.71052000  1.0
  C  C60  1  0.13098000  0.39718000  0.22685000  1.0
  C  C61  1  0.86902000  0.60282000  0.77315000  1.0
  S  S62  1  0.29607000  0.17030000  0.78264000  1.0
  S  S63  1  0.70393000  0.82970000  0.21736000  1.0
  N  N64  1  0.36401000  0.78168000  0.93444000  1.0
  N  N65  1  0.63599000  0.21832000  0.06556000  1.0
  N  N66  1  0.08295000  0.14007000  0.25444000  1.0
  N  N67  1  0.91705000  0.85994000  0.74556000  1.0
  O  O68  1  0.80269000  0.00650000  0.50814000  1.0
  O  O69  1  0.19732000  0.99350000  0.49186000  1.0
  O  O70  1  0.69155000  0.15468000  0.34714000  1.0
  O  O71  1  0.30846000  0.84531000  0.65286000  1.0
  O  O72  1  0.23114000  0.67574000  0.33263000  1.0
  O  O73  1  0.76886000  0.32426000  0.66737000  1.0
  O  O74  1  0.07881000  0.69666000  0.47924000  1.0
  O  O75  1  0.92119000  0.30334000  0.52076000  1.0
  O  O76  1  0.24974000  0.30556000  0.82803000  1.0
  O  O77  1  0.75026000  0.69444000  0.17197000  1.0
  O  O78  1  0.45724000  0.04595000  0.83614000  1.0
  O  O79  1  0.54276000  0.95405000  0.16386000  1.0
  O  O80  1  0.14317000  0.10201000  0.77907000  1.0
  O  O81  1  0.85683000  0.89799000  0.22093000  1.0
