# generated using pymatgen
data_NaDyH16(CO)9
_symmetry_space_group_name_H-M   'P 1'
_cell_length_a   9.04952000
_cell_length_b   9.15015000
_cell_length_c   9.33491000
_cell_angle_alpha   110.95600000
_cell_angle_beta   99.65390000
_cell_angle_gamma   95.13440000
_symmetry_Int_Tables_number   1
_chemical_formula_structural   NaDyH16(CO)9
_chemical_formula_sum   'Na2 Dy2 H32 C18 O18'
_cell_volume   702.18051212
_cell_formula_units_Z   2
loop_
 _symmetry_equiv_pos_site_id
 _symmetry_equiv_pos_as_xyz
  1  'x, y, z'
loop_
 _atom_site_type_symbol
 _atom_site_label
 _atom_site_symmetry_multiplicity
 _atom_site_fract_x
 _atom_site_fract_y
 _atom_site_fract_z
 _atom_site_occupancy
  Na  Na0  1  0.50000000  0.00000000  0.50000000  1.0
  Na  Na1  1  0.00000000  0.49999000  0.49999000  1.0
  Dy  Dy2  1  0.12874000  0.84115000  0.44310000  1.0
  Dy  Dy3  1  0.87126000  0.15884000  0.55690000  1.0
  H  H4  1  0.53643000  0.86570000  0.86623000  1.0
  H  H5  1  0.46356000  0.13429000  0.13378000  1.0
  H  H6  1  0.44898000  0.66309000  0.80018000  1.0
  H  H7  1  0.55101000  0.33690000  0.19982000  1.0
  H  H8  1  0.37000000  0.81413000  0.92876000  1.0
  H  H9  1  0.62998000  0.18586000  0.07123000  1.0
  H  H10  1  0.87847000  0.04353000  0.06893000  1.0
  H  H11  1  0.12154000  0.95648000  0.93109000  1.0
  H  H12  1  0.72595000  0.91843000  0.08559000  1.0
  H  H13  1  0.27405000  0.08159000  0.91441000  1.0
  H  H14  1  0.84681000  0.83569000  0.95334000  1.0
  H  H15  1  0.15318000  0.16432000  0.04666000  1.0
  H  H16  1  0.54904000  0.68836000  0.52846000  1.0
  H  H17  1  0.45096000  0.31165000  0.47154000  1.0
  H  H18  1  0.66902000  0.54021000  0.47035000  1.0
  H  H19  1  0.33097000  0.45979000  0.52966000  1.0
  H  H20  1  0.69364000  0.66477000  0.66934000  1.0
  H  H21  1  0.30635000  0.33524000  0.33067000  1.0
  H  H22  1  0.50536000  0.36933000  0.95373000  1.0
  H  H23  1  0.49465000  0.63068000  0.04627000  1.0
  H  H24  1  0.39971000  0.39595000  0.79178000  1.0
  H  H25  1  0.60030000  0.60406000  0.20822000  1.0
  H  H26  1  0.43112000  0.20142000  0.77516000  1.0
  H  H27  1  0.56889000  0.79859000  0.22484000  1.0
  H  H28  1  0.14764000  0.52564000  0.23182000  1.0
  H  H29  1  0.85236000  0.47436000  0.76817000  1.0
  H  H30  1  0.92008000  0.36131000  0.09053000  1.0
  H  H31  1  0.07993000  0.63868000  0.90946000  1.0
  H  H32  1  0.90448000  0.55141000  0.08207000  1.0
  H  H33  1  0.09553000  0.44858000  0.91793000  1.0
  H  H34  1  0.82159000  0.49396000  0.21847000  1.0
  H  H35  1  0.17842000  0.50604000  0.78151000  1.0
  C  C36  1  0.32858000  0.80358000  0.69299000  1.0
  C  C37  1  0.67142000  0.19641000  0.30700000  1.0
  C  C38  1  0.42807000  0.78567000  0.83000000  1.0
  C  C39  1  0.57192000  0.21433000  0.17000000  1.0
  C  C40  1  0.94544000  0.89960000  0.19733000  1.0
  C  C41  1  0.05455000  0.10039000  0.80265000  1.0
  C  C42  1  0.84240000  0.92479000  0.06730000  1.0
  C  C43  1  0.15761000  0.07522000  0.93271000  1.0
  C  C44  1  0.77786000  0.77996000  0.52907000  1.0
  C  C45  1  0.22215000  0.22004000  0.47094000  1.0
  C  C46  1  0.66410000  0.66108000  0.54867000  1.0
  C  C47  1  0.33590000  0.33893000  0.45134000  1.0
  C  C48  1  0.62684000  0.35540000  0.77138000  1.0
  C  C49  1  0.37316000  0.64460000  0.22862000  1.0
  C  C50  1  0.48227000  0.32670000  0.82539000  1.0
  C  C51  1  0.51773000  0.67332000  0.17461000  1.0
  C  C52  1  0.91792000  0.48620000  0.16036000  1.0
  C  C53  1  0.08208000  0.51379000  0.83963000  1.0
  O  O54  1  0.20784000  0.70286000  0.61654000  1.0
  O  O55  1  0.79216000  0.29714000  0.38345000  1.0
  O  O56  1  0.36310000  0.92070000  0.65496000  1.0
  O  O57  1  0.63691000  0.07929000  0.34503000  1.0
  O  O58  1  0.05134000  0.81905000  0.17082000  1.0
  O  O59  1  0.94865000  0.18094000  0.82918000  1.0
  O  O60  1  0.92497000  0.96025000  0.33924000  1.0
  O  O61  1  0.07502000  0.03975000  0.66078000  1.0
  O  O62  1  0.74520000  0.91777000  0.55022000  1.0
  O  O63  1  0.25480000  0.08222000  0.44979000  1.0
  O  O64  1  0.90147000  0.73501000  0.49471000  1.0
  O  O65  1  0.09852000  0.26499000  0.50530000  1.0
  O  O66  1  0.66206000  0.23722000  0.66509000  1.0
  O  O67  1  0.33794000  0.76278000  0.33491000  1.0
  O  O68  1  0.70522000  0.49303000  0.83089000  1.0
  O  O69  1  0.29478000  0.50698000  0.16911000  1.0
  O  O70  1  0.05490000  0.55357000  0.28123000  1.0
  O  O71  1  0.94510000  0.44643000  0.71876000  1.0
