# generated using pymatgen
data_CuH6C6Br2N
_symmetry_space_group_name_H-M   'P 1'
_cell_length_a   7.26797000
_cell_length_b   10.78360000
_cell_length_c   10.78360000
_cell_angle_alpha   76.49810000
_cell_angle_beta   74.58290000
_cell_angle_gamma   74.58250000
_symmetry_Int_Tables_number   1
_chemical_formula_structural   CuH6C6Br2N
_chemical_formula_sum   'Cu4 H24 C24 Br8 N4'
_cell_volume   773.28553536
_cell_formula_units_Z   4
loop_
 _symmetry_equiv_pos_site_id
 _symmetry_equiv_pos_as_xyz
  1  'x, y, z'
loop_
 _atom_site_type_symbol
 _atom_site_label
 _atom_site_symmetry_multiplicity
 _atom_site_fract_x
 _atom_site_fract_y
 _atom_site_fract_z
 _atom_site_occupancy
  Cu  Cu0  1  0.25000000  0.57916000  0.42084000  1.0
  Cu  Cu1  1  0.75000000  0.42086000  0.57914000  1.0
  Cu  Cu2  1  0.25000000  0.30662000  0.69338000  1.0
  Cu  Cu3  1  0.75000000  0.69337000  0.30663000  1.0
  H  H4  1  0.14952000  0.00212000  0.12047000  1.0
  H  H5  1  0.64952000  0.12048000  0.00212000  1.0
  H  H6  1  0.85048000  0.99788000  0.87952000  1.0
  H  H7  1  0.35047000  0.87952000  0.99789000  1.0
  H  H8  1  0.77641000  0.38605000  0.13104000  1.0
  H  H9  1  0.27641000  0.13104000  0.38604000  1.0
  H  H10  1  0.22359000  0.61396000  0.86895000  1.0
  H  H11  1  0.72358000  0.86897000  0.61395000  1.0
  H  H12  1  0.92197000  0.44642000  0.89445000  1.0
  H  H13  1  0.42196000  0.89445000  0.44643000  1.0
  H  H14  1  0.07803000  0.55357000  0.10555000  1.0
  H  H15  1  0.57802000  0.10556000  0.55358000  1.0
  H  H16  1  0.93820000  0.04518000  0.32292000  1.0
  H  H17  1  0.43822000  0.32291000  0.04517000  1.0
  H  H18  1  0.06178000  0.95482000  0.67709000  1.0
  H  H19  1  0.56181000  0.67708000  0.95482000  1.0
  H  H20  1  0.71759000  0.16528000  0.31097000  1.0
  H  H21  1  0.21760000  0.31097000  0.16527000  1.0
  H  H22  1  0.28240000  0.83473000  0.68902000  1.0
  H  H23  1  0.78241000  0.68903000  0.83471000  1.0
  H  H24  1  0.91352000  0.20804000  0.34466000  1.0
  H  H25  1  0.41353000  0.34466000  0.20803000  1.0
  H  H26  1  0.08647000  0.79197000  0.65534000  1.0
  H  H27  1  0.58649000  0.65534000  0.79196000  1.0
  C  C28  1  0.09676000  0.10131000  0.07248000  1.0
  C  C29  1  0.59677000  0.07246000  0.10132000  1.0
  C  C30  1  0.90323000  0.89869000  0.92753000  1.0
  C  C31  1  0.40324000  0.92752000  0.89869000  1.0
  C  C32  1  0.17335000  0.14279000  0.94050000  1.0
  C  C33  1  0.67336000  0.94050000  0.14279000  1.0
  C  C34  1  0.82665000  0.85721000  0.05951000  1.0
  C  C35  1  0.32663000  0.05951000  0.85721000  1.0
  C  C36  1  0.95390000  0.18774000  0.14561000  1.0
  C  C37  1  0.45390000  0.14561000  0.18775000  1.0
  C  C38  1  0.04611000  0.81224000  0.85439000  1.0
  C  C39  1  0.54610000  0.85439000  0.81226000  1.0
  C  C40  1  0.88849000  0.31422000  0.07999000  1.0
  C  C41  1  0.38850000  0.07997000  0.31423000  1.0
  C  C42  1  0.11150000  0.68577000  0.92003000  1.0
  C  C43  1  0.61150000  0.92001000  0.68578000  1.0
  C  C44  1  0.96935000  0.34913000  0.94829000  1.0
  C  C45  1  0.46933000  0.94832000  0.34912000  1.0
  C  C46  1  0.03067000  0.65088000  0.05169000  1.0
  C  C47  1  0.53065000  0.05170000  0.65087000  1.0
  C  C48  1  0.87771000  0.14816000  0.28834000  1.0
  C  C49  1  0.37772000  0.28834000  0.14815000  1.0
  C  C50  1  0.12228000  0.85185000  0.71166000  1.0
  C  C51  1  0.62230000  0.71166000  0.85184000  1.0
  Br  Br52  1  0.06608000  0.53108000  0.64783000  1.0
  Br  Br53  1  0.56607000  0.64784000  0.53108000  1.0
  Br  Br54  1  0.93394000  0.46892000  0.35216000  1.0
  Br  Br55  1  0.43392000  0.35217000  0.46891000  1.0
  Br  Br56  1  0.04741000  0.79381000  0.38948000  1.0
  Br  Br57  1  0.54745000  0.38947000  0.79381000  1.0
  Br  Br58  1  0.95255000  0.20619000  0.61053000  1.0
  Br  Br59  1  0.45262000  0.61053000  0.20619000  1.0
  N  N60  1  0.10998000  0.26648000  0.88023000  1.0
  N  N61  1  0.60997000  0.88022000  0.26649000  1.0
  N  N62  1  0.89002000  0.73351000  0.11977000  1.0
  N  N63  1  0.39002000  0.11977000  0.73351000  1.0
