# generated using pymatgen
data_DyH6C7SO8
_symmetry_space_group_name_H-M   'P 1'
_cell_length_a   9.69036000
_cell_length_b   10.85700000
_cell_length_c   12.41220000
_cell_angle_alpha   105.19300000
_cell_angle_beta   90.00170000
_cell_angle_gamma   116.50300000
_symmetry_Int_Tables_number   1
_chemical_formula_structural   DyH6C7SO8
_chemical_formula_sum   'Dy4 H24 C28 S4 O32'
_cell_volume   1117.39487054
_cell_formula_units_Z   4
loop_
 _symmetry_equiv_pos_site_id
 _symmetry_equiv_pos_as_xyz
  1  'x, y, z'
loop_
 _atom_site_type_symbol
 _atom_site_label
 _atom_site_symmetry_multiplicity
 _atom_site_fract_x
 _atom_site_fract_y
 _atom_site_fract_z
 _atom_site_occupancy
  Dy  Dy0  1  0.97961000  0.99999000  0.25000000  1.0
  Dy  Dy1  1  0.02040000  0.00001000  0.75001000  1.0
  Dy  Dy2  1  0.48191000  0.99996000  0.25002000  1.0
  Dy  Dy3  1  0.51809000  0.00005000  0.74998000  1.0
  H  H4  1  0.51866000  0.28165000  0.40219000  1.0
  H  H5  1  0.23690000  0.71819000  0.09776000  1.0
  H  H6  1  0.48134000  0.71834000  0.59781000  1.0
  H  H7  1  0.76310000  0.28181000  0.90224000  1.0
  H  H8  1  0.34998000  0.16689000  0.41697000  1.0
  H  H9  1  0.18301000  0.83296000  0.08297000  1.0
  H  H10  1  0.65002000  0.83310000  0.58303000  1.0
  H  H11  1  0.81700000  0.16704000  0.91704000  1.0
  H  H12  1  0.67479000  0.95157000  0.40590000  1.0
  H  H13  1  0.72316000  0.04834000  0.09411000  1.0
  H  H14  1  0.32521000  0.04843000  0.59410000  1.0
  H  H15  1  0.27684000  0.95166000  0.90589000  1.0
  H  H16  1  0.62570000  0.05400000  0.49265000  1.0
  H  H17  1  0.57163000  0.94596000  0.00735000  1.0
  H  H18  1  0.37431000  0.94600000  0.50735000  1.0
  H  H19  1  0.42838000  0.05404000  0.99265000  1.0
  H  H20  1  0.76326000  0.58223000  0.09538000  1.0
  H  H21  1  0.18104000  0.41773000  0.40463000  1.0
  H  H22  1  0.23674000  0.41777000  0.90461000  1.0
  H  H23  1  0.81896000  0.58227000  0.59537000  1.0
  H  H24  1  0.62870000  0.30742000  0.09652000  1.0
  H  H25  1  0.32119000  0.69259000  0.40356000  1.0
  H  H26  1  0.37129000  0.69258000  0.90348000  1.0
  H  H27  1  0.67881000  0.30741000  0.59644000  1.0
  C  C28  1  0.55741000  0.59219000  0.15577000  1.0
  C  C29  1  0.96518000  0.40778000  0.34430000  1.0
  C  C30  1  0.44260000  0.40782000  0.84423000  1.0
  C  C31  1  0.03482000  0.59222000  0.65570000  1.0
  C  C32  1  0.64824000  0.52479000  0.11823000  1.0
  C  C33  1  0.12341000  0.47516000  0.38184000  1.0
  C  C34  1  0.35176000  0.47521000  0.88177000  1.0
  C  C35  1  0.87660000  0.52484000  0.61816000  1.0
  C  C36  1  0.57712000  0.38005000  0.11895000  1.0
  C  C37  1  0.19700000  0.61992000  0.38116000  1.0
  C  C38  1  0.42288000  0.61996000  0.88105000  1.0
  C  C39  1  0.80301000  0.38008000  0.61884000  1.0
  C  C40  1  0.43332000  0.33957000  0.15784000  1.0
  C  C41  1  0.09364000  0.66041000  0.34231000  1.0
  C  C42  1  0.56668000  0.66043000  0.84216000  1.0
  C  C43  1  0.90636000  0.33959000  0.65769000  1.0
  C  C44  1  0.59904000  0.74545000  0.17657000  1.0
  C  C45  1  0.85361000  0.25452000  0.32350000  1.0
  C  C46  1  0.40097000  0.25455000  0.82343000  1.0
  C  C47  1  0.14640000  0.74548000  0.67650000  1.0
  C  C48  1  0.33585000  0.20275000  0.18197000  1.0
  C  C49  1  0.13309000  0.79721000  0.31811000  1.0
  C  C50  1  0.66415000  0.79725000  0.81803000  1.0
  C  C51  1  0.86691000  0.20278000  0.68189000  1.0
  C  C52  1  0.91114000  0.94765000  0.49154000  1.0
  C  C53  1  0.96349000  0.05234000  0.00845000  1.0
  C  C54  1  0.08886000  0.05234000  0.50846000  1.0
  C  C55  1  0.03650000  0.94766000  0.99154000  1.0
  S  S56  1  0.38451000  0.47796000  0.19056000  1.0
  S  S57  1  0.90645000  0.52197000  0.30950000  1.0
  S  S58  1  0.61549000  0.52204000  0.80944000  1.0
  S  S59  1  0.09355000  0.47802000  0.69050000  1.0
  O  O60  1  0.73730000  0.83032000  0.16681000  1.0
  O  O61  1  0.90706000  0.16968000  0.33325000  1.0
  O  O62  1  0.26270000  0.16968000  0.83319000  1.0
  O  O63  1  0.09295000  0.83032000  0.66675000  1.0
  O  O64  1  0.49444000  0.78372000  0.20574000  1.0
  O  O65  1  0.71072000  0.21622000  0.29442000  1.0
  O  O66  1  0.50557000  0.21629000  0.79427000  1.0
  O  O67  1  0.28928000  0.78378000  0.70558000  1.0
  O  O68  1  0.38293000  0.10687000  0.15660000  1.0
  O  O69  1  0.27608000  0.89304000  0.34348000  1.0
  O  O70  1  0.61706000  0.89313000  0.84340000  1.0
  O  O71  1  0.72392000  0.10696000  0.65652000  1.0
  O  O72  1  0.21440000  0.18789000  0.22780000  1.0
  O  O73  1  0.02660000  0.81213000  0.27219000  1.0
  O  O74  1  0.78561000  0.81211000  0.77220000  1.0
  O  O75  1  0.97340000  0.18786000  0.72781000  1.0
  O  O76  1  0.83518000  0.91871000  0.39786000  1.0
  O  O77  1  0.91648000  0.08127000  0.10214000  1.0
  O  O78  1  0.16481000  0.08128000  0.60214000  1.0
  O  O79  1  0.08351000  0.91873000  0.89787000  1.0
  O  O80  1  0.85544000  0.90035000  0.57314000  1.0
  O  O81  1  0.95509000  0.09965000  0.92687000  1.0
  O  O82  1  0.14455000  0.09964000  0.42686000  1.0
  O  O83  1  0.04491000  0.90035000  0.07313000  1.0
  O  O84  1  0.45709000  0.18291000  0.40354000  1.0
  O  O85  1  0.27410000  0.81691000  0.09636000  1.0
  O  O86  1  0.54291000  0.81709000  0.59646000  1.0
  O  O87  1  0.72590000  0.18309000  0.90364000  1.0
  O  O88  1  0.60023000  0.99178000  0.41468000  1.0
  O  O89  1  0.60839000  0.00812000  0.08533000  1.0
  O  O90  1  0.39977000  0.00822000  0.58532000  1.0
  O  O91  1  0.39161000  0.99188000  0.91466000  1.0
