# generated using pymatgen
data_H8PbC12N4(O4F)2
_symmetry_space_group_name_H-M   'P 1'
_cell_length_a   4.92864000
_cell_length_b   10.96740000
_cell_length_c   14.79230000
_cell_angle_alpha   99.29360000
_cell_angle_beta   95.34050000
_cell_angle_gamma   101.25800000
_symmetry_Int_Tables_number   1
_chemical_formula_structural   H8PbC12N4(O4F)2
_chemical_formula_sum   'H16 Pb2 C24 N8 O16 F4'
_cell_volume   767.46925921
_cell_formula_units_Z   2
loop_
 _symmetry_equiv_pos_site_id
 _symmetry_equiv_pos_as_xyz
  1  'x, y, z'
loop_
 _atom_site_type_symbol
 _atom_site_label
 _atom_site_symmetry_multiplicity
 _atom_site_fract_x
 _atom_site_fract_y
 _atom_site_fract_z
 _atom_site_occupancy
  H  H0  1  0.27724000  0.49409000  0.95722000  1.0
  H  H1  1  0.72275000  0.50590000  0.04278000  1.0
  H  H2  1  0.16875000  0.03860000  0.44756000  1.0
  H  H3  1  0.83131000  0.96141000  0.55240000  1.0
  H  H4  1  0.84226000  0.82622000  0.79535000  1.0
  H  H5  1  0.15764000  0.17377000  0.20467000  1.0
  H  H6  1  0.67931000  0.66438000  0.78144000  1.0
  H  H7  1  0.32064000  0.33561000  0.21858000  1.0
  H  H8  1  0.28101000  0.90727000  0.88345000  1.0
  H  H9  1  0.71896000  0.09271000  0.11654000  1.0
  H  H10  1  0.63548000  0.60167000  0.23590000  1.0
  H  H11  1  0.36452000  0.39832000  0.76410000  1.0
  H  H12  1  0.46510000  0.68155000  0.31979000  1.0
  H  H13  1  0.53494000  0.31849000  0.68020000  1.0
  H  H14  1  0.99063000  0.71164000  0.17463000  1.0
  H  H15  1  0.00935000  0.28838000  0.82535000  1.0
  Pb  Pb16  1  0.38666000  0.67655000  0.54807000  1.0
  Pb  Pb17  1  0.61294000  0.32348000  0.45200000  1.0
  C  C18  1  0.01646000  0.70162000  0.69933000  1.0
  C  C19  1  0.98352000  0.29839000  0.30071000  1.0
  C  C20  1  0.88080000  0.73010000  0.78716000  1.0
  C  C21  1  0.11914000  0.26990000  0.21286000  1.0
  C  C22  1  0.05305000  0.59702000  0.88618000  1.0
  C  C23  1  0.94697000  0.40297000  0.11382000  1.0
  C  C24  1  0.50000000  0.68013000  0.98910000  1.0
  C  C25  1  0.50006000  0.31985000  0.01087000  1.0
  C  C26  1  0.49120000  0.80165000  0.96543000  1.0
  C  C27  1  0.50888000  0.19832000  0.03452000  1.0
  C  C28  1  0.28129000  0.81702000  0.90518000  1.0
  C  C29  1  0.71873000  0.18296000  0.09480000  1.0
  C  C30  1  0.78923000  0.59737000  0.37737000  1.0
  C  C31  1  0.21069000  0.40265000  0.62266000  1.0
  C  C32  1  0.66765000  0.66325000  0.30393000  1.0
  C  C33  1  0.33238000  0.33675000  0.69607000  1.0
  C  C34  1  0.91169000  0.87231000  0.38086000  1.0
  C  C35  1  0.08847000  0.12766000  0.61915000  1.0
  C  C36  1  0.31947000  0.98864000  0.32221000  1.0
  C  C37  1  0.68054000  0.01139000  0.67775000  1.0
  C  C38  1  0.25191000  0.88942000  0.24170000  1.0
  C  C39  1  0.74803000  0.11062000  0.75826000  1.0
  C  C40  1  0.03581000  0.78896000  0.23381000  1.0
  C  C41  1  0.96417000  0.21106000  0.76616000  1.0
  N  N42  1  0.06182000  0.71887000  0.86784000  1.0
  N  N43  1  0.93814000  0.28112000  0.13217000  1.0
  N  N44  1  0.27234000  0.58653000  0.94780000  1.0
  N  N45  1  0.72766000  0.41346000  0.05220000  1.0
  N  N46  1  0.86333000  0.78115000  0.30127000  1.0
  N  N47  1  0.13676000  0.21884000  0.69874000  1.0
  N  N48  1  0.13152000  0.97225000  0.38614000  1.0
  N  N49  1  0.86853000  0.02776000  0.61384000  1.0
  O  O50  1  0.24722000  0.66804000  0.70790000  1.0
  O  O51  1  0.75285000  0.33204000  0.29218000  1.0
  O  O52  1  0.89550000  0.71596000  0.62299000  1.0
  O  O53  1  0.10449000  0.28399000  0.37703000  1.0
  O  O54  1  0.86548000  0.50545000  0.84988000  1.0
  O  O55  1  0.13458000  0.49453000  0.15010000  1.0
  O  O56  1  0.69496000  0.65771000  0.03990000  1.0
  O  O57  1  0.30511000  0.34227000  0.96006000  1.0
  O  O58  1  0.04885000  0.61191000  0.39193000  1.0
  O  O59  1  0.95109000  0.38820000  0.60817000  1.0
  O  O60  1  0.60952000  0.53348000  0.41871000  1.0
  O  O61  1  0.39035000  0.46650000  0.58128000  1.0
  O  O62  1  0.76384000  0.86181000  0.44465000  1.0
  O  O63  1  0.23646000  0.13812000  0.55540000  1.0
  O  O64  1  0.52297000  0.07940000  0.33583000  1.0
  O  O65  1  0.47704000  0.92063000  0.66415000  1.0
  F  F66  1  0.70829000  0.89970000  0.00153000  1.0
  F  F67  1  0.29178000  0.10027000  0.99842000  1.0
  F  F68  1  0.42041000  0.89756000  0.17426000  1.0
  F  F69  1  0.57954000  0.10245000  0.82570000  1.0
