# generated using pymatgen
data_CuH6C6S4I(NO)2
_symmetry_space_group_name_H-M   'P 1'
_cell_length_a   4.16015000
_cell_length_b   16.82700000
_cell_length_c   17.37570000
_cell_angle_alpha   90.00080000
_cell_angle_beta   90.00000000
_cell_angle_gamma   95.29140000
_symmetry_Int_Tables_number   1
_chemical_formula_structural   CuH6C6S4I(NO)2
_chemical_formula_sum   'Cu4 H24 C24 S16 I4 N8 O8'
_cell_volume   1211.16501127
_cell_formula_units_Z   4
loop_
 _symmetry_equiv_pos_site_id
 _symmetry_equiv_pos_as_xyz
  1  'x, y, z'
loop_
 _atom_site_type_symbol
 _atom_site_label
 _atom_site_symmetry_multiplicity
 _atom_site_fract_x
 _atom_site_fract_y
 _atom_site_fract_z
 _atom_site_occupancy
  Cu  Cu0  1  0.13403000  0.87835000  0.91699000  1.0
  Cu  Cu1  1  0.86599000  0.62165000  0.41700000  1.0
  Cu  Cu2  1  0.86599000  0.12165000  0.08301000  1.0
  Cu  Cu3  1  0.13402000  0.37835000  0.58301000  1.0
  H  H4  1  0.71383000  0.73181000  0.94019000  1.0
  H  H5  1  0.28619000  0.76819000  0.44020000  1.0
  H  H6  1  0.28617000  0.26819000  0.05980000  1.0
  H  H7  1  0.71382000  0.23181000  0.55980000  1.0
  H  H8  1  0.89983000  0.95459000  0.78956000  1.0
  H  H9  1  0.10020000  0.54541000  0.28955000  1.0
  H  H10  1  0.10021000  0.04541000  0.21045000  1.0
  H  H11  1  0.89982000  0.45459000  0.71044000  1.0
  H  H12  1  0.56105000  0.57063000  0.11821000  1.0
  H  H13  1  0.43890000  0.92937000  0.61821000  1.0
  H  H14  1  0.43891000  0.42937000  0.88179000  1.0
  H  H15  1  0.56108000  0.07063000  0.38179000  1.0
  H  H16  1  0.89423000  0.54393000  0.06285000  1.0
  H  H17  1  0.10575000  0.95607000  0.56285000  1.0
  H  H18  1  0.10576000  0.45607000  0.93715000  1.0
  H  H19  1  0.89425000  0.04392000  0.43715000  1.0
  H  H20  1  0.98511000  0.17913000  0.70121000  1.0
  H  H21  1  0.01488000  0.32087000  0.20121000  1.0
  H  H22  1  0.01488000  0.82087000  0.29880000  1.0
  H  H23  1  0.98510000  0.67913000  0.79879000  1.0
  H  H24  1  0.30979000  0.13182000  0.65899000  1.0
  H  H25  1  0.69023000  0.36818000  0.15899000  1.0
  H  H26  1  0.69022000  0.86818000  0.34101000  1.0
  H  H27  1  0.30976000  0.63182000  0.84101000  1.0
  C  C28  1  0.98022000  0.73521000  0.04134000  1.0
  C  C29  1  0.01978000  0.76479000  0.54135000  1.0
  C  C30  1  0.01976000  0.26479000  0.95865000  1.0
  C  C31  1  0.98020000  0.23521000  0.45866000  1.0
  C  C32  1  0.75201000  0.59350000  0.07840000  1.0
  C  C33  1  0.24796000  0.90650000  0.57840000  1.0
  C  C34  1  0.24796000  0.40650000  0.92160000  1.0
  C  C35  1  0.75204000  0.09350000  0.42160000  1.0
  C  C36  1  0.61143000  0.62635000  0.00606000  1.0
  C  C37  1  0.38860000  0.87365000  0.50607000  1.0
  C  C38  1  0.38856000  0.37365000  0.99394000  1.0
  C  C39  1  0.61142000  0.12634000  0.49394000  1.0
  C  C40  1  0.21262000  0.04861000  0.83122000  1.0
  C  C41  1  0.78739000  0.45139000  0.33122000  1.0
  C  C42  1  0.78739000  0.95139000  0.16878000  1.0
  C  C43  1  0.21261000  0.54860000  0.66878000  1.0
  C  C44  1  0.14452000  0.13100000  0.70853000  1.0
  C  C45  1  0.85549000  0.36900000  0.20853000  1.0
  C  C46  1  0.85551000  0.86900000  0.29147000  1.0
  C  C47  1  0.14452000  0.63101000  0.79146000  1.0
  C  C48  1  0.95048000  0.05077000  0.71086000  1.0
  C  C49  1  0.04955000  0.44923000  0.21086000  1.0
  C  C50  1  0.04954000  0.94923000  0.28914000  1.0
  C  C51  1  0.95045000  0.55077000  0.78913000  1.0
  S  S52  1  0.17928000  0.82514000  0.03399000  1.0
  S  S53  1  0.82073000  0.67486000  0.53400000  1.0
  S  S54  1  0.82073000  0.17486000  0.96600000  1.0
  S  S55  1  0.17927000  0.32514000  0.46600000  1.0
  S  S56  1  0.01074000  0.67421000  0.12111000  1.0
  S  S57  1  0.98924000  0.82580000  0.62112000  1.0
  S  S58  1  0.98923000  0.32579000  0.87889000  1.0
  S  S59  1  0.01075000  0.17420000  0.37889000  1.0
  S  S60  1  0.29534000  0.00991000  0.91599000  1.0
  S  S61  1  0.70469000  0.49009000  0.41599000  1.0
  S  S62  1  0.70468000  0.99010000  0.08401000  1.0
  S  S63  1  0.29536000  0.50991000  0.58402000  1.0
  S  S64  1  0.36133000  0.14317000  0.79890000  1.0
  S  S65  1  0.63868000  0.35683000  0.29889000  1.0
  S  S66  1  0.63869000  0.85683000  0.20111000  1.0
  S  S67  1  0.36133000  0.64316000  0.70110000  1.0
  I  I68  1  0.62654000  0.82368000  0.83059000  1.0
  I  I69  1  0.37346000  0.67632000  0.33060000  1.0
  I  I70  1  0.37346000  0.17632000  0.16940000  1.0
  I  I71  1  0.62656000  0.32367000  0.66940000  1.0
  N  N72  1  0.77174000  0.70016000  0.98842000  1.0
  N  N73  1  0.22824000  0.79984000  0.48843000  1.0
  N  N74  1  0.22825000  0.29984000  0.01158000  1.0
  N  N75  1  0.77175000  0.20016000  0.51158000  1.0
  N  N76  1  0.01440000  0.01048000  0.77757000  1.0
  N  N77  1  0.98561000  0.48952000  0.27756000  1.0
  N  N78  1  0.98562000  0.98952000  0.22243000  1.0
  N  N79  1  0.01439000  0.51048000  0.72243000  1.0
  O  O80  1  0.39016000  0.59421000  0.96738000  1.0
  O  O81  1  0.60979000  0.90579000  0.46739000  1.0
  O  O82  1  0.60980000  0.40579000  0.03261000  1.0
  O  O83  1  0.39019000  0.09421000  0.53262000  1.0
  O  O84  1  0.76445000  0.02353000  0.66066000  1.0
  O  O85  1  0.23557000  0.47647000  0.16066000  1.0
  O  O86  1  0.23557000  0.97647000  0.33935000  1.0
  O  O87  1  0.76441000  0.52353000  0.83933000  1.0
