# generated using pymatgen
data_LiH11C12(N2O5)2
_symmetry_space_group_name_H-M   'P 1'
_cell_length_a   4.87927000
_cell_length_b   6.47676981
_cell_length_c   24.65790000
_cell_angle_alpha   90.00027747
_cell_angle_beta   90.00010000
_cell_angle_gamma   68.75056647
_symmetry_Int_Tables_number   1
_chemical_formula_structural   LiH11C12(N2O5)2
_chemical_formula_sum   'Li2 H22 C24 N8 O20'
_cell_volume   726.25753090
_cell_formula_units_Z   2
loop_
 _symmetry_equiv_pos_site_id
 _symmetry_equiv_pos_as_xyz
  1  'x, y, z'
loop_
 _atom_site_type_symbol
 _atom_site_label
 _atom_site_symmetry_multiplicity
 _atom_site_fract_x
 _atom_site_fract_y
 _atom_site_fract_z
 _atom_site_occupancy
  Li  Li0  1  0.50000000  0.50000000  1.00000000  1.0
  Li  Li1  1  0.50000000  0.00000000  0.50000000  1.0
  H  H2  1  0.08723000  0.71279000  0.76879000  1.0
  H  H3  1  0.91277000  0.78721000  0.26879000  1.0
  H  H4  1  0.91278000  0.28721000  0.23121000  1.0
  H  H5  1  0.08721000  0.21280000  0.73121000  1.0
  H  H6  1  0.59135000  0.44104000  0.79455000  1.0
  H  H7  1  0.40867000  0.05895000  0.29455000  1.0
  H  H8  1  0.40866000  0.55896000  0.20545000  1.0
  H  H9  1  0.59134000  0.94105000  0.70545000  1.0
  H  H10  1  0.15259000  0.22464000  0.97871000  1.0
  H  H11  1  0.84741000  0.27536000  0.47871000  1.0
  H  H12  1  0.84741000  0.77536000  0.02129000  1.0
  H  H13  1  0.15259000  0.72464000  0.52129000  1.0
  H  H14  1  0.21594000  0.20129000  0.04231000  1.0
  H  H15  1  0.78406000  0.29871000  0.54231000  1.0
  H  H16  1  0.78406000  0.79871000  0.95769000  1.0
  H  H17  1  0.21594000  0.70129000  0.45769000  1.0
  H  H18  1  0.26844000  0.10615000  0.87483000  1.0
  H  H19  1  0.73157000  0.39385000  0.37483000  1.0
  H  H20  1  0.73157000  0.89384000  0.12517000  1.0
  H  H21  1  0.26842000  0.60616000  0.62517000  1.0
  H  H22  1  0.50000000  0.00000000  1.00000000  1.0
  H  H23  1  0.50000000  0.50000000  0.50000000  1.0
  C  C24  1  0.95710000  0.77047000  0.85313000  1.0
  C  C25  1  0.04290000  0.72953000  0.35312000  1.0
  C  C26  1  0.04290000  0.22953000  0.14687000  1.0
  C  C27  1  0.95709000  0.27047000  0.64687000  1.0
  C  C28  1  0.49022000  0.48819000  0.88031000  1.0
  C  C29  1  0.50979000  0.01180000  0.38031000  1.0
  C  C30  1  0.50979000  0.51180000  0.11969000  1.0
  C  C31  1  0.49021000  0.98820000  0.61969000  1.0
  C  C32  1  0.79116000  0.33928000  0.89974000  1.0
  C  C33  1  0.20885000  0.16071000  0.39974000  1.0
  C  C34  1  0.20884000  0.66072000  0.10026000  1.0
  C  C35  1  0.79115000  0.83929000  0.60026000  1.0
  C  C36  1  0.65348000  0.93428000  0.84097000  1.0
  C  C37  1  0.34652000  0.56572000  0.34097000  1.0
  C  C38  1  0.34652000  0.06572000  0.15903000  1.0
  C  C39  1  0.65347000  0.43428000  0.65903000  1.0
  C  C40  1  0.15232000  0.67277000  0.81088000  1.0
  C  C41  1  0.84769000  0.82722000  0.31088000  1.0
  C  C42  1  0.84769000  0.32722000  0.18912000  1.0
  C  C43  1  0.15231000  0.17278000  0.68912000  1.0
  C  C44  1  0.42749000  0.52447000  0.82499000  1.0
  C  C45  1  0.57251000  0.97553000  0.32499000  1.0
  C  C46  1  0.57251000  0.47553000  0.17501000  1.0
  C  C47  1  0.42749000  0.02447000  0.67501000  1.0
  N  N48  1  0.29344000  0.58486000  0.91931000  1.0
  N  N49  1  0.70655000  0.91514000  0.41931000  1.0
  N  N50  1  0.70655000  0.41514000  0.08069000  1.0
  N  N51  1  0.29345000  0.08486000  0.58069000  1.0
  N  N52  1  0.02749000  0.72295000  0.90552000  1.0
  N  N53  1  0.97251000  0.77705000  0.40552000  1.0
  N  N54  1  0.97251000  0.27705000  0.09448000  1.0
  N  N55  1  0.02749000  0.22295000  0.59448000  1.0
  O  O56  1  0.83412000  0.32234000  0.95056000  1.0
  O  O57  1  0.16588000  0.17766000  0.45056000  1.0
  O  O58  1  0.16588000  0.67766000  0.04944000  1.0
  O  O59  1  0.83412000  0.82234000  0.54944000  1.0
  O  O60  1  0.48598000  0.99620000  0.88455000  1.0
  O  O61  1  0.51403000  0.50380000  0.38455000  1.0
  O  O62  1  0.51403000  0.00379000  0.11545000  1.0
  O  O63  1  0.48598000  0.49620000  0.61545000  1.0
  O  O64  1  0.97584000  0.24815000  0.86273000  1.0
  O  O65  1  0.02416000  0.25185000  0.36273000  1.0
  O  O66  1  0.02416000  0.75185000  0.13727000  1.0
  O  O67  1  0.97584000  0.74815000  0.63727000  1.0
  O  O68  1  0.58000000  0.99696000  0.79432000  1.0
  O  O69  1  0.42001000  0.50303000  0.29432000  1.0
  O  O70  1  0.42001000  0.00303000  0.20568000  1.0
  O  O71  1  0.57999000  0.49697000  0.70568000  1.0
  O  O72  1  0.32080000  0.18673000  0.00581000  1.0
  O  O73  1  0.67920000  0.31327000  0.50581000  1.0
  O  O74  1  0.67920000  0.81327000  0.99419000  1.0
  O  O75  1  0.32080000  0.68673000  0.49419000  1.0
