# generated using pymatgen
data_UH8C5O6
_symmetry_space_group_name_H-M   'P 1'
_cell_length_a   6.20206000
_cell_length_b   7.33193000
_cell_length_c   9.25081000
_cell_angle_alpha   99.32900000
_cell_angle_beta   102.31200000
_cell_angle_gamma   103.02800000
_symmetry_Int_Tables_number   1
_chemical_formula_structural   UH8C5O6
_chemical_formula_sum   'U2 H16 C10 O12'
_cell_volume   390.52630684
_cell_formula_units_Z   2
loop_
 _symmetry_equiv_pos_site_id
 _symmetry_equiv_pos_as_xyz
  1  'x, y, z'
loop_
 _atom_site_type_symbol
 _atom_site_label
 _atom_site_symmetry_multiplicity
 _atom_site_fract_x
 _atom_site_fract_y
 _atom_site_fract_z
 _atom_site_occupancy
  U  U0  1  0.30719000  0.76845000  0.86574000  1.0
  U  U1  1  0.69282000  0.23155000  0.13428000  1.0
  H  H2  1  0.21004000  0.11218000  0.05272000  1.0
  H  H3  1  0.78997000  0.88782000  0.94729000  1.0
  H  H4  1  0.78094000  0.50006000  0.53599000  1.0
  H  H5  1  0.21905000  0.49994000  0.46401000  1.0
  H  H6  1  0.55345000  0.23550000  0.70620000  1.0
  H  H7  1  0.44654000  0.76451000  0.29381000  1.0
  H  H8  1  0.53904000  0.19393000  0.50874000  1.0
  H  H9  1  0.46095000  0.80607000  0.49126000  1.0
  H  H10  1  0.77942000  0.01283000  0.70228000  1.0
  H  H11  1  0.22057000  0.98717000  0.29772000  1.0
  H  H12  1  0.87233000  0.07812000  0.54282000  1.0
  H  H13  1  0.12765000  0.92187000  0.45717000  1.0
  H  H14  1  0.03157000  0.30579000  0.87349000  1.0
  H  H15  1  0.96843000  0.69421000  0.12651000  1.0
  H  H16  1  0.20841000  0.25531000  0.75059000  1.0
  H  H17  1  0.79158000  0.74467000  0.24940000  1.0
  C  C18  1  0.73672000  0.60038000  0.75452000  1.0
  C  C19  1  0.26331000  0.39962000  0.24548000  1.0
  C  C20  1  0.79684000  0.45359000  0.64440000  1.0
  C  C21  1  0.20317000  0.54642000  0.35560000  1.0
  C  C22  1  0.65468000  0.24524000  0.62284000  1.0
  C  C23  1  0.34532000  0.75477000  0.37717000  1.0
  C  C24  1  0.83528000  0.13256000  0.64971000  1.0
  C  C25  1  0.16471000  0.86745000  0.35030000  1.0
  C  C26  1  0.04289000  0.28114000  0.75546000  1.0
  C  C27  1  0.95711000  0.71886000  0.24454000  1.0
  O  O28  1  0.34934000  0.63771000  0.01476000  1.0
  O  O29  1  0.65068000  0.36229000  0.98523000  1.0
  O  O30  1  0.24313000  0.88323000  0.70827000  1.0
  O  O31  1  0.75687000  0.11677000  0.29172000  1.0
  O  O32  1  0.90154000  0.71639000  0.86065000  1.0
  O  O33  1  0.09846000  0.28360000  0.13936000  1.0
  O  O34  1  0.52998000  0.60516000  0.73231000  1.0
  O  O35  1  0.47001000  0.39485000  0.26768000  1.0
  O  O36  1  0.03617000  0.45818000  0.70089000  1.0
  O  O37  1  0.96384000  0.54182000  0.29910000  1.0
  O  O38  1  0.31838000  0.03282000  0.04030000  1.0
  O  O39  1  0.68163000  0.96718000  0.95970000  1.0
