# generated using pymatgen
data_Cu2H10C4S(N4O3)2
_symmetry_space_group_name_H-M   'P 1'
_cell_length_a   6.23331000
_cell_length_b   6.77382000
_cell_length_c   17.09080000
_cell_angle_alpha   90.00080000
_cell_angle_beta   90.00180000
_cell_angle_gamma   104.01900000
_symmetry_Int_Tables_number   1
_chemical_formula_structural   Cu2H10C4S(N4O3)2
_chemical_formula_sum   'Cu4 H20 C8 S2 N16 O12'
_cell_volume   700.13688072
_cell_formula_units_Z   2
loop_
 _symmetry_equiv_pos_site_id
 _symmetry_equiv_pos_as_xyz
  1  'x, y, z'
loop_
 _atom_site_type_symbol
 _atom_site_label
 _atom_site_symmetry_multiplicity
 _atom_site_fract_x
 _atom_site_fract_y
 _atom_site_fract_z
 _atom_site_occupancy
  Cu  Cu0  1  0.34464000  0.14477000  0.74887000  1.0
  Cu  Cu1  1  0.65534000  0.85524000  0.24888000  1.0
  Cu  Cu2  1  0.35944000  0.64919000  0.76314000  1.0
  Cu  Cu3  1  0.64058000  0.35081000  0.26313000  1.0
  H  H4  1  0.48310000  0.45312000  0.67136000  1.0
  H  H5  1  0.51692000  0.54694000  0.17135000  1.0
  H  H6  1  0.30807000  0.91311000  0.85331000  1.0
  H  H7  1  0.69197000  0.08690000  0.35331000  1.0
  H  H8  1  0.63284000  0.20974000  0.95998000  1.0
  H  H9  1  0.36719000  0.79028000  0.45999000  1.0
  H  H10  1  0.53508000  0.33949000  0.88969000  1.0
  H  H11  1  0.46492000  0.66054000  0.38969000  1.0
  H  H12  1  0.12670000  0.18945000  0.58935000  1.0
  H  H13  1  0.87326000  0.81052000  0.08934000  1.0
  H  H14  1  0.15391000  0.94787000  0.59938000  1.0
  H  H15  1  0.84609000  0.05212000  0.09938000  1.0
  H  H16  1  0.92107000  0.60494000  0.87938000  1.0
  H  H17  1  0.07893000  0.39513000  0.37940000  1.0
  H  H18  1  0.86705000  0.97921000  0.83802000  1.0
  H  H19  1  0.13298000  0.02085000  0.33801000  1.0
  H  H20  1  0.86564000  0.70173000  0.68640000  1.0
  H  H21  1  0.13437000  0.29823000  0.18639000  1.0
  H  H22  1  0.80307000  0.30118000  0.64448000  1.0
  H  H23  1  0.19690000  0.69875000  0.14449000  1.0
  C  C24  1  0.95594000  0.46540000  0.85846000  1.0
  C  C25  1  0.04405000  0.53464000  0.35848000  1.0
  C  C26  1  0.92974000  0.14259000  0.83892000  1.0
  C  C27  1  0.07028000  0.85745000  0.33892000  1.0
  C  C28  1  0.79503000  0.83386000  0.68613000  1.0
  C  C29  1  0.20497000  0.16611000  0.18612000  1.0
  C  C30  1  0.76206000  0.14350000  0.66314000  1.0
  C  C31  1  0.23791000  0.85645000  0.16313000  1.0
  S  S32  1  0.21084000  0.56461000  0.57777000  1.0
  S  S33  1  0.78915000  0.43537000  0.07777000  1.0
  N  N34  1  0.12300000  0.24483000  0.81148000  1.0
  N  N35  1  0.87701000  0.75519000  0.31149000  1.0
  N  N36  1  0.13898000  0.44627000  0.82330000  1.0
  N  N37  1  0.86101000  0.55375000  0.32331000  1.0
  N  N38  1  0.81951000  0.27674000  0.86760000  1.0
  N  N39  1  0.18050000  0.72330000  0.36760000  1.0
  N  N40  1  0.60640000  0.22061000  0.89927000  1.0
  N  N41  1  0.39362000  0.77944000  0.39928000  1.0
  N  N42  1  0.58200000  0.04299000  0.70055000  1.0
  N  N43  1  0.41799000  0.95698000  0.20055000  1.0
  N  N44  1  0.60246000  0.85138000  0.71488000  1.0
  N  N45  1  0.39755000  0.14859000  0.21488000  1.0
  N  N46  1  0.89800000  0.01549000  0.65389000  1.0
  N  N47  1  0.10198000  0.98447000  0.15389000  1.0
  N  N48  1  0.11714000  0.07126000  0.62915000  1.0
  N  N49  1  0.88283000  0.92871000  0.12914000  1.0
  O  O50  1  0.11124000  0.56274000  0.65790000  1.0
  O  O51  1  0.88874000  0.43724000  0.15790000  1.0
  O  O52  1  0.07044000  0.40142000  0.52909000  1.0
  O  O53  1  0.92954000  0.59856000  0.02910000  1.0
  O  O54  1  0.43888000  0.53289000  0.58307000  1.0
  O  O55  1  0.56111000  0.46709000  0.08306000  1.0
  O  O56  1  0.22149000  0.76999000  0.54201000  1.0
  O  O57  1  0.77851000  0.22999000  0.04201000  1.0
  O  O58  1  0.48660000  0.42849000  0.72962000  1.0
  O  O59  1  0.51341000  0.57150000  0.22961000  1.0
  O  O60  1  0.24207000  0.87594000  0.80169000  1.0
  O  O61  1  0.75794000  0.12406000  0.30170000  1.0
