# generated using pymatgen
data_ZnH13C20(NO2)2
_symmetry_space_group_name_H-M   'P 1'
_cell_length_a   15.29180000
_cell_length_b   15.34500000
_cell_length_c   18.16520000
_cell_angle_alpha   80.99720000
_cell_angle_beta   84.40390000
_cell_angle_gamma   78.20840000
_symmetry_Int_Tables_number   1
_chemical_formula_structural   ZnH13C20(NO2)2
_chemical_formula_sum   'Zn4 H52 C80 N8 O16'
_cell_volume   4111.68037254
_cell_formula_units_Z   4
loop_
 _symmetry_equiv_pos_site_id
 _symmetry_equiv_pos_as_xyz
  1  'x, y, z'
loop_
 _atom_site_type_symbol
 _atom_site_label
 _atom_site_symmetry_multiplicity
 _atom_site_fract_x
 _atom_site_fract_y
 _atom_site_fract_z
 _atom_site_occupancy
  Zn  Zn0  1  0.62489000  0.37935000  0.70393000  1.0
  Zn  Zn1  1  0.37511000  0.62065000  0.29607000  1.0
  Zn  Zn2  1  0.61179000  0.35280000  0.86122000  1.0
  Zn  Zn3  1  0.38821000  0.64720000  0.13878000  1.0
  H  H4  1  0.69043000  0.09490000  0.67053000  1.0
  H  H5  1  0.30957000  0.90510000  0.32947000  1.0
  H  H6  1  0.68706000  0.93411000  0.66782000  1.0
  H  H7  1  0.31294000  0.06589000  0.33218000  1.0
  H  H8  1  0.56563000  0.91569000  0.89275000  1.0
  H  H9  1  0.43437000  0.08431000  0.10725000  1.0
  H  H10  1  0.57155000  0.07606000  0.89476000  1.0
  H  H11  1  0.42845000  0.92394000  0.10524000  1.0
  H  H12  1  0.64779000  0.77599000  0.89480000  1.0
  H  H13  1  0.35221000  0.22401000  0.10520000  1.0
  H  H14  1  0.63863000  0.61671000  0.89289000  1.0
  H  H15  1  0.36137000  0.38329000  0.10711000  1.0
  H  H16  1  0.58539000  0.67642000  0.66112000  1.0
  H  H17  1  0.41461000  0.32358000  0.33888000  1.0
  H  H18  1  0.59253000  0.83674000  0.66202000  1.0
  H  H19  1  0.40747000  0.16326000  0.33798000  1.0
  H  H20  1  0.89797000  0.41345000  0.66828000  1.0
  H  H21  1  0.10203000  0.58655000  0.33172000  1.0
  H  H22  1  0.05841000  0.42304000  0.66957000  1.0
  H  H23  1  0.94159000  0.57696000  0.33043000  1.0
  H  H24  1  0.05772000  0.30086000  0.90007000  1.0
  H  H25  1  0.94228000  0.69913000  0.09993000  1.0
  H  H26  1  0.89634000  0.29468000  0.89817000  1.0
  H  H27  1  0.10366000  0.70532000  0.10183000  1.0
  H  H28  1  0.15491000  0.39605000  0.89987000  1.0
  H  H29  1  0.84509000  0.60395000  0.10013000  1.0
  H  H30  1  0.31647000  0.40111000  0.90090000  1.0
  H  H31  1  0.68353000  0.59889000  0.09910000  1.0
  H  H32  1  0.35934000  0.34855000  0.67396000  1.0
  H  H33  1  0.64066000  0.65145000  0.32604000  1.0
  H  H34  1  0.19835000  0.34164000  0.67207000  1.0
  H  H35  1  0.80165000  0.65836000  0.32793000  1.0
  H  H36  1  0.61948000  0.52992000  0.57714000  1.0
  H  H37  1  0.38052000  0.47008000  0.42286000  1.0
  H  H38  1  0.61093000  0.55048000  0.43711000  1.0
  H  H39  1  0.38907000  0.44952000  0.56289000  1.0
  H  H40  1  0.62034000  0.26508000  0.45494000  1.0
  H  H41  1  0.37966000  0.73492000  0.54506000  1.0
  H  H42  1  0.62732000  0.25694000  0.59476000  1.0
  H  H43  1  0.37268000  0.74306000  0.40524000  1.0
  H  H44  1  0.59858000  0.48694000  0.32334000  1.0
  H  H45  1  0.40142000  0.51306000  0.67666000  1.0
  H  H46  1  0.61154000  0.23799000  0.24304000  1.0
  H  H47  1  0.38846000  0.76201000  0.75696000  1.0
  H  H48  1  0.59073000  0.46309000  0.11503000  1.0
  H  H49  1  0.40927000  0.53692000  0.88497000  1.0
  H  H50  1  0.59195000  0.47439000  0.97485000  1.0
  H  H51  1  0.40805000  0.52561000  0.02515000  1.0
  H  H52  1  0.62006000  0.19946000  0.98381000  1.0
  H  H53  1  0.37994000  0.80054000  0.01619000  1.0
  H  H54  1  0.62187000  0.17494000  0.12421000  1.0
  H  H55  1  0.37813000  0.82506000  0.87579000  1.0
  C  C56  1  0.63006000  0.19331000  0.78329000  1.0
  C  C57  1  0.36994000  0.80669000  0.21671000  1.0
  C  C58  1  0.63051000  0.09565000  0.78257000  1.0
  C  C59  1  0.36949000  0.90435000  0.21743000  1.0
  C  C60  1  0.66264000  0.05503000  0.71873000  1.0
  C  C61  1  0.33736000  0.94497000  0.28127000  1.0
  C  C62  1  0.66004000  0.96521000  0.71739000  1.0
  C  C63  1  0.33996000  0.03479000  0.28261000  1.0
  C  C64  1  0.62502000  0.91329000  0.77984000  1.0
  C  C65  1  0.37497000  0.08671000  0.22016000  1.0
  C  C66  1  0.59395000  0.95440000  0.84398000  1.0
  C  C67  1  0.40605000  0.04560000  0.15602000  1.0
  C  C68  1  0.59676000  0.04409000  0.84539000  1.0
  C  C69  1  0.40324000  0.95591000  0.15461000  1.0
  C  C70  1  0.62065000  0.81831000  0.77853000  1.0
  C  C71  1  0.37935000  0.18169000  0.22147000  1.0
  C  C72  1  0.63281000  0.75500000  0.84350000  1.0
  C  C73  1  0.36719000  0.24500000  0.15650000  1.0
  C  C74  1  0.62837000  0.66563000  0.84267000  1.0
  C  C75  1  0.37163000  0.33437000  0.15733000  1.0
  C  C76  1  0.61159000  0.63655000  0.77692000  1.0
  C  C77  1  0.38841000  0.36345000  0.22308000  1.0
  C  C78  1  0.59943000  0.69903000  0.71191000  1.0
  C  C79  1  0.40057000  0.30097000  0.28809000  1.0
  C  C80  1  0.60385000  0.78854000  0.71270000  1.0
  C  C81  1  0.39615000  0.21146000  0.28730000  1.0
  C  C82  1  0.60737000  0.53992000  0.77656000  1.0
  C  C83  1  0.39263000  0.46008000  0.22344000  1.0
  C  C84  1  0.78980000  0.35279000  0.78248000  1.0
  C  C85  1  0.21020000  0.64721000  0.21752000  1.0
  C  C86  1  0.88743000  0.35392000  0.78314000  1.0
  C  C87  1  0.11257000  0.64608000  0.21686000  1.0
  C  C88  1  0.93394000  0.38895000  0.71863000  1.0
  C  C89  1  0.06606000  0.61105000  0.28137000  1.0
  C  C90  1  0.02365000  0.39349000  0.71964000  1.0
  C  C91  1  0.97635000  0.60651000  0.28036000  1.0
  C  C92  1  0.06962000  0.36296000  0.78508000  1.0
  C  C93  1  0.93038000  0.63704000  0.21492000  1.0
  C  C94  1  0.02262000  0.32699000  0.84935000  1.0
  C  C95  1  0.97738000  0.67301000  0.15065000  1.0
  C  C96  1  0.93274000  0.32260000  0.84846000  1.0
  C  C97  1  0.06726000  0.67740000  0.15154000  1.0
  C  C98  1  0.16482000  0.36825000  0.78591000  1.0
  C  C99  1  0.83518000  0.63175000  0.21409000  1.0
  C  C100  1  0.19962000  0.38467000  0.85029000  1.0
  C  C101  1  0.80038000  0.61533000  0.14971000  1.0
  C  C102  1  0.28965000  0.38841000  0.85102000  1.0
  C  C103  1  0.71035000  0.61159000  0.14898000  1.0
  C  C104  1  0.34759000  0.37603000  0.78724000  1.0
  C  C105  1  0.65241000  0.62397000  0.21276000  1.0
  C  C106  1  0.31342000  0.35998000  0.72279000  1.0
  C  C107  1  0.68658000  0.64002000  0.27721000  1.0
  C  C108  1  0.22351000  0.35626000  0.72205000  1.0
  C  C109  1  0.77649000  0.64374000  0.27795000  1.0
  C  C110  1  0.44485000  0.37843000  0.78763000  1.0
  C  C111  1  0.55515000  0.62157000  0.21237000  1.0
  C  C112  1  0.61996000  0.47359000  0.54707000  1.0
  C  C113  1  0.38004000  0.52641000  0.45293000  1.0
  C  C114  1  0.61526000  0.48417000  0.47007000  1.0
  C  C115  1  0.38474000  0.51583000  0.52993000  1.0
  C  C116  1  0.61595000  0.40860000  0.43518000  1.0
  C  C117  1  0.38404000  0.59140000  0.56482000  1.0
  C  C118  1  0.62028000  0.32482000  0.48035000  1.0
  C  C119  1  0.37972000  0.67518000  0.51965000  1.0
  C  C120  1  0.62411000  0.31991000  0.55681000  1.0
  C  C121  1  0.37589000  0.68009000  0.44319000  1.0
  C  C122  1  0.61223000  0.41888000  0.35438000  1.0
  C  C123  1  0.38777000  0.58112000  0.64563000  1.0
  C  C124  1  0.61348000  0.30478000  0.21122000  1.0
  C  C125  1  0.38652000  0.69522000  0.78878000  1.0
  C  C126  1  0.60892000  0.31729000  0.13044000  1.0
  C  C127  1  0.39108000  0.68271000  0.86956000  1.0
  C  C128  1  0.59890000  0.40312000  0.08788000  1.0
  C  C129  1  0.40110000  0.59688000  0.91212000  1.0
  C  C130  1  0.59845000  0.40988000  0.01096000  1.0
  C  C131  1  0.40155000  0.59012000  0.98904000  1.0
  C  C132  1  0.61425000  0.25517000  0.01578000  1.0
  C  C133  1  0.38575000  0.74483000  0.98422000  1.0
  C  C134  1  0.61534000  0.24250000  0.09315000  1.0
  C  C135  1  0.38466000  0.75750000  0.90685000  1.0
  N  N136  1  0.62420000  0.39299000  0.58965000  1.0
  N  N137  1  0.37580000  0.60700000  0.41034000  1.0
  N  N138  1  0.62467000  0.34857000  0.32062000  1.0
  N  N139  1  0.37532000  0.65143000  0.67938000  1.0
  N  N140  1  0.62035000  0.37154000  0.24431000  1.0
  N  N141  1  0.37965000  0.62846000  0.75569000  1.0
  N  N142  1  0.60647000  0.33740000  0.97544000  1.0
  N  N143  1  0.39353000  0.66260000  0.02456000  1.0
  O  O144  1  0.60673000  0.22373000  0.84518000  1.0
  O  O145  1  0.39327000  0.77627000  0.15482000  1.0
  O  O146  1  0.65158000  0.23899000  0.72186000  1.0
  O  O147  1  0.34842000  0.76101000  0.27814000  1.0
  O  O148  1  0.61683000  0.48839000  0.83869000  1.0
  O  O149  1  0.38317000  0.51161000  0.16131000  1.0
  O  O150  1  0.59537000  0.51606000  0.71475000  1.0
  O  O151  1  0.40463000  0.48394000  0.28525000  1.0
  O  O152  1  0.74941000  0.32511000  0.84363000  1.0
  O  O153  1  0.25059000  0.67489000  0.15637000  1.0
  O  O154  1  0.75396000  0.38130000  0.72045000  1.0
  O  O155  1  0.24604000  0.61870000  0.27955000  1.0
  O  O156  1  0.47456000  0.38601000  0.84893000  1.0
  O  O157  1  0.52543000  0.61399000  0.15107000  1.0
  O  O158  1  0.49126000  0.37227000  0.72558000  1.0
  O  O159  1  0.50874000  0.62773000  0.27442000  1.0
