# generated using pymatgen
data_Zn4H12C24S4N4O13
_symmetry_space_group_name_H-M   'P 1'
_cell_length_a   19.68400000
_cell_length_b   19.68630000
_cell_length_c   33.40160000
_cell_angle_alpha   79.05640000
_cell_angle_beta   79.05770000
_cell_angle_gamma   63.84050000
_symmetry_Int_Tables_number   1
_chemical_formula_structural   Zn4H12C24S4N4O13
_chemical_formula_sum   'Zn16 H48 C96 S16 N16 O52'
_cell_volume   11323.23343146
_cell_formula_units_Z   4
loop_
 _symmetry_equiv_pos_site_id
 _symmetry_equiv_pos_as_xyz
  1  'x, y, z'
loop_
 _atom_site_type_symbol
 _atom_site_label
 _atom_site_symmetry_multiplicity
 _atom_site_fract_x
 _atom_site_fract_y
 _atom_site_fract_z
 _atom_site_occupancy
  Zn  Zn0  1  0.59976000  0.94520000  0.52193000  1.0
  Zn  Zn1  1  0.51652000  0.01488000  0.43961000  1.0
  Zn  Zn2  1  0.43994000  0.94136000  0.51715000  1.0
  Zn  Zn3  1  0.44505000  0.09813000  0.52062000  1.0
  Zn  Zn4  1  0.65041000  0.30479000  0.72789000  1.0
  Zn  Zn5  1  0.80985000  0.31212000  0.73393000  1.0
  Zn  Zn6  1  0.73328000  0.23240000  0.80922000  1.0
  Zn  Zn7  1  0.80582000  0.15291000  0.72851000  1.0
  Zn  Zn8  1  0.23450000  0.73320000  0.31067000  1.0
  Zn  Zn9  1  0.30350000  0.65105000  0.22774000  1.0
  Zn  Zn10  1  0.15206000  0.80614000  0.22842000  1.0
  Zn  Zn11  1  0.31012000  0.80817000  0.23250000  1.0
  Zn  Zn12  1  0.93941000  0.43933000  0.01593000  1.0
  Zn  Zn13  1  0.94528000  0.59889000  0.02238000  1.0
  Zn  Zn14  1  0.09779000  0.44428000  0.02132000  1.0
  Zn  Zn15  1  0.01730000  0.51724000  0.94029000  1.0
  H  H16  1  0.55047000  0.24846000  0.65228000  1.0
  H  H17  1  0.69683000  0.99859000  0.60053000  1.0
  H  H18  1  0.29712000  0.80212000  0.39855000  1.0
  H  H19  1  0.44844000  0.95222000  0.35078000  1.0
  H  H20  1  0.75938000  0.53668000  0.65852000  1.0
  H  H21  1  0.29883000  0.51967000  0.39815000  1.0
  H  H22  1  0.02087000  0.79551000  0.39823000  1.0
  H  H23  1  0.03014000  0.05238000  0.65301000  1.0
  H  H24  1  0.85361000  0.34912000  0.95044000  1.0
  H  H25  1  0.90111000  0.39636000  0.79959000  1.0
  H  H26  1  0.22979000  0.45312000  0.85198000  1.0
  H  H27  1  0.85644000  0.83734000  0.95935000  1.0
  H  H28  1  0.00086000  0.69968000  0.09783000  1.0
  H  H29  1  0.25014000  0.55242000  0.15018000  1.0
  H  H30  1  0.71996000  0.69807000  0.09804000  1.0
  H  H31  1  0.98947000  0.21393000  0.09193000  1.0
  H  H32  1  0.46163000  0.20887000  0.57998000  1.0
  H  H33  1  0.45854000  0.27613000  0.60790000  1.0
  H  H34  1  0.79366000  0.04611000  0.66489000  1.0
  H  H35  1  0.80101000  0.98315000  0.63265000  1.0
  H  H36  1  0.35746000  0.85448000  0.47925000  1.0
  H  H37  1  0.31517000  0.80086000  0.46714000  1.0
  H  H38  1  0.39910000  0.88888000  0.27041000  1.0
  H  H39  1  0.45197000  0.93119000  0.28252000  1.0
  H  H40  1  0.76847000  0.27273000  0.89424000  1.0
  H  H41  1  0.77489000  0.29065000  0.94211000  1.0
  H  H42  1  0.97584000  0.48342000  0.85541000  1.0
  H  H43  1  0.95931000  0.47494000  0.80769000  1.0
  H  H44  1  0.04169000  0.79077000  0.16880000  1.0
  H  H45  1  0.97412000  0.79410000  0.14060000  1.0
  H  H46  1  0.20482000  0.45704000  0.08373000  1.0
  H  H47  1  0.26747000  0.44925000  0.11644000  1.0
  H  H48  1  0.44189000  0.68894000  0.60526000  1.0
  H  H49  1  0.44676000  0.76870000  0.57409000  1.0
  H  H50  1  0.47770000  0.23153000  0.31459000  1.0
  H  H51  1  0.48234000  0.16316000  0.35699000  1.0
  H  H52  1  0.73281000  0.95449000  0.31425000  1.0
  H  H53  1  0.66463000  0.97884000  0.35693000  1.0
  H  H54  1  0.19736000  0.25739000  0.61417000  1.0
  H  H55  1  0.27532000  0.20458000  0.58108000  1.0
  H  H56  1  0.51769000  0.27177000  0.93499000  1.0
  H  H57  1  0.58637000  0.26507000  0.89261000  1.0
  H  H58  1  0.91469000  0.85555000  0.77306000  1.0
  H  H59  1  0.88344000  0.95377000  0.76040000  1.0
  H  H60  1  0.56301000  0.48330000  0.14514000  1.0
  H  H61  1  0.47634000  0.54371000  0.16988000  1.0
  H  H62  1  0.29816000  0.07336000  0.15580000  1.0
  H  H63  1  0.30144000  0.98447000  0.17788000  1.0
  C  C64  1  0.68433000  0.94064000  0.43739000  1.0
  C  C65  1  0.42912000  0.92986000  0.43088000  1.0
  C  C66  1  0.56095000  0.81498000  0.56064000  1.0
  C  C67  1  0.31497000  0.06330000  0.56143000  1.0
  C  C68  1  0.56735000  0.07130000  0.56988000  1.0
  C  C69  1  0.43760000  0.18332000  0.43704000  1.0
  C  C70  1  0.68772000  0.43483000  0.68879000  1.0
  C  C71  1  0.81954000  0.31792000  0.82066000  1.0
  C  C72  1  0.56596000  0.31151000  0.81232000  1.0
  C  C73  1  0.81290000  0.06434000  0.81076000  1.0
  C  C74  1  0.68224000  0.17793000  0.68067000  1.0
  C  C75  1  0.93442000  0.18991000  0.68884000  1.0
  C  C76  1  0.31308000  0.56555000  0.31126000  1.0
  C  C77  1  0.17778000  0.68213000  0.18045000  1.0
  C  C78  1  0.06657000  0.81039000  0.31143000  1.0
  C  C79  1  0.19033000  0.93454000  0.18793000  1.0
  C  C80  1  0.32019000  0.82073000  0.31851000  1.0
  C  C81  1  0.43417000  0.68649000  0.18762000  1.0
  C  C82  1  0.81642000  0.56072000  0.06172000  1.0
  C  C83  1  0.07178000  0.56850000  0.06903000  1.0
  C  C84  1  0.06076000  0.31618000  0.06179000  1.0
  C  C85  1  0.18441000  0.43751000  0.93868000  1.0
  C  C86  1  0.93183000  0.43090000  0.92932000  1.0
  C  C87  1  0.93783000  0.68431000  0.93879000  1.0
  C  C88  1  0.59355000  0.10008000  0.59919000  1.0
  C  C89  1  0.65423000  0.14740000  0.65318000  1.0
  C  C90  1  0.54950000  0.17248000  0.61399000  1.0
  C  C91  1  0.69762000  0.07439000  0.63901000  1.0
  C  C92  1  0.58216000  0.19349000  0.64054000  1.0
  C  C93  1  0.66525000  0.05365000  0.61218000  1.0
  C  C94  1  0.39852000  0.90232000  0.40324000  1.0
  C  C95  1  0.34773000  0.85143000  0.34614000  1.0
  C  C96  1  0.35393000  0.85976000  0.41804000  1.0
  C  C97  1  0.39068000  0.89561000  0.33132000  1.0
  C  C98  1  0.33065000  0.83527000  0.38849000  1.0
  C  C99  1  0.41508000  0.91891000  0.36083000  1.0
  C  C100  1  0.54436000  0.69633000  0.59770000  1.0
  C  C101  1  0.70243000  0.55408000  0.65066000  1.0
  C  C102  1  0.58595000  0.74087000  0.58472000  1.0
  C  C103  1  0.66228000  0.50959000  0.66362000  1.0
  C  C104  1  0.65991000  0.62213000  0.62673000  1.0
  C  C105  1  0.58795000  0.62814000  0.62190000  1.0
  C  C106  1  0.42351000  0.27191000  0.36962000  1.0
  C  C107  1  0.32787000  0.47485000  0.37821000  1.0
  C  C108  1  0.41249000  0.25708000  0.41265000  1.0
  C  C109  1  0.33825000  0.49033000  0.33590000  1.0
  C  C110  1  0.35905000  0.39555000  0.39072000  1.0
  C  C111  1  0.39250000  0.35206000  0.35756000  1.0
  C  C112  1  0.77326000  0.92682000  0.37001000  1.0
  C  C113  1  0.97598000  0.82526000  0.37837000  1.0
  C  C114  1  0.75831000  0.91647000  0.41305000  1.0
  C  C115  1  0.99140000  0.83544000  0.33606000  1.0
  C  C116  1  0.89674000  0.85818000  0.39098000  1.0
  C  C117  1  0.85329000  0.89289000  0.35787000  1.0
  C  C118  1  0.19954000  0.15842000  0.60148000  1.0
  C  C119  1  0.05058000  0.09676000  0.64798000  1.0
  C  C120  1  0.24102000  0.08819000  0.58556000  1.0
  C  C121  1  0.00919000  0.16561000  0.66380000  1.0
  C  C122  1  0.12003000  0.09353000  0.62541000  1.0
  C  C123  1  0.13004000  0.16030000  0.62443000  1.0
  C  C124  1  0.84868000  0.34419000  0.84969000  1.0
  C  C125  1  0.90554000  0.40183000  0.90034000  1.0
  C  C126  1  0.83468000  0.32880000  0.89330000  1.0
  C  C127  1  0.92101000  0.41579000  0.85672000  1.0
  C  C128  1  0.86357000  0.35910000  0.91708000  1.0
  C  C129  1  0.89108000  0.38647000  0.83295000  1.0
  C  C130  1  0.47777000  0.32632000  0.87993000  1.0
  C  C131  1  0.27478000  0.42373000  0.87179000  1.0
  C  C132  1  0.49231000  0.33753000  0.83686000  1.0
  C  C133  1  0.25957000  0.41268000  0.91410000  1.0
  C  C134  1  0.35399000  0.39225000  0.85912000  1.0
  C  C135  1  0.39767000  0.35805000  0.89217000  1.0
  C  C136  1  0.87771000  0.91893000  0.82137000  1.0
  C  C137  1  0.87357000  0.83000000  0.92698000  1.0
  C  C138  1  0.83793000  0.99092000  0.83548000  1.0
  C  C139  1  0.91287000  0.75884000  0.91352000  1.0
  C  C140  1  0.86021000  0.88854000  0.89365000  1.0
  C  C141  1  0.88986000  0.86067000  0.85535000  1.0
  C  C142  1  0.14891000  0.65595000  0.15130000  1.0
  C  C143  1  0.10194000  0.59597000  0.09691000  1.0
  C  C144  1  0.07671000  0.70052000  0.13627000  1.0
  C  C145  1  0.17493000  0.55222000  0.11113000  1.0
  C  C146  1  0.05573000  0.66791000  0.10968000  1.0
  C  C147  1  0.19526000  0.58418000  0.13836000  1.0
  C  C148  1  0.54935000  0.59248000  0.14682000  1.0
  C  C149  1  0.69969000  0.65361000  0.10267000  1.0
  C  C150  1  0.50763000  0.66241000  0.16298000  1.0
  C  C151  1  0.74144000  0.58501000  0.08663000  1.0
  C  C152  1  0.62997000  0.65662000  0.12480000  1.0
  C  C153  1  0.61983000  0.59014000  0.12503000  1.0
  C  C154  1  0.20691000  0.05285000  0.15038000  1.0
  C  C155  1  0.04650000  0.19662000  0.09965000  1.0
  C  C156  1  0.16583000  0.00781000  0.16310000  1.0
  C  C157  1  0.08620000  0.24152000  0.08688000  1.0
  C  C158  1  0.08982000  0.12811000  0.12296000  1.0
  C  C159  1  0.16201000  0.12209000  0.12737000  1.0
  S  S160  1  0.67607000  0.69955000  0.60159000  1.0
  S  S161  1  0.57274000  0.55002000  0.64671000  1.0
  S  S162  1  0.36478000  0.33931000  0.43738000  1.0
  S  S163  1  0.38556000  0.40878000  0.31104000  1.0
  S  S164  1  0.84052000  0.86683000  0.43772000  1.0
  S  S165  1  0.90989000  0.88532000  0.31128000  1.0
  S  S166  1  0.19540000  0.02687000  0.59825000  1.0
  S  S167  1  0.05408000  0.22698000  0.65121000  1.0
  S  S168  1  0.40987000  0.38642000  0.81235000  1.0
  S  S169  1  0.34130000  0.36438000  0.93879000  1.0
  S  S170  1  0.81687000  0.98672000  0.88894000  1.0
  S  S171  1  0.93423000  0.76256000  0.86037000  1.0
  S  S172  1  0.55352000  0.72351000  0.15127000  1.0
  S  S173  1  0.69612000  0.52397000  0.09812000  1.0
  S  S174  1  0.07521000  0.04923000  0.14683000  1.0
  S  S175  1  0.17649000  0.20073000  0.10289000  1.0
  N  N176  1  0.47688000  0.22055000  0.60438000  1.0
  N  N177  1  0.76757000  0.02358000  0.65131000  1.0
  N  N178  1  0.33173000  0.84398000  0.45904000  1.0
  N  N179  1  0.40666000  0.91778000  0.29011000  1.0
  N  N180  1  0.79686000  0.28457000  0.91238000  1.0
  N  N181  1  0.96495000  0.45387000  0.83755000  1.0
  N  N182  1  0.02920000  0.77306000  0.14566000  1.0
  N  N183  1  0.22585000  0.48278000  0.09853000  1.0
  N  N184  1  0.47394000  0.71438000  0.58752000  1.0
  N  N185  1  0.45649000  0.21760000  0.34339000  1.0
  N  N186  1  0.71926000  0.96596000  0.34375000  1.0
  N  N187  1  0.22119000  0.21686000  0.59487000  1.0
  N  N188  1  0.53214000  0.29237000  0.90613000  1.0
  N  N189  1  0.90305000  0.90677000  0.78132000  1.0
  N  N190  1  0.52482000  0.53662000  0.15039000  1.0
  N  N191  1  0.27958000  0.03230000  0.15777000  1.0
  O  O192  1  0.50113000  0.99967000  0.49954000  1.0
  O  O193  1  0.68298000  0.92512000  0.47649000  1.0
  O  O194  1  0.47036000  0.96554000  0.41442000  1.0
  O  O195  1  0.49345000  0.84321000  0.54933000  1.0
  O  O196  1  0.62525000  0.97590000  0.41760000  1.0
  O  O197  1  0.60702000  0.84714000  0.55247000  1.0
  O  O198  1  0.41269000  0.91611000  0.46988000  1.0
  O  O199  1  0.34418000  0.99591000  0.55067000  1.0
  O  O200  1  0.50208000  0.11474000  0.55718000  1.0
  O  O201  1  0.34630000  0.11073000  0.55258000  1.0
  O  O202  1  0.61100000  0.00545000  0.55879000  1.0
  O  O203  1  0.47281000  0.12391000  0.41759000  1.0
  O  O204  1  0.42321000  0.18264000  0.47619000  1.0
  O  O205  1  0.74984000  0.25147000  0.74938000  1.0
  O  O206  1  0.64078000  0.40381000  0.69701000  1.0
  O  O207  1  0.83430000  0.33602000  0.78219000  1.0
  O  O208  1  0.62521000  0.27500000  0.83187000  1.0
  O  O209  1  0.75424000  0.40780000  0.69999000  1.0
  O  O210  1  0.56704000  0.32616000  0.77317000  1.0
  O  O211  1  0.78079000  0.27866000  0.83583000  1.0
  O  O212  1  0.77502000  0.12353000  0.82968000  1.0
  O  O213  1  0.74909000  0.13608000  0.69184000  1.0
  O  O214  1  0.83037000  0.06488000  0.77139000  1.0
  O  O215  1  0.63879000  0.24399000  0.69156000  1.0
  O  O216  1  0.90673000  0.25612000  0.70063000  1.0
  O  O217  1  0.90397000  0.14262000  0.69650000  1.0
  O  O218  1  0.25002000  0.74870000  0.25038000  1.0
  O  O219  1  0.27687000  0.62356000  0.33089000  1.0
  O  O220  1  0.24272000  0.63723000  0.19252000  1.0
  O  O221  1  0.06635000  0.82686000  0.27245000  1.0
  O  O222  1  0.32979000  0.56562000  0.27228000  1.0
  O  O223  1  0.12480000  0.77502000  0.33096000  1.0
  O  O224  1  0.13581000  0.74848000  0.19206000  1.0
  O  O225  1  0.14316000  0.90356000  0.19707000  1.0
  O  O226  1  0.33633000  0.83484000  0.27952000  1.0
  O  O227  1  0.25784000  0.90577000  0.19921000  1.0
  O  O228  1  0.28231000  0.78171000  0.33503000  1.0
  O  O229  1  0.40195000  0.63984000  0.19544000  1.0
  O  O230  1  0.40656000  0.75248000  0.19998000  1.0
  O  O231  1  0.99907000  0.50038000  0.00022000  1.0
  O  O232  1  0.84434000  0.49395000  0.05057000  1.0
  O  O233  1  0.00535000  0.61174000  0.05845000  1.0
  O  O234  1  0.10739000  0.34757000  0.05445000  1.0
  O  O235  1  0.84655000  0.60823000  0.05351000  1.0
  O  O236  1  0.99520000  0.34277000  0.04955000  1.0
  O  O237  1  0.11423000  0.50240000  0.05716000  1.0
  O  O238  1  0.18401000  0.41850000  0.97756000  1.0
  O  O239  1  0.97027000  0.47046000  0.91406000  1.0
  O  O240  1  0.12636000  0.47584000  0.91923000  1.0
  O  O241  1  0.91479000  0.41526000  0.96785000  1.0
  O  O242  1  0.92158000  0.68430000  0.97767000  1.0
  O  O243  1  0.97405000  0.62598000  0.91919000  1.0
