# generated using pymatgen
data_GdP3H21C18(NO4)3
_symmetry_space_group_name_H-M   'P 1'
_cell_length_a   9.95932000
_cell_length_b   13.08762747
_cell_length_c   13.09140000
_cell_angle_alpha   113.76795680
_cell_angle_beta   104.66900000
_cell_angle_gamma   104.72673380
_symmetry_Int_Tables_number   1
_chemical_formula_structural   GdP3H21C18(NO4)3
_chemical_formula_sum   'Gd2 P6 H42 C36 N6 O24'
_cell_volume   1383.03815027
_cell_formula_units_Z   2
loop_
 _symmetry_equiv_pos_site_id
 _symmetry_equiv_pos_as_xyz
  1  'x, y, z'
loop_
 _atom_site_type_symbol
 _atom_site_label
 _atom_site_symmetry_multiplicity
 _atom_site_fract_x
 _atom_site_fract_y
 _atom_site_fract_z
 _atom_site_occupancy
  Gd  Gd0  1  0.00000000  0.00000000  0.00000000  1.0
  Gd  Gd1  1  0.50001000  0.00000000  0.00000000  1.0
  P  P2  1  0.60690000  0.83752000  0.76385000  1.0
  P  P3  1  0.76955000  0.92626000  0.16264000  1.0
  P  P4  1  0.84339000  0.23656000  0.07403000  1.0
  P  P5  1  0.39311000  0.16249000  0.23615000  1.0
  P  P6  1  0.23045000  0.07374000  0.83736000  1.0
  P  P7  1  0.15660000  0.76343000  0.92597000  1.0
  H  H8  1  0.50673000  0.82267000  0.30026000  1.0
  H  H9  1  0.68481000  0.47741000  0.17747000  1.0
  H  H10  1  0.20795000  0.70013000  0.52280000  1.0
  H  H11  1  0.49327000  0.17733000  0.69973000  1.0
  H  H12  1  0.31517000  0.52259000  0.82253000  1.0
  H  H13  1  0.79205000  0.29987000  0.47720000  1.0
  H  H14  1  0.39036000  0.82136000  0.45263000  1.0
  H  H15  1  0.56937000  0.63079000  0.17862000  1.0
  H  H16  1  0.93928000  0.54813000  0.36908000  1.0
  H  H17  1  0.60964000  0.17864000  0.54737000  1.0
  H  H18  1  0.43062000  0.36921000  0.82137000  1.0
  H  H19  1  0.06073000  0.45187000  0.63092000  1.0
  H  H20  1  0.84370000  0.03548000  0.73621000  1.0
  H  H21  1  0.80873000  0.70109000  0.96471000  1.0
  H  H22  1  0.10778000  0.26376000  0.29963000  1.0
  H  H23  1  0.15631000  0.96453000  0.26379000  1.0
  H  H24  1  0.19128000  0.29892000  0.03530000  1.0
  H  H25  1  0.89221000  0.73624000  0.70038000  1.0
  H  H26  1  0.93862000  0.02947000  0.57655000  1.0
  H  H27  1  0.90889000  0.54684000  0.96985000  1.0
  H  H28  1  0.36246000  0.42315000  0.45305000  1.0
  H  H29  1  0.06138000  0.97052000  0.42344000  1.0
  H  H30  1  0.09112000  0.45317000  0.03016000  1.0
  H  H31  1  0.63753000  0.57684000  0.54695000  1.0
  H  H32  1  0.60024000  0.02547000  0.77822000  1.0
  H  H33  1  0.57491000  0.75294000  0.97494000  1.0
  H  H34  1  0.82234000  0.22213000  0.24748000  1.0
  H  H35  1  0.39978000  0.97454000  0.22178000  1.0
  H  H36  1  0.42509000  0.24707000  0.02507000  1.0
  H  H37  1  0.17765000  0.77787000  0.75253000  1.0
  H  H38  1  0.40110000  0.63199000  0.56491000  1.0
  H  H39  1  0.76819000  0.93266000  0.36804000  1.0
  H  H40  1  0.83591000  0.43529000  0.06720000  1.0
  H  H41  1  0.59890000  0.36801000  0.43509000  1.0
  H  H42  1  0.23182000  0.06734000  0.63195000  1.0
  H  H43  1  0.16408000  0.56471000  0.93280000  1.0
  H  H44  1  0.35542000  0.92563000  0.71825000  1.0
  H  H45  1  0.42994000  0.79203000  0.07458000  1.0
  H  H46  1  0.63809000  0.28263000  0.20774000  1.0
  H  H47  1  0.64459000  0.07438000  0.28176000  1.0
  H  H48  1  0.57005000  0.20796000  0.92541000  1.0
  H  H49  1  0.36190000  0.71737000  0.79225000  1.0
  C  C50  1  0.57273000  0.86716000  0.39815000  1.0
  C  C51  1  0.70605000  0.53077000  0.13280000  1.0
  C  C52  1  0.17582000  0.60215000  0.46931000  1.0
  C  C53  1  0.42726000  0.13283000  0.60184000  1.0
  C  C54  1  0.29394000  0.46924000  0.86720000  1.0
  C  C55  1  0.82418000  0.39785000  0.53069000  1.0
  C  C56  1  0.51202000  0.86674000  0.48213000  1.0
  C  C57  1  0.64565000  0.61508000  0.13324000  1.0
  C  C58  1  0.03114000  0.51836000  0.38493000  1.0
  C  C59  1  0.48799000  0.13327000  0.51788000  1.0
  C  C60  1  0.35434000  0.38491000  0.86675000  1.0
  C  C61  1  0.96886000  0.48164000  0.61507000  1.0
  C  C62  1  0.60785000  0.92928000  0.60641000  1.0
  C  C63  1  0.67899000  0.67709000  0.07081000  1.0
  C  C64  1  0.00227000  0.39390000  0.32313000  1.0
  C  C65  1  0.39215000  0.07072000  0.39358000  1.0
  C  C66  1  0.32101000  0.32292000  0.92919000  1.0
  C  C67  1  0.99773000  0.60610000  0.67688000  1.0
  C  C68  1  0.76423000  0.98838000  0.64138000  1.0
  C  C69  1  0.77622000  0.65309000  0.01164000  1.0
  C  C70  1  0.12340000  0.35871000  0.34733000  1.0
  C  C71  1  0.23579000  0.01163000  0.35863000  1.0
  C  C72  1  0.22379000  0.34692000  0.98837000  1.0
  C  C73  1  0.87660000  0.64129000  0.65268000  1.0
  C  C74  1  0.81822000  0.98550000  0.55333000  1.0
  C  C75  1  0.83275000  0.56766000  0.01411000  1.0
  C  C76  1  0.26549000  0.44660000  0.43248000  1.0
  C  C77  1  0.18179000  0.01450000  0.44667000  1.0
  C  C78  1  0.16724000  0.43234000  0.98589000  1.0
  C  C79  1  0.73451000  0.55340000  0.56753000  1.0
  C  C80  1  0.54677000  0.93171000  0.69955000  1.0
  C  C81  1  0.61538000  0.76778000  0.06859000  1.0
  C  C82  1  0.84794000  0.30095000  0.23253000  1.0
  C  C83  1  0.45323000  0.06829000  0.30045000  1.0
  C  C84  1  0.38462000  0.23223000  0.93142000  1.0
  C  C85  1  0.15206000  0.69905000  0.76748000  1.0
  N  N86  1  0.72275000  0.92644000  0.43504000  1.0
  N  N87  1  0.79653000  0.50839000  0.07330000  1.0
  N  N88  1  0.28866000  0.56503000  0.49167000  1.0
  N  N89  1  0.27726000  0.07356000  0.56496000  1.0
  N  N90  1  0.20346000  0.49161000  0.92671000  1.0
  N  N91  1  0.71134000  0.43497000  0.50833000  1.0
  O  O92  1  0.52399000  0.84469000  0.85156000  1.0
  O  O93  1  0.67949000  0.00673000  0.15507000  1.0
  O  O94  1  0.67263000  0.14908000  0.99375000  1.0
  O  O95  1  0.47601000  0.15530000  0.14843000  1.0
  O  O96  1  0.32052000  0.99327000  0.84493000  1.0
  O  O97  1  0.32738000  0.85091000  0.00625000  1.0
  O  O98  1  0.77856000  0.90016000  0.83238000  1.0
  O  O99  1  0.87868000  0.93215000  0.10006000  1.0
  O  O100  1  0.94611000  0.16768000  0.06781000  1.0
  O  O101  1  0.22145000  0.09985000  0.16763000  1.0
  O  O102  1  0.12133000  0.06785000  0.89995000  1.0
  O  O103  1  0.05391000  0.83233000  0.93220000  1.0
  O  O104  1  0.55131000  0.70823000  0.65923000  1.0
  O  O105  1  0.84291000  0.95096000  0.29198000  1.0
  O  O106  1  0.89268000  0.34134000  0.04950000  1.0
  O  O107  1  0.44870000  0.29178000  0.34076000  1.0
  O  O108  1  0.15709000  0.04904000  0.70802000  1.0
  O  O109  1  0.10730000  0.65865000  0.95049000  1.0
  O  O110  1  0.38598000  0.88938000  0.64938000  1.0
  O  O111  1  0.49705000  0.75979000  0.11110000  1.0
  O  O112  1  0.73766000  0.35147000  0.24059000  1.0
  O  O113  1  0.61403000  0.11062000  0.35062000  1.0
  O  O114  1  0.50296000  0.24022000  0.88891000  1.0
  O  O115  1  0.26234000  0.64853000  0.75940000  1.0
