# generated using pymatgen
data_Mg3H30C32(NO5)4
_symmetry_space_group_name_H-M   'P 1'
_cell_length_a   13.31900000
_cell_length_b   14.48220000
_cell_length_c   14.70830000
_cell_angle_alpha   91.77580000
_cell_angle_beta   90.00000000
_cell_angle_gamma   90.00000000
_symmetry_Int_Tables_number   1
_chemical_formula_structural   Mg3H30C32(NO5)4
_chemical_formula_sum   'Mg6 H60 C64 N8 O40'
_cell_volume   2835.69824234
_cell_formula_units_Z   2
loop_
 _symmetry_equiv_pos_site_id
 _symmetry_equiv_pos_as_xyz
  1  'x, y, z'
loop_
 _atom_site_type_symbol
 _atom_site_label
 _atom_site_symmetry_multiplicity
 _atom_site_fract_x
 _atom_site_fract_y
 _atom_site_fract_z
 _atom_site_occupancy
  Mg  Mg0  1  0.00000000  0.00000000  0.00000000  1.0
  Mg  Mg1  1  0.50000000  0.50000000  0.50000000  1.0
  Mg  Mg2  1  0.05072000  0.24387000  0.98843000  1.0
  Mg  Mg3  1  0.55072000  0.25613000  0.51157000  1.0
  Mg  Mg4  1  0.94928000  0.75613000  0.01157000  1.0
  Mg  Mg5  1  0.44928000  0.74387000  0.48843000  1.0
  H  H6  1  0.18573000  0.37054000  0.93997000  1.0
  H  H7  1  0.68573000  0.12946000  0.56003000  1.0
  H  H8  1  0.81427000  0.62946000  0.06003000  1.0
  H  H9  1  0.31427000  0.87054000  0.43997000  1.0
  H  H10  1  0.19123000  0.35988000  0.04948000  1.0
  H  H11  1  0.69123000  0.14012000  0.45051000  1.0
  H  H12  1  0.80877000  0.64012000  0.95051000  1.0
  H  H13  1  0.30877000  0.85988000  0.54948000  1.0
  H  H14  1  0.44902000  0.34593000  0.34027000  1.0
  H  H15  1  0.94902000  0.15407000  0.15973000  1.0
  H  H16  1  0.55098000  0.65407000  0.65973000  1.0
  H  H17  1  0.05098000  0.84593000  0.84027000  1.0
  H  H18  1  0.42353000  0.86589000  0.65787000  1.0
  H  H19  1  0.92353000  0.63411000  0.84213000  1.0
  H  H20  1  0.57647000  0.13411000  0.34213000  1.0
  H  H21  1  0.07647000  0.36589000  0.15787000  1.0
  H  H22  1  0.34541000  0.82467000  0.73691000  1.0
  H  H23  1  0.84541000  0.67533000  0.76309000  1.0
  H  H24  1  0.65459000  0.17533000  0.26309000  1.0
  H  H25  1  0.15459000  0.32467000  0.23691000  1.0
  H  H26  1  0.27151000  0.84463000  0.27133000  1.0
  H  H27  1  0.77151000  0.65537000  0.22867000  1.0
  H  H28  1  0.72849000  0.15537000  0.72867000  1.0
  H  H29  1  0.22849000  0.34463000  0.77133000  1.0
  H  H30  1  0.38425000  0.87150000  0.31759000  1.0
  H  H31  1  0.88425000  0.62850000  0.18241000  1.0
  H  H32  1  0.61575000  0.12850000  0.68241000  1.0
  H  H33  1  0.11575000  0.37150000  0.81759000  1.0
  H  H34  1  0.23545000  0.92335000  0.82940000  1.0
  H  H35  1  0.73545000  0.57665000  0.67060000  1.0
  H  H36  1  0.76455000  0.07665000  0.17060000  1.0
  H  H37  1  0.26455000  0.42335000  0.32940000  1.0
  H  H38  1  0.43379000  0.03006000  0.62551000  1.0
  H  H39  1  0.93379000  0.46994000  0.87449000  1.0
  H  H40  1  0.56621000  0.96994000  0.37449000  1.0
  H  H41  1  0.06621000  0.53005000  0.12551000  1.0
  H  H42  1  0.26903000  0.21581000  0.80416000  1.0
  H  H43  1  0.76903000  0.28419000  0.69585000  1.0
  H  H44  1  0.73097000  0.78419000  0.19584000  1.0
  H  H45  1  0.23097000  0.71581000  0.30415000  1.0
  H  H46  1  0.26482000  0.23504000  0.20702000  1.0
  H  H47  1  0.76482000  0.26496000  0.29298000  1.0
  H  H48  1  0.73518000  0.76496000  0.79298000  1.0
  H  H49  1  0.23518000  0.73504000  0.70702000  1.0
  H  H50  1  0.41120000  0.03812000  0.37710000  1.0
  H  H51  1  0.91120000  0.46188000  0.12290000  1.0
  H  H52  1  0.58880000  0.96188000  0.62290000  1.0
  H  H53  1  0.08880000  0.53812000  0.87710000  1.0
  H  H54  1  0.16432000  0.95257000  0.20474000  1.0
  H  H55  1  0.66432000  0.54743000  0.29526000  1.0
  H  H56  1  0.83568000  0.04743000  0.79526000  1.0
  H  H57  1  0.33568000  0.45257000  0.70474000  1.0
  H  H58  1  0.90601000  0.15687000  0.90517000  1.0
  H  H59  1  0.40601000  0.34313000  0.59483000  1.0
  H  H60  1  0.09399000  0.84313000  0.09483000  1.0
  H  H61  1  0.59399000  0.65687000  0.40517000  1.0
  H  H62  1  0.87422000  0.12411000  0.00563000  1.0
  H  H63  1  0.37422000  0.37589000  0.49437000  1.0
  H  H64  1  0.12579000  0.87589000  0.99437000  1.0
  H  H65  1  0.62579000  0.62411000  0.50563000  1.0
  C  C66  1  0.16612000  0.08823000  0.89342000  1.0
  C  C67  1  0.66612000  0.41177000  0.60658000  1.0
  C  C68  1  0.83388000  0.91177000  0.10658000  1.0
  C  C69  1  0.33388000  0.58823000  0.39342000  1.0
  C  C70  1  0.24582000  0.07105000  0.82357000  1.0
  C  C71  1  0.74582000  0.42895000  0.67643000  1.0
  C  C72  1  0.75418000  0.92895000  0.17643000  1.0
  C  C73  1  0.25418000  0.57105000  0.32357000  1.0
  C  C74  1  0.27156000  0.98107000  0.79667000  1.0
  C  C75  1  0.77156000  0.51894000  0.70334000  1.0
  C  C76  1  0.72844000  0.01893000  0.20333000  1.0
  C  C77  1  0.22844000  0.48106000  0.29666000  1.0
  C  C78  1  0.33969000  0.96503000  0.72529000  1.0
  C  C79  1  0.83969000  0.53497000  0.77471000  1.0
  C  C80  1  0.66031000  0.03497000  0.27471000  1.0
  C  C81  1  0.16031000  0.46503000  0.22529000  1.0
  C  C82  1  0.38296000  0.04072000  0.68293000  1.0
  C  C83  1  0.88296000  0.45928000  0.81707000  1.0
  C  C84  1  0.61704000  0.95928000  0.31707000  1.0
  C  C85  1  0.11704000  0.54072000  0.18293000  1.0
  C  C86  1  0.35846000  0.13109000  0.71120000  1.0
  C  C87  1  0.85846000  0.36891000  0.78880000  1.0
  C  C88  1  0.64154000  0.86891000  0.28880000  1.0
  C  C89  1  0.14154000  0.63109000  0.21120000  1.0
  C  C90  1  0.40421000  0.20923000  0.66157000  1.0
  C  C91  1  0.90421000  0.29077000  0.83843000  1.0
  C  C92  1  0.59579000  0.79077000  0.33843000  1.0
  C  C93  1  0.09579000  0.70923000  0.16157000  1.0
  C  C94  1  0.28954000  0.14639000  0.78139000  1.0
  C  C95  1  0.78954000  0.35362000  0.71861000  1.0
  C  C96  1  0.71046000  0.85361000  0.21861000  1.0
  C  C97  1  0.21046000  0.64638000  0.28139000  1.0
  C  C98  1  0.12320000  0.12062000  0.13598000  1.0
  C  C99  1  0.62320000  0.37938000  0.36402000  1.0
  C  C100  1  0.87680000  0.87938000  0.86402000  1.0
  C  C101  1  0.37680000  0.62062000  0.63598000  1.0
  C  C102  1  0.20480000  0.09640000  0.20156000  1.0
  C  C103  1  0.70479000  0.40360000  0.29843000  1.0
  C  C104  1  0.79520000  0.90360000  0.79843000  1.0
  C  C105  1  0.29520000  0.59640000  0.70156000  1.0
  C  C106  1  0.27049000  0.16588000  0.23321000  1.0
  C  C107  1  0.77049000  0.33412000  0.26679000  1.0
  C  C108  1  0.72951000  0.83412000  0.76679000  1.0
  C  C109  1  0.22951000  0.66588000  0.73321000  1.0
  C  C110  1  0.34254000  0.14479000  0.29869000  1.0
  C  C111  1  0.84254000  0.35521000  0.20131000  1.0
  C  C112  1  0.65746000  0.85521000  0.70131000  1.0
  C  C113  1  0.15746000  0.64479000  0.79870000  1.0
  C  C114  1  0.40509000  0.21690000  0.34423000  1.0
  C  C115  1  0.90509000  0.28311000  0.15577000  1.0
  C  C116  1  0.59491000  0.78311000  0.65577000  1.0
  C  C117  1  0.09491000  0.71689000  0.84424000  1.0
  C  C118  1  0.35502000  0.05339000  0.32588000  1.0
  C  C119  1  0.85502000  0.44661000  0.17412000  1.0
  C  C120  1  0.64498000  0.94661000  0.67412000  1.0
  C  C121  1  0.14498000  0.55339000  0.82588000  1.0
  C  C122  1  0.29525000  0.98234000  0.28818000  1.0
  C  C123  1  0.79525000  0.51766000  0.21182000  1.0
  C  C124  1  0.70475000  0.01766000  0.71182000  1.0
  C  C125  1  0.20475000  0.48234000  0.78818000  1.0
  C  C126  1  0.21610000  0.00581000  0.22983000  1.0
  C  C127  1  0.71610000  0.49419000  0.27017000  1.0
  C  C128  1  0.78390000  0.99419000  0.77017000  1.0
  C  C129  1  0.28389000  0.50581000  0.72983000  1.0
  N  N130  1  0.35824000  0.87560000  0.69256000  1.0
  N  N131  1  0.85824000  0.62440000  0.80744000  1.0
  N  N132  1  0.64176000  0.12440000  0.30744000  1.0
  N  N133  1  0.14176000  0.37560000  0.19256000  1.0
  N  N134  1  0.31042000  0.89046000  0.31208000  1.0
  N  N135  1  0.81042000  0.60954000  0.18792000  1.0
  N  N136  1  0.68958000  0.10954000  0.68792000  1.0
  N  N137  1  0.18958000  0.39046000  0.81208000  1.0
  O  O138  1  0.13363000  0.17025000  0.90123000  1.0
  O  O139  1  0.63363000  0.32975000  0.59877000  1.0
  O  O140  1  0.86637000  0.82975000  0.09877000  1.0
  O  O141  1  0.36637000  0.67025000  0.40123000  1.0
  O  O142  1  0.14726000  0.35844000  0.99616000  1.0
  O  O143  1  0.64726000  0.14156000  0.50383000  1.0
  O  O144  1  0.85274000  0.64156000  0.00383000  1.0
  O  O145  1  0.35274000  0.85844000  0.49616000  1.0
  O  O146  1  0.13392000  0.02035000  0.93888000  1.0
  O  O147  1  0.63391000  0.47965000  0.56112000  1.0
  O  O148  1  0.86609000  0.97965000  0.06112000  1.0
  O  O149  1  0.36608000  0.52035000  0.43888000  1.0
  O  O150  1  0.93366000  0.13043000  0.96738000  1.0
  O  O151  1  0.43366000  0.36957000  0.53261000  1.0
  O  O152  1  0.06634000  0.86957000  0.03262000  1.0
  O  O153  1  0.56634000  0.63043000  0.46739000  1.0
  O  O154  1  0.36439000  0.28957000  0.66874000  1.0
  O  O155  1  0.86439000  0.21043000  0.83126000  1.0
  O  O156  1  0.63561000  0.71043000  0.33126000  1.0
  O  O157  1  0.13561000  0.78957000  0.16874000  1.0
  O  O158  1  0.48040000  0.18978000  0.61193000  1.0
  O  O159  1  0.98040000  0.31022000  0.88807000  1.0
  O  O160  1  0.51960000  0.81022000  0.38807000  1.0
  O  O161  1  0.01960000  0.68978000  0.11193000  1.0
  O  O162  1  0.13382000  0.19502000  0.09439000  1.0
  O  O163  1  0.63382000  0.30498000  0.40560000  1.0
  O  O164  1  0.86618000  0.80498000  0.90560000  1.0
  O  O165  1  0.36618000  0.69502000  0.59439000  1.0
  O  O166  1  0.04585000  0.06774000  0.12686000  1.0
  O  O167  1  0.54585000  0.43226000  0.37314000  1.0
  O  O168  1  0.95415000  0.93226000  0.87314000  1.0
  O  O169  1  0.45415000  0.56774000  0.62686000  1.0
  O  O170  1  0.40111000  0.30085000  0.30953000  1.0
  O  O171  1  0.90112000  0.19915000  0.19047000  1.0
  O  O172  1  0.59889000  0.69915000  0.69047000  1.0
  O  O173  1  0.09888000  0.80085000  0.80953000  1.0
  O  O174  1  0.45727000  0.19857000  0.41156000  1.0
  O  O175  1  0.95727000  0.30143000  0.08844000  1.0
  O  O176  1  0.54273000  0.80143000  0.58844000  1.0
  O  O177  1  0.04273000  0.69857000  0.91156000  1.0
