# generated using pymatgen
data_CuH10(C2N5)2
_symmetry_space_group_name_H-M   'P 1'
_cell_length_a   6.91075000
_cell_length_b   9.77663000
_cell_length_c   13.74520000
_cell_angle_alpha   90.00280000
_cell_angle_beta   77.06500000
_cell_angle_gamma   90.00010000
_symmetry_Int_Tables_number   1
_chemical_formula_structural   CuH10(C2N5)2
_chemical_formula_sum   'Cu4 H40 C16 N40'
_cell_volume   905.11301552
_cell_formula_units_Z   4
loop_
 _symmetry_equiv_pos_site_id
 _symmetry_equiv_pos_as_xyz
  1  'x, y, z'
loop_
 _atom_site_type_symbol
 _atom_site_label
 _atom_site_symmetry_multiplicity
 _atom_site_fract_x
 _atom_site_fract_y
 _atom_site_fract_z
 _atom_site_occupancy
  Cu  Cu0  1  0.49746000  0.81894000  0.38104000  1.0
  Cu  Cu1  1  0.00270000  0.31899000  0.11891000  1.0
  Cu  Cu2  1  0.50262000  0.18102000  0.61897000  1.0
  Cu  Cu3  1  0.99723000  0.68104000  0.88108000  1.0
  H  H4  1  0.34307000  0.61678000  0.49948000  1.0
  H  H5  1  0.15700000  0.11673000  0.00054000  1.0
  H  H6  1  0.65701000  0.38320000  0.50053000  1.0
  H  H7  1  0.84290000  0.88327000  0.99948000  1.0
  H  H8  1  0.18925000  0.74698000  0.51913000  1.0
  H  H9  1  0.31095000  0.24682000  0.98081000  1.0
  H  H10  1  0.81082000  0.25300000  0.48088000  1.0
  H  H11  1  0.68909000  0.75309000  0.01911000  1.0
  H  H12  1  0.04047000  0.57948000  0.43037000  1.0
  H  H13  1  0.45961000  0.07941000  0.06965000  1.0
  H  H14  1  0.95963000  0.42051000  0.56962000  1.0
  H  H15  1  0.54034000  0.92059000  0.93036000  1.0
  H  H16  1  0.27159000  0.56962000  0.34183000  1.0
  H  H17  1  0.22846000  0.06961000  0.15816000  1.0
  H  H18  1  0.72850000  0.43038000  0.65817000  1.0
  H  H19  1  0.77148000  0.93043000  0.84184000  1.0
  H  H20  1  0.04143000  0.72561000  0.27697000  1.0
  H  H21  1  0.45861000  0.22559000  0.22304000  1.0
  H  H22  1  0.95862000  0.27439000  0.72304000  1.0
  H  H23  1  0.54139000  0.77446000  0.77692000  1.0
  H  H24  1  0.00989000  0.82604000  0.38669000  1.0
  H  H25  1  0.49025000  0.32599000  0.11332000  1.0
  H  H26  1  0.99021000  0.17396000  0.61332000  1.0
  H  H27  1  0.50973000  0.67403000  0.88664000  1.0
  H  H28  1  0.25985000  0.94213000  0.30105000  1.0
  H  H29  1  0.24029000  0.44213000  0.19895000  1.0
  H  H30  1  0.74024000  0.05788000  0.69896000  1.0
  H  H31  1  0.75968000  0.55789000  0.80108000  1.0
  H  H32  1  0.35216000  0.81293000  0.22140000  1.0
  H  H33  1  0.14785000  0.31292000  0.27855000  1.0
  H  H34  1  0.64788000  0.18709000  0.77857000  1.0
  H  H35  1  0.85214000  0.68704000  0.72142000  1.0
  H  H36  1  0.69773000  0.61819000  0.51529000  1.0
  H  H37  1  0.80226000  0.11817000  0.98479000  1.0
  H  H38  1  0.30241000  0.38181000  0.48480000  1.0
  H  H39  1  0.19753000  0.88180000  0.01515000  1.0
  H  H40  1  0.72982000  0.12751000  0.35201000  1.0
  H  H41  1  0.77033000  0.62754000  0.14800000  1.0
  H  H42  1  0.27011000  0.87248000  0.64799000  1.0
  H  H43  1  0.22957000  0.37240000  0.85203000  1.0
  C  C44  1  0.17172000  0.63833000  0.39296000  1.0
  C  C45  1  0.32834000  0.13830000  0.10703000  1.0
  C  C46  1  0.82836000  0.36165000  0.60704000  1.0
  C  C47  1  0.67163000  0.86172000  0.89296000  1.0
  C  C48  1  0.11420000  0.75931000  0.33617000  1.0
  C  C49  1  0.38589000  0.25927000  0.16384000  1.0
  C  C50  1  0.88588000  0.24068000  0.66384000  1.0
  C  C51  1  0.61411000  0.74076000  0.83614000  1.0
  C  C52  1  0.72262000  0.72427000  0.53163000  1.0
  C  C53  1  0.77741000  0.22424000  0.96839000  1.0
  C  C54  1  0.27748000  0.27575000  0.46841000  1.0
  C  C55  1  0.22244000  0.77575000  0.03158000  1.0
  C  C56  1  0.75204000  0.06470000  0.28568000  1.0
  C  C57  1  0.74807000  0.56472000  0.21431000  1.0
  C  C58  1  0.24792000  0.93530000  0.71431000  1.0
  C  C59  1  0.25184000  0.43526000  0.78574000  1.0
  N  N60  1  0.28367000  0.69332000  0.46399000  1.0
  N  N61  1  0.21647000  0.19328000  0.03598000  1.0
  N  N62  1  0.71640000  0.30665000  0.53601000  1.0
  N  N63  1  0.78351000  0.80674000  0.96399000  1.0
  N  N64  1  0.29485000  0.83976000  0.29513000  1.0
  N  N65  1  0.20525000  0.33978000  0.20483000  1.0
  N  N66  1  0.70524000  0.16023000  0.70487000  1.0
  N  N67  1  0.79472000  0.66025000  0.79514000  1.0
  N  N68  1  0.64980000  0.82929000  0.48808000  1.0
  N  N69  1  0.85025000  0.32929000  0.01193000  1.0
  N  N70  1  0.35026000  0.17068000  0.51195000  1.0
  N  N71  1  0.14953000  0.67068000  0.98810000  1.0
  N  N72  1  0.70989000  0.94432000  0.52738000  1.0
  N  N73  1  0.79019000  0.44430000  0.97260000  1.0
  N  N74  1  0.29019000  0.05569000  0.47259000  1.0
  N  N75  1  0.20964000  0.55568000  0.02743000  1.0
  N  N76  1  0.81518000  0.90802000  0.59197000  1.0
  N  N77  1  0.68493000  0.40796000  0.90799000  1.0
  N  N78  1  0.18498000  0.09205000  0.40798000  1.0
  N  N79  1  0.31502000  0.59205000  0.09197000  1.0
  N  N80  1  0.82734000  0.76975000  0.59586000  1.0
  N  N81  1  0.67276000  0.26968000  0.90414000  1.0
  N  N82  1  0.17284000  0.23032000  0.40414000  1.0
  N  N83  1  0.32722000  0.73033000  0.09578000  1.0
  N  N84  1  0.68393000  0.93632000  0.28278000  1.0
  N  N85  1  0.81615000  0.43633000  0.21720000  1.0
  N  N86  1  0.31612000  0.06365000  0.71723000  1.0
  N  N87  1  0.18374000  0.56365000  0.78286000  1.0
  N  N88  1  0.74140000  0.89470000  0.18698000  1.0
  N  N89  1  0.75863000  0.39470000  0.31299000  1.0
  N  N90  1  0.25864000  0.10527000  0.81302000  1.0
  N  N91  1  0.24131000  0.60533000  0.68708000  1.0
  N  N92  1  0.84101000  0.99503000  0.13474000  1.0
  N  N93  1  0.65903000  0.49503000  0.36524000  1.0
  N  N94  1  0.15895000  0.00497000  0.86525000  1.0
  N  N95  1  0.34096000  0.50502000  0.63483000  1.0
  N  N96  1  0.84970000  0.10396000  0.19467000  1.0
  N  N97  1  0.65040000  0.60399000  0.30532000  1.0
  N  N98  1  0.15022000  0.89604000  0.80532000  1.0
  N  N99  1  0.34958000  0.39604000  0.69472000  1.0
