# generated using pymatgen
data_MoPH6(C2O3)2
_symmetry_space_group_name_H-M   'P 1'
_cell_length_a   9.31672000
_cell_length_b   10.47760000
_cell_length_c   11.96931852
_cell_angle_alpha   64.05938593
_cell_angle_beta   68.95686893
_cell_angle_gamma   89.96440000
_symmetry_Int_Tables_number   1
_chemical_formula_structural   MoPH6(C2O3)2
_chemical_formula_sum   'Mo4 P4 H24 C16 O24'
_cell_volume   963.42956854
_cell_formula_units_Z   4
loop_
 _symmetry_equiv_pos_site_id
 _symmetry_equiv_pos_as_xyz
  1  'x, y, z'
loop_
 _atom_site_type_symbol
 _atom_site_label
 _atom_site_symmetry_multiplicity
 _atom_site_fract_x
 _atom_site_fract_y
 _atom_site_fract_z
 _atom_site_occupancy
  Mo  Mo0  1  0.76830000  0.40481000  0.47202000  1.0
  Mo  Mo1  1  0.73171000  0.87705000  0.52773000  1.0
  Mo  Mo2  1  0.23168000  0.59520000  0.52798000  1.0
  Mo  Mo3  1  0.26829000  0.12295000  0.47228000  1.0
  P  P4  1  0.53106000  0.08524000  0.62995000  1.0
  P  P5  1  0.96910000  0.71500000  0.36984000  1.0
  P  P6  1  0.46895000  0.91477000  0.37002000  1.0
  P  P7  1  0.03090000  0.28501000  0.63017000  1.0
  H  H8  1  0.34527000  0.17098000  0.75959000  1.0
  H  H9  1  0.15580000  0.92955000  0.23992000  1.0
  H  H10  1  0.65475000  0.82901000  0.24041000  1.0
  H  H11  1  0.84419000  0.07044000  0.76009000  1.0
  H  H12  1  0.28802000  0.98538000  0.81683000  1.0
  H  H13  1  0.21181000  0.80082000  0.18278000  1.0
  H  H14  1  0.71198000  0.01465000  0.18316000  1.0
  H  H15  1  0.78819000  0.19918000  0.81722000  1.0
  H  H16  1  0.43744000  0.24220000  0.88735000  1.0
  H  H17  1  0.06295000  0.12888000  0.11304000  1.0
  H  H18  1  0.56257000  0.75780000  0.11265000  1.0
  H  H19  1  0.93704000  0.87115000  0.88697000  1.0
  H  H20  1  0.53099000  0.18533000  0.07059000  1.0
  H  H21  1  0.96897000  0.25582000  0.93018000  1.0
  H  H22  1  0.46901000  0.81468000  0.92941000  1.0
  H  H23  1  0.03100000  0.74423000  0.06981000  1.0
  H  H24  1  0.86868000  0.24049000  0.32843000  1.0
  H  H25  1  0.63164000  0.56906000  0.67139000  1.0
  H  H26  1  0.13132000  0.75950000  0.67157000  1.0
  H  H27  1  0.36837000  0.43092000  0.32861000  1.0
  H  H28  1  0.01405000  0.29847000  0.33589000  1.0
  H  H29  1  0.48617000  0.63469000  0.66444000  1.0
  H  H30  1  0.98596000  0.70153000  0.66410000  1.0
  H  H31  1  0.51382000  0.36529000  0.33557000  1.0
  C  C32  1  0.38689000  0.06770000  0.78647000  1.0
  C  C33  1  0.11347000  0.85337000  0.21319000  1.0
  C  C34  1  0.61309000  0.93230000  0.21359000  1.0
  C  C35  1  0.88656000  0.14668000  0.78674000  1.0
  C  C36  1  0.44546000  0.03214000  0.89651000  1.0
  C  C37  1  0.05480000  0.92828000  0.10332000  1.0
  C  C38  1  0.55456000  0.96788000  0.10347000  1.0
  C  C39  1  0.94519000  0.07170000  0.89669000  1.0
  C  C40  1  0.46473000  0.13563000  0.93688000  1.0
  C  C41  1  0.03549000  0.07211000  0.06336000  1.0
  C  C42  1  0.53526000  0.86437000  0.06310000  1.0
  C  C43  1  0.96451000  0.92787000  0.93667000  1.0
  C  C44  1  0.51822000  0.10405000  0.03934000  1.0
  C  C45  1  0.98172000  0.14329000  0.96109000  1.0
  C  C46  1  0.48178000  0.89597000  0.96063000  1.0
  C  C47  1  0.01828000  0.85672000  0.03891000  1.0
  O  O48  1  0.67965000  0.19284000  0.58663000  1.0
  O  O49  1  0.82060000  0.77962000  0.41306000  1.0
  O  O50  1  0.32037000  0.80717000  0.41337000  1.0
  O  O51  1  0.17938000  0.22038000  0.58695000  1.0
  O  O52  1  0.46428000  0.13863000  0.52209000  1.0
  O  O53  1  0.03581000  0.66050000  0.47773000  1.0
  O  O54  1  0.53568000  0.86137000  0.47790000  1.0
  O  O55  1  0.96422000  0.33950000  0.52227000  1.0
  O  O56  1  0.58033000  0.93519000  0.65822000  1.0
  O  O57  1  0.91958000  0.59323000  0.34169000  1.0
  O  O58  1  0.41967000  0.06478000  0.34180000  1.0
  O  O59  1  0.08041000  0.40675000  0.65830000  1.0
  O  O60  1  0.68577000  0.44870000  0.60035000  1.0
  O  O61  1  0.81377000  0.04917000  0.39934000  1.0
  O  O62  1  0.31423000  0.55129000  0.39966000  1.0
  O  O63  1  0.18623000  0.95084000  0.60065000  1.0
  O  O64  1  0.64367000  0.43599000  0.39090000  1.0
  O  O65  1  0.85668000  0.82750000  0.60859000  1.0
  O  O66  1  0.35633000  0.56401000  0.60910000  1.0
  O  O67  1  0.14333000  0.17248000  0.39143000  1.0
  O  O68  1  0.92374000  0.33104000  0.31330000  1.0
  O  O69  1  0.57672000  0.64455000  0.68673000  1.0
  O  O70  1  0.07627000  0.66895000  0.68669000  1.0
  O  O71  1  0.42326000  0.35543000  0.31329000  1.0
