# generated using pymatgen
data_ZnH8(C3O2)2
_symmetry_space_group_name_H-M   'P 1'
_cell_length_a   4.87633000
_cell_length_b   6.71369000
_cell_length_c   11.58800000
_cell_angle_alpha   106.40100000
_cell_angle_beta   94.06540000
_cell_angle_gamma   95.43300000
_symmetry_Int_Tables_number   1
_chemical_formula_structural   ZnH8(C3O2)2
_chemical_formula_sum   'Zn2 H16 C12 O8'
_cell_volume   360.39989180
_cell_formula_units_Z   2
loop_
 _symmetry_equiv_pos_site_id
 _symmetry_equiv_pos_as_xyz
  1  'x, y, z'
loop_
 _atom_site_type_symbol
 _atom_site_label
 _atom_site_symmetry_multiplicity
 _atom_site_fract_x
 _atom_site_fract_y
 _atom_site_fract_z
 _atom_site_occupancy
  Zn  Zn0  1  0.26102000  0.28312000  0.40992000  1.0
  Zn  Zn1  1  0.73899000  0.71688000  0.59008000  1.0
  H  H2  1  0.00596000  0.84726000  0.28171000  1.0
  H  H3  1  0.99404000  0.15274000  0.71829000  1.0
  H  H4  1  0.41340000  0.68180000  0.16553000  1.0
  H  H5  1  0.58660000  0.31820000  0.83448000  1.0
  H  H6  1  0.75439000  0.49200000  0.03976000  1.0
  H  H7  1  0.24561000  0.50800000  0.96024000  1.0
  H  H8  1  0.58444000  0.33073000  0.11704000  1.0
  H  H9  1  0.41556000  0.66926000  0.88296000  1.0
  H  H10  1  0.92919000  0.45153000  0.17052000  1.0
  H  H11  1  0.07081000  0.54847000  0.82948000  1.0
  H  H12  1  0.98429000  0.79870000  0.06127000  1.0
  H  H13  1  0.01571000  0.20130000  0.93873000  1.0
  H  H14  1  0.01207000  0.06798000  0.14002000  1.0
  H  H15  1  0.98793000  0.93201000  0.85998000  1.0
  H  H16  1  0.68662000  0.93326000  0.06561000  1.0
  H  H17  1  0.31338000  0.06674000  0.93439000  1.0
  C  C18  1  0.81082000  0.86562000  0.23463000  1.0
  C  C19  1  0.18918000  0.13438000  0.76537000  1.0
  C  C20  1  0.61270000  0.66346000  0.20977000  1.0
  C  C21  1  0.38730000  0.33654000  0.79024000  1.0
  C  C22  1  0.72813000  0.47277000  0.12936000  1.0
  C  C23  1  0.27186000  0.52723000  0.87064000  1.0
  C  C24  1  0.69458000  0.05119000  0.31662000  1.0
  C  C25  1  0.30542000  0.94881000  0.68338000  1.0
  C  C26  1  0.87658000  0.91965000  0.11854000  1.0
  C  C27  1  0.12342000  0.08035000  0.88146000  1.0
  C  C28  1  0.54876000  0.61463000  0.32649000  1.0
  C  C29  1  0.45124000  0.38538000  0.67352000  1.0
  O  O30  1  0.85108000  0.21630000  0.37613000  1.0
  O  O31  1  0.14893000  0.78370000  0.62387000  1.0
  O  O32  1  0.43181000  0.03770000  0.31846000  1.0
  O  O33  1  0.56819000  0.96230000  0.68154000  1.0
  O  O34  1  0.71783000  0.70026000  0.41975000  1.0
  O  O35  1  0.28219000  0.29975000  0.58025000  1.0
  O  O36  1  0.33513000  0.48521000  0.31962000  1.0
  O  O37  1  0.66488000  0.51481000  0.68038000  1.0
