# generated using pymatgen
data_ZnH16C25N3(ClO)3
_symmetry_space_group_name_H-M   'P 1'
_cell_length_a   9.18706000
_cell_length_b   10.54840000
_cell_length_c   13.84770000
_cell_angle_alpha   80.46780000
_cell_angle_beta   78.52940000
_cell_angle_gamma   65.83900000
_symmetry_Int_Tables_number   1
_chemical_formula_structural   ZnH16C25N3(ClO)3
_chemical_formula_sum   'Zn2 H32 C50 N6 Cl6 O6'
_cell_volume   1194.61847349
_cell_formula_units_Z   2
loop_
 _symmetry_equiv_pos_site_id
 _symmetry_equiv_pos_as_xyz
  1  'x, y, z'
loop_
 _atom_site_type_symbol
 _atom_site_label
 _atom_site_symmetry_multiplicity
 _atom_site_fract_x
 _atom_site_fract_y
 _atom_site_fract_z
 _atom_site_occupancy
  Zn  Zn0  1  0.30149000  0.11492000  0.40291000  1.0
  Zn  Zn1  1  0.69851000  0.88508000  0.59709000  1.0
  H  H2  1  0.46090000  0.58120000  0.18885000  1.0
  H  H3  1  0.53910000  0.41880000  0.81115000  1.0
  H  H4  1  0.59019000  0.12190000  0.26128000  1.0
  H  H5  1  0.40981000  0.87810000  0.73872000  1.0
  H  H6  1  0.65549000  0.26497000  0.10957000  1.0
  H  H7  1  0.34451000  0.73503000  0.89044000  1.0
  H  H8  1  0.14073000  0.50627000  0.12174000  1.0
  H  H9  1  0.85927000  0.49373000  0.87826000  1.0
  H  H10  1  0.09937000  0.35022000  0.26961000  1.0
  H  H11  1  0.90063000  0.64978000  0.73039000  1.0
  H  H12  1  0.31730000  0.58126000  0.99666000  1.0
  H  H13  1  0.68270000  0.41873000  0.00334000  1.0
  H  H14  1  0.46826000  0.38404000  0.46333000  1.0
  H  H15  1  0.53174000  0.61596000  0.53667000  1.0
  H  H16  1  0.77477000  0.51348000  0.51783000  1.0
  H  H17  1  0.22523000  0.48653000  0.48216000  1.0
  H  H18  1  0.06889000  0.37139000  0.48977000  1.0
  H  H19  1  0.93111000  0.62861000  0.51023000  1.0
  H  H20  1  0.00431000  0.05669000  0.38431000  1.0
  H  H21  1  0.99569000  0.94331000  0.61568000  1.0
  H  H22  1  0.70322000  0.18172000  0.41268000  1.0
  H  H23  1  0.29678000  0.81828000  0.58732000  1.0
  H  H24  1  0.97289000  0.21028000  0.89036000  1.0
  H  H25  1  0.02711000  0.78972000  0.10964000  1.0
  H  H26  1  0.26982000  0.10467000  0.87753000  1.0
  H  H27  1  0.73018000  0.89533000  0.12247000  1.0
  H  H28  1  0.21003000  0.04667000  0.19789000  1.0
  H  H29  1  0.78996000  0.95333000  0.80211000  1.0
  H  H30  1  0.91444000  0.15601000  0.19661000  1.0
  H  H31  1  0.08556000  0.84398000  0.80339000  1.0
  H  H32  1  0.47718000  0.96003000  0.11260000  1.0
  H  H33  1  0.52282000  0.03997000  0.88740000  1.0
  C  C34  1  0.57309000  0.79255000  0.34521000  1.0
  C  C35  1  0.42691000  0.20745000  0.65479000  1.0
  C  C36  1  0.69379000  0.68427000  0.29412000  1.0
  C  C37  1  0.30622000  0.31573000  0.70588000  1.0
  C  C38  1  0.65459000  0.60848000  0.23666000  1.0
  C  C39  1  0.34541000  0.39152000  0.76334000  1.0
  C  C40  1  0.49258000  0.64081000  0.23205000  1.0
  C  C41  1  0.50742000  0.35919000  0.76795000  1.0
  C  C42  1  0.37251000  0.75023000  0.28082000  1.0
  C  C43  1  0.62749000  0.24977000  0.71918000  1.0
  C  C44  1  0.40724000  0.83510000  0.33561000  1.0
  C  C45  1  0.59276000  0.16490000  0.66439000  1.0
  C  C46  1  0.61222000  0.86490000  0.41515000  1.0
  C  C47  1  0.38778000  0.13510000  0.58485000  1.0
  C  C48  1  0.49581000  0.20875000  0.22689000  1.0
  C  C49  1  0.50419000  0.79125000  0.77311000  1.0
  C  C50  1  0.53000000  0.28996000  0.14345000  1.0
  C  C51  1  0.47000000  0.71004000  0.85655000  1.0
  C  C52  1  0.40237000  0.40285000  0.10393000  1.0
  C  C53  1  0.59763000  0.59715000  0.89607000  1.0
  C  C54  1  0.24470000  0.42237000  0.14977000  1.0
  C  C55  1  0.75530000  0.57763000  0.85023000  1.0
  C  C56  1  0.22068000  0.33559000  0.23279000  1.0
  C  C57  1  0.77932000  0.66441000  0.76722000  1.0
  C  C58  1  0.42688000  0.50066000  0.02165000  1.0
  C  C59  1  0.57312000  0.49934000  0.97835000  1.0
  C  C60  1  0.53812000  0.43679000  0.48193000  1.0
  C  C61  1  0.46188000  0.56321000  0.51807000  1.0
  C  C62  1  0.71174000  0.36099000  0.46629000  1.0
  C  C63  1  0.28826000  0.63901000  0.53371000  1.0
  C  C64  1  0.81904000  0.41262000  0.48852000  1.0
  C  C65  1  0.18096000  0.58738000  0.51148000  1.0
  C  C66  1  0.98296000  0.33538000  0.47187000  1.0
  C  C67  1  0.01704000  0.66462000  0.52812000  1.0
  C  C68  1  0.94656000  0.15872000  0.41320000  1.0
  C  C69  1  0.05343000  0.84128000  0.58680000  1.0
  C  C70  1  0.78005000  0.22957000  0.42852000  1.0
  C  C71  1  0.21995000  0.77043000  0.57148000  1.0
  C  C72  1  0.02969000  0.17410000  0.95748000  1.0
  C  C73  1  0.97030000  0.82590000  0.04252000  1.0
  C  C74  1  0.19693000  0.11452000  0.95049000  1.0
  C  C75  1  0.80307000  0.88548000  0.04951000  1.0
  C  C76  1  0.26862000  0.06718000  0.03760000  1.0
  C  C77  1  0.73138000  0.93282000  0.96240000  1.0
  C  C78  1  0.16292000  0.08249000  0.12760000  1.0
  C  C79  1  0.83708000  0.91751000  0.87240000  1.0
  C  C80  1  0.99708000  0.14345000  0.12681000  1.0
  C  C81  1  0.00292000  0.85655000  0.87319000  1.0
  C  C82  1  0.44214000  0.00392000  0.03944000  1.0
  C  C83  1  0.55786000  0.99608000  0.96056000  1.0
  N  N84  1  0.34373000  0.23141000  0.27240000  1.0
  N  N85  1  0.65627000  0.76859000  0.72760000  1.0
  N  N86  1  0.04769000  0.21063000  0.43400000  1.0
  N  N87  1  0.95231000  0.78937000  0.56600000  1.0
  N  N88  1  0.92873000  0.19028000  0.04379000  1.0
  N  N89  1  0.07127000  0.80972000  0.95621000  1.0
  Cl  Cl90  1  0.17257000  0.78526000  0.27640000  1.0
  Cl  Cl91  1  0.82743000  0.21473000  0.72359000  1.0
  Cl  Cl92  1  0.80188000  0.47580000  0.17154000  1.0
  Cl  Cl93  1  0.19812000  0.52420000  0.82846000  1.0
  Cl  Cl94  1  0.89383000  0.64862000  0.29864000  1.0
  Cl  Cl95  1  0.10617000  0.35138000  0.70136000  1.0
  O  O96  1  0.58068000  0.99392000  0.39789000  1.0
  O  O97  1  0.41932000  0.00608000  0.60211000  1.0
  O  O98  1  0.67044000  0.78878000  0.49165000  1.0
  O  O99  1  0.32956000  0.21122000  0.50835000  1.0
  O  O100  1  0.29123000  0.94148000  0.37642000  1.0
  O  O101  1  0.70877000  0.05852000  0.62358000  1.0
