# generated using pymatgen
data_Mn2H21C14NO10
_symmetry_space_group_name_H-M   'P 1'
_cell_length_a   9.71230000
_cell_length_b   10.24420000
_cell_length_c   11.12530000
_cell_angle_alpha   64.96210000
_cell_angle_beta   82.40190000
_cell_angle_gamma   65.17880000
_symmetry_Int_Tables_number   1
_chemical_formula_structural   Mn2H21C14NO10
_chemical_formula_sum   'Mn4 H42 C28 N2 O20'
_cell_volume   908.85505036
_cell_formula_units_Z   2
loop_
 _symmetry_equiv_pos_site_id
 _symmetry_equiv_pos_as_xyz
  1  'x, y, z'
loop_
 _atom_site_type_symbol
 _atom_site_label
 _atom_site_symmetry_multiplicity
 _atom_site_fract_x
 _atom_site_fract_y
 _atom_site_fract_z
 _atom_site_occupancy
  Mn  Mn0  1  0.50000000  0.50001000  0.50000000  1.0
  Mn  Mn1  1  0.54691000  0.10141000  0.64827000  1.0
  Mn  Mn2  1  0.45309000  0.89859000  0.35173000  1.0
  Mn  Mn3  1  0.50000000  0.00000000  0.00000000  1.0
  H  H4  1  0.15926000  0.15305000  0.61174000  1.0
  H  H5  1  0.84073000  0.84694000  0.38826000  1.0
  H  H6  1  0.14929000  0.12052000  0.84903000  1.0
  H  H7  1  0.85070000  0.87947000  0.15097000  1.0
  H  H8  1  0.89972000  0.14602000  0.95931000  1.0
  H  H9  1  0.10026000  0.85399000  0.04069000  1.0
  H  H10  1  0.67280000  0.21569000  0.82546000  1.0
  H  H11  1  0.32719000  0.78433000  0.17452000  1.0
  H  H12  1  0.86819000  0.14009000  0.44992000  1.0
  H  H13  1  0.13180000  0.85991000  0.55007000  1.0
  H  H14  1  0.03944000  0.17358000  0.42098000  1.0
  H  H15  1  0.96055000  0.82642000  0.57901000  1.0
  H  H16  1  0.85469000  0.33480000  0.38794000  1.0
  H  H17  1  0.14530000  0.66520000  0.61205000  1.0
  H  H18  1  0.66398000  0.65528000  0.04008000  1.0
  H  H19  1  0.33602000  0.34473000  0.95992000  1.0
  H  H20  1  0.71288000  0.47140000  0.18383000  1.0
  H  H21  1  0.28711000  0.52861000  0.81617000  1.0
  H  H22  1  0.83180000  0.57491000  0.14069000  1.0
  H  H23  1  0.16821000  0.42508000  0.85931000  1.0
  H  H24  1  0.22231000  0.31398000  0.27180000  1.0
  H  H25  1  0.77770000  0.68603000  0.72821000  1.0
  H  H26  1  0.21847000  0.50975000  0.19479000  1.0
  H  H27  1  0.78154000  0.49026000  0.80522000  1.0
  H  H28  1  0.10341000  0.45940000  0.33041000  1.0
  H  H29  1  0.89660000  0.54060000  0.66960000  1.0
  H  H30  1  0.67474000  0.90654000  0.52384000  1.0
  H  H31  1  0.32527000  0.09346000  0.47616000  1.0
  H  H32  1  0.61993000  0.06731000  0.40807000  1.0
  H  H33  1  0.38007000  0.93270000  0.59194000  1.0
  H  H34  1  0.03428000  0.80177000  0.85466000  1.0
  H  H35  1  0.96572000  0.19822000  0.14533000  1.0
  H  H36  1  0.97699000  0.64818000  0.88814000  1.0
  H  H37  1  0.02301000  0.35181000  0.11185000  1.0
  H  H38  1  0.99163000  0.69811000  0.02050000  1.0
  H  H39  1  0.00838000  0.30188000  0.97950000  1.0
  H  H40  1  0.26904000  0.77656000  0.80022000  1.0
  H  H41  1  0.73096000  0.22343000  0.19978000  1.0
  H  H42  1  0.35011000  0.66126000  0.96758000  1.0
  H  H43  1  0.64990000  0.33873000  0.03242000  1.0
  H  H44  1  0.45901000  0.63717000  0.82936000  1.0
  H  H45  1  0.54100000  0.36283000  0.17064000  1.0
  C  C46  1  0.92632000  0.19849000  0.59241000  1.0
  C  C47  1  0.07367000  0.80151000  0.40758000  1.0
  C  C48  1  0.05401000  0.16547000  0.66263000  1.0
  C  C49  1  0.94598000  0.83453000  0.33737000  1.0
  C  C50  1  0.04860000  0.14702000  0.79455000  1.0
  C  C51  1  0.95139000  0.85297000  0.20545000  1.0
  C  C52  1  0.91084000  0.16263000  0.85588000  1.0
  C  C53  1  0.08915000  0.83737000  0.14412000  1.0
  C  C54  1  0.78351000  0.20074000  0.78458000  1.0
  C  C55  1  0.21648000  0.79927000  0.21541000  1.0
  C  C56  1  0.92365000  0.21225000  0.45428000  1.0
  C  C57  1  0.07635000  0.78775000  0.54571000  1.0
  C  C58  1  0.63020000  0.67039000  0.23116000  1.0
  C  C59  1  0.36982000  0.32961000  0.76884000  1.0
  C  C60  1  0.71317000  0.58907000  0.14166000  1.0
  C  C61  1  0.28684000  0.41093000  0.85834000  1.0
  C  C62  1  0.33854000  0.36502000  0.38801000  1.0
  C  C63  1  0.66147000  0.63499000  0.61199000  1.0
  C  C64  1  0.21407000  0.41518000  0.28871000  1.0
  C  C65  1  0.78594000  0.58483000  0.71130000  1.0
  C  C66  1  0.79584000  0.86313000  0.88089000  1.0
  C  C67  1  0.20417000  0.13686000  0.11910000  1.0
  C  C68  1  0.95962000  0.74532000  0.91505000  1.0
  C  C69  1  0.04038000  0.25468000  0.08495000  1.0
  C  C70  1  0.42285000  0.84953000  0.84845000  1.0
  C  C71  1  0.57715000  0.15047000  0.15156000  1.0
  C  C72  1  0.37224000  0.72263000  0.86428000  1.0
  C  C73  1  0.62776000  0.27737000  0.13572000  1.0
  N  N74  1  0.79263000  0.21927000  0.65579000  1.0
  N  N75  1  0.20736000  0.78073000  0.34421000  1.0
  O  O76  1  0.66658000  0.25869000  0.58826000  1.0
  O  O77  1  0.33341000  0.74132000  0.41174000  1.0
  O  O78  1  0.64355000  0.58615000  0.35531000  1.0
  O  O79  1  0.35647000  0.41386000  0.64469000  1.0
  O  O80  1  0.54981000  0.82157000  0.18521000  1.0
  O  O81  1  0.45021000  0.17844000  0.81479000  1.0
  O  O82  1  0.41022000  0.45147000  0.36526000  1.0
  O  O83  1  0.58979000  0.54853000  0.63474000  1.0
  O  O84  1  0.36348000  0.23616000  0.49107000  1.0
  O  O85  1  0.63654000  0.76384000  0.50893000  1.0
  O  O86  1  0.74795000  0.91855000  0.76102000  1.0
  O  O87  1  0.25206000  0.08144000  0.23897000  1.0
  O  O88  1  0.71874000  0.89671000  0.97385000  1.0
  O  O89  1  0.28127000  0.10329000  0.02614000  1.0
  O  O90  1  0.44585000  0.93264000  0.72995000  1.0
  O  O91  1  0.55415000  0.06736000  0.27006000  1.0
  O  O92  1  0.43963000  0.86438000  0.95271000  1.0
  O  O93  1  0.56037000  0.13562000  0.04730000  1.0
  O  O94  1  0.67081000  0.01391000  0.49835000  1.0
  O  O95  1  0.32920000  0.98609000  0.50165000  1.0
