# generated using pymatgen
data_CoP4H26C16(NO3)4
_symmetry_space_group_name_H-M   'P 1'
_cell_length_a   8.70284000
_cell_length_b   8.81416000
_cell_length_c   9.07446000
_cell_angle_alpha   65.64270000
_cell_angle_beta   78.89010000
_cell_angle_gamma   68.86590000
_symmetry_Int_Tables_number   1
_chemical_formula_structural   CoP4H26C16(NO3)4
_chemical_formula_sum   'Co1 P4 H26 C16 N4 O12'
_cell_volume   590.68282314
_cell_formula_units_Z   1
loop_
 _symmetry_equiv_pos_site_id
 _symmetry_equiv_pos_as_xyz
  1  'x, y, z'
loop_
 _atom_site_type_symbol
 _atom_site_label
 _atom_site_symmetry_multiplicity
 _atom_site_fract_x
 _atom_site_fract_y
 _atom_site_fract_z
 _atom_site_occupancy
  Co  Co0  1  0.00000000  0.50000000  0.00000000  1.0
  P  P1  1  0.70906000  0.34487000  0.20370000  1.0
  P  P2  1  0.29094000  0.65513000  0.79630000  1.0
  P  P3  1  0.28593000  0.06496000  0.21838000  1.0
  P  P4  1  0.71406000  0.93505000  0.78161000  1.0
  H  H5  1  0.62236000  0.04296000  0.06099000  1.0
  H  H6  1  0.37764000  0.95704000  0.93901000  1.0
  H  H7  1  0.23741000  0.46950000  0.21128000  1.0
  H  H8  1  0.76258000  0.53050000  0.78871000  1.0
  H  H9  1  0.23426000  0.61296000  0.39546000  1.0
  H  H10  1  0.76575000  0.38704000  0.60453000  1.0
  H  H11  1  0.96851000  0.83773000  0.44043000  1.0
  H  H12  1  0.03149000  0.16227000  0.55957000  1.0
  H  H13  1  0.74076000  0.72773000  0.13060000  1.0
  H  H14  1  0.25924000  0.27227000  0.86940000  1.0
  H  H15  1  0.67387000  0.97462000  0.40421000  1.0
  H  H16  1  0.32613000  0.02538000  0.59579000  1.0
  H  H17  1  0.57782000  0.85918000  0.35112000  1.0
  H  H18  1  0.42219000  0.14082000  0.64888000  1.0
  H  H19  1  0.66591000  0.29674000  0.97493000  1.0
  H  H20  1  0.33409000  0.70326000  0.02507000  1.0
  H  H21  1  0.83984000  0.12921000  0.07683000  1.0
  H  H22  1  0.16015000  0.87079000  0.92317000  1.0
  H  H23  1  0.39827000  0.29711000  0.06757000  1.0
  H  H24  1  0.60173000  0.70290000  0.93243000  1.0
  H  H25  1  0.42155000  0.23128000  0.27669000  1.0
  H  H26  1  0.57845000  0.76872000  0.72331000  1.0
  H  H27  1  0.96328000  0.20659000  0.28859000  1.0
  H  H28  1  0.03672000  0.79341000  0.71141000  1.0
  H  H29  1  0.23388000  0.88176000  0.48053000  1.0
  H  H30  1  0.76611000  0.11824000  0.51947000  1.0
  C  C31  1  0.12441000  0.56219000  0.23636000  1.0
  C  C32  1  0.87559000  0.43781000  0.76364000  1.0
  C  C33  1  0.12134000  0.64490000  0.33872000  1.0
  C  C34  1  0.87866000  0.35511000  0.66128000  1.0
  C  C35  1  0.97540000  0.76916000  0.36209000  1.0
  C  C36  1  0.02460000  0.23084000  0.63791000  1.0
  C  C37  1  0.83543000  0.80280000  0.28522000  1.0
  C  C38  1  0.16456000  0.19720000  0.71478000  1.0
  C  C39  1  0.84783000  0.71087000  0.18762000  1.0
  C  C40  1  0.15217000  0.28913000  0.81238000  1.0
  C  C41  1  0.67112000  0.92660000  0.31136000  1.0
  C  C42  1  0.32888000  0.07340000  0.68865000  1.0
  C  C43  1  0.71198000  0.20659000  0.09513000  1.0
  C  C44  1  0.28802000  0.79340000  0.90487000  1.0
  C  C45  1  0.43260000  0.18251000  0.18056000  1.0
  C  C46  1  0.56740000  0.81749000  0.81944000  1.0
  N  N47  1  0.99028000  0.59595000  0.15919000  1.0
  N  N48  1  0.00972000  0.40405000  0.84081000  1.0
  N  N49  1  0.61018000  0.08395000  0.16003000  1.0
  N  N50  1  0.38981000  0.91605000  0.83998000  1.0
  O  O51  1  0.54259000  0.40942000  0.27721000  1.0
  O  O52  1  0.45741000  0.59058000  0.72279000  1.0
  O  O53  1  0.78101000  0.48296000  0.07254000  1.0
  O  O54  1  0.21899000  0.51704000  0.92747000  1.0
  O  O55  1  0.84253000  0.22337000  0.34085000  1.0
  O  O56  1  0.15747000  0.77662000  0.65915000  1.0
  O  O57  1  0.33778000  0.95187000  0.11936000  1.0
  O  O58  1  0.66222000  0.04814000  0.88064000  1.0
  O  O59  1  0.11688000  0.20624000  0.19149000  1.0
  O  O60  1  0.88312000  0.79376000  0.80851000  1.0
  O  O61  1  0.30660000  0.95127000  0.40674000  1.0
  O  O62  1  0.69339000  0.04873000  0.59326000  1.0
