# generated using pymatgen
data_AlC24(O2F5)3
_symmetry_space_group_name_H-M   'P 1'
_cell_length_a   3.95849000
_cell_length_b   29.19600000
_cell_length_c   29.19590000
_cell_angle_alpha   120.00033991
_cell_angle_beta   90.00020000
_cell_angle_gamma   89.99950000
_symmetry_Int_Tables_number   1
_chemical_formula_structural   AlC24(O2F5)3
_chemical_formula_sum   'Al2 C48 O12 F30'
_cell_volume   2922.15950974
_cell_formula_units_Z   2
loop_
 _symmetry_equiv_pos_site_id
 _symmetry_equiv_pos_as_xyz
  1  'x, y, z'
loop_
 _atom_site_type_symbol
 _atom_site_label
 _atom_site_symmetry_multiplicity
 _atom_site_fract_x
 _atom_site_fract_y
 _atom_site_fract_z
 _atom_site_occupancy
  Al  Al0  1  0.00229000  0.00000000  0.50000000  1.0
  Al  Al1  1  0.00231000  0.33334000  0.16667000  1.0
  C  C2  1  0.50124000  0.04513000  0.58076000  1.0
  C  C3  1  0.50123000  0.91924000  0.46438000  1.0
  C  C4  1  0.50125000  0.03563000  0.45487000  1.0
  C  C5  1  0.50123000  0.41411000  0.20230000  1.0
  C  C6  1  0.50128000  0.29770000  0.21180000  1.0
  C  C7  1  0.50126000  0.28820000  0.08590000  1.0
  C  C8  1  0.49865000  0.47312000  0.22957000  1.0
  C  C9  1  0.50549000  0.50375000  0.28454000  1.0
  C  C10  1  0.50182000  0.55886000  0.31105000  1.0
  C  C11  1  0.49976000  0.58820000  0.28409000  1.0
  C  C12  1  0.49711000  0.55568000  0.22771000  1.0
  C  C13  1  0.49225000  0.50055000  0.20196000  1.0
  C  C14  1  0.50012000  0.64623000  0.30765000  1.0
  C  C15  1  0.50011000  0.68712000  0.35905000  1.0
  C  C16  1  0.49710000  0.77766000  0.43897000  1.0
  C  C17  1  0.49976000  0.74515000  0.38261000  1.0
  C  C18  1  0.50183000  0.77447000  0.35563000  1.0
  C  C19  1  0.50550000  0.82958000  0.38214000  1.0
  C  C20  1  0.49864000  0.86021000  0.43710000  1.0
  C  C21  1  0.49225000  0.83278000  0.46471000  1.0
  C  C22  1  0.49866000  0.27043000  0.24355000  1.0
  C  C23  1  0.50549000  0.21546000  0.21921000  1.0
  C  C24  1  0.50182000  0.18896000  0.24782000  1.0
  C  C25  1  0.49977000  0.21592000  0.30411000  1.0
  C  C26  1  0.49711000  0.27229000  0.32797000  1.0
  C  C27  1  0.49226000  0.29804000  0.29859000  1.0
  C  C28  1  0.50013000  0.19236000  0.33858000  1.0
  C  C29  1  0.50012000  0.14095000  0.32807000  1.0
  C  C30  1  0.49712000  0.06104000  0.33869000  1.0
  C  C31  1  0.49977000  0.11740000  0.36254000  1.0
  C  C32  1  0.50183000  0.14437000  0.41884000  1.0
  C  C33  1  0.50550000  0.11787000  0.44745000  1.0
  C  C34  1  0.49863000  0.06290000  0.42312000  1.0
  C  C35  1  0.49225000  0.03530000  0.36808000  1.0
  C  C36  1  0.49867000  0.25645000  0.02688000  1.0
  C  C37  1  0.50550000  0.28079000  0.99624000  1.0
  C  C38  1  0.50184000  0.25219000  0.94114000  1.0
  C  C39  1  0.49977000  0.19590000  0.91181000  1.0
  C  C40  1  0.49711000  0.17203000  0.94432000  1.0
  C  C41  1  0.49227000  0.20141000  0.99944000  1.0
  C  C42  1  0.50012000  0.16142000  0.85377000  1.0
  C  C43  1  0.50012000  0.17193000  0.81288000  1.0
  C  C44  1  0.49711000  0.16131000  0.72234000  1.0
  C  C45  1  0.49976000  0.13746000  0.75486000  1.0
  C  C46  1  0.50183000  0.08117000  0.72553000  1.0
  C  C47  1  0.50550000  0.05256000  0.67042000  1.0
  C  C48  1  0.49864000  0.07688000  0.63978000  1.0
  C  C49  1  0.49225000  0.13193000  0.66722000  1.0
  O  O50  1  0.26598000  0.00278000  0.44649000  1.0
  O  O51  1  0.26598000  0.05350000  0.55629000  1.0
  O  O52  1  0.26599000  0.94371000  0.49722000  1.0
  O  O53  1  0.73906000  0.04786000  0.48815000  1.0
  O  O54  1  0.73908000  0.94029000  0.45214000  1.0
  O  O55  1  0.73907000  0.01185000  0.55971000  1.0
  O  O56  1  0.26600000  0.27983000  0.11037000  1.0
  O  O57  1  0.26599000  0.38964000  0.16946000  1.0
  O  O58  1  0.26599000  0.33055000  0.22018000  1.0
  O  O59  1  0.73910000  0.32149000  0.10696000  1.0
  O  O60  1  0.73910000  0.28547000  0.17851000  1.0
  O  O61  1  0.73910000  0.39304000  0.21453000  1.0
  F  F62  1  0.49341000  0.47382000  0.14870000  1.0
  F  F63  1  0.50097000  0.57548000  0.19479000  1.0
  F  F64  1  0.50451000  0.47998000  0.31395000  1.0
  F  F65  1  0.49871000  0.58138000  0.36400000  1.0
  F  F66  1  0.49873000  0.75196000  0.30268000  1.0
  F  F67  1  0.50451000  0.85335000  0.35272000  1.0
  F  F68  1  0.50095000  0.75787000  0.47190000  1.0
  F  F69  1  0.49341000  0.85952000  0.51798000  1.0
  F  F70  1  0.50000000  0.66064000  0.27031000  1.0
  F  F71  1  0.50003000  0.67271000  0.39638000  1.0
  F  F72  1  0.49343000  0.35130000  0.32512000  1.0
  F  F73  1  0.50097000  0.30521000  0.38068000  1.0
  F  F74  1  0.50451000  0.18604000  0.16602000  1.0
  F  F75  1  0.49870000  0.13601000  0.21738000  1.0
  F  F76  1  0.49874000  0.19732000  0.44928000  1.0
  F  F77  1  0.50452000  0.14728000  0.50063000  1.0
  F  F78  1  0.50097000  0.02810000  0.28597000  1.0
  F  F79  1  0.49341000  0.98203000  0.34155000  1.0
  F  F80  1  0.49999000  0.22970000  0.39033000  1.0
  F  F81  1  0.50003000  0.10363000  0.27633000  1.0
  F  F82  1  0.49344000  0.17488000  0.02618000  1.0
  F  F83  1  0.50097000  0.11932000  0.92453000  1.0
  F  F84  1  0.50451000  0.33397000  0.02002000  1.0
  F  F85  1  0.49872000  0.28263000  0.91863000  1.0
  F  F86  1  0.49874000  0.05072000  0.74804000  1.0
  F  F87  1  0.50452000  0.99937000  0.64665000  1.0
  F  F88  1  0.50095000  0.21403000  0.74213000  1.0
  F  F89  1  0.49340000  0.15846000  0.64048000  1.0
  F  F90  1  0.50000000  0.10968000  0.83937000  1.0
  F  F91  1  0.50004000  0.22368000  0.82730000  1.0
