# generated using pymatgen
data_K2H9C6NO7
_symmetry_space_group_name_H-M   'P 1'
_cell_length_a   4.87852000
_cell_length_b   13.24720000
_cell_length_c   18.01020000
_cell_angle_alpha   89.99970000
_cell_angle_beta   89.99950000
_cell_angle_gamma   89.99970000
_symmetry_Int_Tables_number   1
_chemical_formula_structural   K2H9C6NO7
_chemical_formula_sum   'K8 H36 C24 N4 O28'
_cell_volume   1163.94033516
_cell_formula_units_Z   4
loop_
 _symmetry_equiv_pos_site_id
 _symmetry_equiv_pos_as_xyz
  1  'x, y, z'
loop_
 _atom_site_type_symbol
 _atom_site_label
 _atom_site_symmetry_multiplicity
 _atom_site_fract_x
 _atom_site_fract_y
 _atom_site_fract_z
 _atom_site_occupancy
  K  K0  1  0.45462000  0.18570000  0.92303000  1.0
  K  K1  1  0.04536000  0.81429000  0.42303000  1.0
  K  K2  1  0.95465000  0.31429000  0.07696000  1.0
  K  K3  1  0.54538000  0.68571000  0.57697000  1.0
  K  K4  1  0.00966000  0.66119000  0.07400000  1.0
  K  K5  1  0.49031000  0.33881000  0.57400000  1.0
  K  K6  1  0.50967000  0.83881000  0.92600000  1.0
  K  K7  1  0.99033000  0.16121000  0.42600000  1.0
  H  H8  1  0.27293000  0.99585000  0.17041000  1.0
  H  H9  1  0.22707000  0.00415000  0.67041000  1.0
  H  H10  1  0.77293000  0.50415000  0.82959000  1.0
  H  H11  1  0.72707000  0.49585000  0.32959000  1.0
  H  H12  1  0.81493000  0.89962000  0.15778000  1.0
  H  H13  1  0.68507000  0.10038000  0.65778000  1.0
  H  H14  1  0.31493000  0.60038000  0.84222000  1.0
  H  H15  1  0.18507000  0.39962000  0.34222000  1.0
  H  H16  1  0.66056000  0.96146000  0.08186000  1.0
  H  H17  1  0.83943000  0.03854000  0.58186000  1.0
  H  H18  1  0.16056000  0.53854000  0.91814000  1.0
  H  H19  1  0.33943000  0.46146000  0.41814000  1.0
  H  H20  1  0.78669000  0.10147000  0.15300000  1.0
  H  H21  1  0.71333000  0.89853000  0.65299000  1.0
  H  H22  1  0.28667000  0.39853000  0.84701000  1.0
  H  H23  1  0.21331000  0.60147000  0.34700000  1.0
  H  H24  1  0.53534000  0.14931000  0.21592000  1.0
  H  H25  1  0.96467000  0.85069000  0.71592000  1.0
  H  H26  1  0.03533000  0.35069000  0.78408000  1.0
  H  H27  1  0.46466000  0.64931000  0.28408000  1.0
  H  H28  1  0.70595000  0.99517000  0.28481000  1.0
  H  H29  1  0.79406000  0.00483000  0.78481000  1.0
  H  H30  1  0.20594000  0.50483000  0.71519000  1.0
  H  H31  1  0.29405000  0.49517000  0.21519000  1.0
  H  H32  1  0.50184000  0.88584000  0.27006000  1.0
  H  H33  1  0.99816000  0.11416000  0.77006000  1.0
  H  H34  1  0.00183000  0.61416000  0.72994000  1.0
  H  H35  1  0.49815000  0.38584000  0.22994000  1.0
  H  H36  1  0.44796000  0.20867000  0.73587000  1.0
  H  H37  1  0.05204000  0.79133000  0.23587000  1.0
  H  H38  1  0.94797000  0.29133000  0.26413000  1.0
  H  H39  1  0.55204000  0.70867000  0.76413000  1.0
  H  H40  1  0.58329000  0.30695000  0.76290000  1.0
  H  H41  1  0.91671000  0.69305000  0.26290000  1.0
  H  H42  1  0.08329000  0.19305000  0.23710000  1.0
  H  H43  1  0.41671000  0.80695000  0.73710000  1.0
  C  C44  1  0.61730000  0.92240000  0.13425000  1.0
  C  C45  1  0.88271000  0.07760000  0.63425000  1.0
  C  C46  1  0.11729000  0.57760000  0.86575000  1.0
  C  C47  1  0.38271000  0.42240000  0.36575000  1.0
  C  C48  1  0.56842000  0.10135000  0.16721000  1.0
  C  C49  1  0.93160000  0.89865000  0.66721000  1.0
  C  C50  1  0.06841000  0.39865000  0.83279000  1.0
  C  C51  1  0.43158000  0.60135000  0.33279000  1.0
  C  C52  1  0.50546000  0.96834000  0.26526000  1.0
  C  C53  1  0.99454000  0.03167000  0.76526000  1.0
  C  C54  1  0.00546000  0.53166000  0.73474000  1.0
  C  C55  1  0.49454000  0.46834000  0.23474000  1.0
  C  C56  1  0.43852000  0.83016000  0.11887000  1.0
  C  C57  1  0.06150000  0.16984000  0.61887000  1.0
  C  C58  1  0.93850000  0.66984000  0.88113000  1.0
  C  C59  1  0.56149000  0.33016000  0.38113000  1.0
  C  C60  1  0.39062000  0.14032000  0.10294000  1.0
  C  C61  1  0.10940000  0.85968000  0.60294000  1.0
  C  C62  1  0.89060000  0.35968000  0.89706000  1.0
  C  C63  1  0.60939000  0.64032000  0.39706000  1.0
  C  C64  1  0.27438000  0.01403000  0.31186000  1.0
  C  C65  1  0.22562000  0.98597000  0.81186000  1.0
  C  C66  1  0.77438000  0.48597000  0.68814000  1.0
  C  C67  1  0.72562000  0.51403000  0.18814000  1.0
  N  N68  1  0.48028000  0.99596000  0.18503000  1.0
  N  N69  1  0.01973000  0.00404000  0.68503000  1.0
  N  N70  1  0.98027000  0.50404000  0.81497000  1.0
  N  N71  1  0.51972000  0.49596000  0.31497000  1.0
  O  O72  1  0.21016000  0.82381000  0.15221000  1.0
  O  O73  1  0.28984000  0.17619000  0.65221000  1.0
  O  O74  1  0.71015000  0.67618000  0.84779000  1.0
  O  O75  1  0.78984000  0.32381000  0.34779000  1.0
  O  O76  1  0.53088000  0.76782000  0.07172000  1.0
  O  O77  1  0.96913000  0.23218000  0.57171000  1.0
  O  O78  1  0.03087000  0.73218000  0.92828000  1.0
  O  O79  1  0.46911000  0.26782000  0.42829000  1.0
  O  O80  1  0.46966000  0.22183000  0.07286000  1.0
  O  O81  1  0.03037000  0.77817000  0.57286000  1.0
  O  O82  1  0.96962000  0.27817000  0.92714000  1.0
  O  O83  1  0.53034000  0.72184000  0.42714000  1.0
  O  O84  1  0.17951000  0.08941000  0.08647000  1.0
  O  O85  1  0.32052000  0.91059000  0.58647000  1.0
  O  O86  1  0.67948000  0.41059000  0.91353000  1.0
  O  O87  1  0.82050000  0.58941000  0.41353000  1.0
  O  O88  1  0.09704000  0.06902000  0.27912000  1.0
  O  O89  1  0.40297000  0.93098000  0.77912000  1.0
  O  O90  1  0.59704000  0.43098000  0.72088000  1.0
  O  O91  1  0.90296000  0.56902000  0.22087000  1.0
  O  O92  1  0.27709000  0.99232000  0.38017000  1.0
  O  O93  1  0.22291000  0.00768000  0.88016000  1.0
  O  O94  1  0.77709000  0.50768000  0.61984000  1.0
  O  O95  1  0.72291000  0.49232000  0.11983000  1.0
  O  O96  1  0.55989000  0.23545000  0.77700000  1.0
  O  O97  1  0.94010000  0.76455000  0.27700000  1.0
  O  O98  1  0.05991000  0.26455000  0.22300000  1.0
  O  O99  1  0.44010000  0.73545000  0.72300000  1.0
