# generated using pymatgen
data_H22PbC16S2(N2O3)2
_symmetry_space_group_name_H-M   'P 1'
_cell_length_a   8.50196000
_cell_length_b   10.79070000
_cell_length_c   11.90730000
_cell_angle_alpha   71.22460000
_cell_angle_beta   86.21030000
_cell_angle_gamma   84.16380000
_symmetry_Int_Tables_number   1
_chemical_formula_structural   H22PbC16S2(N2O3)2
_chemical_formula_sum   'H44 Pb2 C32 S4 N8 O12'
_cell_volume   1028.26457870
_cell_formula_units_Z   2
loop_
 _symmetry_equiv_pos_site_id
 _symmetry_equiv_pos_as_xyz
  1  'x, y, z'
loop_
 _atom_site_type_symbol
 _atom_site_label
 _atom_site_symmetry_multiplicity
 _atom_site_fract_x
 _atom_site_fract_y
 _atom_site_fract_z
 _atom_site_occupancy
  H  H0  1  0.60331000  0.58553000  0.33626000  1.0
  H  H1  1  0.39670000  0.41447000  0.66373000  1.0
  H  H2  1  0.66112000  0.42285000  0.33636000  1.0
  H  H3  1  0.33887000  0.57715000  0.66363000  1.0
  H  H4  1  0.09754000  0.87317000  0.48933000  1.0
  H  H5  1  0.90246000  0.12684000  0.51066000  1.0
  H  H6  1  0.84260000  0.64687000  0.40641000  1.0
  H  H7  1  0.15741000  0.35314000  0.59359000  1.0
  H  H8  1  0.85030000  0.82062000  0.37050000  1.0
  H  H9  1  0.14971000  0.17938000  0.62950000  1.0
  H  H10  1  0.84388000  0.71992000  0.52097000  1.0
  H  H11  1  0.15611000  0.28009000  0.47902000  1.0
  H  H12  1  0.35557000  0.94964000  0.49573000  1.0
  H  H13  1  0.64443000  0.05036000  0.50428000  1.0
  H  H14  1  0.51788000  0.89512000  0.41539000  1.0
  H  H15  1  0.48211000  0.10488000  0.58460000  1.0
  H  H16  1  0.48229000  0.80772000  0.56749000  1.0
  H  H17  1  0.51772000  0.19229000  0.43251000  1.0
  H  H18  1  0.85049000  0.11900000  0.26305000  1.0
  H  H19  1  0.14952000  0.88101000  0.73695000  1.0
  H  H20  1  0.85108000  0.26491000  0.30327000  1.0
  H  H21  1  0.14891000  0.73510000  0.69673000  1.0
  H  H22  1  0.32663000  0.78549000  0.09279000  1.0
  H  H23  1  0.67335000  0.21450000  0.90722000  1.0
  H  H24  1  0.88621000  0.83242000  0.15526000  1.0
  H  H25  1  0.11378000  0.16758000  0.84476000  1.0
  H  H26  1  0.03845000  0.71803000  0.12630000  1.0
  H  H27  1  0.96154000  0.28196000  0.87371000  1.0
  H  H28  1  0.98233000  0.86339000  0.01334000  1.0
  H  H29  1  0.01765000  0.13660000  0.98667000  1.0
  H  H30  1  0.62216000  0.00032000  0.13721000  1.0
  H  H31  1  0.37783000  0.99969000  0.86278000  1.0
  H  H32  1  0.59738000  0.86684000  0.08267000  1.0
  H  H33  1  0.40261000  0.13316000  0.91734000  1.0
  H  H34  1  0.60185000  0.83927000  0.23715000  1.0
  H  H35  1  0.39814000  0.16073000  0.76285000  1.0
  H  H36  1  0.07655000  0.47972000  0.78692000  1.0
  H  H37  1  0.92345000  0.52028000  0.21307000  1.0
  H  H38  1  0.94973000  0.47422000  0.69353000  1.0
  H  H39  1  0.05029000  0.52576000  0.30647000  1.0
  H  H40  1  0.43197000  0.72646000  0.84173000  1.0
  H  H41  1  0.56804000  0.27354000  0.15827000  1.0
  H  H42  1  0.56778000  0.82447000  0.79134000  1.0
  H  H43  1  0.43223000  0.17552000  0.20866000  1.0
  Pb  Pb44  1  0.75249000  0.54831000  0.91449000  1.0
  Pb  Pb45  1  0.24754000  0.45169000  0.08551000  1.0
  C  C46  1  0.61696000  0.55883000  0.16240000  1.0
  C  C47  1  0.38305000  0.44118000  0.83758000  1.0
  C  C48  1  0.58098000  0.51028000  0.29648000  1.0
  C  C49  1  0.41903000  0.48973000  0.70351000  1.0
  C  C50  1  0.30043000  0.60306000  0.38436000  1.0
  C  C51  1  0.69957000  0.39694000  0.61565000  1.0
  C  C52  1  0.06758000  0.70815000  0.42895000  1.0
  C  C53  1  0.93243000  0.29185000  0.57106000  1.0
  C  C54  1  0.15642000  0.79359000  0.46047000  1.0
  C  C55  1  0.84359000  0.20641000  0.53954000  1.0
  C  C56  1  0.32114000  0.77761000  0.44980000  1.0
  C  C57  1  0.67887000  0.22238000  0.55020000  1.0
  C  C58  1  0.89081000  0.72390000  0.43184000  1.0
  C  C59  1  0.10919000  0.27611000  0.56815000  1.0
  C  C60  1  0.42434000  0.86298000  0.48372000  1.0
  C  C61  1  0.57567000  0.13701000  0.51628000  1.0
  C  C62  1  0.87729000  0.29777000  0.11651000  1.0
  C  C63  1  0.12272000  0.70223000  0.88349000  1.0
  C  C64  1  0.90592000  0.21118000  0.24450000  1.0
  C  C65  1  0.09408000  0.78883000  0.75550000  1.0
  C  C66  1  0.17245000  0.05465000  0.21800000  1.0
  C  C67  1  0.82754000  0.94534000  0.78200000  1.0
  C  C68  1  0.11980000  0.89334000  0.14368000  1.0
  C  C69  1  0.88019000  0.10666000  0.85633000  1.0
  C  C70  1  0.28243000  0.86387000  0.12894000  1.0
  C  C71  1  0.71756000  0.13612000  0.87107000  1.0
  C  C72  1  0.38629000  0.93777000  0.16146000  1.0
  C  C73  1  0.61370000  0.06222000  0.83855000  1.0
  C  C74  1  0.00002000  0.82210000  0.10925000  1.0
  C  C75  1  0.99997000  0.17790000  0.89076000  1.0
  C  C76  1  0.56199000  0.91074000  0.15265000  1.0
  C  C77  1  0.43799000  0.08926000  0.84734000  1.0
  S  S78  1  0.38123000  0.46976000  0.33842000  1.0
  S  S79  1  0.61878000  0.53025000  0.66156000  1.0
  S  S80  1  0.11013000  0.17751000  0.28342000  1.0
  S  S81  1  0.88987000  0.82250000  0.71658000  1.0
  N  N82  1  0.14065000  0.61131000  0.39161000  1.0
  N  N83  1  0.85936000  0.38869000  0.60840000  1.0
  N  N84  1  0.39367000  0.68165000  0.40990000  1.0
  N  N85  1  0.60634000  0.31834000  0.59011000  1.0
  N  N86  1  0.06466000  0.98985000  0.18903000  1.0
  N  N87  1  0.93534000  0.01015000  0.81098000  1.0
  N  N88  1  0.33060000  0.03519000  0.20552000  1.0
  N  N89  1  0.66939000  0.96481000  0.79448000  1.0
  O  O90  1  0.76142000  0.57779000  0.13151000  1.0
  O  O91  1  0.23858000  0.42222000  0.86848000  1.0
  O  O92  1  0.50982000  0.57691000  0.08896000  1.0
  O  O93  1  0.49019000  0.42309000  0.91103000  1.0
  O  O94  1  0.73743000  0.30591000  0.08061000  1.0
  O  O95  1  0.26258000  0.69410000  0.91939000  1.0
  O  O96  1  0.98604000  0.36012000  0.05259000  1.0
  O  O97  1  0.01398000  0.63986000  0.94739000  1.0
  O  O98  1  0.53460000  0.73732000  0.79476000  1.0
  O  O99  1  0.46540000  0.26267000  0.20523000  1.0
  O  O100  1  0.97699000  0.52359000  0.74632000  1.0
  O  O101  1  0.02301000  0.47640000  0.25368000  1.0
