# generated using pymatgen
data_ErAg3H6C14N2O11
_symmetry_space_group_name_H-M   'P 1'
_cell_length_a   8.17819000
_cell_length_b   13.80540000
_cell_length_c   14.49400000
_cell_angle_alpha   90.00000000
_cell_angle_beta   90.00000000
_cell_angle_gamma   90.00000000
_symmetry_Int_Tables_number   1
_chemical_formula_structural   ErAg3H6C14N2O11
_chemical_formula_sum   'Er4 Ag12 H24 C56 N8 O44'
_cell_volume   1636.41875217
_cell_formula_units_Z   4
loop_
 _symmetry_equiv_pos_site_id
 _symmetry_equiv_pos_as_xyz
  1  'x, y, z'
loop_
 _atom_site_type_symbol
 _atom_site_label
 _atom_site_symmetry_multiplicity
 _atom_site_fract_x
 _atom_site_fract_y
 _atom_site_fract_z
 _atom_site_occupancy
  Er  Er0  1  0.97576000  0.75000000  0.25000000  1.0
  Er  Er1  1  0.52425000  0.75000000  0.75000000  1.0
  Er  Er2  1  0.02424000  0.25000000  0.75000000  1.0
  Er  Er3  1  0.47575000  0.25000000  0.25000000  1.0
  Ag  Ag4  1  0.54946000  0.82498000  0.48444000  1.0
  Ag  Ag5  1  0.95053000  0.82498000  0.51556000  1.0
  Ag  Ag6  1  0.95054000  0.67502000  0.98443000  1.0
  Ag  Ag7  1  0.54946000  0.67501000  0.01557000  1.0
  Ag  Ag8  1  0.45054000  0.17502000  0.51557000  1.0
  Ag  Ag9  1  0.04946000  0.17502000  0.48444000  1.0
  Ag  Ag10  1  0.04947000  0.32498000  0.01556000  1.0
  Ag  Ag11  1  0.45053000  0.32498000  0.98443000  1.0
  Ag  Ag12  1  0.25000000  0.55733000  0.00000000  1.0
  Ag  Ag13  1  0.25000000  0.94267000  0.50000000  1.0
  Ag  Ag14  1  0.75000000  0.44267000  0.00000000  1.0
  Ag  Ag15  1  0.75000000  0.05733000  0.50000000  1.0
  H  H16  1  0.22537000  0.73030000  0.44408000  1.0
  H  H17  1  0.27463000  0.73030000  0.55592000  1.0
  H  H18  1  0.27463000  0.76970000  0.94408000  1.0
  H  H19  1  0.22537000  0.76970000  0.05591000  1.0
  H  H20  1  0.77463000  0.26970000  0.55592000  1.0
  H  H21  1  0.72537000  0.26970000  0.44408000  1.0
  H  H22  1  0.72537000  0.23030000  0.05592000  1.0
  H  H23  1  0.77463000  0.23030000  0.94408000  1.0
  H  H24  1  0.61500000  0.47630000  0.43194000  1.0
  H  H25  1  0.88501000  0.47630000  0.56806000  1.0
  H  H26  1  0.88500000  0.02370000  0.93194000  1.0
  H  H27  1  0.61499000  0.02370000  0.06806000  1.0
  H  H28  1  0.38501000  0.52370000  0.56806000  1.0
  H  H29  1  0.11500000  0.52370000  0.43194000  1.0
  H  H30  1  0.11499000  0.97630000  0.06806000  1.0
  H  H31  1  0.38500000  0.97630000  0.93194000  1.0
  H  H32  1  0.90007000  0.35363000  0.20845000  1.0
  H  H33  1  0.59993000  0.35363000  0.79155000  1.0
  H  H34  1  0.59993000  0.14637000  0.70845000  1.0
  H  H35  1  0.90007000  0.14637000  0.29155000  1.0
  H  H36  1  0.09993000  0.64637000  0.79155000  1.0
  H  H37  1  0.40007000  0.64637000  0.20845000  1.0
  H  H38  1  0.40006000  0.85363000  0.29155000  1.0
  H  H39  1  0.09993000  0.85363000  0.70845000  1.0
  C  C40  1  0.70282000  0.66586000  0.39196000  1.0
  C  C41  1  0.79720000  0.66586000  0.60804000  1.0
  C  C42  1  0.79719000  0.83414000  0.89196000  1.0
  C  C43  1  0.70281000  0.83414000  0.10804000  1.0
  C  C44  1  0.29719000  0.33414000  0.60804000  1.0
  C  C45  1  0.20281000  0.33414000  0.39196000  1.0
  C  C46  1  0.20281000  0.16586000  0.10804000  1.0
  C  C47  1  0.29719000  0.16586000  0.89196000  1.0
  C  C48  1  0.76019000  0.57321000  0.34909000  1.0
  C  C49  1  0.73982000  0.57321000  0.65090000  1.0
  C  C50  1  0.73981000  0.92679000  0.84910000  1.0
  C  C51  1  0.76019000  0.92679000  0.15090000  1.0
  C  C52  1  0.23982000  0.42679000  0.65091000  1.0
  C  C53  1  0.26019000  0.42679000  0.34910000  1.0
  C  C54  1  0.26018000  0.07321000  0.15090000  1.0
  C  C55  1  0.23981000  0.07320000  0.84910000  1.0
  C  C56  1  0.70246000  0.48276000  0.37552000  1.0
  C  C57  1  0.79755000  0.48276000  0.62447000  1.0
  C  C58  1  0.79754000  0.01724000  0.87553000  1.0
  C  C59  1  0.70246000  0.01724000  0.12448000  1.0
  C  C60  1  0.29754000  0.51724000  0.62447000  1.0
  C  C61  1  0.20246000  0.51724000  0.37553000  1.0
  C  C62  1  0.20245000  0.98276000  0.12447000  1.0
  C  C63  1  0.29754000  0.98276000  0.87553000  1.0
  C  C64  1  0.74808000  0.39995000  0.32380000  1.0
  C  C65  1  0.75192000  0.39995000  0.67620000  1.0
  C  C66  1  0.75192000  0.10005000  0.82380000  1.0
  C  C67  1  0.74808000  0.10005000  0.17620000  1.0
  C  C68  1  0.25192000  0.60005000  0.67620000  1.0
  C  C69  1  0.24808000  0.60005000  0.32380000  1.0
  C  C70  1  0.24808000  0.89995000  0.17620000  1.0
  C  C71  1  0.25192000  0.89995000  0.82380000  1.0
  C  C72  1  0.86077000  0.41486000  0.25040000  1.0
  C  C73  1  0.63923000  0.41486000  0.74960000  1.0
  C  C74  1  0.63923000  0.08514000  0.75040000  1.0
  C  C75  1  0.86077000  0.08514000  0.24960000  1.0
  C  C76  1  0.13923000  0.58514000  0.74960000  1.0
  C  C77  1  0.36077000  0.58514000  0.25040000  1.0
  C  C78  1  0.36076000  0.91486000  0.24960000  1.0
  C  C79  1  0.13923000  0.91486000  0.75040000  1.0
  C  C80  1  0.91272000  0.50818000  0.23040000  1.0
  C  C81  1  0.58728000  0.50818000  0.76960000  1.0
  C  C82  1  0.58728000  0.99182000  0.73040000  1.0
  C  C83  1  0.91272000  0.99182000  0.26960000  1.0
  C  C84  1  0.08728000  0.49182000  0.76960000  1.0
  C  C85  1  0.41272000  0.49182000  0.23040000  1.0
  C  C86  1  0.41272000  0.00818000  0.26960000  1.0
  C  C87  1  0.08728000  0.00818000  0.73040000  1.0
  C  C88  1  0.02235000  0.53393000  0.15192000  1.0
  C  C89  1  0.47765000  0.53393000  0.84808000  1.0
  C  C90  1  0.47765000  0.96607000  0.65192000  1.0
  C  C91  1  0.02235000  0.96607000  0.34808000  1.0
  C  C92  1  0.97765000  0.46607000  0.84808000  1.0
  C  C93  1  0.52235000  0.46607000  0.15192000  1.0
  C  C94  1  0.52235000  0.03393000  0.34808000  1.0
  C  C95  1  0.97765000  0.03393000  0.65192000  1.0
  N  N96  1  0.86366000  0.58676000  0.27829000  1.0
  N  N97  1  0.63635000  0.58676000  0.72171000  1.0
  N  N98  1  0.63635000  0.91324000  0.77829000  1.0
  N  N99  1  0.86366000  0.91324000  0.22171000  1.0
  N  N100  1  0.13635000  0.41324000  0.72171000  1.0
  N  N101  1  0.36366000  0.41325000  0.27829000  1.0
  N  N102  1  0.36365000  0.08676000  0.22171000  1.0
  N  N103  1  0.13634000  0.08675000  0.77829000  1.0
  O  O104  1  0.77721000  0.74375000  0.36577000  1.0
  O  O105  1  0.72280000  0.74375000  0.63423000  1.0
  O  O106  1  0.72280000  0.75625000  0.86577000  1.0
  O  O107  1  0.77720000  0.75625000  0.13423000  1.0
  O  O108  1  0.22280000  0.25624000  0.63423000  1.0
  O  O109  1  0.27720000  0.25625000  0.36577000  1.0
  O  O110  1  0.27720000  0.24375000  0.13423000  1.0
  O  O111  1  0.22280000  0.24375000  0.86577000  1.0
  O  O112  1  0.58501000  0.66401000  0.44764000  1.0
  O  O113  1  0.91501000  0.66401000  0.55236000  1.0
  O  O114  1  0.91500000  0.83599000  0.94764000  1.0
  O  O115  1  0.58500000  0.83599000  0.05236000  1.0
  O  O116  1  0.41500000  0.33599000  0.55236000  1.0
  O  O117  1  0.08500000  0.33599000  0.44764000  1.0
  O  O118  1  0.08500000  0.16401000  0.05236000  1.0
  O  O119  1  0.41500000  0.16401000  0.94764000  1.0
  O  O120  1  0.68183000  0.31466000  0.33941000  1.0
  O  O121  1  0.81817000  0.31466000  0.66059000  1.0
  O  O122  1  0.81817000  0.18534000  0.83941000  1.0
  O  O123  1  0.68183000  0.18534000  0.16059000  1.0
  O  O124  1  0.31817000  0.68534000  0.66059000  1.0
  O  O125  1  0.18183000  0.68534000  0.33941000  1.0
  O  O126  1  0.18183000  0.81466000  0.16059000  1.0
  O  O127  1  0.31817000  0.81466000  0.83941000  1.0
  O  O128  1  0.08362000  0.46918000  0.09972000  1.0
  O  O129  1  0.41638000  0.46918000  0.90028000  1.0
  O  O130  1  0.41637000  0.03082000  0.59973000  1.0
  O  O131  1  0.08362000  0.03082000  0.40028000  1.0
  O  O132  1  0.91637000  0.53082000  0.90027000  1.0
  O  O133  1  0.58363000  0.53082000  0.09972000  1.0
  O  O134  1  0.58363000  0.96918000  0.40027000  1.0
  O  O135  1  0.91637000  0.96918000  0.59973000  1.0
  O  O136  1  0.05141000  0.62435000  0.14052000  1.0
  O  O137  1  0.44859000  0.62435000  0.85948000  1.0
  O  O138  1  0.44859000  0.87565000  0.64052000  1.0
  O  O139  1  0.05141000  0.87565000  0.35948000  1.0
  O  O140  1  0.94859000  0.37565000  0.85948000  1.0
  O  O141  1  0.55141000  0.37565000  0.14052000  1.0
  O  O142  1  0.55141000  0.12435000  0.35948000  1.0
  O  O143  1  0.94859000  0.12435000  0.64052000  1.0
  O  O144  1  0.25000000  0.77052000  0.50000000  1.0
  O  O145  1  0.25000000  0.72948000  0.00000000  1.0
  O  O146  1  0.75000000  0.22948000  0.50000000  1.0
  O  O147  1  0.75000000  0.27052000  0.00000000  1.0
