# generated using pymatgen
data_Ba2H2C4O9
_symmetry_space_group_name_H-M   'P 1'
_cell_length_a   6.27972000
_cell_length_b   8.72186000
_cell_length_c   9.26421000
_cell_angle_alpha   65.16830000
_cell_angle_beta   85.28160000
_cell_angle_gamma   84.52070000
_symmetry_Int_Tables_number   1
_chemical_formula_structural   Ba2H2C4O9
_chemical_formula_sum   'Ba4 H4 C8 O18'
_cell_volume   457.89269918
_cell_formula_units_Z   2
loop_
 _symmetry_equiv_pos_site_id
 _symmetry_equiv_pos_as_xyz
  1  'x, y, z'
loop_
 _atom_site_type_symbol
 _atom_site_label
 _atom_site_symmetry_multiplicity
 _atom_site_fract_x
 _atom_site_fract_y
 _atom_site_fract_z
 _atom_site_occupancy
  Ba  Ba0  1  0.28115000  0.04407000  0.79361000  1.0
  Ba  Ba1  1  0.71885000  0.95593000  0.20639000  1.0
  Ba  Ba2  1  0.20610000  0.63822000  0.58165000  1.0
  Ba  Ba3  1  0.79390000  0.36178000  0.41835000  1.0
  H  H4  1  0.31740000  0.39035000  0.94898000  1.0
  H  H5  1  0.68261000  0.60965000  0.05102000  1.0
  H  H6  1  0.33158000  0.57798000  0.92767000  1.0
  H  H7  1  0.66843000  0.42202000  0.07234000  1.0
  C  C8  1  0.81673000  0.92208000  0.67705000  1.0
  C  C9  1  0.18326000  0.07792000  0.32294000  1.0
  C  C10  1  0.67235000  0.81781000  0.62924000  1.0
  C  C11  1  0.32765000  0.18219000  0.37075000  1.0
  C  C12  1  0.87040000  0.27817000  0.82150000  1.0
  C  C13  1  0.12961000  0.72183000  0.17849000  1.0
  C  C14  1  0.62155000  0.29596000  0.81620000  1.0
  C  C15  1  0.37844000  0.70404000  0.18380000  1.0
  O  O16  1  0.01484000  0.87958000  0.68610000  1.0
  O  O17  1  0.98515000  0.12043000  0.31390000  1.0
  O  O18  1  0.72464000  0.04892000  0.69675000  1.0
  O  O19  1  0.27535000  0.95108000  0.30325000  1.0
  O  O20  1  0.75694000  0.75369000  0.53616000  1.0
  O  O21  1  0.24306000  0.24632000  0.46384000  1.0
  O  O22  1  0.47844000  0.80933000  0.68115000  1.0
  O  O23  1  0.52156000  0.19067000  0.31885000  1.0
  O  O24  1  0.97778000  0.35491000  0.69148000  1.0
  O  O25  1  0.02222000  0.64509000  0.30852000  1.0
  O  O26  1  0.95089000  0.18090000  0.95144000  1.0
  O  O27  1  0.04911000  0.81909000  0.04856000  1.0
  O  O28  1  0.53804000  0.37730000  0.68312000  1.0
  O  O29  1  0.46196000  0.62270000  0.31688000  1.0
  O  O30  1  0.51658000  0.21919000  0.94759000  1.0
  O  O31  1  0.48342000  0.78080000  0.05242000  1.0
  O  O32  1  0.23750000  0.50193000  0.91572000  1.0
  O  O33  1  0.76251000  0.49807000  0.08427000  1.0
