# generated using pymatgen
data_Cu3H6C9N7
_symmetry_space_group_name_H-M   'P 1'
_cell_length_a   13.70240000
_cell_length_b   16.77080000
_cell_length_c   19.29690000
_cell_angle_alpha   90.00000000
_cell_angle_beta   90.00000000
_cell_angle_gamma   89.99990000
_symmetry_Int_Tables_number   1
_chemical_formula_structural   Cu3H6C9N7
_chemical_formula_sum   'Cu12 H24 C36 N28'
_cell_volume   4434.43167080
_cell_formula_units_Z   4
loop_
 _symmetry_equiv_pos_site_id
 _symmetry_equiv_pos_as_xyz
  1  'x, y, z'
loop_
 _atom_site_type_symbol
 _atom_site_label
 _atom_site_symmetry_multiplicity
 _atom_site_fract_x
 _atom_site_fract_y
 _atom_site_fract_z
 _atom_site_occupancy
  Cu  Cu0  1  0.79593000  0.91683000  0.78931000  1.0
  Cu  Cu1  1  0.80971000  0.88709000  0.94857000  1.0
  Cu  Cu2  1  0.92310000  0.77308000  0.84069000  1.0
  Cu  Cu3  1  0.20407000  0.58317000  0.28931000  1.0
  Cu  Cu4  1  0.19029000  0.61291000  0.44857000  1.0
  Cu  Cu5  1  0.07690000  0.72692000  0.34069000  1.0
  Cu  Cu6  1  0.29593000  0.08317000  0.71069000  1.0
  Cu  Cu7  1  0.30971000  0.11291000  0.55143000  1.0
  Cu  Cu8  1  0.42310000  0.22692000  0.65931000  1.0
  Cu  Cu9  1  0.70407000  0.41683000  0.21069000  1.0
  Cu  Cu10  1  0.69029000  0.38709000  0.05143000  1.0
  Cu  Cu11  1  0.57690000  0.27308000  0.15931000  1.0
  H  H12  1  0.62565000  0.04566000  0.78416000  1.0
  H  H13  1  0.68731000  0.03898000  0.00459000  1.0
  H  H14  1  0.06291000  0.74732000  0.70873000  1.0
  H  H15  1  0.88539000  0.94698000  0.64160000  1.0
  H  H16  1  0.84838000  0.79434000  0.08784000  1.0
  H  H17  1  0.97963000  0.62988000  0.94171000  1.0
  H  H18  1  0.37435000  0.45434000  0.28416000  1.0
  H  H19  1  0.31269000  0.46102000  0.50459000  1.0
  H  H20  1  0.93709000  0.75268000  0.20873000  1.0
  H  H21  1  0.11461000  0.55302000  0.14160000  1.0
  H  H22  1  0.15162000  0.70566000  0.58784000  1.0
  H  H23  1  0.02038000  0.87012000  0.44171000  1.0
  H  H24  1  0.12565000  0.95434000  0.71584000  1.0
  H  H25  1  0.18731000  0.96102000  0.49541000  1.0
  H  H26  1  0.56291000  0.25268000  0.79127000  1.0
  H  H27  1  0.38539000  0.05302000  0.85840000  1.0
  H  H28  1  0.34838000  0.20566000  0.41216000  1.0
  H  H29  1  0.47963000  0.37012000  0.55829000  1.0
  H  H30  1  0.87435000  0.54566000  0.21584000  1.0
  H  H31  1  0.81269000  0.53898000  0.99541000  1.0
  H  H32  1  0.43709000  0.24732000  0.29127000  1.0
  H  H33  1  0.61461000  0.44698000  0.35840000  1.0
  H  H34  1  0.65162000  0.29434000  0.91216000  1.0
  H  H35  1  0.52038000  0.12988000  0.05829000  1.0
  C  C36  1  0.65164000  0.03307000  0.83607000  1.0
  C  C37  1  0.62721000  0.06974000  0.89904000  1.0
  C  C38  1  0.68289000  0.02961000  0.94910000  1.0
  C  C39  1  0.00966000  0.79464000  0.70221000  1.0
  C  C40  1  0.99903000  0.85058000  0.64867000  1.0
  C  C41  1  0.91798000  0.89640000  0.66797000  1.0
  C  C42  1  0.87727000  0.76325000  0.04298000  1.0
  C  C43  1  0.92280000  0.68854000  0.03848000  1.0
  C  C44  1  0.94415000  0.67923000  0.96796000  1.0
  C  C45  1  0.34836000  0.46693000  0.33607000  1.0
  C  C46  1  0.37280000  0.43026000  0.39904000  1.0
  C  C47  1  0.31711000  0.47039000  0.44910000  1.0
  C  C48  1  0.99034000  0.70536000  0.20221000  1.0
  C  C49  1  0.00097000  0.64942000  0.14867000  1.0
  C  C50  1  0.08202000  0.60360000  0.16797000  1.0
  C  C51  1  0.12273000  0.73675000  0.54298000  1.0
  C  C52  1  0.07720000  0.81146000  0.53848000  1.0
  C  C53  1  0.05585000  0.82076000  0.46796000  1.0
  C  C54  1  0.15164000  0.96693000  0.66393000  1.0
  C  C55  1  0.12720000  0.93026000  0.60096000  1.0
  C  C56  1  0.18289000  0.97039000  0.55090000  1.0
  C  C57  1  0.50966000  0.20536000  0.79779000  1.0
  C  C58  1  0.49903000  0.14942000  0.85133000  1.0
  C  C59  1  0.41798000  0.10360000  0.83203000  1.0
  C  C60  1  0.37727000  0.23675000  0.45702000  1.0
  C  C61  1  0.42280000  0.31146000  0.46152000  1.0
  C  C62  1  0.44415000  0.32076000  0.53204000  1.0
  C  C63  1  0.84836000  0.53307000  0.16393000  1.0
  C  C64  1  0.87280000  0.56974000  0.10096000  1.0
  C  C65  1  0.81711000  0.52961000  0.05090000  1.0
  C  C66  1  0.49034000  0.29464000  0.29779000  1.0
  C  C67  1  0.50097000  0.35058000  0.35133000  1.0
  C  C68  1  0.58202000  0.39640000  0.33203000  1.0
  C  C69  1  0.62273000  0.26325000  0.95702000  1.0
  C  C70  1  0.57720000  0.18854000  0.96152000  1.0
  C  C71  1  0.55585000  0.17924000  0.03204000  1.0
  N  N72  1  0.43952000  0.36759000  0.40827000  1.0
  N  N73  1  0.56048000  0.13241000  0.90827000  1.0
  N  N74  1  0.93952000  0.63241000  0.09173000  1.0
  N  N75  1  0.06048000  0.86759000  0.59173000  1.0
  N  N76  1  0.73715000  0.97252000  0.91751000  1.0
  N  N77  1  0.71736000  0.97439000  0.84813000  1.0
  N  N78  1  0.88292000  0.87002000  0.72901000  1.0
  N  N79  1  0.93910000  0.80655000  0.75016000  1.0
  N  N80  1  0.91314000  0.74401000  0.93269000  1.0
  N  N81  1  0.87252000  0.79638000  0.97935000  1.0
  N  N82  1  0.26285000  0.52748000  0.41751000  1.0
  N  N83  1  0.28264000  0.52561000  0.34813000  1.0
  N  N84  1  0.11708000  0.62998000  0.22901000  1.0
  N  N85  1  0.06090000  0.69345000  0.25016000  1.0
  N  N86  1  0.08686000  0.75599000  0.43269000  1.0
  N  N87  1  0.12748000  0.70362000  0.47935000  1.0
  N  N88  1  0.23715000  0.02748000  0.58249000  1.0
  N  N89  1  0.21736000  0.02561000  0.65187000  1.0
  N  N90  1  0.38292000  0.12998000  0.77099000  1.0
  N  N91  1  0.43910000  0.19345000  0.74984000  1.0
  N  N92  1  0.41314000  0.25599000  0.56731000  1.0
  N  N93  1  0.37252000  0.20362000  0.52065000  1.0
  N  N94  1  0.76285000  0.47252000  0.08249000  1.0
  N  N95  1  0.78264000  0.47439000  0.15187000  1.0
  N  N96  1  0.61708000  0.37002000  0.27099000  1.0
  N  N97  1  0.56090000  0.30655000  0.24984000  1.0
  N  N98  1  0.58686000  0.24401000  0.06731000  1.0
  N  N99  1  0.62748000  0.29638000  0.02065000  1.0
