# generated using pymatgen
data_CdH8C12S2(NO)4
_symmetry_space_group_name_H-M   'P 1'
_cell_length_a   6.75925000
_cell_length_b   13.74650000
_cell_length_c   15.43800000
_cell_angle_alpha   90.61660000
_cell_angle_beta   90.00000000
_cell_angle_gamma   90.00000000
_symmetry_Int_Tables_number   1
_chemical_formula_structural   CdH8C12S2(NO)4
_chemical_formula_sum   'Cd4 H32 C48 S8 N16 O16'
_cell_volume   1434.35460975
_cell_formula_units_Z   4
loop_
 _symmetry_equiv_pos_site_id
 _symmetry_equiv_pos_as_xyz
  1  'x, y, z'
loop_
 _atom_site_type_symbol
 _atom_site_label
 _atom_site_symmetry_multiplicity
 _atom_site_fract_x
 _atom_site_fract_y
 _atom_site_fract_z
 _atom_site_occupancy
  Cd  Cd0  1  0.31943000  0.39191000  0.00776000  1.0
  Cd  Cd1  1  0.81943000  0.10809000  0.99224000  1.0
  Cd  Cd2  1  0.68057000  0.60809000  0.99224000  1.0
  Cd  Cd3  1  0.18057000  0.89191000  0.00776000  1.0
  H  H4  1  0.16847000  0.50090000  0.17769000  1.0
  H  H5  1  0.66846000  0.99910000  0.82231000  1.0
  H  H6  1  0.83153000  0.49910000  0.82231000  1.0
  H  H7  1  0.33154000  0.00090000  0.17769000  1.0
  H  H8  1  0.53640000  0.26488000  0.86678000  1.0
  H  H9  1  0.03640000  0.23512000  0.13322000  1.0
  H  H10  1  0.46360000  0.73512000  0.13322000  1.0
  H  H11  1  0.96360000  0.76488000  0.86678000  1.0
  H  H12  1  0.17256000  0.50508000  0.83967000  1.0
  H  H13  1  0.67256000  0.99492000  0.16034000  1.0
  H  H14  1  0.82744000  0.49492000  0.16034000  1.0
  H  H15  1  0.32744000  0.00508000  0.83966000  1.0
  H  H16  1  0.20352000  0.49991000  0.67774000  1.0
  H  H17  1  0.70352000  0.00009000  0.32226000  1.0
  H  H18  1  0.79647000  0.50009000  0.32226000  1.0
  H  H19  1  0.29648000  0.99991000  0.67774000  1.0
  H  H20  1  0.60927000  0.25816000  0.30788000  1.0
  H  H21  1  0.10927000  0.24184000  0.69212000  1.0
  H  H22  1  0.39073000  0.74185000  0.69212000  1.0
  H  H23  1  0.89073000  0.75815000  0.30788000  1.0
  H  H24  1  0.59024000  0.25153000  0.70625000  1.0
  H  H25  1  0.09024000  0.24847000  0.29375000  1.0
  H  H26  1  0.40976000  0.74847000  0.29375000  1.0
  H  H27  1  0.90976000  0.75153000  0.70625000  1.0
  H  H28  1  0.56980000  0.27539000  0.14697000  1.0
  H  H29  1  0.06980000  0.22461000  0.85303000  1.0
  H  H30  1  0.43020000  0.72461000  0.85303000  1.0
  H  H31  1  0.93020000  0.77539000  0.14697000  1.0
  H  H32  1  0.19049000  0.49363000  0.33949000  1.0
  H  H33  1  0.69049000  0.00637000  0.66051000  1.0
  H  H34  1  0.80950000  0.50637000  0.66051000  1.0
  H  H35  1  0.30951000  0.99363000  0.33949000  1.0
  C  C36  1  0.26110000  0.44699000  0.20975000  1.0
  C  C37  1  0.76111000  0.05301000  0.79025000  1.0
  C  C38  1  0.73889000  0.55301000  0.79025000  1.0
  C  C39  1  0.23890000  0.94699000  0.20975000  1.0
  C  C40  1  0.40173000  0.37382000  0.33692000  1.0
  C  C41  1  0.90173000  0.12618000  0.66308000  1.0
  C  C42  1  0.59827000  0.62618000  0.66308000  1.0
  C  C43  1  0.09827000  0.87382000  0.33692000  1.0
  C  C44  1  0.46819000  0.31613000  0.82239000  1.0
  C  C45  1  0.96820000  0.18387000  0.17761000  1.0
  C  C46  1  0.53180000  0.68387000  0.17761000  1.0
  C  C47  1  0.03180000  0.81613000  0.82239000  1.0
  C  C48  1  0.26169000  0.44976000  0.80676000  1.0
  C  C49  1  0.76169000  0.05024000  0.19324000  1.0
  C  C50  1  0.73830000  0.55024000  0.19324000  1.0
  C  C51  1  0.23831000  0.94976000  0.80676000  1.0
  C  C52  1  0.39995000  0.37423000  0.67892000  1.0
  C  C53  1  0.89995000  0.12577000  0.32108000  1.0
  C  C54  1  0.60005000  0.62577000  0.32108000  1.0
  C  C55  1  0.10005000  0.87423000  0.67892000  1.0
  C  C56  1  0.27911000  0.44585000  0.71699000  1.0
  C  C57  1  0.77911000  0.05415000  0.28301000  1.0
  C  C58  1  0.72089000  0.55415000  0.28301000  1.0
  C  C59  1  0.22089000  0.94585000  0.71699000  1.0
  C  C60  1  0.50993000  0.31236000  0.28136000  1.0
  C  C61  1  0.00993000  0.18764000  0.71864000  1.0
  C  C62  1  0.49007000  0.68764000  0.71864000  1.0
  C  C63  1  0.99008000  0.81236000  0.28136000  1.0
  C  C64  1  0.43024000  0.36559000  0.43034000  1.0
  C  C65  1  0.93024000  0.13441000  0.56966000  1.0
  C  C66  1  0.56975000  0.63441000  0.56966000  1.0
  C  C67  1  0.06976000  0.86559000  0.43034000  1.0
  C  C68  1  0.49605000  0.30824000  0.73344000  1.0
  C  C69  1  0.99605000  0.19176000  0.26656000  1.0
  C  C70  1  0.50395000  0.69176000  0.26656000  1.0
  C  C71  1  0.00395000  0.80824000  0.73344000  1.0
  C  C72  1  0.48902000  0.32179000  0.19236000  1.0
  C  C73  1  0.98902000  0.17822000  0.80764000  1.0
  C  C74  1  0.51098000  0.67822000  0.80764000  1.0
  C  C75  1  0.01098000  0.82178000  0.19236000  1.0
  C  C76  1  0.43054000  0.36625000  0.58544000  1.0
  C  C77  1  0.93054000  0.13375000  0.41456000  1.0
  C  C78  1  0.56946000  0.63375000  0.41456000  1.0
  C  C79  1  0.06946000  0.86625000  0.58544000  1.0
  C  C80  1  0.27435000  0.44224000  0.29960000  1.0
  C  C81  1  0.77435000  0.05776000  0.70040000  1.0
  C  C82  1  0.72565000  0.55776000  0.70040000  1.0
  C  C83  1  0.22565000  0.94224000  0.29960000  1.0
  S  S84  1  0.33354000  0.13187000  0.00954000  1.0
  S  S85  1  0.83354000  0.36813000  0.99046000  1.0
  S  S86  1  0.66646000  0.86813000  0.99046000  1.0
  S  S87  1  0.16646000  0.63187000  0.00954000  1.0
  S  S88  1  0.27654000  0.41678000  0.50823000  1.0
  S  S89  1  0.77654000  0.08322000  0.49177000  1.0
  S  S90  1  0.72346000  0.58322000  0.49177000  1.0
  S  S91  1  0.22346000  0.91678000  0.50823000  1.0
  N  N92  1  0.36660000  0.38775000  0.15732000  1.0
  N  N93  1  0.86660000  0.11225000  0.84268000  1.0
  N  N94  1  0.63340000  0.61225000  0.84268000  1.0
  N  N95  1  0.13340000  0.88775000  0.15733000  1.0
  N  N96  1  0.35407000  0.38584000  0.85814000  1.0
  N  N97  1  0.85407000  0.11416000  0.14186000  1.0
  N  N98  1  0.64593000  0.61416000  0.14186000  1.0
  N  N99  1  0.14593000  0.88584000  0.85814000  1.0
  N  N100  1  0.57987000  0.31683000  0.55111000  1.0
  N  N101  1  0.07987000  0.18316000  0.44889000  1.0
  N  N102  1  0.42013000  0.68317000  0.44889000  1.0
  N  N103  1  0.92013000  0.81683000  0.55111000  1.0
  N  N104  1  0.57984000  0.31660000  0.46400000  1.0
  N  N105  1  0.07984000  0.18340000  0.53600000  1.0
  N  N106  1  0.42016000  0.68340000  0.53600000  1.0
  N  N107  1  0.92016000  0.81660000  0.46400000  1.0
  O  O108  1  0.16440000  0.06041000  0.99681000  1.0
  O  O109  1  0.66440000  0.43959000  0.00319000  1.0
  O  O110  1  0.83559000  0.93959000  0.00319000  1.0
  O  O111  1  0.33560000  0.56041000  0.99681000  1.0
  O  O112  1  0.24810000  0.22875000  0.98772000  1.0
  O  O113  1  0.74810000  0.27125000  0.01228000  1.0
  O  O114  1  0.75191000  0.77125000  0.01228000  1.0
  O  O115  1  0.25191000  0.72875000  0.98772000  1.0
  O  O116  1  0.40724000  0.12900000  0.09887000  1.0
  O  O117  1  0.90723000  0.37099000  0.90113000  1.0
  O  O118  1  0.59276000  0.87099000  0.90113000  1.0
  O  O119  1  0.09276000  0.62900000  0.09887000  1.0
  O  O120  1  0.49098000  0.10462000  0.94562000  1.0
  O  O121  1  0.99098000  0.39539000  0.05438000  1.0
  O  O122  1  0.50902000  0.89539000  0.05438000  1.0
  O  O123  1  0.00902000  0.60461000  0.94562000  1.0
