# generated using pymatgen
data_CdH5(C2O)4
_symmetry_space_group_name_H-M   'P 1'
_cell_length_a   6.56097000
_cell_length_b   9.06741000
_cell_length_c   27.99740000
_cell_angle_alpha   95.14930000
_cell_angle_beta   90.00000000
_cell_angle_gamma   111.21000000
_symmetry_Int_Tables_number   1
_chemical_formula_structural   CdH5(C2O)4
_chemical_formula_sum   'Cd8 H40 C64 O32'
_cell_volume   1545.55466113
_cell_formula_units_Z   8
loop_
 _symmetry_equiv_pos_site_id
 _symmetry_equiv_pos_as_xyz
  1  'x, y, z'
loop_
 _atom_site_type_symbol
 _atom_site_label
 _atom_site_symmetry_multiplicity
 _atom_site_fract_x
 _atom_site_fract_y
 _atom_site_fract_z
 _atom_site_occupancy
  Cd  Cd0  1  0.68256000  0.58943000  0.71948000  1.0
  Cd  Cd1  1  0.09270000  0.41016000  0.78061000  1.0
  Cd  Cd2  1  0.31744000  0.41057000  0.28052000  1.0
  Cd  Cd3  1  0.90730000  0.58984000  0.21939000  1.0
  Cd  Cd4  1  0.18295000  0.81716000  0.77948000  1.0
  Cd  Cd5  1  0.36499000  0.18253000  0.72055000  1.0
  Cd  Cd6  1  0.81705000  0.18284000  0.22052000  1.0
  Cd  Cd7  1  0.63501000  0.81747000  0.27945000  1.0
  H  H8  1  0.11978000  0.57923000  0.70621000  1.0
  H  H9  1  0.54009000  0.42037000  0.79384000  1.0
  H  H10  1  0.88022000  0.42077000  0.29379000  1.0
  H  H11  1  0.45991000  0.57963000  0.20616000  1.0
  H  H12  1  0.39820000  0.21795000  0.57630000  1.0
  H  H13  1  0.17960000  0.78191000  0.92379000  1.0
  H  H14  1  0.60180000  0.78205000  0.42370000  1.0
  H  H15  1  0.82040000  0.21809000  0.07622000  1.0
  H  H16  1  0.17879000  0.12308000  0.49908000  1.0
  H  H17  1  0.05488000  0.87700000  0.00094000  1.0
  H  H18  1  0.82121000  0.87692000  0.50092000  1.0
  H  H19  1  0.94512000  0.12300000  0.99906000  1.0
  H  H20  1  0.80140000  0.41236000  0.54086000  1.0
  H  H21  1  0.38829000  0.58789000  0.95907000  1.0
  H  H22  1  0.19860000  0.58764000  0.45914000  1.0
  H  H23  1  0.61172000  0.41210000  0.04093000  1.0
  H  H24  1  0.02431000  0.50983000  0.61667000  1.0
  H  H25  1  0.51392000  0.49000000  0.88335000  1.0
  H  H26  1  0.97569000  0.49017000  0.38333000  1.0
  H  H27  1  0.48608000  0.51001000  0.11665000  1.0
  H  H28  1  0.12695000  0.24893000  0.42321000  1.0
  H  H29  1  0.87730000  0.75147000  0.07668000  1.0
  H  H30  1  0.87305000  0.75107000  0.57679000  1.0
  H  H31  1  0.12270000  0.24853000  0.92332000  1.0
  H  H32  1  0.31794000  0.03240000  0.42778000  1.0
  H  H33  1  0.28501000  0.96822000  0.07220000  1.0
  H  H34  1  0.68206000  0.96760000  0.57222000  1.0
  H  H35  1  0.71499000  0.03177000  0.92780000  1.0
  H  H36  1  0.53777000  0.15819000  0.50160000  1.0
  H  H37  1  0.37873000  0.84231000  0.99837000  1.0
  H  H38  1  0.46223000  0.84181000  0.49840000  1.0
  H  H39  1  0.62126000  0.15768000  0.00163000  1.0
  H  H40  1  0.18379000  0.01102000  0.35129000  1.0
  H  H41  1  0.17214000  0.98888000  0.14878000  1.0
  H  H42  1  0.81621000  0.98898000  0.64871000  1.0
  H  H43  1  0.82785000  0.01111000  0.85122000  1.0
  H  H44  1  0.20406000  0.83496000  0.37193000  1.0
  H  H45  1  0.36773000  0.16507000  0.12806000  1.0
  H  H46  1  0.79594000  0.16504000  0.62807000  1.0
  H  H47  1  0.63226000  0.83493000  0.87194000  1.0
  C  C48  1  0.36582000  0.43227000  0.64578000  1.0
  C  C49  1  0.93344000  0.56757000  0.85431000  1.0
  C  C50  1  0.63418000  0.56773000  0.35422000  1.0
  C  C51  1  0.06656000  0.43244000  0.14569000  1.0
  C  C52  1  0.22677000  0.37066000  0.60097000  1.0
  C  C53  1  0.85567000  0.62915000  0.89908000  1.0
  C  C54  1  0.77323000  0.62935000  0.39903000  1.0
  C  C55  1  0.14433000  0.37085000  0.10092000  1.0
  C  C56  1  0.26894000  0.26108000  0.56774000  1.0
  C  C57  1  0.00722000  0.73878000  0.93233000  1.0
  C  C58  1  0.73106000  0.73892000  0.43226000  1.0
  C  C59  1  0.99279000  0.26122000  0.06767000  1.0
  C  C60  1  0.14743000  0.20933000  0.52477000  1.0
  C  C61  1  0.93730000  0.79071000  0.97525000  1.0
  C  C62  1  0.85257000  0.79067000  0.47523000  1.0
  C  C63  1  0.06270000  0.20929000  0.02475000  1.0
  C  C64  1  0.97758000  0.26262000  0.51438000  1.0
  C  C65  1  0.71409000  0.73768000  0.98557000  1.0
  C  C66  1  0.02241000  0.73738000  0.48562000  1.0
  C  C67  1  0.28591000  0.26231000  0.01443000  1.0
  C  C68  1  0.93187000  0.36911000  0.54849000  1.0
  C  C69  1  0.56207000  0.63102000  0.95146000  1.0
  C  C70  1  0.06813000  0.63089000  0.45151000  1.0
  C  C71  1  0.43793000  0.36898000  0.04854000  1.0
  C  C72  1  0.05702000  0.42423000  0.59099000  1.0
  C  C73  1  0.63230000  0.57566000  0.90901000  1.0
  C  C74  1  0.94298000  0.57577000  0.40901000  1.0
  C  C75  1  0.36771000  0.42434000  0.09099000  1.0
  C  C76  1  0.84880000  0.20312000  0.46889000  1.0
  C  C77  1  0.64487000  0.79731000  0.03105000  1.0
  C  C78  1  0.15120000  0.79688000  0.53111000  1.0
  C  C79  1  0.35513000  0.20269000  0.96895000  1.0
  C  C80  1  0.94938000  0.19669000  0.42512000  1.0
  C  C81  1  0.75201000  0.80374000  0.07479000  1.0
  C  C82  1  0.05061000  0.80331000  0.57488000  1.0
  C  C83  1  0.24799000  0.19625000  0.92521000  1.0
  C  C84  1  0.82920000  0.13257000  0.38198000  1.0
  C  C85  1  0.69614000  0.86789000  0.11795000  1.0
  C  C86  1  0.17080000  0.86743000  0.61802000  1.0
  C  C87  1  0.30386000  0.13210000  0.88205000  1.0
  C  C88  1  0.59883000  0.06426000  0.38354000  1.0
  C  C89  1  0.53408000  0.93623000  0.11642000  1.0
  C  C90  1  0.40117000  0.93574000  0.61646000  1.0
  C  C91  1  0.46592000  0.06376000  0.88358000  1.0
  C  C92  1  0.49545000  0.07844000  0.42657000  1.0
  C  C93  1  0.41644000  0.92213000  0.07340000  1.0
  C  C94  1  0.50455000  0.92157000  0.57343000  1.0
  C  C95  1  0.58355000  0.07786000  0.92660000  1.0
  C  C96  1  0.61990000  0.14949000  0.46830000  1.0
  C  C97  1  0.46962000  0.85101000  0.03167000  1.0
  C  C98  1  0.38010000  0.85051000  0.53170000  1.0
  C  C99  1  0.53038000  0.14898000  0.96833000  1.0
  C  C100  1  0.94987000  0.15698000  0.33625000  1.0
  C  C101  1  0.79224000  0.84333000  0.16368000  1.0
  C  C102  1  0.05013000  0.84302000  0.66375000  1.0
  C  C103  1  0.20776000  0.15667000  0.83632000  1.0
  C  C104  1  0.25332000  0.91830000  0.34402000  1.0
  C  C105  1  0.33421000  0.08187000  0.15600000  1.0
  C  C106  1  0.74668000  0.08170000  0.65598000  1.0
  C  C107  1  0.66578000  0.91813000  0.84400000  1.0
  C  C108  1  0.16306000  0.82537000  0.29636000  1.0
  C  C109  1  0.33706000  0.17483000  0.20364000  1.0
  C  C110  1  0.83694000  0.17464000  0.70364000  1.0
  C  C111  1  0.66294000  0.82517000  0.79636000  1.0
  O  O112  1  0.49304000  0.35977000  0.65774000  1.0
  O  O113  1  0.13313000  0.64019000  0.84241000  1.0
  O  O114  1  0.50696000  0.64023000  0.34226000  1.0
  O  O115  1  0.86687000  0.35981000  0.15759000  1.0
  O  O116  1  0.36158000  0.55652000  0.66980000  1.0
  O  O117  1  0.80522000  0.44320000  0.83029000  1.0
  O  O118  1  0.63842000  0.44348000  0.33020000  1.0
  O  O119  1  0.19478000  0.55680000  0.16971000  1.0
  O  O120  1  0.14065000  0.26221000  0.33957000  1.0
  O  O121  1  0.87742000  0.73787000  0.16033000  1.0
  O  O122  1  0.85935000  0.73779000  0.66043000  1.0
  O  O123  1  0.12259000  0.26213000  0.83967000  1.0
  O  O124  1  0.86056000  0.07719000  0.29643000  1.0
  O  O125  1  0.78289000  0.92309000  0.20352000  1.0
  O  O126  1  0.13944000  0.92281000  0.70357000  1.0
  O  O127  1  0.21711000  0.07690000  0.79648000  1.0
  O  O128  1  0.48538000  0.98824000  0.34225000  1.0
  O  O129  1  0.49676000  0.01231000  0.15770000  1.0
  O  O130  1  0.51461000  0.01176000  0.65775000  1.0
  O  O131  1  0.50324000  0.98769000  0.84230000  1.0
  O  O132  1  0.95528000  0.76438000  0.29192000  1.0
  O  O133  1  0.19036000  0.23587000  0.20807000  1.0
  O  O134  1  0.04472000  0.23562000  0.70808000  1.0
  O  O135  1  0.80964000  0.76413000  0.79193000  1.0
  O  O136  1  0.28625000  0.80382000  0.26396000  1.0
  O  O137  1  0.48182000  0.19629000  0.23603000  1.0
  O  O138  1  0.71375000  0.19618000  0.73604000  1.0
  O  O139  1  0.51818000  0.80371000  0.76397000  1.0
  O  O140  1  0.02915000  0.58069000  0.73415000  1.0
  O  O141  1  0.44806000  0.41906000  0.76591000  1.0
  O  O142  1  0.97085000  0.41931000  0.26585000  1.0
  O  O143  1  0.55194000  0.58094000  0.23409000  1.0
