# generated using pymatgen
data_CuSiH16C24N4(Cl2F3)2
_symmetry_space_group_name_H-M   'P 1'
_cell_length_a   8.00663000
_cell_length_b   13.75270000
_cell_length_c   13.75270000
_cell_angle_alpha   89.73990000
_cell_angle_beta   86.00070000
_cell_angle_gamma   86.00080000
_symmetry_Int_Tables_number   1
_chemical_formula_structural   CuSiH16C24N4(Cl2F3)2
_chemical_formula_sum   'Cu1 Si1 H16 C24 N4 Cl4 F6'
_cell_volume   1506.98194792
_cell_formula_units_Z   1
loop_
 _symmetry_equiv_pos_site_id
 _symmetry_equiv_pos_as_xyz
  1  'x, y, z'
loop_
 _atom_site_type_symbol
 _atom_site_label
 _atom_site_symmetry_multiplicity
 _atom_site_fract_x
 _atom_site_fract_y
 _atom_site_fract_z
 _atom_site_occupancy
  Cu  Cu0  1  0.50000000  0.49999000  0.50000000  1.0
  Si  Si1  1  0.99999000  0.50000000  0.50000000  1.0
  H  H2  1  0.26022000  0.49992000  0.34408000  1.0
  H  H3  1  0.26447000  0.49985000  0.16877000  1.0
  H  H4  1  0.80620000  0.50007000  0.16210000  1.0
  H  H5  1  0.78005000  0.50005000  0.33950000  1.0
  H  H6  1  0.19378000  0.49994000  0.83789000  1.0
  H  H7  1  0.73552000  0.50017000  0.83123000  1.0
  H  H8  1  0.73978000  0.50008000  0.65593000  1.0
  H  H9  1  0.21995000  0.49995000  0.66049000  1.0
  H  H10  1  0.26021000  0.34407000  0.49992000  1.0
  H  H11  1  0.26446000  0.16877000  0.49985000  1.0
  H  H12  1  0.80619000  0.16210000  0.50007000  1.0
  H  H13  1  0.78004000  0.33950000  0.50005000  1.0
  H  H14  1  0.19379000  0.83789000  0.49993000  1.0
  H  H15  1  0.73552000  0.83122000  0.50016000  1.0
  H  H16  1  0.73977000  0.65592000  0.50008000  1.0
  H  H17  1  0.21994000  0.66049000  0.49994000  1.0
  C  C18  1  0.37998000  0.49995000  0.30141000  1.0
  C  C19  1  0.38409000  0.49993000  0.20026000  1.0
  C  C20  1  0.53763000  0.49998000  0.14319000  1.0
  C  C21  1  0.68094000  0.50001000  0.19770000  1.0
  C  C22  1  0.66810000  0.50002000  0.29887000  1.0
  C  C23  1  0.55822000  0.49993000  0.03468000  1.0
  C  C24  1  0.44177000  0.50007000  0.96531000  1.0
  C  C25  1  0.31905000  0.49999000  0.80229000  1.0
  C  C26  1  0.46235000  0.50003000  0.85681000  1.0
  C  C27  1  0.61590000  0.50007000  0.79974000  1.0
  C  C28  1  0.62001000  0.50005000  0.69859000  1.0
  C  C29  1  0.33189000  0.49998000  0.70113000  1.0
  C  C30  1  0.37998000  0.30140000  0.49995000  1.0
  C  C31  1  0.38408000  0.20025000  0.49993000  1.0
  C  C32  1  0.53763000  0.14319000  0.49998000  1.0
  C  C33  1  0.68094000  0.19770000  0.50001000  1.0
  C  C34  1  0.66810000  0.29887000  0.50002000  1.0
  C  C35  1  0.55821000  0.03468000  0.49994000  1.0
  C  C36  1  0.44177000  0.96531000  0.50007000  1.0
  C  C37  1  0.31905000  0.80229000  0.49999000  1.0
  C  C38  1  0.46236000  0.85681000  0.50002000  1.0
  C  C39  1  0.61590000  0.79974000  0.50007000  1.0
  C  C40  1  0.62001000  0.69859000  0.50005000  1.0
  C  C41  1  0.33188000  0.70112000  0.49998000  1.0
  N  N42  1  0.51914000  0.49999000  0.35081000  1.0
  N  N43  1  0.48086000  0.50001000  0.64919000  1.0
  N  N44  1  0.51913000  0.35080000  0.49998000  1.0
  N  N45  1  0.48086000  0.64919000  0.50001000  1.0
  Cl  Cl46  1  0.76881000  0.49978000  0.99282000  1.0
  Cl  Cl47  1  0.23117000  0.50023000  0.00718000  1.0
  Cl  Cl48  1  0.76881000  0.99282000  0.49978000  1.0
  Cl  Cl49  1  0.23117000  0.00717000  0.50023000  1.0
  F  F50  1  0.21624000  0.50087000  0.50087000  1.0
  F  F51  1  0.78374000  0.49913000  0.49912000  1.0
  F  F52  1  0.99999000  0.58823000  0.41177000  1.0
  F  F53  1  0.00000000  0.41176000  0.58823000  1.0
  F  F54  1  0.02292000  0.41174000  0.41173000  1.0
  F  F55  1  0.97706000  0.58826000  0.58826000  1.0
