# generated using pymatgen
data_Pr2H37C36N7O22
_symmetry_space_group_name_H-M   'P 1'
_cell_length_a   13.86010000
_cell_length_b   13.86010000
_cell_length_c   16.43380000
_cell_angle_alpha   67.06930000
_cell_angle_beta   67.06910000
_cell_angle_gamma   75.15070000
_symmetry_Int_Tables_number   1
_chemical_formula_structural   Pr2H37C36N7O22
_chemical_formula_sum   'Pr4 H74 C72 N14 O44'
_cell_volume   2657.34383832
_cell_formula_units_Z   2
loop_
 _symmetry_equiv_pos_site_id
 _symmetry_equiv_pos_as_xyz
  1  'x, y, z'
loop_
 _atom_site_type_symbol
 _atom_site_label
 _atom_site_symmetry_multiplicity
 _atom_site_fract_x
 _atom_site_fract_y
 _atom_site_fract_z
 _atom_site_occupancy
  Pr  Pr0  1  0.45101000  0.17206000  0.49652000  1.0
  Pr  Pr1  1  0.82793000  0.54899000  0.00348000  1.0
  Pr  Pr2  1  0.54899000  0.82794000  0.50348000  1.0
  Pr  Pr3  1  0.17206000  0.45101000  0.99652000  1.0
  H  H4  1  0.91281000  0.22478000  0.49546000  1.0
  H  H5  1  0.77522000  0.08719000  0.00455000  1.0
  H  H6  1  0.08719000  0.77522000  0.50454000  1.0
  H  H7  1  0.22479000  0.91281000  0.99545000  1.0
  H  H8  1  0.86901000  0.11615000  0.49174000  1.0
  H  H9  1  0.88385000  0.13100000  0.00826000  1.0
  H  H10  1  0.13100000  0.88385000  0.50826000  1.0
  H  H11  1  0.11615000  0.86901000  0.99174000  1.0
  H  H12  1  0.85785000  0.12403000  0.60133000  1.0
  H  H13  1  0.87596000  0.14215000  0.89867000  1.0
  H  H14  1  0.14215000  0.87597000  0.39867000  1.0
  H  H15  1  0.12403000  0.85785000  0.10133000  1.0
  H  H16  1  0.77583000  0.36900000  0.54135000  1.0
  H  H17  1  0.63100000  0.22417000  0.95865000  1.0
  H  H18  1  0.22417000  0.63100000  0.45865000  1.0
  H  H19  1  0.36900000  0.77583000  0.04135000  1.0
  H  H20  1  0.71356000  0.27937000  0.65227000  1.0
  H  H21  1  0.72063000  0.28643000  0.84773000  1.0
  H  H22  1  0.28644000  0.72063000  0.34773000  1.0
  H  H23  1  0.27937000  0.71357000  0.15226000  1.0
  H  H24  1  0.64020000  0.35202000  0.57370000  1.0
  H  H25  1  0.64798000  0.35980000  0.92630000  1.0
  H  H26  1  0.35980000  0.64798000  0.42630000  1.0
  H  H27  1  0.35202000  0.64020000  0.07370000  1.0
  H  H28  1  0.71433000  0.13530000  0.48403000  1.0
  H  H29  1  0.86469000  0.28568000  0.01597000  1.0
  H  H30  1  0.28568000  0.86470000  0.51597000  1.0
  H  H31  1  0.13530000  0.71433000  0.98403000  1.0
  H  H32  1  0.55733000  0.24766000  0.16778000  1.0
  H  H33  1  0.75235000  0.44267000  0.33222000  1.0
  H  H34  1  0.44267000  0.75235000  0.83222000  1.0
  H  H35  1  0.24765000  0.55733000  0.66778000  1.0
  H  H36  1  0.59207000  0.25205000  0.26025000  1.0
  H  H37  1  0.74795000  0.40793000  0.23976000  1.0
  H  H38  1  0.40793000  0.74795000  0.73976000  1.0
  H  H39  1  0.25205000  0.59207000  0.76024000  1.0
  H  H40  1  0.63797000  0.34414000  0.14428000  1.0
  H  H41  1  0.65586000  0.36203000  0.35573000  1.0
  H  H42  1  0.36203000  0.65586000  0.85573000  1.0
  H  H43  1  0.34414000  0.63797000  0.64427000  1.0
  H  H44  1  0.41798000  0.38680000  0.11471000  1.0
  H  H45  1  0.61320000  0.58202000  0.38529000  1.0
  H  H46  1  0.58203000  0.61320000  0.88529000  1.0
  H  H47  1  0.38680000  0.41798000  0.61471000  1.0
  H  H48  1  0.49464000  0.48877000  0.08695000  1.0
  H  H49  1  0.51123000  0.50536000  0.41306000  1.0
  H  H50  1  0.50536000  0.51123000  0.91305000  1.0
  H  H51  1  0.48877000  0.49464000  0.58695000  1.0
  H  H52  1  0.36273000  0.48494000  0.16932000  1.0
  H  H53  1  0.51506000  0.63727000  0.33068000  1.0
  H  H54  1  0.63728000  0.51506000  0.83067000  1.0
  H  H55  1  0.48494000  0.36272000  0.66932000  1.0
  H  H56  1  0.36459000  0.44463000  0.30942000  1.0
  H  H57  1  0.55538000  0.63541000  0.19059000  1.0
  H  H58  1  0.63541000  0.55538000  0.69058000  1.0
  H  H59  1  0.44462000  0.36459000  0.80942000  1.0
  H  H60  1  0.53783000  0.09978000  0.70969000  1.0
  H  H61  1  0.90022000  0.46217000  0.79032000  1.0
  H  H62  1  0.46217000  0.90022000  0.29032000  1.0
  H  H63  1  0.09978000  0.53783000  0.20968000  1.0
  H  H64  1  0.64983000  0.92174000  0.94470000  1.0
  H  H65  1  0.07826000  0.35017000  0.55530000  1.0
  H  H66  1  0.35017000  0.07826000  0.05530000  1.0
  H  H67  1  0.92174000  0.64983000  0.44470000  1.0
  H  H68  1  0.66933000  0.77349000  0.75153000  1.0
  H  H69  1  0.22651000  0.33067000  0.74847000  1.0
  H  H70  1  0.33067000  0.22652000  0.24847000  1.0
  H  H71  1  0.77348000  0.66934000  0.25153000  1.0
  H  H72  1  0.23812000  0.76188000  0.75000000  1.0
  H  H73  1  0.76188000  0.23811000  0.25000000  1.0
  H  H74  1  0.12935000  0.09295000  0.65075000  1.0
  H  H75  1  0.90705000  0.87065000  0.84925000  1.0
  H  H76  1  0.87065000  0.90705000  0.34925000  1.0
  H  H77  1  0.09295000  0.12935000  0.15075000  1.0
  C  C78  1  0.85295000  0.16995000  0.53113000  1.0
  C  C79  1  0.83004000  0.14706000  0.96887000  1.0
  C  C80  1  0.14706000  0.83005000  0.46886000  1.0
  C  C81  1  0.16996000  0.85294000  0.03113000  1.0
  C  C82  1  0.71772000  0.31247000  0.57853000  1.0
  C  C83  1  0.68753000  0.28228000  0.92147000  1.0
  C  C84  1  0.28228000  0.68754000  0.42147000  1.0
  C  C85  1  0.31246000  0.71772000  0.07853000  1.0
  C  C86  1  0.68117000  0.20134000  0.51234000  1.0
  C  C87  1  0.79865000  0.31883000  0.98767000  1.0
  C  C88  1  0.31883000  0.79866000  0.48766000  1.0
  C  C89  1  0.20134000  0.68117000  0.01234000  1.0
  C  C90  1  0.57264000  0.29968000  0.19651000  1.0
  C  C91  1  0.70032000  0.42736000  0.30349000  1.0
  C  C92  1  0.42737000  0.70032000  0.80349000  1.0
  C  C93  1  0.29968000  0.57263000  0.69651000  1.0
  C  C94  1  0.43633000  0.43742000  0.14274000  1.0
  C  C95  1  0.56258000  0.56367000  0.35726000  1.0
  C  C96  1  0.56367000  0.56258000  0.85726000  1.0
  C  C97  1  0.43742000  0.43633000  0.64274000  1.0
  C  C98  1  0.43622000  0.38676000  0.30184000  1.0
  C  C99  1  0.61324000  0.56378000  0.19817000  1.0
  C  C100  1  0.56378000  0.61325000  0.69816000  1.0
  C  C101  1  0.38675000  0.43622000  0.80184000  1.0
  C  C102  1  0.57717000  0.93902000  0.63947000  1.0
  C  C103  1  0.06099000  0.42283000  0.86053000  1.0
  C  C104  1  0.42283000  0.06099000  0.36053000  1.0
  C  C105  1  0.93901000  0.57717000  0.13947000  1.0
  C  C106  1  0.60007000  0.93626000  0.72266000  1.0
  C  C107  1  0.06374000  0.39993000  0.77734000  1.0
  C  C108  1  0.39993000  0.06374000  0.27734000  1.0
  C  C109  1  0.93626000  0.60007000  0.22267000  1.0
  C  C110  1  0.57359000  0.02631000  0.74946000  1.0
  C  C111  1  0.97368000  0.42641000  0.75054000  1.0
  C  C112  1  0.42641000  0.97369000  0.25054000  1.0
  C  C113  1  0.02631000  0.57359000  0.24946000  1.0
  C  C114  1  0.59271000  0.01916000  0.82901000  1.0
  C  C115  1  0.98083000  0.40729000  0.67099000  1.0
  C  C116  1  0.40729000  0.98084000  0.17099000  1.0
  C  C117  1  0.01916000  0.59271000  0.32901000  1.0
  C  C118  1  0.63624000  0.92586000  0.88257000  1.0
  C  C119  1  0.07414000  0.36375000  0.61743000  1.0
  C  C120  1  0.36375000  0.07414000  0.11743000  1.0
  C  C121  1  0.92586000  0.63625000  0.38257000  1.0
  C  C122  1  0.66434000  0.83693000  0.85422000  1.0
  C  C123  1  0.16307000  0.33566000  0.64578000  1.0
  C  C124  1  0.33566000  0.16307000  0.14578000  1.0
  C  C125  1  0.83693000  0.66434000  0.35422000  1.0
  C  C126  1  0.64669000  0.84252000  0.77428000  1.0
  C  C127  1  0.15748000  0.35330000  0.72573000  1.0
  C  C128  1  0.35331000  0.15748000  0.22572000  1.0
  C  C129  1  0.84252000  0.64670000  0.27428000  1.0
  C  C130  1  0.71343000  0.73654000  0.91053000  1.0
  C  C131  1  0.26346000  0.28656000  0.58947000  1.0
  C  C132  1  0.28657000  0.26346000  0.08947000  1.0
  C  C133  1  0.73654000  0.71344000  0.41053000  1.0
  C  C134  1  0.30643000  0.95112000  0.62939000  1.0
  C  C135  1  0.04887000  0.69357000  0.87061000  1.0
  C  C136  1  0.69358000  0.04887000  0.37061000  1.0
  C  C137  1  0.95113000  0.30642000  0.12939000  1.0
  C  C138  1  0.17372000  0.82628000  0.75000000  1.0
  C  C139  1  0.82628000  0.17371000  0.25000000  1.0
  C  C140  1  0.19533000  0.92916000  0.69283000  1.0
  C  C141  1  0.07083000  0.80468000  0.80717000  1.0
  C  C142  1  0.80468000  0.07083000  0.30717000  1.0
  C  C143  1  0.92916000  0.19533000  0.19283000  1.0
  C  C144  1  0.11311000  0.01238000  0.69374000  1.0
  C  C145  1  0.98762000  0.88689000  0.80626000  1.0
  C  C146  1  0.88689000  0.98762000  0.30626000  1.0
  C  C147  1  0.01238000  0.11311000  0.19374000  1.0
  C  C148  1  0.01075000  0.98925000  0.75000000  1.0
  C  C149  1  0.98925000  0.01075000  0.25000000  1.0
  N  N150  1  0.74837000  0.22848000  0.53774000  1.0
  N  N151  1  0.77152000  0.25163000  0.96226000  1.0
  N  N152  1  0.25163000  0.77152000  0.46226000  1.0
  N  N153  1  0.22848000  0.74837000  0.03774000  1.0
  N  N154  1  0.47852000  0.37346000  0.21837000  1.0
  N  N155  1  0.62654000  0.52148000  0.28163000  1.0
  N  N156  1  0.52148000  0.62654000  0.78162000  1.0
  N  N157  1  0.37346000  0.47852000  0.71837000  1.0
  N  N158  1  0.56711000  0.11333000  0.85732000  1.0
  N  N159  1  0.88667000  0.43289000  0.64268000  1.0
  N  N160  1  0.43289000  0.88667000  0.14268000  1.0
  N  N161  1  0.11333000  0.56711000  0.35732000  1.0
  N  N162  1  0.92367000  0.07633000  0.75000000  1.0
  N  N163  1  0.07633000  0.92367000  0.25000000  1.0
  O  O164  1  0.58880000  0.24546000  0.51824000  1.0
  O  O165  1  0.75453000  0.41121000  0.98176000  1.0
  O  O166  1  0.41121000  0.75454000  0.48176000  1.0
  O  O167  1  0.24546000  0.58879000  0.01824000  1.0
  O  O168  1  0.54851000  0.20035000  0.80011000  1.0
  O  O169  1  0.79965000  0.45148000  0.69989000  1.0
  O  O170  1  0.45149000  0.79965000  0.19989000  1.0
  O  O171  1  0.20035000  0.54851000  0.30011000  1.0
  O  O172  1  0.56612000  0.10137000  0.93650000  1.0
  O  O173  1  0.89864000  0.43388000  0.56350000  1.0
  O  O174  1  0.43388000  0.89863000  0.06350000  1.0
  O  O175  1  0.10136000  0.56612000  0.43650000  1.0
  O  O176  1  0.47293000  0.33910000  0.36831000  1.0
  O  O177  1  0.66090000  0.52707000  0.13169000  1.0
  O  O178  1  0.52707000  0.66090000  0.63169000  1.0
  O  O179  1  0.33910000  0.47293000  0.86831000  1.0
  O  O180  1  0.53715000  0.02627000  0.59328000  1.0
  O  O181  1  0.97373000  0.46285000  0.90672000  1.0
  O  O182  1  0.46285000  0.97373000  0.40672000  1.0
  O  O183  1  0.02626000  0.53715000  0.09328000  1.0
  O  O184  1  0.59868000  0.85371000  0.62113000  1.0
  O  O185  1  0.14629000  0.40132000  0.87887000  1.0
  O  O186  1  0.40132000  0.14629000  0.37887000  1.0
  O  O187  1  0.85371000  0.59868000  0.12113000  1.0
  O  O188  1  0.74201000  0.65637000  0.88190000  1.0
  O  O189  1  0.34363000  0.25799000  0.61810000  1.0
  O  O190  1  0.25799000  0.34363000  0.11810000  1.0
  O  O191  1  0.65637000  0.74201000  0.38190000  1.0
  O  O192  1  0.72529000  0.73477000  0.98394000  1.0
  O  O193  1  0.26524000  0.27471000  0.51606000  1.0
  O  O194  1  0.27471000  0.26523000  0.01606000  1.0
  O  O195  1  0.73476000  0.72529000  0.48394000  1.0
  O  O196  1  0.32237000  0.04687000  0.59321000  1.0
  O  O197  1  0.95313000  0.67763000  0.90680000  1.0
  O  O198  1  0.67763000  0.95312000  0.40679000  1.0
  O  O199  1  0.04687000  0.32237000  0.09320000  1.0
  O  O200  1  0.37336000  0.87195000  0.61667000  1.0
  O  O201  1  0.12805000  0.62663000  0.88333000  1.0
  O  O202  1  0.62664000  0.12805000  0.38333000  1.0
  O  O203  1  0.87195000  0.37336000  0.11667000  1.0
  O  O204  1  0.94571000  0.16788000  0.70369000  1.0
  O  O205  1  0.83212000  0.05429000  0.79631000  1.0
  O  O206  1  0.05429000  0.83212000  0.29631000  1.0
  O  O207  1  0.16788000  0.94572000  0.20369000  1.0
