# generated using pymatgen
data_NaH35C26N2O
_symmetry_space_group_name_H-M   'P 1'
_cell_length_a   8.69323000
_cell_length_b   12.00090000
_cell_length_c   12.79120000
_cell_angle_alpha   72.93400000
_cell_angle_beta   79.75060000
_cell_angle_gamma   68.83100000
_symmetry_Int_Tables_number   1
_chemical_formula_structural   NaH35C26N2O
_chemical_formula_sum   'Na2 H70 C52 N4 O2'
_cell_volume   1185.73554133
_cell_formula_units_Z   2
loop_
 _symmetry_equiv_pos_site_id
 _symmetry_equiv_pos_as_xyz
  1  'x, y, z'
loop_
 _atom_site_type_symbol
 _atom_site_label
 _atom_site_symmetry_multiplicity
 _atom_site_fract_x
 _atom_site_fract_y
 _atom_site_fract_z
 _atom_site_occupancy
  Na  Na0  1  0.43163000  0.89500000  0.59322000  1.0
  Na  Na1  1  0.56838000  0.10501000  0.40678000  1.0
  H  H2  1  0.14823000  0.72294000  0.66105000  1.0
  H  H3  1  0.85178000  0.27706000  0.33895000  1.0
  H  H4  1  0.99730000  0.54588000  0.88727000  1.0
  H  H5  1  0.00270000  0.45413000  0.11273000  1.0
  H  H6  1  0.73143000  0.16424000  0.84177000  1.0
  H  H7  1  0.26856000  0.83576000  0.15823000  1.0
  H  H8  1  0.64194000  0.05337000  0.92905000  1.0
  H  H9  1  0.35805000  0.94663000  0.07094000  1.0
  H  H10  1  0.51376000  0.20536000  0.87145000  1.0
  H  H11  1  0.48623000  0.79463000  0.12855000  1.0
  H  H12  1  0.18190000  0.37725000  0.81484000  1.0
  H  H13  1  0.81810000  0.62275000  0.18516000  1.0
  H  H14  1  0.12288000  0.36704000  0.69295000  1.0
  H  H15  1  0.87712000  0.63297000  0.30705000  1.0
  H  H16  1  0.09031000  0.26525000  0.81923000  1.0
  H  H17  1  0.90970000  0.73476000  0.18077000  1.0
  H  H18  1  0.43622000  0.59046000  0.65855000  1.0
  H  H19  1  0.56379000  0.40954000  0.34145000  1.0
  H  H20  1  0.37024000  0.52497000  0.79313000  1.0
  H  H21  1  0.62976000  0.47503000  0.20687000  1.0
  H  H22  1  0.51314000  0.42780000  0.71219000  1.0
  H  H23  1  0.48687000  0.57221000  0.28781000  1.0
  H  H24  1  0.79797000  0.37646000  0.71552000  1.0
  H  H25  1  0.20204000  0.62355000  0.28448000  1.0
  H  H26  1  0.89780000  0.98353000  0.85099000  1.0
  H  H27  1  0.10219000  0.01646000  0.14901000  1.0
  H  H28  1  0.57470000  0.18659000  0.58119000  1.0
  H  H29  1  0.42531000  0.81341000  0.41880000  1.0
  H  H30  1  0.67939000  0.24744000  0.64639000  1.0
  H  H31  1  0.32061000  0.75256000  0.35361000  1.0
  H  H32  1  0.46076000  0.28111000  0.67174000  1.0
  H  H33  1  0.53924000  0.71889000  0.32826000  1.0
  H  H34  1  0.39927000  0.69597000  0.02268000  1.0
  H  H35  1  0.60073000  0.30402000  0.97732000  1.0
  H  H36  1  0.35510000  0.57685000  0.99065000  1.0
  H  H37  1  0.64489000  0.42315000  0.00935000  1.0
  H  H38  1  0.05551000  0.58894000  0.61184000  1.0
  H  H39  1  0.94449000  0.41106000  0.38815000  1.0
  H  H40  1  0.18185000  0.67041000  0.52051000  1.0
  H  H41  1  0.81816000  0.32958000  0.47949000  1.0
  H  H42  1  0.06285000  0.60977000  0.46790000  1.0
  H  H43  1  0.93714000  0.39023000  0.53209000  1.0
  H  H44  1  0.07830000  0.71256000  0.96788000  1.0
  H  H45  1  0.92170000  0.28744000  0.03212000  1.0
  H  H46  1  0.13223000  0.83865000  0.97796000  1.0
  H  H47  1  0.86777000  0.16135000  0.02204000  1.0
  H  H48  1  0.41581000  0.04066000  0.70846000  1.0
  H  H49  1  0.58418000  0.95934000  0.29154000  1.0
  H  H50  1  0.34333000  0.12878000  0.80788000  1.0
  H  H51  1  0.65667000  0.87122000  0.19211000  1.0
  H  H52  1  0.46601000  0.97067000  0.84689000  1.0
  H  H53  1  0.53398000  0.02933000  0.15310000  1.0
  H  H54  1  0.81737000  0.74951000  0.91948000  1.0
  H  H55  1  0.18263000  0.25048000  0.08054000  1.0
  H  H56  1  0.70481000  0.67222000  0.02795000  1.0
  H  H57  1  0.29519000  0.32776000  0.97206000  1.0
  H  H58  1  0.59955000  0.79351000  0.92094000  1.0
  H  H59  1  0.40045000  0.20649000  0.07908000  1.0
  H  H60  1  0.05305000  0.88267000  0.40338000  1.0
  H  H61  1  0.94695000  0.11733000  0.59662000  1.0
  H  H62  1  0.94442000  0.82019000  0.34245000  1.0
  H  H63  1  0.05558000  0.17981000  0.65755000  1.0
  H  H64  1  0.71318000  0.70465000  0.61068000  1.0
  H  H65  1  0.28682000  0.29535000  0.38932000  1.0
  H  H66  1  0.78770000  0.66539000  0.48379000  1.0
  H  H67  1  0.21230000  0.33461000  0.51621000  1.0
  H  H68  1  0.66091000  0.81821000  0.48276000  1.0
  H  H69  1  0.33909000  0.18179000  0.51724000  1.0
  H  H70  1  0.83741000  0.94957000  0.39787000  1.0
  H  H71  1  0.16259000  0.05043000  0.60213000  1.0
  C  C72  1  0.62141000  0.52782000  0.77469000  1.0
  C  C73  1  0.37859000  0.47218000  0.22531000  1.0
  C  C74  1  0.75706000  0.98856000  0.72538000  1.0
  C  C75  1  0.24294000  0.01144000  0.27461000  1.0
  C  C76  1  0.03791000  0.79844000  0.67533000  1.0
  C  C77  1  0.96209000  0.20156000  0.32466000  1.0
  C  C78  1  0.89199000  0.53940000  0.85667000  1.0
  C  C79  1  0.10801000  0.46060000  0.14333000  1.0
  C  C80  1  0.33637000  0.76971000  0.77106000  1.0
  C  C81  1  0.66363000  0.23030000  0.22894000  1.0
  C  C82  1  0.75895000  0.93846000  0.63495000  1.0
  C  C83  1  0.24105000  0.06154000  0.36505000  1.0
  C  C84  1  0.03819000  0.85132000  0.75901000  1.0
  C  C85  1  0.96181000  0.14868000  0.24099000  1.0
  C  C86  1  0.90318000  0.83794000  0.61334000  1.0
  C  C87  1  0.09682000  0.16206000  0.38666000  1.0
  C  C88  1  0.60521000  0.09365000  0.75415000  1.0
  C  C89  1  0.39478000  0.90634000  0.24585000  1.0
  C  C90  1  0.59946000  0.61744000  0.83217000  1.0
  C  C91  1  0.40054000  0.38256000  0.16784000  1.0
  C  C92  1  0.91414000  0.77457000  0.52219000  1.0
  C  C93  1  0.08586000  0.22543000  0.47781000  1.0
  C  C94  1  0.62581000  0.13040000  0.85500000  1.0
  C  C95  1  0.37418000  0.86960000  0.14500000  1.0
  C  C96  1  0.08691000  0.36099000  0.78083000  1.0
  C  C97  1  0.91309000  0.63901000  0.21917000  1.0
  C  C98  1  0.47813000  0.51674000  0.73254000  1.0
  C  C99  1  0.52187000  0.48326000  0.26746000  1.0
  C  C100  1  0.91780000  0.45082000  0.79920000  1.0
  C  C101  1  0.08220000  0.54919000  0.20080000  1.0
  C  C102  1  0.78065000  0.44626000  0.75936000  1.0
  C  C103  1  0.21935000  0.55375000  0.24064000  1.0
  C  C104  1  0.89660000  0.94407000  0.78466000  1.0
  C  C105  1  0.10340000  0.05592000  0.21534000  1.0
  C  C106  1  0.73433000  0.62273000  0.87476000  1.0
  C  C107  1  0.26567000  0.37727000  0.12525000  1.0
  C  C108  1  0.57841000  0.20944000  0.65728000  1.0
  C  C109  1  0.42159000  0.79056000  0.34272000  1.0
  C  C110  1  0.93873000  0.86140000  0.41004000  1.0
  C  C111  1  0.06127000  0.13861000  0.58996000  1.0
  C  C112  1  0.34669000  0.67449000  0.96227000  1.0
  C  C113  1  0.65330000  0.32551000  0.03773000  1.0
  C  C114  1  0.06275000  0.65420000  0.53186000  1.0
  C  C115  1  0.93725000  0.34580000  0.46814000  1.0
  C  C116  1  0.17010000  0.76052000  0.93998000  1.0
  C  C117  1  0.82990000  0.23948000  0.06002000  1.0
  C  C118  1  0.44819000  0.05570000  0.78081000  1.0
  C  C119  1  0.55181000  0.94430000  0.21919000  1.0
  C  C120  1  0.71261000  0.71445000  0.93904000  1.0
  C  C121  1  0.28738000  0.28555000  0.06098000  1.0
  C  C122  1  0.75849000  0.73941000  0.52580000  1.0
  C  C123  1  0.24151000  0.26060000  0.47420000  1.0
  N  N124  1  0.43685000  0.69810000  0.85217000  1.0
  N  N125  1  0.56315000  0.30190000  0.14783000  1.0
  N  N126  1  0.18139000  0.80463000  0.81836000  1.0
  N  N127  1  0.81861000  0.19537000  0.18165000  1.0
  O  O128  1  0.63248000  0.98233000  0.57446000  1.0
  O  O129  1  0.36752000  0.01767000  0.42553000  1.0
