# generated using pymatgen
data_ZnH14(C2N)6
_symmetry_space_group_name_H-M   'P 1'
_cell_length_a   15.00593529
_cell_length_b   15.00590000
_cell_length_c   15.00590000
_cell_angle_alpha   110.34650000
_cell_angle_beta   107.80697665
_cell_angle_gamma   110.27335988
_symmetry_Int_Tables_number   1
_chemical_formula_structural   ZnH14(C2N)6
_chemical_formula_sum   'Zn4 H56 C48 N24'
_cell_volume   2599.49321301
_cell_formula_units_Z   4
loop_
 _symmetry_equiv_pos_site_id
 _symmetry_equiv_pos_as_xyz
  1  'x, y, z'
loop_
 _atom_site_type_symbol
 _atom_site_label
 _atom_site_symmetry_multiplicity
 _atom_site_fract_x
 _atom_site_fract_y
 _atom_site_fract_z
 _atom_site_occupancy
  Zn  Zn0  1  0.36412000  0.49999000  0.86412000  1.0
  Zn  Zn1  1  0.50000000  0.36337000  0.86337000  1.0
  Zn  Zn2  1  0.63588000  0.50000000  0.13588000  1.0
  Zn  Zn3  1  0.50000000  0.63663000  0.13663000  1.0
  H  H4  1  0.14802000  0.32798000  0.83495000  1.0
  H  H5  1  0.55236000  0.15555000  0.81560000  1.0
  H  H6  1  0.40183000  0.61719000  0.66514000  1.0
  H  H7  1  0.70124000  0.95188000  0.20518000  1.0
  H  H8  1  0.84274000  0.95853000  0.33920000  1.0
  H  H9  1  0.85282000  0.91569000  0.21672000  1.0
  H  H10  1  0.79138000  0.81696000  0.25099000  1.0
  H  H11  1  0.85427000  0.62804000  0.43859000  1.0
  H  H12  1  0.00659000  0.68522000  0.41340000  1.0
  H  H13  1  0.00460000  0.80928000  0.47798000  1.0
  H  H14  1  0.95206000  0.73669000  0.33487000  1.0
  H  H15  1  0.74669000  0.49604000  0.79481000  1.0
  H  H16  1  0.49304000  0.31308000  0.16507000  1.0
  H  H17  1  0.69897000  0.63609000  0.78328000  1.0
  H  H18  1  0.56597000  0.54039000  0.74901000  1.0
  H  H19  1  0.61933000  0.50354000  0.66080000  1.0
  H  H20  1  0.33995000  0.73676000  0.18439000  1.0
  H  H21  1  0.85199000  0.68693000  0.17996000  1.0
  H  H22  1  0.44762000  0.26323000  0.60318000  1.0
  H  H23  1  0.50697000  0.67203000  0.82004000  1.0
  H  H24  1  0.66005000  0.84444000  0.39681000  1.0
  H  H25  1  0.88534000  0.63803000  0.85524000  1.0
  H  H26  1  0.94963000  0.80960000  0.60415000  1.0
  H  H27  1  0.78280000  0.03010000  0.14476000  1.0
  H  H28  1  0.20545000  0.34548000  0.39585000  1.0
  H  H29  1  0.11466000  0.96990000  0.75270000  1.0
  H  H30  1  0.05037000  0.65452000  0.85997000  1.0
  H  H31  1  0.21720000  0.36196000  0.24730000  1.0
  H  H32  1  0.79455000  0.19041000  0.14003000  1.0
  H  H33  1  0.98727000  0.69455000  0.09302000  1.0
  H  H34  1  0.86776000  0.96190000  0.56749000  1.0
  H  H35  1  0.60153000  0.89425000  0.90698000  1.0
  H  H36  1  0.39441000  0.30027000  0.43252000  1.0
  H  H37  1  0.01273000  0.10575000  0.70728000  1.0
  H  H38  1  0.13225000  0.69973000  0.09414000  1.0
  H  H39  1  0.39848000  0.30546000  0.29273000  1.0
  H  H40  1  0.60558000  0.03810000  0.90586000  1.0
  H  H41  1  0.81054000  0.37196000  0.22623000  1.0
  H  H42  1  0.72817000  0.31478000  0.32137000  1.0
  H  H43  1  0.66870000  0.19072000  0.19533000  1.0
  H  H44  1  0.59816000  0.26330000  0.21535000  1.0
  H  H45  1  0.29877000  0.50395000  0.25065000  1.0
  H  H46  1  0.15726000  0.49646000  0.11580000  1.0
  H  H47  1  0.14718000  0.36390000  0.06287000  1.0
  H  H48  1  0.20862000  0.45961000  0.02558000  1.0
  H  H49  1  0.14573000  0.58432000  0.77377000  1.0
  H  H50  1  0.99341000  0.40681000  0.67862000  1.0
  H  H51  1  0.99540000  0.47337000  0.80467000  1.0
  H  H52  1  0.04795000  0.38281000  0.78463000  1.0
  H  H53  1  0.25330000  0.04812000  0.74936000  1.0
  H  H54  1  0.38066000  0.04147000  0.88421000  1.0
  H  H55  1  0.30102000  0.08431000  0.93713000  1.0
  H  H56  1  0.43403000  0.18304000  0.97442000  1.0
  H  H57  1  0.18945000  0.41569000  0.56142000  1.0
  H  H58  1  0.27182000  0.59320000  0.58662000  1.0
  H  H59  1  0.33129000  0.52663000  0.52202000  1.0
  C  C60  1  0.20483000  0.29822000  0.84043000  1.0
  C  C61  1  0.59116000  0.21362000  0.90207000  1.0
  C  C62  1  0.45780000  0.36441000  0.15958000  1.0
  C  C63  1  0.31155000  0.68909000  0.09793000  1.0
  C  C64  1  0.79517000  0.63560000  0.09339000  1.0
  C  C65  1  0.40883000  0.31090000  0.62245000  1.0
  C  C66  1  0.54221000  0.70178000  0.90661000  1.0
  C  C67  1  0.68845000  0.78638000  0.37754000  1.0
  C  C68  1  0.67716000  0.30386000  0.08240000  1.0
  C  C69  1  0.36841000  0.45519000  0.16655000  1.0
  C  C70  1  0.22146000  0.59476000  0.91759000  1.0
  C  C71  1  0.28864000  0.20186000  0.83345000  1.0
  C  C72  1  0.32283000  0.40523000  0.62670000  1.0
  C  C73  1  0.63160000  0.79815000  0.08678000  1.0
  C  C74  1  0.77854000  0.69614000  0.37330000  1.0
  C  C75  1  0.71136000  0.54481000  0.91321000  1.0
  C  C76  1  0.18416000  0.18997000  0.80813000  1.0
  C  C77  1  0.65069000  0.20759000  0.99058000  1.0
  C  C78  1  0.38184000  0.37603000  0.19187000  1.0
  C  C79  1  0.21702000  0.66012000  0.00942000  1.0
  C  C80  1  0.81584000  0.62397000  0.00581000  1.0
  C  C81  1  0.34930000  0.33988000  0.55690000  1.0
  C  C82  1  0.61817000  0.81004000  0.99420000  1.0
  C  C83  1  0.78298000  0.79240000  0.44309000  1.0
  C  C84  1  0.94734000  0.65936000  0.93287000  1.0
  C  C85  1  0.95239000  0.88781000  0.62090000  1.0
  C  C86  1  0.72649000  0.01447000  0.06713000  1.0
  C  C87  1  0.26691000  0.33150000  0.37910000  1.0
  C  C88  1  0.05266000  0.98553000  0.71202000  1.0
  C  C89  1  0.04761000  0.66851000  0.93541000  1.0
  C  C90  1  0.27351000  0.34063000  0.28797000  1.0
  C  C91  1  0.73309000  0.11220000  0.06458000  1.0
  C  C92  1  0.92165000  0.66505000  0.01352000  1.0
  C  C93  1  0.86840000  0.88487000  0.54906000  1.0
  C  C94  1  0.65153000  0.90813000  0.98648000  1.0
  C  C95  1  0.33581000  0.31934000  0.45094000  1.0
  C  C96  1  0.07835000  0.09187000  0.74340000  1.0
  C  C97  1  0.13161000  0.68067000  0.01648000  1.0
  C  C98  1  0.34848000  0.33496000  0.25660000  1.0
  C  C99  1  0.66418000  0.11512000  0.98352000  1.0
  C  C100  1  0.67886000  0.27370000  0.23282000  1.0
  C  C101  1  0.19868000  0.45230000  0.09251000  1.0
  C  C102  1  0.04088000  0.44605000  0.76718000  1.0
  C  C103  1  0.35979000  0.10617000  0.90750000  1.0
  C  C104  1  0.32113000  0.55396000  0.59484000  1.0
  C  C105  1  0.80133000  0.89383000  0.25363000  1.0
  C  C106  1  0.95912000  0.72629000  0.40516000  1.0
  C  C107  1  0.64020000  0.54770000  0.74637000  1.0
  N  N108  1  0.31078000  0.36764000  0.88116000  1.0
  N  N109  1  0.58313000  0.30448000  0.93704000  1.0
  N  N110  1  0.48648000  0.42962000  0.11885000  1.0
  N  N111  1  0.36744000  0.64608000  0.06295000  1.0
  N  N112  1  0.68922000  0.57037000  0.05685000  1.0
  N  N113  1  0.41687000  0.35391000  0.72135000  1.0
  N  N114  1  0.51352000  0.63236000  0.94314000  1.0
  N  N115  1  0.63256000  0.69552000  0.27865000  1.0
  N  N116  1  0.63576000  0.35983000  0.04824000  1.0
  N  N117  1  0.43265000  0.48678000  0.12438000  1.0
  N  N118  1  0.31159000  0.58752000  0.95175000  1.0
  N  N119  1  0.36240000  0.30827000  0.87562000  1.0
  N  N120  1  0.36424000  0.41248000  0.72408000  1.0
  N  N121  1  0.56736000  0.69173000  0.05413000  1.0
  N  N122  1  0.68841000  0.64017000  0.27593000  1.0
  N  N123  1  0.63760000  0.51322000  0.94587000  1.0
  N  N124  1  0.72965000  0.34480000  0.19543000  1.0
  N  N125  1  0.30665000  0.50434000  0.18560000  1.0
  N  N126  1  0.14937000  0.53423000  0.80457000  1.0
  N  N127  1  0.31874000  0.12105000  0.81441000  1.0
  N  N128  1  0.27034000  0.46577000  0.61514000  1.0
  N  N129  1  0.69336000  0.87896000  0.19770000  1.0
  N  N130  1  0.85063000  0.65520000  0.38486000  1.0
  N  N131  1  0.68126000  0.49566000  0.80230000  1.0
