# generated using pymatgen
data_CdH19C28N4ClO4
_symmetry_space_group_name_H-M   'P 1'
_cell_length_a   8.48537000
_cell_length_b   11.65880000
_cell_length_c   14.55180000
_cell_angle_alpha   113.05000000
_cell_angle_beta   93.33850000
_cell_angle_gamma   106.70600000
_symmetry_Int_Tables_number   1
_chemical_formula_structural   CdH19C28N4ClO4
_chemical_formula_sum   'Cd2 H38 C56 N8 Cl2 O8'
_cell_volume   1244.70505960
_cell_formula_units_Z   2
loop_
 _symmetry_equiv_pos_site_id
 _symmetry_equiv_pos_as_xyz
  1  'x, y, z'
loop_
 _atom_site_type_symbol
 _atom_site_label
 _atom_site_symmetry_multiplicity
 _atom_site_fract_x
 _atom_site_fract_y
 _atom_site_fract_z
 _atom_site_occupancy
  Cd  Cd0  1  0.70418000  0.06710000  0.08408000  1.0
  Cd  Cd1  1  0.29582000  0.93290000  0.91592000  1.0
  H  H2  1  0.98210000  0.51098000  0.09733000  1.0
  H  H3  1  0.01791000  0.48903000  0.90267000  1.0
  H  H4  1  0.23370000  0.69694000  0.11705000  1.0
  H  H5  1  0.76630000  0.30306000  0.88295000  1.0
  H  H6  1  0.54381000  0.46090000  0.11856000  1.0
  H  H7  1  0.45620000  0.53911000  0.88144000  1.0
  H  H8  1  0.29036000  0.27902000  0.10501000  1.0
  H  H9  1  0.70965000  0.72099000  0.89498000  1.0
  H  H10  1  0.41488000  0.77045000  0.03852000  1.0
  H  H11  1  0.58512000  0.22956000  0.96148000  1.0
  H  H12  1  0.03478000  0.98095000  0.14700000  1.0
  H  H13  1  0.96523000  0.01905000  0.85300000  1.0
  H  H14  1  0.19548000  0.90636000  0.24880000  1.0
  H  H15  1  0.80452000  0.09364000  0.75120000  1.0
  H  H16  1  0.05059000  0.72327000  0.29245000  1.0
  H  H17  1  0.94941000  0.27673000  0.70754000  1.0
  H  H18  1  0.74293000  0.60683000  0.23669000  1.0
  H  H19  1  0.25707000  0.39318000  0.76331000  1.0
  H  H20  1  0.05205000  0.27548000  0.26299000  1.0
  H  H21  1  0.94794000  0.72452000  0.73701000  1.0
  H  H22  1  0.49890000  0.98025000  0.26717000  1.0
  H  H23  1  0.50110000  0.01974000  0.73283000  1.0
  H  H24  1  0.47654000  0.88931000  0.39866000  1.0
  H  H25  1  0.52345000  0.11067000  0.60133000  1.0
  H  H26  1  0.72003000  0.95834000  0.53298000  1.0
  H  H27  1  0.27996000  0.04165000  0.46701000  1.0
  H  H28  1  0.99578000  0.11488000  0.54079000  1.0
  H  H29  1  0.00421000  0.88510000  0.45921000  1.0
  H  H30  1  0.17675000  0.33093000  0.58262000  1.0
  H  H31  1  0.82325000  0.66906000  0.41739000  1.0
  H  H32  1  0.48389000  0.40929000  0.65129000  1.0
  H  H33  1  0.51611000  0.59071000  0.34871000  1.0
  H  H34  1  0.57969000  0.28706000  0.34604000  1.0
  H  H35  1  0.42030000  0.71294000  0.65396000  1.0
  H  H36  1  0.27482000  0.20069000  0.27691000  1.0
  H  H37  1  0.72518000  0.79931000  0.72310000  1.0
  H  H38  1  0.90286000  0.47227000  0.65567000  1.0
  H  H39  1  0.09713000  0.52772000  0.34434000  1.0
  C  C40  1  0.96607000  0.27067000  0.08503000  1.0
  C  C41  1  0.03393000  0.72933000  0.91497000  1.0
  C  C42  1  0.11991000  0.38280000  0.09855000  1.0
  C  C43  1  0.88010000  0.61720000  0.90145000  1.0
  C  C44  1  0.10574000  0.50128000  0.10266000  1.0
  C  C45  1  0.89427000  0.49873000  0.89734000  1.0
  C  C46  1  0.24710000  0.60531000  0.11353000  1.0
  C  C47  1  0.75290000  0.39469000  0.88647000  1.0
  C  C48  1  0.40538000  0.59102000  0.11865000  1.0
  C  C49  1  0.59462000  0.40899000  0.88135000  1.0
  C  C50  1  0.42186000  0.47400000  0.11690000  1.0
  C  C51  1  0.57814000  0.52601000  0.88310000  1.0
  C  C52  1  0.27938000  0.37117000  0.10787000  1.0
  C  C53  1  0.72062000  0.62883000  0.89212000  1.0
  C  C54  1  0.53345000  0.77913000  0.07832000  1.0
  C  C55  1  0.46655000  0.22088000  0.92168000  1.0
  C  C56  1  0.79835000  0.83960000  0.13991000  1.0
  C  C57  1  0.20165000  0.16040000  0.86008000  1.0
  C  C58  1  0.97202000  0.90273000  0.16903000  1.0
  C  C59  1  0.02799000  0.09728000  0.83097000  1.0
  C  C60  1  0.05979000  0.85914000  0.22456000  1.0
  C  C61  1  0.94022000  0.14086000  0.77544000  1.0
  C  C62  1  0.97679000  0.75465000  0.24918000  1.0
  C  C63  1  0.02322000  0.24535000  0.75082000  1.0
  C  C64  1  0.80401000  0.68853000  0.21811000  1.0
  C  C65  1  0.19599000  0.31147000  0.78189000  1.0
  C  C66  1  0.71547000  0.73210000  0.16231000  1.0
  C  C67  1  0.28453000  0.26790000  0.83769000  1.0
  C  C68  1  0.97171000  0.22110000  0.29814000  1.0
  C  C69  1  0.02829000  0.77890000  0.70186000  1.0
  C  C70  1  0.76070000  0.09576000  0.32989000  1.0
  C  C71  1  0.23929000  0.90423000  0.67011000  1.0
  C  C72  1  0.60550000  0.00834000  0.32644000  1.0
  C  C73  1  0.39449000  0.99164000  0.67356000  1.0
  C  C74  1  0.59483000  0.95903000  0.39974000  1.0
  C  C75  1  0.40516000  0.04095000  0.60026000  1.0
  C  C76  1  0.73386000  0.99847000  0.47651000  1.0
  C  C77  1  0.26613000  0.00152000  0.52348000  1.0
  C  C78  1  0.88905000  0.08674000  0.48182000  1.0
  C  C79  1  0.11094000  0.91325000  0.51818000  1.0
  C  C80  1  0.90040000  0.13317000  0.40671000  1.0
  C  C81  1  0.09959000  0.86682000  0.59329000  1.0
  C  C82  1  0.20737000  0.26199000  0.42599000  1.0
  C  C83  1  0.79263000  0.73802000  0.57402000  1.0
  C  C84  1  0.26536000  0.32017000  0.53139000  1.0
  C  C85  1  0.73464000  0.67984000  0.46862000  1.0
  C  C86  1  0.43677000  0.36481000  0.56953000  1.0
  C  C87  1  0.56323000  0.63521000  0.43048000  1.0
  C  C88  1  0.55045000  0.35359000  0.50294000  1.0
  C  C89  1  0.44955000  0.64642000  0.49707000  1.0
  C  C90  1  0.49107000  0.29692000  0.39753000  1.0
  C  C91  1  0.50892000  0.70308000  0.60248000  1.0
  C  C92  1  0.32034000  0.25009000  0.35902000  1.0
  C  C93  1  0.67966000  0.74991000  0.64099000  1.0
  C  C94  1  0.73380000  0.39865000  0.53858000  1.0
  C  C95  1  0.26621000  0.60135000  0.46142000  1.0
  N  N96  1  0.81014000  0.15381000  0.26410000  1.0
  N  N97  1  0.18985000  0.84618000  0.73591000  1.0
  N  N98  1  0.03428000  0.21296000  0.38353000  1.0
  N  N99  1  0.96572000  0.78704000  0.61648000  1.0
  N  N100  1  0.54549000  0.69503000  0.12134000  1.0
  N  N101  1  0.45452000  0.30498000  0.87866000  1.0
  N  N102  1  0.68049000  0.86595000  0.08836000  1.0
  N  N103  1  0.31951000  0.13405000  0.91164000  1.0
  Cl  Cl104  1  0.40438000  0.05922000  0.11551000  1.0
  Cl  Cl105  1  0.59563000  0.94078000  0.88449000  1.0
  O  O106  1  0.98506000  0.16383000  0.08077000  1.0
  O  O107  1  0.01494000  0.83617000  0.91923000  1.0
  O  O108  1  0.82318000  0.28632000  0.08129000  1.0
  O  O109  1  0.17683000  0.71368000  0.91872000  1.0
  O  O110  1  0.78011000  0.44410000  0.64163000  1.0
  O  O111  1  0.21989000  0.55590000  0.35837000  1.0
  O  O112  1  0.83682000  0.39606000  0.48316000  1.0
  O  O113  1  0.16318000  0.60393000  0.51684000  1.0
