# generated using pymatgen
data_NaH9C9S(NO4)2
_symmetry_space_group_name_H-M   'P 1'
_cell_length_a   7.87049000
_cell_length_b   11.63580000
_cell_length_c   14.53400000
_cell_angle_alpha   90.00000000
_cell_angle_beta   91.06830000
_cell_angle_gamma   90.00000000
_symmetry_Int_Tables_number   1
_chemical_formula_structural   NaH9C9S(NO4)2
_chemical_formula_sum   'Na4 H36 C36 S4 N8 O32'
_cell_volume   1330.78433403
_cell_formula_units_Z   4
loop_
 _symmetry_equiv_pos_site_id
 _symmetry_equiv_pos_as_xyz
  1  'x, y, z'
loop_
 _atom_site_type_symbol
 _atom_site_label
 _atom_site_symmetry_multiplicity
 _atom_site_fract_x
 _atom_site_fract_y
 _atom_site_fract_z
 _atom_site_occupancy
  Na  Na0  1  0.56279000  0.14489000  0.34101000  1.0
  Na  Na1  1  0.06279000  0.35511000  0.84101000  1.0
  Na  Na2  1  0.43721000  0.85511000  0.65899000  1.0
  Na  Na3  1  0.93721000  0.64489000  0.15899000  1.0
  H  H4  1  0.54270000  0.20450000  0.54230000  1.0
  H  H5  1  0.04271000  0.29550000  0.04229000  1.0
  H  H6  1  0.45730000  0.79550000  0.45771000  1.0
  H  H7  1  0.95729000  0.70450000  0.95770000  1.0
  H  H8  1  0.91089000  0.77297000  0.34033000  1.0
  H  H9  1  0.41089000  0.72703000  0.84033000  1.0
  H  H10  1  0.08911000  0.22703000  0.65967000  1.0
  H  H11  1  0.58911000  0.27297000  0.15967000  1.0
  H  H12  1  0.25046000  0.46656000  0.37104000  1.0
  H  H13  1  0.75046000  0.03344000  0.87104000  1.0
  H  H14  1  0.74955000  0.53344000  0.62897000  1.0
  H  H15  1  0.24954000  0.96656000  0.12896000  1.0
  H  H16  1  0.05702000  0.71396000  0.56337000  1.0
  H  H17  1  0.55703000  0.78604000  0.06337000  1.0
  H  H18  1  0.94297000  0.28604000  0.43663000  1.0
  H  H19  1  0.44298000  0.21396000  0.93663000  1.0
  H  H20  1  0.34667000  0.42254000  0.66152000  1.0
  H  H21  1  0.84667000  0.07747000  0.16152000  1.0
  H  H22  1  0.65333000  0.57747000  0.33848000  1.0
  H  H23  1  0.15332000  0.92254000  0.83848000  1.0
  H  H24  1  0.79238000  0.95214000  0.42472000  1.0
  H  H25  1  0.29238000  0.54786000  0.92471000  1.0
  H  H26  1  0.20762000  0.04787000  0.57529000  1.0
  H  H27  1  0.70762000  0.45213000  0.07529000  1.0
  H  H28  1  0.84585000  0.87544000  0.52411000  1.0
  H  H29  1  0.34585000  0.62456000  0.02410000  1.0
  H  H30  1  0.15416000  0.12456000  0.47590000  1.0
  H  H31  1  0.65416000  0.37544000  0.97589000  1.0
  H  H32  1  0.64050000  0.07565000  0.67307000  1.0
  H  H33  1  0.14050000  0.42435000  0.17307000  1.0
  H  H34  1  0.35950000  0.92435000  0.32693000  1.0
  H  H35  1  0.85950000  0.57565000  0.82693000  1.0
  H  H36  1  0.76873000  0.95438000  0.66951000  1.0
  H  H37  1  0.26873000  0.54561000  0.16951000  1.0
  H  H38  1  0.23127000  0.04561000  0.33049000  1.0
  H  H39  1  0.73127000  0.45439000  0.83049000  1.0
  C  C40  1  0.39782000  0.32456000  0.49221000  1.0
  C  C41  1  0.89781000  0.17544000  0.99221000  1.0
  C  C42  1  0.60219000  0.67544000  0.50779000  1.0
  C  C43  1  0.10218000  0.82456000  0.00779000  1.0
  C  C44  1  0.07559000  0.66113000  0.37771000  1.0
  C  C45  1  0.57559000  0.83887000  0.87771000  1.0
  C  C46  1  0.92441000  0.33887000  0.62229000  1.0
  C  C47  1  0.42441000  0.16113000  0.12229000  1.0
  C  C48  1  0.30893000  0.43416000  0.51386000  1.0
  C  C49  1  0.80894000  0.06584000  0.01386000  1.0
  C  C50  1  0.69107000  0.56584000  0.48614000  1.0
  C  C51  1  0.19106000  0.93416000  0.98614000  1.0
  C  C52  1  0.23922000  0.49785000  0.44124000  1.0
  C  C53  1  0.73922000  0.00215000  0.94124000  1.0
  C  C54  1  0.76079000  0.50215000  0.55876000  1.0
  C  C55  1  0.26078000  0.99784000  0.05876000  1.0
  C  C56  1  0.15162000  0.59996000  0.45829000  1.0
  C  C57  1  0.65162000  0.90004000  0.95829000  1.0
  C  C58  1  0.84838000  0.40004000  0.54171000  1.0
  C  C59  1  0.34838000  0.09996000  0.04171000  1.0
  C  C60  1  0.13047000  0.63702000  0.54898000  1.0
  C  C61  1  0.63048000  0.86298000  0.04898000  1.0
  C  C62  1  0.86953000  0.36298000  0.45102000  1.0
  C  C63  1  0.36953000  0.13702000  0.95102000  1.0
  C  C64  1  0.20156000  0.57276000  0.62138000  1.0
  C  C65  1  0.70156000  0.92724000  0.12138000  1.0
  C  C66  1  0.79844000  0.42724000  0.37862000  1.0
  C  C67  1  0.29844000  0.07276000  0.87862000  1.0
  C  C68  1  0.29262000  0.47241000  0.60475000  1.0
  C  C69  1  0.79262000  0.02759000  0.10475000  1.0
  C  C70  1  0.70738000  0.52759000  0.39526000  1.0
  C  C71  1  0.20738000  0.97241000  0.89525000  1.0
  C  C72  1  0.71270000  0.02672000  0.54231000  1.0
  C  C73  1  0.21270000  0.47328000  0.04231000  1.0
  C  C74  1  0.28730000  0.97328000  0.45769000  1.0
  C  C75  1  0.78730000  0.52672000  0.95769000  1.0
  S  S76  1  0.17148000  0.62065000  0.73670000  1.0
  S  S77  1  0.67149000  0.87935000  0.23669000  1.0
  S  S78  1  0.82851000  0.37935000  0.26331000  1.0
  S  S79  1  0.32851000  0.12065000  0.76330000  1.0
  N  N80  1  0.80179000  0.94869000  0.49484000  1.0
  N  N81  1  0.30179000  0.55131000  0.99484000  1.0
  N  N82  1  0.19821000  0.05131000  0.50516000  1.0
  N  N83  1  0.69821000  0.44869000  0.00516000  1.0
  N  N84  1  0.70001000  0.01431000  0.63450000  1.0
  N  N85  1  0.20001000  0.48569000  0.13449000  1.0
  N  N86  1  0.29999000  0.98569000  0.36551000  1.0
  N  N87  1  0.79999000  0.51431000  0.86551000  1.0
  O  O88  1  0.47694000  0.27733000  0.56376000  1.0
  O  O89  1  0.97694000  0.22267000  0.06375000  1.0
  O  O90  1  0.52307000  0.72267000  0.43625000  1.0
  O  O91  1  0.02306000  0.77733000  0.93624000  1.0
  O  O92  1  0.39500000  0.28336000  0.41346000  1.0
  O  O93  1  0.89498000  0.21665000  0.91346000  1.0
  O  O94  1  0.60501000  0.71664000  0.58655000  1.0
  O  O95  1  0.10500000  0.78336000  0.08654000  1.0
  O  O96  1  0.97527000  0.74964000  0.39888000  1.0
  O  O97  1  0.47527000  0.75036000  0.89888000  1.0
  O  O98  1  0.02474000  0.25036000  0.60112000  1.0
  O  O99  1  0.52473000  0.24964000  0.10112000  1.0
  O  O100  1  0.09938000  0.62981000  0.29782000  1.0
  O  O101  1  0.59939000  0.87019000  0.79782000  1.0
  O  O102  1  0.90062000  0.37018000  0.70218000  1.0
  O  O103  1  0.40062000  0.12981000  0.20218000  1.0
  O  O104  1  0.21836000  0.52381000  0.79742000  1.0
  O  O105  1  0.71836000  0.97619000  0.29742000  1.0
  O  O106  1  0.78164000  0.47619000  0.20258000  1.0
  O  O107  1  0.28163000  0.02381000  0.70258000  1.0
  O  O108  1  0.99433000  0.65667000  0.74161000  1.0
  O  O109  1  0.49434000  0.84333000  0.24161000  1.0
  O  O110  1  0.00566000  0.34333000  0.25839000  1.0
  O  O111  1  0.50566000  0.15667000  0.75839000  1.0
  O  O112  1  0.29280000  0.71772000  0.74869000  1.0
  O  O113  1  0.79280000  0.78228000  0.24869000  1.0
  O  O114  1  0.70720000  0.28228000  0.25131000  1.0
  O  O115  1  0.20719000  0.21772000  0.75131000  1.0
  O  O116  1  0.64138000  0.10969000  0.49941000  1.0
  O  O117  1  0.14139000  0.39031000  0.99941000  1.0
  O  O118  1  0.35861000  0.89031000  0.50059000  1.0
  O  O119  1  0.85861000  0.60969000  0.00059000  1.0
