# generated using pymatgen
data_CoH6C7N4
_symmetry_space_group_name_H-M   'P 1'
_cell_length_a   6.87438000
_cell_length_b   8.58642000
_cell_length_c   8.58654000
_cell_angle_alpha   112.30900000
_cell_angle_beta   105.06300000
_cell_angle_gamma   105.06300000
_symmetry_Int_Tables_number   1
_chemical_formula_structural   CoH6C7N4
_chemical_formula_sum   'Co2 H12 C14 N8'
_cell_volume   414.72077943
_cell_formula_units_Z   2
loop_
 _symmetry_equiv_pos_site_id
 _symmetry_equiv_pos_as_xyz
  1  'x, y, z'
loop_
 _atom_site_type_symbol
 _atom_site_label
 _atom_site_symmetry_multiplicity
 _atom_site_fract_x
 _atom_site_fract_y
 _atom_site_fract_z
 _atom_site_occupancy
  Co  Co0  1  0.25000000  0.47941000  0.52059000  1.0
  Co  Co1  1  0.75000000  0.52059000  0.47941000  1.0
  H  H2  1  0.11748000  0.24585000  0.09456000  1.0
  H  H3  1  0.38251000  0.90543000  0.75415000  1.0
  H  H4  1  0.88251000  0.75414000  0.90543000  1.0
  H  H5  1  0.61748000  0.09457000  0.24585000  1.0
  H  H6  1  0.58865000  0.43349000  0.05486000  1.0
  H  H7  1  0.91135000  0.94515000  0.56651000  1.0
  H  H8  1  0.41136000  0.56652000  0.94514000  1.0
  H  H9  1  0.08866000  0.05485000  0.43349000  1.0
  H  H10  1  0.61545000  0.25117000  0.72533000  1.0
  H  H11  1  0.88455000  0.27467000  0.74883000  1.0
  H  H12  1  0.38455000  0.74882000  0.27466000  1.0
  H  H13  1  0.11545000  0.72533000  0.25117000  1.0
  C  C14  1  0.75000000  0.21648000  0.78353000  1.0
  C  C15  1  0.25000000  0.78353000  0.21647000  1.0
  C  C16  1  0.82328000  0.30484000  0.98851000  1.0
  C  C17  1  0.67672000  0.01149000  0.69516000  1.0
  C  C18  1  0.17672000  0.69516000  0.01149000  1.0
  C  C19  1  0.32328000  0.98850000  0.30484000  1.0
  C  C20  1  0.99941000  0.30582000  0.11620000  1.0
  C  C21  1  0.50060000  0.88381000  0.69418000  1.0
  C  C22  1  0.00059000  0.69418000  0.88380000  1.0
  C  C23  1  0.49941000  0.11620000  0.30582000  1.0
  C  C24  1  0.73155000  0.40331000  0.09640000  1.0
  C  C25  1  0.76844000  0.90360000  0.59670000  1.0
  C  C26  1  0.26844000  0.59670000  0.90359000  1.0
  C  C27  1  0.23156000  0.09640000  0.40331000  1.0
  N  N28  1  0.01132000  0.39954000  0.28804000  1.0
  N  N29  1  0.48868000  0.71196000  0.60046000  1.0
  N  N30  1  0.98868000  0.60046000  0.71196000  1.0
  N  N31  1  0.51133000  0.28804000  0.39955000  1.0
  N  N32  1  0.84596000  0.46065000  0.27643000  1.0
  N  N33  1  0.65404000  0.72357000  0.53935000  1.0
  N  N34  1  0.15404000  0.53935000  0.72357000  1.0
  N  N35  1  0.34596000  0.27643000  0.46066000  1.0
