# generated using pymatgen
data_UH4C6N2O7
_symmetry_space_group_name_H-M   'P 1'
_cell_length_a   7.44296000
_cell_length_b   7.44290000
_cell_length_c   9.79418000
_cell_angle_alpha   97.61680000
_cell_angle_beta   97.61620000
_cell_angle_gamma   103.54500000
_symmetry_Int_Tables_number   1
_chemical_formula_structural   UH4C6N2O7
_chemical_formula_sum   'U2 H8 C12 N4 O14'
_cell_volume   515.23680681
_cell_formula_units_Z   2
loop_
 _symmetry_equiv_pos_site_id
 _symmetry_equiv_pos_as_xyz
  1  'x, y, z'
loop_
 _atom_site_type_symbol
 _atom_site_label
 _atom_site_symmetry_multiplicity
 _atom_site_fract_x
 _atom_site_fract_y
 _atom_site_fract_z
 _atom_site_occupancy
  U  U0  1  0.75155000  0.70503000  0.33507000  1.0
  U  U1  1  0.29498000  0.24847000  0.66493000  1.0
  H  H2  1  0.76830000  0.37121000  0.12264000  1.0
  H  H3  1  0.62878000  0.23170000  0.87736000  1.0
  H  H4  1  0.81547000  0.55556000  0.04246000  1.0
  H  H5  1  0.44444000  0.18453000  0.95753000  1.0
  H  H6  1  0.76619000  0.87940000  0.93424000  1.0
  H  H7  1  0.12060000  0.23380000  0.06576000  1.0
  H  H8  1  0.72587000  0.93225000  0.68402000  1.0
  H  H9  1  0.06775000  0.27413000  0.31598000  1.0
  C  C10  1  0.89238000  0.56086000  0.64993000  1.0
  C  C11  1  0.43913000  0.10762000  0.35007000  1.0
  C  C12  1  0.91113000  0.52908000  0.78841000  1.0
  C  C13  1  0.47091000  0.08887000  0.21159000  1.0
  C  C14  1  0.80005000  0.78558000  0.85186000  1.0
  C  C15  1  0.21442000  0.19995000  0.14814000  1.0
  C  C16  1  0.77907000  0.81597000  0.71316000  1.0
  C  C17  1  0.18403000  0.22093000  0.28685000  1.0
  C  C18  1  0.93845000  0.43998000  0.53192000  1.0
  C  C19  1  0.56002000  0.06155000  0.46808000  1.0
  C  C20  1  0.97602000  0.36571000  0.83645000  1.0
  C  C21  1  0.63429000  0.02398000  0.16355000  1.0
  N  N22  1  0.82046000  0.70078000  0.61252000  1.0
  N  N23  1  0.29922000  0.17954000  0.38748000  1.0
  N  N24  1  0.85925000  0.63961000  0.88808000  1.0
  N  N25  1  0.36038000  0.14075000  0.11192000  1.0
  O  O26  1  0.98499000  0.84532000  0.33786000  1.0
  O  O27  1  0.15468000  0.01501000  0.66214000  1.0
  O  O28  1  0.52170000  0.56158000  0.34015000  1.0
  O  O29  1  0.43841000  0.47830000  0.65986000  1.0
  O  O30  1  0.88181000  0.46387000  0.40930000  1.0
  O  O31  1  0.53613000  0.11819000  0.59070000  1.0
  O  O32  1  0.02656000  0.31810000  0.55625000  1.0
  O  O33  1  0.68190000  0.97344000  0.44375000  1.0
  O  O34  1  0.15073000  0.37106000  0.84025000  1.0
  O  O35  1  0.62894000  0.84927000  0.15975000  1.0
  O  O36  1  0.85832000  0.24280000  0.87526000  1.0
  O  O37  1  0.75719000  0.14168000  0.12474000  1.0
  O  O38  1  0.77757000  0.50868000  0.12919000  1.0
  O  O39  1  0.49132000  0.22244000  0.87081000  1.0
