# generated using pymatgen
data_CuH10C4(NO2)2
_symmetry_space_group_name_H-M   'P 1'
_cell_length_a   7.15726000
_cell_length_b   7.69657078
_cell_length_c   8.34149000
_cell_angle_alpha   90.83434988
_cell_angle_beta   115.40410000
_cell_angle_gamma   117.68078493
_symmetry_Int_Tables_number   1
_chemical_formula_structural   CuH10C4(NO2)2
_chemical_formula_sum   'Cu2 H20 C8 N4 O8'
_cell_volume   354.18688212
_cell_formula_units_Z   2
loop_
 _symmetry_equiv_pos_site_id
 _symmetry_equiv_pos_as_xyz
  1  'x, y, z'
loop_
 _atom_site_type_symbol
 _atom_site_label
 _atom_site_symmetry_multiplicity
 _atom_site_fract_x
 _atom_site_fract_y
 _atom_site_fract_z
 _atom_site_occupancy
  Cu  Cu0  1  0.48560000  0.82123000  0.15008000  1.0
  Cu  Cu1  1  0.51441000  0.17878000  0.84993000  1.0
  H  H2  1  0.73875000  0.71533000  0.07973000  1.0
  H  H3  1  0.94367000  0.28435000  0.92053000  1.0
  H  H4  1  0.26126000  0.28467000  0.92027000  1.0
  H  H5  1  0.05632000  0.71564000  0.07946000  1.0
  H  H6  1  0.89291000  0.83418000  0.30222000  1.0
  H  H7  1  0.75683000  0.16602000  0.69792000  1.0
  H  H8  1  0.10709000  0.16582000  0.69779000  1.0
  H  H9  1  0.24317000  0.83398000  0.30209000  1.0
  H  H10  1  0.88451000  0.96665000  0.15131000  1.0
  H  H11  1  0.76641000  0.03308000  0.84845000  1.0
  H  H12  1  0.11551000  0.03336000  0.84870000  1.0
  H  H13  1  0.23359000  0.96692000  0.15154000  1.0
  H  H14  1  0.78957000  0.49316000  0.32872000  1.0
  H  H15  1  0.96769000  0.50698000  0.67119000  1.0
  H  H16  1  0.21040000  0.50683000  0.67126000  1.0
  H  H17  1  0.03230000  0.49302000  0.32879000  1.0
  H  H18  1  0.43412000  0.66277000  0.44681000  1.0
  H  H19  1  0.32457000  0.33755000  0.55322000  1.0
  H  H20  1  0.56588000  0.33724000  0.55319000  1.0
  H  H21  1  0.67542000  0.66245000  0.44678000  1.0
  C  C22  1  0.78522000  0.21747000  0.35310000  1.0
  C  C23  1  0.21476000  0.78249000  0.64687000  1.0
  C  C24  1  0.92271000  0.44776000  0.39769000  1.0
  C  C25  1  0.07738000  0.55232000  0.60238000  1.0
  C  C26  1  0.32767000  0.42357000  0.23155000  1.0
  C  C27  1  0.67232000  0.57643000  0.76844000  1.0
  C  C28  1  0.49358000  0.55918000  0.42795000  1.0
  C  C29  1  0.50643000  0.44082000  0.57208000  1.0
  N  N30  1  0.77983000  0.83356000  0.17319000  1.0
  N  N31  1  0.77315000  0.16635000  0.82685000  1.0
  N  N32  1  0.22018000  0.16645000  0.82682000  1.0
  N  N33  1  0.22685000  0.83365000  0.17314000  1.0
  O  O34  1  0.65225000  0.12485000  0.17981000  1.0
  O  O35  1  0.34771000  0.87513000  0.82013000  1.0
  O  O36  1  0.80281000  0.12695000  0.47869000  1.0
  O  O37  1  0.19723000  0.87304000  0.52133000  1.0
  O  O38  1  0.30623000  0.51343000  0.09884000  1.0
  O  O39  1  0.69377000  0.48658000  0.90114000  1.0
  O  O40  1  0.21674000  0.23357000  0.19991000  1.0
  O  O41  1  0.78324000  0.76643000  0.80009000  1.0
