# generated using pymatgen
data_KHCN4O
_symmetry_space_group_name_H-M   'P 1'
_cell_length_a   4.09382000
_cell_length_b   8.05435000
_cell_length_c   13.10310000
_cell_angle_alpha   90.00030000
_cell_angle_beta   90.00030000
_cell_angle_gamma   101.90400000
_symmetry_Int_Tables_number   1
_chemical_formula_structural   KHCN4O
_chemical_formula_sum   'K4 H4 C4 N16 O4'
_cell_volume   422.75789244
_cell_formula_units_Z   4
loop_
 _symmetry_equiv_pos_site_id
 _symmetry_equiv_pos_as_xyz
  1  'x, y, z'
loop_
 _atom_site_type_symbol
 _atom_site_label
 _atom_site_symmetry_multiplicity
 _atom_site_fract_x
 _atom_site_fract_y
 _atom_site_fract_z
 _atom_site_occupancy
  K  K0  1  0.81152000  0.22390000  0.00293000  1.0
  K  K1  1  0.68848000  0.27610000  0.50293000  1.0
  K  K2  1  0.18848000  0.77610000  0.99707000  1.0
  K  K3  1  0.31151000  0.72389000  0.49707000  1.0
  H  H4  1  0.07020000  0.63802000  0.76002000  1.0
  H  H5  1  0.42980000  0.86198000  0.26002000  1.0
  H  H6  1  0.92980000  0.36198000  0.23998000  1.0
  H  H7  1  0.57020000  0.13802000  0.73998000  1.0
  C  C8  1  0.27546000  0.42168000  0.70352000  1.0
  C  C9  1  0.22454000  0.07832000  0.20352000  1.0
  C  C10  1  0.72454000  0.57832000  0.29648000  1.0
  C  C11  1  0.77546000  0.92168000  0.79648000  1.0
  N  N12  1  0.40450000  0.30907000  0.76110000  1.0
  N  N13  1  0.09550000  0.19093000  0.26110000  1.0
  N  N14  1  0.59550000  0.69093000  0.23890000  1.0
  N  N15  1  0.90451000  0.80907000  0.73890000  1.0
  N  N16  1  0.38747000  0.35446000  0.85976000  1.0
  N  N17  1  0.11254000  0.14554000  0.35976000  1.0
  N  N18  1  0.61253000  0.64554000  0.14024000  1.0
  N  N19  1  0.88746000  0.85446000  0.64024000  1.0
  N  N20  1  0.25518000  0.48832000  0.86799000  1.0
  N  N21  1  0.24481000  0.01168000  0.36799000  1.0
  N  N22  1  0.74481000  0.51168000  0.13201000  1.0
  N  N23  1  0.75518000  0.98832000  0.63201000  1.0
  N  N24  1  0.18369000  0.53175000  0.77250000  1.0
  N  N25  1  0.31631000  0.96825000  0.27250000  1.0
  N  N26  1  0.81631000  0.46825000  0.22750000  1.0
  N  N27  1  0.68370000  0.03176000  0.72750000  1.0
  O  O28  1  0.24499000  0.42572000  0.60708000  1.0
  O  O29  1  0.25501000  0.07428000  0.10708000  1.0
  O  O30  1  0.75500000  0.57427000  0.39292000  1.0
  O  O31  1  0.74501000  0.92573000  0.89292000  1.0
