# generated using pymatgen
data_NaSmH12(CO)12
_symmetry_space_group_name_H-M   'P 1'
_cell_length_a   6.88348000
_cell_length_b   7.56805000
_cell_length_c   15.70260000
_cell_angle_alpha   89.99970000
_cell_angle_beta   77.35700000
_cell_angle_gamma   89.99960000
_symmetry_Int_Tables_number   1
_chemical_formula_structural   NaSmH12(CO)12
_chemical_formula_sum   'Na2 Sm2 H24 C24 O24'
_cell_volume   798.18471943
_cell_formula_units_Z   2
loop_
 _symmetry_equiv_pos_site_id
 _symmetry_equiv_pos_as_xyz
  1  'x, y, z'
loop_
 _atom_site_type_symbol
 _atom_site_label
 _atom_site_symmetry_multiplicity
 _atom_site_fract_x
 _atom_site_fract_y
 _atom_site_fract_z
 _atom_site_occupancy
  Na  Na0  1  0.63937000  0.25007000  0.72198000  1.0
  Na  Na1  1  0.36063000  0.75006000  0.27802000  1.0
  Sm  Sm2  1  0.80508000  0.75001000  0.38953000  1.0
  Sm  Sm3  1  0.19491000  0.25001000  0.61047000  1.0
  H  H4  1  0.36248000  0.25869000  0.90093000  1.0
  H  H5  1  0.63752000  0.75869000  0.09907000  1.0
  H  H6  1  0.73780000  0.24124000  0.90076000  1.0
  H  H7  1  0.26221000  0.74125000  0.09924000  1.0
  H  H8  1  0.28116000  0.26295000  0.06370000  1.0
  H  H9  1  0.71884000  0.76294000  0.93630000  1.0
  H  H10  1  0.65618000  0.23694000  0.06355000  1.0
  H  H11  1  0.34382000  0.73694000  0.93645000  1.0
  H  H12  1  0.56838000  0.26914000  0.42079000  1.0
  H  H13  1  0.43162000  0.76914000  0.57920000  1.0
  H  H14  1  0.01064000  0.23089000  0.42086000  1.0
  H  H15  1  0.98936000  0.73090000  0.57914000  1.0
  H  H16  1  0.73917000  0.12284000  0.30239000  1.0
  H  H17  1  0.26083000  0.62284000  0.69761000  1.0
  H  H18  1  0.95842000  0.37717000  0.30246000  1.0
  H  H19  1  0.04158000  0.87718000  0.69754000  1.0
  H  H20  1  0.48373000  0.58774000  0.80180000  1.0
  H  H21  1  0.51627000  0.08774000  0.19820000  1.0
  H  H22  1  0.71481000  0.91223000  0.80175000  1.0
  H  H23  1  0.28519000  0.41223000  0.19825000  1.0
  H  H24  1  0.71658000  0.59859000  0.79102000  1.0
  H  H25  1  0.28342000  0.09859000  0.20898000  1.0
  H  H26  1  0.49261000  0.90180000  0.79109000  1.0
  H  H27  1  0.50739000  0.40180000  0.20890000  1.0
  C  C28  1  0.20838000  0.25527000  0.93718000  1.0
  C  C29  1  0.79163000  0.75527000  0.06282000  1.0
  C  C30  1  0.85558000  0.24463000  0.93709000  1.0
  C  C31  1  0.14443000  0.74464000  0.06291000  1.0
  C  C32  1  0.63672000  0.08718000  0.51504000  1.0
  C  C33  1  0.36327000  0.58717000  0.48496000  1.0
  C  C34  1  0.84817000  0.41286000  0.51509000  1.0
  C  C35  1  0.15181000  0.91283000  0.48491000  1.0
  C  C36  1  0.69557000  0.18791000  0.42914000  1.0
  C  C37  1  0.30442000  0.68792000  0.57086000  1.0
  C  C38  1  0.87515000  0.31213000  0.42917000  1.0
  C  C39  1  0.12486000  0.81213000  0.57083000  1.0
  C  C40  1  0.96348000  0.24993000  0.07394000  1.0
  C  C41  1  0.03653000  0.74993000  0.92606000  1.0
  C  C42  1  0.16258000  0.25706000  0.02786000  1.0
  C  C43  1  0.83742000  0.75706000  0.97214000  1.0
  C  C44  1  0.81056000  0.24280000  0.02777000  1.0
  C  C45  1  0.18945000  0.74280000  0.97223000  1.0
  C  C46  1  0.91451000  0.24988000  0.17146000  1.0
  C  C47  1  0.08549000  0.74988000  0.82854000  1.0
  C  C48  1  0.05485000  0.24995000  0.89141000  1.0
  C  C49  1  0.94516000  0.74996000  0.10859000  1.0
  C  C50  1  0.10327000  0.25000000  0.79446000  1.0
  C  C51  1  0.89674000  0.75000000  0.20554000  1.0
  O  O52  1  0.69712000  0.93013000  0.51706000  1.0
  O  O53  1  0.30286000  0.43013000  0.48294000  1.0
  O  O54  1  0.78567000  0.56988000  0.51712000  1.0
  O  O55  1  0.21432000  0.06991000  0.48289000  1.0
  O  O56  1  0.74397000  0.06196000  0.35999000  1.0
  O  O57  1  0.25603000  0.56196000  0.64001000  1.0
  O  O58  1  0.89590000  0.43807000  0.36003000  1.0
  O  O59  1  0.10411000  0.93807000  0.63998000  1.0
  O  O60  1  0.73639000  0.21324000  0.21201000  1.0
  O  O61  1  0.26361000  0.71323000  0.78799000  1.0
  O  O62  1  0.05186000  0.28654000  0.21219000  1.0
  O  O63  1  0.94814000  0.78654000  0.78781000  1.0
  O  O64  1  0.60446000  0.51639000  0.79931000  1.0
  O  O65  1  0.39554000  0.01639000  0.20069000  1.0
  O  O66  1  0.59667000  0.98381000  0.79933000  1.0
  O  O67  1  0.40333000  0.48381000  0.20066000  1.0
  O  O68  1  0.53088000  0.16712000  0.58053000  1.0
  O  O69  1  0.46912000  0.66712000  0.41947000  1.0
  O  O70  1  0.88875000  0.33297000  0.58057000  1.0
  O  O71  1  0.11124000  0.83298000  0.41944000  1.0
  O  O72  1  0.28530000  0.24682000  0.75248000  1.0
  O  O73  1  0.71470000  0.74682000  0.24752000  1.0
  O  O74  1  0.96302000  0.25317000  0.75252000  1.0
  O  O75  1  0.03698000  0.75317000  0.24748000  1.0
