# generated using pymatgen
data_NiH12C8(NO)6
_symmetry_space_group_name_H-M   'P 1'
_cell_length_a   7.65534000
_cell_length_b   7.74159000
_cell_length_c   12.42740000
_cell_angle_alpha   90.00000000
_cell_angle_beta   90.00000000
_cell_angle_gamma   117.67700000
_symmetry_Int_Tables_number   1
_chemical_formula_structural   NiH12C8(NO)6
_chemical_formula_sum   'Ni2 H24 C16 N12 O12'
_cell_volume   652.23305289
_cell_formula_units_Z   2
loop_
 _symmetry_equiv_pos_site_id
 _symmetry_equiv_pos_as_xyz
  1  'x, y, z'
loop_
 _atom_site_type_symbol
 _atom_site_label
 _atom_site_symmetry_multiplicity
 _atom_site_fract_x
 _atom_site_fract_y
 _atom_site_fract_z
 _atom_site_occupancy
  Ni  Ni0  1  0.50000000  0.50000000  0.50000000  1.0
  Ni  Ni1  1  0.50000000  0.00000000  0.00000000  1.0
  H  H2  1  0.38185000  0.10066000  0.75402000  1.0
  H  H3  1  0.61815000  0.39934000  0.25402000  1.0
  H  H4  1  0.61815000  0.89935000  0.24598000  1.0
  H  H5  1  0.38186000  0.60066000  0.74598000  1.0
  H  H6  1  0.86517000  0.02058000  0.85480000  1.0
  H  H7  1  0.13483000  0.47942000  0.35480000  1.0
  H  H8  1  0.13483000  0.97942000  0.14520000  1.0
  H  H9  1  0.86517000  0.52058000  0.64520000  1.0
  H  H10  1  0.85444000  0.99334000  0.55960000  1.0
  H  H11  1  0.14556000  0.50667000  0.05960000  1.0
  H  H12  1  0.14556000  0.00666000  0.44040000  1.0
  H  H13  1  0.85444000  0.49334000  0.94040000  1.0
  H  H14  1  0.99407000  0.00141000  0.67479000  1.0
  H  H15  1  0.00593000  0.49859000  0.17479000  1.0
  H  H16  1  0.00592000  0.99859000  0.32521000  1.0
  H  H17  1  0.99408000  0.50141000  0.82521000  1.0
  H  H18  1  0.73547000  0.37608000  0.44360000  1.0
  H  H19  1  0.26453000  0.12392000  0.94360000  1.0
  H  H20  1  0.26453000  0.62392000  0.55640000  1.0
  H  H21  1  0.73547000  0.87608000  0.05640000  1.0
  H  H22  1  0.61424000  0.22391000  0.53965000  1.0
  H  H23  1  0.38576000  0.27609000  0.03965000  1.0
  H  H24  1  0.38576000  0.77609000  0.46035000  1.0
  H  H25  1  0.61424000  0.72391000  0.96035000  1.0
  C  C26  1  0.09157000  0.28060000  0.59966000  1.0
  C  C27  1  0.90843000  0.21940000  0.09966000  1.0
  C  C28  1  0.90843000  0.71940000  0.40034000  1.0
  C  C29  1  0.09157000  0.78060000  0.90034000  1.0
  C  C30  1  0.51719000  0.08821000  0.75392000  1.0
  C  C31  1  0.48281000  0.41179000  0.25392000  1.0
  C  C32  1  0.48281000  0.91179000  0.24608000  1.0
  C  C33  1  0.51719000  0.58820000  0.74608000  1.0
  C  C34  1  0.76123000  0.05031000  0.80881000  1.0
  C  C35  1  0.23877000  0.44969000  0.30881000  1.0
  C  C36  1  0.23877000  0.94969000  0.19119000  1.0
  C  C37  1  0.76123000  0.55031000  0.69119000  1.0
  C  C38  1  0.92660000  0.07927000  0.63182000  1.0
  C  C39  1  0.07339000  0.42073000  0.13182000  1.0
  C  C40  1  0.07339000  0.92072000  0.36818000  1.0
  C  C41  1  0.92660000  0.57927000  0.86818000  1.0
  N  N42  1  0.59709000  0.05195000  0.84390000  1.0
  N  N43  1  0.40291000  0.44805000  0.34390000  1.0
  N  N44  1  0.40291000  0.94805000  0.15610000  1.0
  N  N45  1  0.59709000  0.55195000  0.65610000  1.0
  N  N46  1  0.77715000  0.08207000  0.70215000  1.0
  N  N47  1  0.22284000  0.41793000  0.20215000  1.0
  N  N48  1  0.22284000  0.91793000  0.29785000  1.0
  N  N49  1  0.77715000  0.58207000  0.79785000  1.0
  N  N50  1  0.62289000  0.10732000  0.66570000  1.0
  N  N51  1  0.37711000  0.39268000  0.16570000  1.0
  N  N52  1  0.37711000  0.89268000  0.33430000  1.0
  N  N53  1  0.62289000  0.60732000  0.83430000  1.0
  O  O54  1  0.23121000  0.26982000  0.54960000  1.0
  O  O55  1  0.76879000  0.23018000  0.04960000  1.0
  O  O56  1  0.76879000  0.73017000  0.45040000  1.0
  O  O57  1  0.23121000  0.76982000  0.95040000  1.0
  O  O58  1  0.60220000  0.29404000  0.47525000  1.0
  O  O59  1  0.39780000  0.20596000  0.97525000  1.0
  O  O60  1  0.39780000  0.70596000  0.52475000  1.0
  O  O61  1  0.60220000  0.79404000  0.02475000  1.0
  O  O62  1  0.07866000  0.43305000  0.62362000  1.0
  O  O63  1  0.92134000  0.06695000  0.12362000  1.0
  O  O64  1  0.92134000  0.56694000  0.37638000  1.0
  O  O65  1  0.07866000  0.93305000  0.87638000  1.0
