# generated using pymatgen
data_CdH7C13NO4
_symmetry_space_group_name_H-M   'P 1'
_cell_length_a   7.79893000
_cell_length_b   17.37610000
_cell_length_c   17.37670018
_cell_angle_alpha   117.77864554
_cell_angle_beta   98.60293234
_cell_angle_gamma   98.58700000
_symmetry_Int_Tables_number   1
_chemical_formula_structural   CdH7C13NO4
_chemical_formula_sum   'Cd6 H42 C78 N6 O24'
_cell_volume   1994.37051509
_cell_formula_units_Z   6
loop_
 _symmetry_equiv_pos_site_id
 _symmetry_equiv_pos_as_xyz
  1  'x, y, z'
loop_
 _atom_site_type_symbol
 _atom_site_label
 _atom_site_symmetry_multiplicity
 _atom_site_fract_x
 _atom_site_fract_y
 _atom_site_fract_z
 _atom_site_occupancy
  Cd  Cd0  1  0.60091000  0.33980000  0.09539000  1.0
  Cd  Cd1  1  0.50538000  0.90486000  0.24440000  1.0
  Cd  Cd2  1  0.26081000  0.75564000  0.66020000  1.0
  Cd  Cd3  1  0.39909000  0.66020000  0.90461000  1.0
  Cd  Cd4  1  0.49463000  0.09514000  0.75560000  1.0
  Cd  Cd5  1  0.73919000  0.24436000  0.33980000  1.0
  H  H6  1  0.22626000  0.31699000  0.18061000  1.0
  H  H7  1  0.04537000  0.81959000  0.13645000  1.0
  H  H8  1  0.90877000  0.86359000  0.68299000  1.0
  H  H9  1  0.77374000  0.68301000  0.81939000  1.0
  H  H10  1  0.95463000  0.18041000  0.86355000  1.0
  H  H11  1  0.09123000  0.13641000  0.31701000  1.0
  H  H12  1  0.10423000  0.57128000  0.32490000  1.0
  H  H13  1  0.77883000  0.67504000  0.24622000  1.0
  H  H14  1  0.53302000  0.75365000  0.42861000  1.0
  H  H15  1  0.89576000  0.42872000  0.67510000  1.0
  H  H16  1  0.22117000  0.32497000  0.75379000  1.0
  H  H17  1  0.46698000  0.24635000  0.57139000  1.0
  H  H18  1  0.40250000  0.63200000  0.43057000  1.0
  H  H19  1  0.97148000  0.56931000  0.20128000  1.0
  H  H20  1  0.77064000  0.79854000  0.36788000  1.0
  H  H21  1  0.59750000  0.36800000  0.56943000  1.0
  H  H22  1  0.02852000  0.43069000  0.79872000  1.0
  H  H23  1  0.22937000  0.20146000  0.63212000  1.0
  H  H24  1  0.11443000  0.61575000  0.46820000  1.0
  H  H25  1  0.64584000  0.53174000  0.14745000  1.0
  H  H26  1  0.49881000  0.85280000  0.38429000  1.0
  H  H27  1  0.88557000  0.38425000  0.53180000  1.0
  H  H28  1  0.35416000  0.46827000  0.85255000  1.0
  H  H29  1  0.50119000  0.14720000  0.61571000  1.0
  H  H30  1  0.83847000  0.52296000  0.34409000  1.0
  H  H31  1  0.49378000  0.65585000  0.17884000  1.0
  H  H32  1  0.31556000  0.82129000  0.47702000  1.0
  H  H33  1  0.16153000  0.47703000  0.65591000  1.0
  H  H34  1  0.50623000  0.34415000  0.82116000  1.0
  H  H35  1  0.68445000  0.17871000  0.52298000  1.0
  H  H36  1  0.53865000  0.59775000  0.54732000  1.0
  H  H37  1  0.99105000  0.45258000  0.05034000  1.0
  H  H38  1  0.94043000  0.94946000  0.40200000  1.0
  H  H39  1  0.46135000  0.40225000  0.45268000  1.0
  H  H40  1  0.00895000  0.54742000  0.94966000  1.0
  H  H41  1  0.05958000  0.05054000  0.59801000  1.0
  H  H42  1  0.82454000  0.68888000  0.66153000  1.0
  H  H43  1  0.16291000  0.33838000  0.02729000  1.0
  H  H44  1  0.13523000  0.97268000  0.31091000  1.0
  H  H45  1  0.17546000  0.31112000  0.33847000  1.0
  H  H46  1  0.83710000  0.66163000  0.97272000  1.0
  H  H47  1  0.86477000  0.02732000  0.68909000  1.0
  C  C48  1  0.48931000  0.50982000  0.36561000  1.0
  C  C49  1  0.12319000  0.63434000  0.14409000  1.0
  C  C50  1  0.97937000  0.85582000  0.49012000  1.0
  C  C51  1  0.51069000  0.49018000  0.63439000  1.0
  C  C52  1  0.87681000  0.36566000  0.85591000  1.0
  C  C53  1  0.02063000  0.14418000  0.50988000  1.0
  C  C54  1  0.43988000  0.42119000  0.29135000  1.0
  C  C55  1  0.14807000  0.70868000  0.12979000  1.0
  C  C56  1  0.01830000  0.87020000  0.57879000  1.0
  C  C57  1  0.56012000  0.57881000  0.70865000  1.0
  C  C58  1  0.85193000  0.29132000  0.87021000  1.0
  C  C59  1  0.98171000  0.12980000  0.42121000  1.0
  C  C60  1  0.26691000  0.38681000  0.23472000  1.0
  C  C61  1  0.03182000  0.76540000  0.15208000  1.0
  C  C62  1  0.87966000  0.84793000  0.61317000  1.0
  C  C63  1  0.73309000  0.61319000  0.76528000  1.0
  C  C64  1  0.96818000  0.23460000  0.84792000  1.0
  C  C65  1  0.12034000  0.15207000  0.38683000  1.0
  C  C66  1  0.14228000  0.43891000  0.24794000  1.0
  C  C67  1  0.89393000  0.75213000  0.19093000  1.0
  C  C68  1  0.70302000  0.80906000  0.56103000  1.0
  C  C69  1  0.85772000  0.56109000  0.75206000  1.0
  C  C70  1  0.10606000  0.24786000  0.80906000  1.0
  C  C71  1  0.29698000  0.19094000  0.43897000  1.0
  C  C72  1  0.19677000  0.52860000  0.31666000  1.0
  C  C73  1  0.87961000  0.68330000  0.21180000  1.0
  C  C74  1  0.66814000  0.78809000  0.47132000  1.0
  C  C75  1  0.80323000  0.47140000  0.68334000  1.0
  C  C76  1  0.12039000  0.31671000  0.78820000  1.0
  C  C77  1  0.33186000  0.21191000  0.52868000  1.0
  C  C78  1  0.36601000  0.56283000  0.37523000  1.0
  C  C79  1  0.99024000  0.62466000  0.18742000  1.0
  C  C80  1  0.80322000  0.81240000  0.43708000  1.0
  C  C81  1  0.63398000  0.43716000  0.62476000  1.0
  C  C82  1  0.00976000  0.37533000  0.81258000  1.0
  C  C83  1  0.19678000  0.18760000  0.56292000  1.0
  C  C84  1  0.55523000  0.35614000  0.27536000  1.0
  C  C85  1  0.27953000  0.72467000  0.08078000  1.0
  C  C86  1  0.19859000  0.91923000  0.64389000  1.0
  C  C87  1  0.44477000  0.64386000  0.72464000  1.0
  C  C88  1  0.72047000  0.27533000  0.91922000  1.0
  C  C89  1  0.80142000  0.08077000  0.35611000  1.0
  C  C90  1  0.95363000  0.39929000  0.19075000  1.0
  C  C91  1  0.76258000  0.80943000  0.20858000  1.0
  C  C92  1  0.55384000  0.79150000  0.60061000  1.0
  C  C93  1  0.04637000  0.60071000  0.80925000  1.0
  C  C94  1  0.23742000  0.19057000  0.79142000  1.0
  C  C95  1  0.44616000  0.20850000  0.39939000  1.0
  C  C96  1  0.98345000  0.60981000  0.48250000  1.0
  C  C97  1  0.50055000  0.51742000  0.12722000  1.0
  C  C98  1  0.37370000  0.87298000  0.39021000  1.0
  C  C99  1  0.01655000  0.39019000  0.51750000  1.0
  C  C100  1  0.49945000  0.48258000  0.87278000  1.0
  C  C101  1  0.62630000  0.12702000  0.60979000  1.0
  C  C102  1  0.82932000  0.55760000  0.41374000  1.0
  C  C103  1  0.41508000  0.58619000  0.14380000  1.0
  C  C104  1  0.27173000  0.85632000  0.44237000  1.0
  C  C105  1  0.17066000  0.44239000  0.58625000  1.0
  C  C106  1  0.58492000  0.41381000  0.85620000  1.0
  C  C107  1  0.72828000  0.14368000  0.55763000  1.0
  C  C108  1  0.66274000  0.55320000  0.43481000  1.0
  C  C109  1  0.22745000  0.56512000  0.11828000  1.0
  C  C110  1  0.10941000  0.88169000  0.44673000  1.0
  C  C111  1  0.33726000  0.44680000  0.56519000  1.0
  C  C112  1  0.77255000  0.43488000  0.88172000  1.0
  C  C113  1  0.89059000  0.11831000  0.55327000  1.0
  C  C114  1  0.66316000  0.59918000  0.52610000  1.0
  C  C115  1  0.13678000  0.47383000  0.07300000  1.0
  C  C116  1  0.06366000  0.92692000  0.40066000  1.0
  C  C117  1  0.33683000  0.40082000  0.47390000  1.0
  C  C118  1  0.86322000  0.52617000  0.92700000  1.0
  C  C119  1  0.93635000  0.07307000  0.59934000  1.0
  C  C120  1  0.82369000  0.65028000  0.59082000  1.0
  C  C121  1  0.23267000  0.40908000  0.05939000  1.0
  C  C122  1  0.17311000  0.94063000  0.34957000  1.0
  C  C123  1  0.17631000  0.34972000  0.40918000  1.0
  C  C124  1  0.76734000  0.59092000  0.94061000  1.0
  C  C125  1  0.82689000  0.05937000  0.65043000  1.0
  N  N126  1  0.98230000  0.65747000  0.56983000  1.0
  N  N127  1  0.41225000  0.43007000  0.08753000  1.0
  N  N128  1  0.32475000  0.91262000  0.34250000  1.0
  N  N129  1  0.01769000  0.34253000  0.43017000  1.0
  N  N130  1  0.58775000  0.56993000  0.91247000  1.0
  N  N131  1  0.67525000  0.08738000  0.65750000  1.0
  O  O132  1  0.64744000  0.36129000  0.34524000  1.0
  O  O133  1  0.30176000  0.65478000  0.01604000  1.0
  O  O134  1  0.28572000  0.98391000  0.63869000  1.0
  O  O135  1  0.35256000  0.63871000  0.65476000  1.0
  O  O136  1  0.69823000  0.34522000  0.98396000  1.0
  O  O137  1  0.71429000  0.01609000  0.36131000  1.0
  O  O138  1  0.54906000  0.29683000  0.19525000  1.0
  O  O139  1  0.35371000  0.80479000  0.10166000  1.0
  O  O140  1  0.25158000  0.89842000  0.70325000  1.0
  O  O141  1  0.45094000  0.70317000  0.80475000  1.0
  O  O142  1  0.64630000  0.19521000  0.89834000  1.0
  O  O143  1  0.74841000  0.10158000  0.29675000  1.0
  O  O144  1  0.90431000  0.31706000  0.13138000  1.0
  O  O145  1  0.77277000  0.86892000  0.18581000  1.0
  O  O146  1  0.58658000  0.81427000  0.68284000  1.0
  O  O147  1  0.09569000  0.68294000  0.86862000  1.0
  O  O148  1  0.22723000  0.13108000  0.81419000  1.0
  O  O149  1  0.41342000  0.18573000  0.31716000  1.0
  O  O150  1  0.84773000  0.45243000  0.20586000  1.0
  O  O151  1  0.64160000  0.79430000  0.24659000  1.0
  O  O152  1  0.39492000  0.75357000  0.54746000  1.0
  O  O153  1  0.15226000  0.54756000  0.79413000  1.0
  O  O154  1  0.35840000  0.20570000  0.75341000  1.0
  O  O155  1  0.60509000  0.24645000  0.45255000  1.0
