# generated using pymatgen
data_ZnH16(CN)10
_symmetry_space_group_name_H-M   'P 1'
_cell_length_a   8.52063000
_cell_length_b   8.88033000
_cell_length_c   8.93688000
_cell_angle_alpha   90.00050000
_cell_angle_beta   90.00010000
_cell_angle_gamma   84.04220000
_symmetry_Int_Tables_number   1
_chemical_formula_structural   ZnH16(CN)10
_chemical_formula_sum   'Zn2 H32 C20 N20'
_cell_volume   672.56550290
_cell_formula_units_Z   2
loop_
 _symmetry_equiv_pos_site_id
 _symmetry_equiv_pos_as_xyz
  1  'x, y, z'
loop_
 _atom_site_type_symbol
 _atom_site_label
 _atom_site_symmetry_multiplicity
 _atom_site_fract_x
 _atom_site_fract_y
 _atom_site_fract_z
 _atom_site_occupancy
  Zn  Zn0  1  0.75904000  0.92622000  0.83220000  1.0
  Zn  Zn1  1  0.24095000  0.07378000  0.33220000  1.0
  H  H2  1  0.19045000  0.29450000  0.51990000  1.0
  H  H3  1  0.80954000  0.70550000  0.01989000  1.0
  H  H4  1  0.24800000  0.30146000  0.15140000  1.0
  H  H5  1  0.75200000  0.69854000  0.65139000  1.0
  H  H6  1  0.05016000  0.19974000  0.68991000  1.0
  H  H7  1  0.94985000  0.80026000  0.18990000  1.0
  H  H8  1  0.39812000  0.20103000  0.97668000  1.0
  H  H9  1  0.60188000  0.79897000  0.47668000  1.0
  H  H10  1  0.49278000  0.32380000  0.37814000  1.0
  H  H11  1  0.50722000  0.67621000  0.87814000  1.0
  H  H12  1  0.34090000  0.46363000  0.32093000  1.0
  H  H13  1  0.65910000  0.53637000  0.82093000  1.0
  H  H14  1  0.94963000  0.33776000  0.28637000  1.0
  H  H15  1  0.05036000  0.66224000  0.78636000  1.0
  H  H16  1  0.06944000  0.47143000  0.36307000  1.0
  H  H17  1  0.93056000  0.52857000  0.86306000  1.0
  H  H18  1  0.47709000  0.50291000  0.08421000  1.0
  H  H19  1  0.52291000  0.49709000  0.58421000  1.0
  H  H20  1  0.63531000  0.48549000  0.21221000  1.0
  H  H21  1  0.36469000  0.51451000  0.71220000  1.0
  H  H22  1  0.91267000  0.49773000  0.58945000  1.0
  H  H23  1  0.08733000  0.50226000  0.08944000  1.0
  H  H24  1  0.76420000  0.48729000  0.45155000  1.0
  H  H25  1  0.23581000  0.51271000  0.95154000  1.0
  H  H26  1  0.69692000  0.21564000  0.15585000  1.0
  H  H27  1  0.30308000  0.78436000  0.65584000  1.0
  H  H28  1  0.64888000  0.28911000  0.97562000  1.0
  H  H29  1  0.35112000  0.71089000  0.47561000  1.0
  H  H30  1  0.75872000  0.21414000  0.49435000  1.0
  H  H31  1  0.24128000  0.78586000  0.99434000  1.0
  H  H32  1  0.77811000  0.28093000  0.67939000  1.0
  H  H33  1  0.22189000  0.71908000  0.17938000  1.0
  C  C34  1  0.99844000  0.01766000  0.55048000  1.0
  C  C35  1  0.00156000  0.98233000  0.05048000  1.0
  C  C36  1  0.49689000  0.02015000  0.11455000  1.0
  C  C37  1  0.50311000  0.97985000  0.61455000  1.0
  C  C38  1  0.00019000  0.18346000  0.57823000  1.0
  C  C39  1  0.99981000  0.81654000  0.07823000  1.0
  C  C40  1  0.45692000  0.18556000  0.08602000  1.0
  C  C41  1  0.54309000  0.81444000  0.58602000  1.0
  C  C42  1  0.42818000  0.37325000  0.28046000  1.0
  C  C43  1  0.57182000  0.62675000  0.78046000  1.0
  C  C44  1  0.99857000  0.37884000  0.39074000  1.0
  C  C45  1  0.00143000  0.62116000  0.89073000  1.0
  C  C46  1  0.54145000  0.42517000  0.16387000  1.0
  C  C47  1  0.45856000  0.57483000  0.66387000  1.0
  C  C48  1  0.86799000  0.42471000  0.50351000  1.0
  C  C49  1  0.13201000  0.57529000  0.00350000  1.0
  C  C50  1  0.60244000  0.27602000  0.08848000  1.0
  C  C51  1  0.39756000  0.72398000  0.58848000  1.0
  C  C52  1  0.83487000  0.27252000  0.56947000  1.0
  C  C53  1  0.16513000  0.72748000  0.06946000  1.0
  N  N54  1  0.08304000  0.94397000  0.44142000  1.0
  N  N55  1  0.91696000  0.05603000  0.94142000  1.0
  N  N56  1  0.42831000  0.94655000  0.22384000  1.0
  N  N57  1  0.57169000  0.05345000  0.72384000  1.0
  N  N58  1  0.60669000  0.92525000  0.04589000  1.0
  N  N59  1  0.39331000  0.07475000  0.54588000  1.0
  N  N60  1  0.91202000  0.92199000  0.62171000  1.0
  N  N61  1  0.08798000  0.07801000  0.12171000  1.0
  N  N62  1  0.09921000  0.25272000  0.46338000  1.0
  N  N63  1  0.90079000  0.74728000  0.96338000  1.0
  N  N64  1  0.49862000  0.80308000  0.22430000  1.0
  N  N65  1  0.50139000  0.19693000  0.72430000  1.0
  N  N66  1  0.60506000  0.79065000  0.11801000  1.0
  N  N67  1  0.39494000  0.20935000  0.61802000  1.0
  N  N68  1  0.04681000  0.79935000  0.44382000  1.0
  N  N69  1  0.95319000  0.20065000  0.94383000  1.0
  N  N70  1  0.94468000  0.78660000  0.55151000  1.0
  N  N71  1  0.05532000  0.21340000  0.05152000  1.0
  N  N72  1  0.34738000  0.25364000  0.20507000  1.0
  N  N73  1  0.65262000  0.74636000  0.70507000  1.0
