# generated using pymatgen
data_CuH4C9(NO2)2
_symmetry_space_group_name_H-M   'P 1'
_cell_length_a   4.71815000
_cell_length_b   9.83351000
_cell_length_c   9.83353000
_cell_angle_alpha   109.91400000
_cell_angle_beta   93.54370000
_cell_angle_gamma   93.54210000
_symmetry_Int_Tables_number   1
_chemical_formula_structural   CuH4C9(NO2)2
_chemical_formula_sum   'Cu2 H8 C18 N4 O8'
_cell_volume   426.46409114
_cell_formula_units_Z   2
loop_
 _symmetry_equiv_pos_site_id
 _symmetry_equiv_pos_as_xyz
  1  'x, y, z'
loop_
 _atom_site_type_symbol
 _atom_site_label
 _atom_site_symmetry_multiplicity
 _atom_site_fract_x
 _atom_site_fract_y
 _atom_site_fract_z
 _atom_site_occupancy
  C  C0  1  0.10412000  0.03070000  0.72171500  1.0
  C  C1  1  0.05287000  0.02014500  0.86784500  1.0
  C  C2  1  0.10540000  0.89121000  0.89121000  1.0
  C  C3  1  0.94713000  0.13215500  0.97985000  1.0
  C  C4  1  0.89589000  0.27828500  0.96930000  1.0
  C  C5  1  0.47198000  0.30159500  0.48641500  1.0
  C  C6  1  0.47199000  0.48641000  0.30159500  1.0
  C  C7  1  0.89458000  0.10879000  0.10878500  1.0
  C  C8  1  0.52802000  0.51359000  0.69841000  1.0
  C  C9  1  0.52803000  0.69841000  0.51358500  1.0
  C  C10  1  0.89589000  0.96929500  0.27829000  1.0
  C  C11  1  0.94712000  0.97985500  0.13215500  1.0
  C  C12  1  0.05285000  0.86784000  0.02015000  1.0
  C  C13  1  0.10409000  0.72171000  0.03070500  1.0
  C  C14  1  0.50000000  0.28543000  0.71457500  1.0
  C  C15  1  0.50000000  0.45409500  0.54591500  1.0
  C  C16  1  0.50001000  0.54591000  0.45409500  1.0
  C  C17  1  0.50000000  0.71457500  0.28542500  1.0
  Cu  Cu18  1  0.50000000  1.00000000  0.50000000  1.0
  Cu  Cu19  1  0.50000000  0.50000000  0.00000000  1.0
  H  H20  1  0.19069000  0.80533500  0.80534000  1.0
  H  H21  1  0.45218000  0.24099000  0.37001500  1.0
  H  H22  1  0.45219000  0.37001500  0.24099000  1.0
  H  H23  1  0.80930000  0.19467000  0.19466000  1.0
  H  H24  1  0.54782000  0.62998500  0.75901500  1.0
  H  H25  1  0.54783000  0.75901500  0.62998500  1.0
  H  H26  1  0.50000000  0.78167500  0.21832500  1.0
  H  H27  1  0.50000000  0.21832500  0.78167500  1.0
  N  N28  1  0.47371000  0.21960000  0.57057000  1.0
  N  N29  1  0.47371000  0.57057000  0.21959500  1.0
  N  N30  1  0.52630000  0.42943000  0.78040500  1.0
  N  N31  1  0.52630000  0.78040500  0.42943000  1.0
  O  O32  1  0.33848000  0.97772500  0.67308500  1.0
  O  O33  1  0.93270000  0.08595500  0.65892500  1.0
  O  O34  1  0.66154000  0.32692000  0.02227000  1.0
  O  O35  1  0.06732000  0.34107500  0.91404000  1.0
  O  O36  1  0.66153000  0.02227500  0.32691500  1.0
  O  O37  1  0.06731000  0.91404500  0.34107000  1.0
  O  O38  1  0.33846000  0.67308000  0.97772500  1.0
  O  O39  1  0.93268000  0.65892500  0.08596000  1.0
