# generated using pymatgen
data_MnH3C2N9O
_symmetry_space_group_name_H-M   'P 1'
_cell_length_a   6.41184000
_cell_length_b   9.70885000
_cell_length_c   10.46270000
_cell_angle_alpha   89.99980000
_cell_angle_beta   95.71360000
_cell_angle_gamma   89.99910000
_symmetry_Int_Tables_number   1
_chemical_formula_structural   MnH3C2N9O
_chemical_formula_sum   'Mn4 H12 C8 N36 O4'
_cell_volume   648.08396172
_cell_formula_units_Z   4
loop_
 _symmetry_equiv_pos_site_id
 _symmetry_equiv_pos_as_xyz
  1  'x, y, z'
loop_
 _atom_site_type_symbol
 _atom_site_label
 _atom_site_symmetry_multiplicity
 _atom_site_fract_x
 _atom_site_fract_y
 _atom_site_fract_z
 _atom_site_occupancy
  Mn  Mn0  1  0.53170000  0.16403000  0.37025000  1.0
  Mn  Mn1  1  0.96830000  0.66403000  0.12975000  1.0
  Mn  Mn2  1  0.46830000  0.83597000  0.62975000  1.0
  Mn  Mn3  1  0.03170000  0.33597000  0.87025000  1.0
  H  H4  1  0.24092000  0.47948000  0.62861000  1.0
  H  H5  1  0.25908000  0.97948000  0.87140000  1.0
  H  H6  1  0.75908000  0.52052000  0.37139000  1.0
  H  H7  1  0.74092000  0.02052000  0.12860000  1.0
  H  H8  1  0.82038000  0.13238000  0.57843000  1.0
  H  H9  1  0.67962000  0.63238000  0.92157000  1.0
  H  H10  1  0.17962000  0.86762000  0.42157000  1.0
  H  H11  1  0.32038000  0.36762000  0.07843000  1.0
  H  H12  1  0.82423000  0.28715000  0.53610000  1.0
  H  H13  1  0.67577000  0.78715000  0.96390000  1.0
  H  H14  1  0.17577000  0.71285000  0.46390000  1.0
  H  H15  1  0.32423000  0.21285000  0.03610000  1.0
  C  C16  1  0.28951000  0.27150000  0.60973000  1.0
  C  C17  1  0.21050000  0.77150000  0.89027000  1.0
  C  C18  1  0.71049000  0.72850000  0.39027000  1.0
  C  C19  1  0.78951000  0.22850000  0.10973000  1.0
  C  C20  1  0.27364000  0.43787000  0.43770000  1.0
  C  C21  1  0.22636000  0.93787000  0.06230000  1.0
  C  C22  1  0.72636000  0.56213000  0.56230000  1.0
  C  C23  1  0.77363000  0.06213000  0.93770000  1.0
  N  N24  1  0.36425000  0.16152000  0.55019000  1.0
  N  N25  1  0.13576000  0.66152000  0.94981000  1.0
  N  N26  1  0.63575000  0.83849000  0.44981000  1.0
  N  N27  1  0.86424000  0.33848000  0.05019000  1.0
  N  N28  1  0.35346000  0.05719000  0.63514000  1.0
  N  N29  1  0.14654000  0.55719000  0.86486000  1.0
  N  N30  1  0.64654000  0.94281000  0.36486000  1.0
  N  N31  1  0.85346000  0.44281000  0.13514000  1.0
  N  N32  1  0.27804000  0.10168000  0.73890000  1.0
  N  N33  1  0.22196000  0.60169000  0.76110000  1.0
  N  N34  1  0.72196000  0.89832000  0.26111000  1.0
  N  N35  1  0.77804000  0.39831000  0.23890000  1.0
  N  N36  1  0.23190000  0.23659000  0.72603000  1.0
  N  N37  1  0.26811000  0.73659000  0.77397000  1.0
  N  N38  1  0.76810000  0.76341000  0.27397000  1.0
  N  N39  1  0.73189000  0.26341000  0.22603000  1.0
  N  N40  1  0.27392000  0.40276000  0.56396000  1.0
  N  N41  1  0.22609000  0.90276000  0.93604000  1.0
  N  N42  1  0.72608000  0.59724000  0.43605000  1.0
  N  N43  1  0.77391000  0.09724000  0.06396000  1.0
  N  N44  1  0.34730000  0.36101000  0.34460000  1.0
  N  N45  1  0.15270000  0.86101000  0.15540000  1.0
  N  N46  1  0.65270000  0.63899000  0.65541000  1.0
  N  N47  1  0.84730000  0.13899000  0.84460000  1.0
  N  N48  1  0.31200000  0.43776000  0.23663000  1.0
  N  N49  1  0.18800000  0.93776000  0.26337000  1.0
  N  N50  1  0.68800000  0.56224000  0.76337000  1.0
  N  N51  1  0.81200000  0.06224000  0.73663000  1.0
  N  N52  1  0.22532000  0.55464000  0.26480000  1.0
  N  N53  1  0.27468000  0.05464000  0.23520000  1.0
  N  N54  1  0.77468000  0.44536000  0.73520000  1.0
  N  N55  1  0.72532000  0.94536000  0.76480000  1.0
  N  N56  1  0.19828000  0.55868000  0.39099000  1.0
  N  N57  1  0.30171000  0.05868000  0.10901000  1.0
  N  N58  1  0.80172000  0.44132000  0.60901000  1.0
  N  N59  1  0.69828000  0.94132000  0.89099000  1.0
  O  O60  1  0.81540000  0.19105000  0.49970000  1.0
  O  O61  1  0.68460000  0.69106000  0.00030000  1.0
  O  O62  1  0.18460000  0.80895000  0.50030000  1.0
  O  O63  1  0.31540000  0.30894000  0.99970000  1.0
