# generated using pymatgen
data_UH7(CO2)4
_symmetry_space_group_name_H-M   'P 1'
_cell_length_a   7.19644000
_cell_length_b   8.05090000
_cell_length_c   9.29562000
_cell_angle_alpha   65.95040000
_cell_angle_beta   71.06740000
_cell_angle_gamma   78.88460000
_symmetry_Int_Tables_number   1
_chemical_formula_structural   UH7(CO2)4
_chemical_formula_sum   'U2 H14 C8 O16'
_cell_volume   464.06486895
_cell_formula_units_Z   2
loop_
 _symmetry_equiv_pos_site_id
 _symmetry_equiv_pos_as_xyz
  1  'x, y, z'
loop_
 _atom_site_type_symbol
 _atom_site_label
 _atom_site_symmetry_multiplicity
 _atom_site_fract_x
 _atom_site_fract_y
 _atom_site_fract_z
 _atom_site_occupancy
  U  U0  1  0.00001000  0.50000000  0.00000000  1.0
  U  U1  1  0.50000000  0.00000000  0.50000000  1.0
  H  H2  1  0.03446000  0.84632000  0.69788000  1.0
  H  H3  1  0.96554000  0.15369000  0.30212000  1.0
  H  H4  1  0.79902000  0.81420000  0.76782000  1.0
  H  H5  1  0.20098000  0.18578000  0.23219000  1.0
  H  H6  1  0.71897000  0.65016000  0.47166000  1.0
  H  H7  1  0.28103000  0.34984000  0.52834000  1.0
  H  H8  1  0.71689000  0.60699000  0.65927000  1.0
  H  H9  1  0.28312000  0.39301000  0.34072000  1.0
  H  H10  1  0.50068000  0.68381000  0.12740000  1.0
  H  H11  1  0.49930000  0.31620000  0.87261000  1.0
  H  H12  1  0.30695000  0.77800000  0.24926000  1.0
  H  H13  1  0.69304000  0.22201000  0.75075000  1.0
  H  H14  1  0.27984000  0.06259000  0.01894000  1.0
  H  H15  1  0.72016000  0.93741000  0.98105000  1.0
  C  C16  1  0.22146000  0.68296000  0.09967000  1.0
  C  C17  1  0.77852000  0.31704000  0.90034000  1.0
  C  C18  1  0.36478000  0.77408000  0.12545000  1.0
  C  C19  1  0.63522000  0.22592000  0.87455000  1.0
  C  C20  1  0.40663000  0.96647000  0.99745000  1.0
  C  C21  1  0.59337000  0.03353000  0.00255000  1.0
  C  C22  1  0.43878000  0.97599000  0.82558000  1.0
  C  C23  1  0.56122000  0.02401000  0.17442000  1.0
  O  O24  1  0.77197000  0.53613000  0.14242000  1.0
  O  O25  1  0.22805000  0.46387000  0.85758000  1.0
  O  O26  1  0.26386000  0.90619000  0.55648000  1.0
  O  O27  1  0.73612000  0.09381000  0.44352000  1.0
  O  O28  1  0.18300000  0.51662000  0.19137000  1.0
  O  O29  1  0.81701000  0.48338000  0.80863000  1.0
  O  O30  1  0.14074000  0.76511000  0.98374000  1.0
  O  O31  1  0.85924000  0.23490000  0.01627000  1.0
  O  O32  1  0.36427000  0.11030000  0.72410000  1.0
  O  O33  1  0.63574000  0.88969000  0.27589000  1.0
  O  O34  1  0.55008000  0.85331000  0.77541000  1.0
  O  O35  1  0.44992000  0.14669000  0.22459000  1.0
  O  O36  1  0.92475000  0.79427000  0.79614000  1.0
  O  O37  1  0.07526000  0.20572000  0.20385000  1.0
  O  O38  1  0.66107000  0.68759000  0.56491000  1.0
  O  O39  1  0.33894000  0.31241000  0.43508000  1.0
