# generated using pymatgen
data_AlH6C21N3(OF)6
_symmetry_space_group_name_H-M   'P 1'
_cell_length_a   3.96747000
_cell_length_b   27.96170442
_cell_length_c   27.96670000
_cell_angle_alpha   60.00827467
_cell_angle_beta   89.98980000
_cell_angle_gamma   89.98709760
_symmetry_Int_Tables_number   1
_chemical_formula_structural   AlH6C21N3(OF)6
_chemical_formula_sum   'Al2 H12 C42 N6 O12 F12'
_cell_volume   2687.10935648
_cell_formula_units_Z   2
loop_
 _symmetry_equiv_pos_site_id
 _symmetry_equiv_pos_as_xyz
  1  'x, y, z'
loop_
 _atom_site_type_symbol
 _atom_site_label
 _atom_site_symmetry_multiplicity
 _atom_site_fract_x
 _atom_site_fract_y
 _atom_site_fract_z
 _atom_site_occupancy
  Al  Al0  1  0.01273000  0.50001000  0.99999000  1.0
  Al  Al1  1  0.00480000  0.83333000  0.33335000  1.0
  H  H2  1  0.68312000  0.69380000  0.48935000  1.0
  H  H3  1  0.65670000  0.64447000  0.59302000  1.0
  H  H4  1  0.43567000  0.53622000  0.74846000  1.0
  H  H5  1  0.55913000  0.69436000  0.73926000  1.0
  H  H6  1  0.68321000  0.81683000  0.19384000  1.0
  H  H7  1  0.65666000  0.76250000  0.14449000  1.0
  H  H8  1  0.43547000  0.71532000  0.03624000  1.0
  H  H9  1  0.55894000  0.56637000  0.19435000  1.0
  H  H10  1  0.68312000  0.98936000  0.31682000  1.0
  H  H11  1  0.65661000  0.09304000  0.26246000  1.0
  H  H12  1  0.43576000  0.24846000  0.21530000  1.0
  H  H13  1  0.55900000  0.23927000  0.06636000  1.0
  C  C14  1  0.51177000  0.41544000  0.04748000  1.0
  C  C15  1  0.51175000  0.53710000  0.91543000  1.0
  C  C16  1  0.51159000  0.54749000  0.03708000  1.0
  C  C17  1  0.50491000  0.79787000  0.41782000  1.0
  C  C18  1  0.50506000  0.78430000  0.29790000  1.0
  C  C19  1  0.50492000  0.91780000  0.28432000  1.0
  C  C20  1  0.50486000  0.77090000  0.47913000  1.0
  C  C21  1  0.60170000  0.71510000  0.51102000  1.0
  C  C22  1  0.58805000  0.68783000  0.56804000  1.0
  C  C23  1  0.48863000  0.71610000  0.59565000  1.0
  C  C24  1  0.40340000  0.77231000  0.56400000  1.0
  C  C25  1  0.40528000  0.79898000  0.50641000  1.0
  C  C26  1  0.46276000  0.56042000  0.76894000  1.0
  C  C27  1  0.49622000  0.61797000  0.73781000  1.0
  C  C28  1  0.53622000  0.64966000  0.76367000  1.0
  C  C29  1  0.54357000  0.62252000  0.82063000  1.0
  C  C30  1  0.50628000  0.56490000  0.85388000  1.0
  C  C31  1  0.46335000  0.53528000  0.82605000  1.0
  C  C32  1  0.50502000  0.74996000  0.27092000  1.0
  C  C33  1  0.60179000  0.77387000  0.21513000  1.0
  C  C34  1  0.58803000  0.74412000  0.18785000  1.0
  C  C35  1  0.48862000  0.68826000  0.21610000  1.0
  C  C36  1  0.40343000  0.66370000  0.27230000  1.0
  C  C37  1  0.40542000  0.69461000  0.29900000  1.0
  C  C38  1  0.46257000  0.67064000  0.06044000  1.0
  C  C39  1  0.49606000  0.64422000  0.11797000  1.0
  C  C40  1  0.53598000  0.58667000  0.14964000  1.0
  C  C41  1  0.54329000  0.55686000  0.12249000  1.0
  C  C42  1  0.50607000  0.58123000  0.06489000  1.0
  C  C43  1  0.46314000  0.63868000  0.03527000  1.0
  C  C44  1  0.50491000  0.97912000  0.24996000  1.0
  C  C45  1  0.60169000  0.01102000  0.27386000  1.0
  C  C46  1  0.58795000  0.06806000  0.24409000  1.0
  C  C47  1  0.48858000  0.09564000  0.18823000  1.0
  C  C48  1  0.40331000  0.06399000  0.16368000  1.0
  C  C49  1  0.40530000  0.00639000  0.19460000  1.0
  C  C50  1  0.46286000  0.26894000  0.17063000  1.0
  C  C51  1  0.49624000  0.23783000  0.14419000  1.0
  C  C52  1  0.53611000  0.26368000  0.08666000  1.0
  C  C53  1  0.54341000  0.32064000  0.05684000  1.0
  C  C54  1  0.50630000  0.35389000  0.08122000  1.0
  C  C55  1  0.46345000  0.32606000  0.13866000  1.0
  N  N56  1  0.47966000  0.69305000  0.65316000  1.0
  N  N57  1  0.48855000  0.64070000  0.67997000  1.0
  N  N58  1  0.47962000  0.65379000  0.19304000  1.0
  N  N59  1  0.48846000  0.67933000  0.14071000  1.0
  N  N60  1  0.47957000  0.15316000  0.15377000  1.0
  N  N61  1  0.48858000  0.17998000  0.17930000  1.0
  O  O62  1  0.27686000  0.55577000  0.00285000  1.0
  O  O63  1  0.27694000  0.44140000  0.05575000  1.0
  O  O64  1  0.27702000  0.50287000  0.94138000  1.0
  O  O65  1  0.75012000  0.51288000  0.04980000  1.0
  O  O66  1  0.75021000  0.54983000  0.93730000  1.0
  O  O67  1  0.75026000  0.43732000  0.01286000  1.0
  O  O68  1  0.26839000  0.89145000  0.27687000  1.0
  O  O69  1  0.26838000  0.83168000  0.39147000  1.0
  O  O70  1  0.26855000  0.77685000  0.33171000  1.0
  O  O71  1  0.73961000  0.89604000  0.32000000  1.0
  O  O72  1  0.73981000  0.81997000  0.28399000  1.0
  O  O73  1  0.73972000  0.78396000  0.39605000  1.0
  F  F74  1  0.31791000  0.85281000  0.47841000  1.0
  F  F75  1  0.31239000  0.80131000  0.58846000  1.0
  F  F76  1  0.43100000  0.47972000  0.85590000  1.0
  F  F77  1  0.57846000  0.65281000  0.84586000  1.0
  F  F78  1  0.31815000  0.66878000  0.35282000  1.0
  F  F79  1  0.31233000  0.61025000  0.30128000  1.0
  F  F80  1  0.43077000  0.66439000  0.97972000  1.0
  F  F81  1  0.57811000  0.50133000  0.15277000  1.0
  F  F82  1  0.31803000  0.97837000  0.16880000  1.0
  F  F83  1  0.31219000  0.08844000  0.11025000  1.0
  F  F84  1  0.43115000  0.35592000  0.16438000  1.0
  F  F85  1  0.57806000  0.34588000  0.00133000  1.0
