# generated using pymatgen
data_Zn4C38N8O29F8
_symmetry_space_group_name_H-M   'P 1'
_cell_length_a   18.45250000
_cell_length_b   18.45270000
_cell_length_c   19.00736711
_cell_angle_alpha   119.02319975
_cell_angle_beta   119.02451059
_cell_angle_gamma   90.00850000
_symmetry_Int_Tables_number   1
_chemical_formula_structural   Zn4C38N8O29F8
_chemical_formula_sum   'Zn8 C76 N16 O58 F16'
_cell_volume   4707.86112728
_cell_formula_units_Z   2
loop_
 _symmetry_equiv_pos_site_id
 _symmetry_equiv_pos_as_xyz
  1  'x, y, z'
loop_
 _atom_site_type_symbol
 _atom_site_label
 _atom_site_symmetry_multiplicity
 _atom_site_fract_x
 _atom_site_fract_y
 _atom_site_fract_z
 _atom_site_occupancy
  Zn  Zn0  1  0.70102000  0.29441000  0.41671000  1.0
  Zn  Zn1  1  0.28434000  0.70560000  0.58333000  1.0
  Zn  Zn2  1  0.29444000  0.71566000  0.41669000  1.0
  Zn  Zn3  1  0.70563000  0.29900000  0.58331000  1.0
  Zn  Zn4  1  0.71571000  0.12231000  0.41665000  1.0
  Zn  Zn5  1  0.29905000  0.87770000  0.58337000  1.0
  Zn  Zn6  1  0.12235000  0.70098000  0.41665000  1.0
  Zn  Zn7  1  0.87773000  0.28431000  0.58335000  1.0
  C  C8  1  0.56870000  0.06868000  0.13708000  1.0
  C  C9  1  0.43134000  0.93143000  0.86297000  1.0
  C  C10  1  0.06860000  0.56866000  0.13705000  1.0
  C  C11  1  0.93136000  0.43127000  0.86294000  1.0
  C  C12  1  0.52442000  0.02445000  0.04870000  1.0
  C  C13  1  0.47560000  0.97567000  0.95136000  1.0
  C  C14  1  0.02438000  0.52438000  0.04865000  1.0
  C  C15  1  0.97560000  0.47555000  0.95131000  1.0
  C  C16  1  0.87962000  0.37958000  0.75926000  1.0
  C  C17  1  0.12041000  0.62039000  0.24071000  1.0
  C  C18  1  0.37961000  0.87961000  0.75931000  1.0
  C  C19  1  0.62042000  0.12042000  0.24075000  1.0
  C  C20  1  0.88335000  0.38341000  0.49997000  1.0
  C  C21  1  0.10728000  0.60726000  0.49999000  1.0
  C  C22  1  0.38340000  0.61656000  0.49999000  1.0
  C  C23  1  0.60724000  0.39271000  0.49999000  1.0
  C  C24  1  0.61661000  0.11667000  0.50002000  1.0
  C  C25  1  0.39276000  0.89274000  0.49999000  1.0
  C  C26  1  0.11666000  0.88337000  0.50002000  1.0
  C  C27  1  0.89275000  0.10723000  0.50000000  1.0
  C  C28  1  0.49714000  0.41096000  0.58186000  1.0
  C  C29  1  0.42199000  0.52386000  0.34356000  1.0
  C  C30  1  0.41122000  0.08466000  0.58210000  1.0
  C  C31  1  0.52384000  0.92175000  0.34351000  1.0
  C  C32  1  0.08463000  0.17081000  0.58189000  1.0
  C  C33  1  0.92164000  0.81964000  0.34363000  1.0
  C  C34  1  0.17079000  0.49710000  0.58168000  1.0
  C  C35  1  0.81961000  0.42215000  0.34367000  1.0
  C  C36  1  0.50263000  0.82913000  0.41787000  1.0
  C  C37  1  0.57817000  0.18033000  0.65652000  1.0
  C  C38  1  0.58897000  0.50279000  0.41812000  1.0
  C  C39  1  0.47601000  0.57791000  0.65638000  1.0
  C  C40  1  0.91544000  0.58907000  0.41820000  1.0
  C  C41  1  0.07835000  0.47589000  0.65624000  1.0
  C  C42  1  0.82916000  0.91533000  0.41806000  1.0
  C  C43  1  0.18032000  0.07839000  0.65640000  1.0
  C  C44  1  0.48567000  0.44688000  0.65699000  1.0
  C  C45  1  0.46512000  0.51570000  0.29933000  1.0
  C  C46  1  0.44717000  0.17122000  0.65723000  1.0
  C  C47  1  0.51562000  0.83440000  0.29920000  1.0
  C  C48  1  0.17115000  0.21007000  0.65710000  1.0
  C  C49  1  0.83428000  0.78364000  0.29938000  1.0
  C  C50  1  0.20999000  0.48558000  0.65678000  1.0
  C  C51  1  0.78359000  0.46540000  0.29959000  1.0
  C  C52  1  0.51402000  0.78998000  0.34268000  1.0
  C  C53  1  0.53503000  0.21637000  0.70073000  1.0
  C  C54  1  0.55303000  0.51421000  0.34295000  1.0
  C  C55  1  0.48414000  0.53476000  0.70058000  1.0
  C  C56  1  0.82885000  0.55323000  0.34313000  1.0
  C  C57  1  0.16568000  0.48396000  0.70035000  1.0
  C  C58  1  0.78992000  0.82880000  0.34289000  1.0
  C  C59  1  0.21631000  0.16575000  0.70067000  1.0
  C  C60  1  0.47392000  0.53617000  0.56852000  1.0
  C  C61  1  0.53674000  0.49275000  0.45180000  1.0
  C  C62  1  0.53636000  0.09457000  0.56865000  1.0
  C  C63  1  0.49273000  0.91505000  0.45170000  1.0
  C  C64  1  0.09459000  0.03225000  0.56852000  1.0
  C  C65  1  0.91510000  0.95900000  0.45181000  1.0
  C  C66  1  0.03227000  0.47389000  0.56844000  1.0
  C  C67  1  0.95905000  0.53678000  0.45180000  1.0
  C  C68  1  0.52599000  0.96777000  0.43141000  1.0
  C  C69  1  0.46338000  0.04097000  0.54832000  1.0
  C  C70  1  0.46375000  0.52600000  0.43145000  1.0
  C  C71  1  0.50715000  0.46316000  0.54816000  1.0
  C  C72  1  0.90541000  0.46381000  0.43145000  1.0
  C  C73  1  0.08492000  0.50713000  0.54807000  1.0
  C  C74  1  0.96776000  0.90540000  0.43149000  1.0
  C  C75  1  0.04098000  0.08489000  0.54819000  1.0
  C  C76  1  0.44107000  0.55886000  0.49999000  1.0
  C  C77  1  0.54950000  0.45041000  0.49998000  1.0
  C  C78  1  0.55894000  0.05895000  0.50003000  1.0
  C  C79  1  0.45048000  0.95045000  0.49999000  1.0
  C  C80  1  0.05895000  0.94104000  0.50000000  1.0
  C  C81  1  0.95048000  0.04950000  0.50000000  1.0
  C  C82  1  0.94105000  0.44109000  0.49995000  1.0
  C  C83  1  0.04955000  0.54953000  0.49997000  1.0
  N  N84  1  0.48162000  0.31638000  0.52510000  1.0
  N  N85  1  0.32882000  0.51610000  0.29066000  1.0
  N  N86  1  0.31661000  0.04351000  0.52529000  1.0
  N  N87  1  0.51610000  0.96213000  0.29071000  1.0
  N  N88  1  0.04336000  0.20852000  0.52500000  1.0
  N  N89  1  0.96193000  0.77450000  0.29075000  1.0
  N  N90  1  0.20857000  0.48162000  0.52487000  1.0
  N  N91  1  0.77437000  0.32899000  0.29071000  1.0
  N  N92  1  0.51814000  0.79121000  0.47457000  1.0
  N  N93  1  0.67131000  0.22548000  0.70936000  1.0
  N  N94  1  0.68356000  0.51843000  0.47498000  1.0
  N  N95  1  0.48376000  0.67107000  0.70929000  1.0
  N  N96  1  0.95671000  0.68367000  0.47511000  1.0
  N  N97  1  0.03814000  0.48365000  0.70921000  1.0
  N  N98  1  0.79137000  0.95660000  0.47487000  1.0
  N  N99  1  0.22545000  0.03808000  0.70928000  1.0
  O  O100  1  0.75004000  0.25000000  0.50001000  1.0
  O  O101  1  0.25004000  0.75001000  0.50001000  1.0
  O  O102  1  0.80063000  0.37944000  0.71833000  1.0
  O  O103  1  0.19945000  0.66101000  0.28163000  1.0
  O  O104  1  0.37943000  0.91778000  0.71845000  1.0
  O  O105  1  0.66105000  0.08222000  0.28158000  1.0
  O  O106  1  0.91781000  0.33898000  0.71843000  1.0
  O  O107  1  0.08223000  0.62058000  0.28156000  1.0
  O  O108  1  0.33899000  0.80057000  0.71839000  1.0
  O  O109  1  0.62059000  0.19941000  0.28169000  1.0
  O  O110  1  0.92027000  0.34672000  0.54391000  1.0
  O  O111  1  0.07099000  0.61965000  0.43206000  1.0
  O  O112  1  0.34674000  0.62362000  0.54399000  1.0
  O  O113  1  0.61970000  0.36119000  0.43213000  1.0
  O  O114  1  0.62364000  0.19729000  0.54401000  1.0
  O  O115  1  0.36111000  0.81245000  0.43204000  1.0
  O  O116  1  0.19729000  0.92031000  0.54399000  1.0
  O  O117  1  0.81245000  0.07093000  0.43202000  1.0
  O  O118  1  0.07974000  0.80273000  0.45606000  1.0
  O  O119  1  0.92902000  0.18750000  0.56795000  1.0
  O  O120  1  0.65324000  0.07974000  0.45601000  1.0
  O  O121  1  0.38040000  0.92902000  0.56794000  1.0
  O  O122  1  0.37637000  0.65322000  0.45600000  1.0
  O  O123  1  0.63878000  0.38026000  0.56787000  1.0
  O  O124  1  0.80273000  0.37643000  0.45606000  1.0
  O  O125  1  0.18756000  0.63889000  0.56794000  1.0
  O  O126  1  0.45693000  0.28173000  0.43947000  1.0
  O  O127  1  0.48972000  0.27701000  0.56451000  1.0
  O  O128  1  0.28099000  0.47255000  0.29415000  1.0
  O  O129  1  0.30490000  0.55031000  0.24462000  1.0
  O  O130  1  0.28192000  0.98267000  0.43963000  1.0
  O  O131  1  0.27726000  0.07481000  0.56472000  1.0
  O  O132  1  0.47267000  0.01355000  0.29439000  1.0
  O  O133  1  0.55018000  0.94002000  0.24454000  1.0
  O  O134  1  0.98236000  0.15751000  0.43942000  1.0
  O  O135  1  0.07465000  0.28725000  0.56425000  1.0
  O  O136  1  0.01323000  0.82155000  0.29423000  1.0
  O  O137  1  0.93987000  0.69428000  0.24474000  1.0
  O  O138  1  0.15762000  0.45713000  0.43931000  1.0
  O  O139  1  0.28731000  0.48960000  0.56418000  1.0
  O  O140  1  0.82134000  0.28108000  0.29411000  1.0
  O  O141  1  0.69414000  0.30512000  0.24470000  1.0
  O  O142  1  0.54294000  0.84212000  0.56024000  1.0
  O  O143  1  0.50989000  0.71242000  0.43504000  1.0
  O  O144  1  0.71914000  0.17845000  0.70579000  1.0
  O  O145  1  0.69524000  0.30570000  0.75542000  1.0
  O  O146  1  0.71815000  0.54304000  0.56057000  1.0
  O  O147  1  0.72300000  0.51047000  0.43567000  1.0
  O  O148  1  0.52738000  0.71894000  0.70590000  1.0
  O  O149  1  0.44949000  0.69496000  0.75526000  1.0
  O  O150  1  0.01772000  0.71820000  0.56068000  1.0
  O  O151  1  0.92535000  0.72317000  0.43589000  1.0
  O  O152  1  0.98683000  0.52720000  0.70577000  1.0
  O  O153  1  0.06028000  0.44946000  0.75527000  1.0
  O  O154  1  0.84236000  0.01750000  0.56050000  1.0
  O  O155  1  0.71259000  0.92537000  0.43547000  1.0
  O  O156  1  0.17838000  0.98673000  0.70573000  1.0
  O  O157  1  0.30569000  0.06019000  0.75537000  1.0
  F  F158  1  0.59541000  0.52571000  0.30705000  1.0
  F  F159  1  0.48937000  0.57014000  0.78365000  1.0
  F  F160  1  0.52542000  0.71168000  0.30668000  1.0
  F  F161  1  0.57041000  0.29420000  0.78378000  1.0
  F  F162  1  0.71163000  0.78145000  0.30701000  1.0
  F  F163  1  0.29411000  0.21344000  0.78378000  1.0
  F  F164  1  0.78151000  0.59567000  0.30729000  1.0
  F  F165  1  0.21338000  0.48910000  0.78337000  1.0
  F  F166  1  0.40481000  0.21862000  0.69315000  1.0
  F  F167  1  0.51033000  0.78679000  0.21609000  1.0
  F  F168  1  0.47418000  0.40448000  0.69289000  1.0
  F  F169  1  0.42972000  0.51039000  0.21622000  1.0
  F  F170  1  0.28827000  0.47410000  0.69264000  1.0
  F  F171  1  0.70572000  0.43013000  0.21661000  1.0
  F  F172  1  0.21850000  0.28837000  0.69299000  1.0
  F  F173  1  0.78662000  0.70581000  0.21632000  1.0
