# generated using pymatgen
data_HgH8C6SNO4
_symmetry_space_group_name_H-M   'P 1'
_cell_length_a   7.57142000
_cell_length_b   10.38580000
_cell_length_c   11.99480000
_cell_angle_alpha   107.74000000
_cell_angle_beta   89.99990000
_cell_angle_gamma   90.00000000
_symmetry_Int_Tables_number   1
_chemical_formula_structural   HgH8C6SNO4
_chemical_formula_sum   'Hg4 H32 C24 S4 N4 O16'
_cell_volume   898.36336135
_cell_formula_units_Z   4
loop_
 _symmetry_equiv_pos_site_id
 _symmetry_equiv_pos_as_xyz
  1  'x, y, z'
loop_
 _atom_site_type_symbol
 _atom_site_label
 _atom_site_symmetry_multiplicity
 _atom_site_fract_x
 _atom_site_fract_y
 _atom_site_fract_z
 _atom_site_occupancy
  Hg  Hg0  1  0.88123000  0.59446000  0.52510000  1.0
  Hg  Hg1  1  0.38123000  0.90554000  0.97490000  1.0
  Hg  Hg2  1  0.11877000  0.40554000  0.47490000  1.0
  Hg  Hg3  1  0.61877000  0.09446000  0.02510000  1.0
  H  H4  1  0.60043000  0.76470000  0.62161000  1.0
  H  H5  1  0.10043000  0.73530000  0.87839000  1.0
  H  H6  1  0.39957000  0.23530000  0.37839000  1.0
  H  H7  1  0.89957000  0.26470000  0.12161000  1.0
  H  H8  1  0.69299000  0.37374000  0.33470000  1.0
  H  H9  1  0.19299000  0.12626000  0.16530000  1.0
  H  H10  1  0.30700000  0.62626000  0.66530000  1.0
  H  H11  1  0.80700000  0.87374000  0.83470000  1.0
  H  H12  1  0.78792000  0.85147000  0.62728000  1.0
  H  H13  1  0.28791000  0.64853000  0.87272000  1.0
  H  H14  1  0.21208000  0.14853000  0.37272000  1.0
  H  H15  1  0.71209000  0.35147000  0.12728000  1.0
  H  H16  1  0.56466000  0.48647000  0.32786000  1.0
  H  H17  1  0.06466000  0.01353000  0.17214000  1.0
  H  H18  1  0.43533000  0.51353000  0.67214000  1.0
  H  H19  1  0.93533000  0.98647000  0.82786000  1.0
  H  H20  1  0.85061000  0.97017000  0.49081000  1.0
  H  H21  1  0.35060000  0.52983000  0.00919000  1.0
  H  H22  1  0.14939000  0.02983000  0.50919000  1.0
  H  H23  1  0.64939000  0.47017000  0.99081000  1.0
  H  H24  1  0.45450000  0.94720000  0.22610000  1.0
  H  H25  1  0.95449000  0.55280000  0.27390000  1.0
  H  H26  1  0.54551000  0.05280000  0.77390000  1.0
  H  H27  1  0.04551000  0.44720000  0.72610000  1.0
  H  H28  1  0.30007000  0.76664000  0.28450000  1.0
  H  H29  1  0.80007000  0.73336000  0.21550000  1.0
  H  H30  1  0.69993000  0.23336000  0.71550000  1.0
  H  H31  1  0.19993000  0.26664000  0.78450000  1.0
  H  H32  1  0.41683000  0.68942000  0.44595000  1.0
  H  H33  1  0.91683000  0.81059000  0.05405000  1.0
  H  H34  1  0.58317000  0.31059000  0.55405000  1.0
  H  H35  1  0.08317000  0.18942000  0.94595000  1.0
  C  C36  1  0.64178000  0.82376000  0.47743000  1.0
  C  C37  1  0.14177000  0.67624000  0.02257000  1.0
  C  C38  1  0.35823000  0.17624000  0.52257000  1.0
  C  C39  1  0.85823000  0.32376000  0.97743000  1.0
  C  C40  1  0.73173000  0.92398000  0.44454000  1.0
  C  C41  1  0.23172000  0.57601000  0.05545000  1.0
  C  C42  1  0.26827000  0.07602000  0.55545000  1.0
  C  C43  1  0.76828000  0.42399000  0.94455000  1.0
  C  C44  1  0.66370000  0.96631000  0.35354000  1.0
  C  C45  1  0.16369000  0.53369000  0.14646000  1.0
  C  C46  1  0.33630000  0.03369000  0.64646000  1.0
  C  C47  1  0.83631000  0.46631000  0.85354000  1.0
  C  C48  1  0.50945000  0.91021000  0.29447000  1.0
  C  C49  1  0.00945000  0.58978000  0.20552000  1.0
  C  C50  1  0.49055000  0.08979000  0.70552000  1.0
  C  C51  1  0.99055000  0.41022000  0.79448000  1.0
  C  C52  1  0.42226000  0.80978000  0.32805000  1.0
  C  C53  1  0.92225000  0.69022000  0.17195000  1.0
  C  C54  1  0.57775000  0.19022000  0.67195000  1.0
  C  C55  1  0.07775000  0.30978000  0.82805000  1.0
  C  C56  1  0.48777000  0.76608000  0.41900000  1.0
  C  C57  1  0.98777000  0.73391000  0.08100000  1.0
  C  C58  1  0.51223000  0.23392000  0.58100000  1.0
  C  C59  1  0.01223000  0.26609000  0.91900000  1.0
  S  S60  1  0.77451000  0.09532000  0.31151000  1.0
  S  S61  1  0.27451000  0.40468000  0.18848000  1.0
  S  S62  1  0.22549000  0.90468000  0.68849000  1.0
  S  S63  1  0.72548000  0.59532000  0.81152000  1.0
  N  N64  1  0.70574000  0.78082000  0.57289000  1.0
  N  N65  1  0.20574000  0.71918000  0.92711000  1.0
  N  N66  1  0.29426000  0.21918000  0.42711000  1.0
  N  N67  1  0.79426000  0.28082000  0.07289000  1.0
  O  O68  1  0.83309000  0.03125000  0.18901000  1.0
  O  O69  1  0.33309000  0.46875000  0.31099000  1.0
  O  O70  1  0.16691000  0.96875000  0.81099000  1.0
  O  O71  1  0.66691000  0.53125000  0.68901000  1.0
  O  O72  1  0.64076000  0.20092000  0.31577000  1.0
  O  O73  1  0.14076000  0.29908000  0.18423000  1.0
  O  O74  1  0.35924000  0.79908000  0.68423000  1.0
  O  O75  1  0.85924000  0.70092000  0.81577000  1.0
  O  O76  1  0.92100000  0.14190000  0.39331000  1.0
  O  O77  1  0.42099000  0.35810000  0.10669000  1.0
  O  O78  1  0.07900000  0.85810000  0.60669000  1.0
  O  O79  1  0.57900000  0.64190000  0.89331000  1.0
  O  O80  1  0.69225000  0.46860000  0.33369000  1.0
  O  O81  1  0.19225000  0.03139000  0.16631000  1.0
  O  O82  1  0.30775000  0.53140000  0.66631000  1.0
  O  O83  1  0.80775000  0.96860000  0.83369000  1.0
