# generated using pymatgen
data_Co3P4H22C16(NO10)2
_symmetry_space_group_name_H-M   'P 1'
_cell_length_a   8.84662000
_cell_length_b   8.99244000
_cell_length_c   9.75239000
_cell_angle_alpha   108.64600000
_cell_angle_beta   101.80300000
_cell_angle_gamma   109.60400000
_symmetry_Int_Tables_number   1
_chemical_formula_structural   Co3P4H22C16(NO10)2
_chemical_formula_sum   'Co3 P4 H22 C16 N2 O20'
_cell_volume   648.86546440
_cell_formula_units_Z   1
loop_
 _symmetry_equiv_pos_site_id
 _symmetry_equiv_pos_as_xyz
  1  'x, y, z'
loop_
 _atom_site_type_symbol
 _atom_site_label
 _atom_site_symmetry_multiplicity
 _atom_site_fract_x
 _atom_site_fract_y
 _atom_site_fract_z
 _atom_site_occupancy
  Co  Co0  1  0.75649000  0.74523000  0.47188000  1.0
  Co  Co1  1  0.24351000  0.25479000  0.52813000  1.0
  Co  Co2  1  0.00000000  0.00000000  0.00000000  1.0
  P  P3  1  0.03596000  0.71995000  0.69704000  1.0
  P  P4  1  0.96403000  0.28005000  0.30296000  1.0
  P  P5  1  0.10612000  0.08472000  0.73948000  1.0
  P  P6  1  0.89389000  0.91528000  0.26052000  1.0
  H  H7  1  0.12205000  0.51430000  0.60953000  1.0
  H  H8  1  0.87795000  0.48570000  0.39046000  1.0
  H  H9  1  0.14848000  0.90748000  0.48181000  1.0
  H  H10  1  0.85152000  0.09252000  0.51819000  1.0
  H  H11  1  0.81311000  0.08270000  0.85878000  1.0
  H  H12  1  0.18690000  0.91732000  0.14124000  1.0
  H  H13  1  0.71728000  0.87841000  0.77972000  1.0
  H  H14  1  0.28272000  0.12160000  0.22028000  1.0
  H  H15  1  0.71862000  0.56243000  0.10907000  1.0
  H  H16  1  0.28138000  0.43756000  0.89092000  1.0
  H  H17  1  0.40870000  0.87914000  0.78863000  1.0
  H  H18  1  0.59130000  0.12086000  0.21137000  1.0
  H  H19  1  0.34273000  0.99134000  0.93309000  1.0
  H  H20  1  0.65727000  0.00865000  0.06691000  1.0
  H  H21  1  0.53973000  0.05068000  0.63347000  1.0
  H  H22  1  0.46027000  0.94931000  0.36653000  1.0
  H  H23  1  0.76311000  0.33873000  0.67797000  1.0
  H  H24  1  0.23688000  0.66126000  0.32203000  1.0
  H  H25  1  0.84661000  0.60028000  0.92698000  1.0
  H  H26  1  0.15339000  0.39971000  0.07302000  1.0
  H  H27  1  0.50841000  0.30406000  0.07870000  1.0
  H  H28  1  0.49160000  0.69594000  0.92131000  1.0
  C  C29  1  0.19368000  0.92010000  0.69746000  1.0
  C  C30  1  0.80633000  0.07990000  0.30254000  1.0
  C  C31  1  0.36573000  0.98217000  0.82505000  1.0
  C  C32  1  0.63426000  0.01782000  0.17495000  1.0
  C  C33  1  0.50216000  0.15153000  0.84952000  1.0
  C  C34  1  0.49784000  0.84846000  0.15047000  1.0
  C  C35  1  0.57922000  0.16624000  0.73895000  1.0
  C  C36  1  0.42078000  0.83375000  0.26105000  1.0
  C  C37  1  0.70406000  0.32592000  0.76382000  1.0
  C  C38  1  0.29594000  0.67407000  0.23618000  1.0
  C  C39  1  0.75315000  0.47037000  0.90025000  1.0
  C  C40  1  0.24685000  0.52962000  0.09975000  1.0
  C  C41  1  0.55757000  0.30042000  0.98458000  1.0
  C  C42  1  0.44243000  0.69958000  0.01542000  1.0
  C  C43  1  0.51523000  0.56982000  0.57855000  1.0
  C  C44  1  0.48477000  0.43020000  0.42145000  1.0
  N  N45  1  0.67945000  0.45264000  0.00563000  1.0
  N  N46  1  0.32055000  0.54735000  0.99437000  1.0
  O  O47  1  0.13078000  0.60251000  0.71213000  1.0
  O  O48  1  0.86922000  0.39749000  0.28787000  1.0
  O  O49  1  0.97634000  0.76729000  0.83211000  1.0
  O  O50  1  0.02366000  0.23271000  0.16789000  1.0
  O  O51  1  0.89097000  0.62287000  0.53690000  1.0
  O  O52  1  0.10902000  0.37712000  0.46311000  1.0
  O  O53  1  0.92129000  0.99786000  0.62326000  1.0
  O  O54  1  0.07872000  0.00215000  0.37675000  1.0
  O  O55  1  0.22121000  0.24655000  0.72247000  1.0
  O  O56  1  0.77879000  0.75345000  0.27753000  1.0
  O  O57  1  0.11730000  0.14488000  0.90861000  1.0
  O  O58  1  0.88270000  0.85512000  0.09138000  1.0
  O  O59  1  0.22069000  0.87918000  0.55320000  1.0
  O  O60  1  0.77930000  0.12082000  0.44680000  1.0
  O  O61  1  0.60966000  0.72756000  0.60466000  1.0
  O  O62  1  0.39035000  0.27245000  0.39534000  1.0
  O  O63  1  0.44817000  0.52295000  0.66787000  1.0
  O  O64  1  0.55183000  0.47706000  0.33212000  1.0
  O  O65  1  0.77972000  0.98195000  0.88341000  1.0
  O  O66  1  0.22028000  0.01806000  0.11660000  1.0
