# generated using pymatgen
data_CdH12C22(N3O2)2
_symmetry_space_group_name_H-M   'P 1'
_cell_length_a   9.74477000
_cell_length_b   10.44240000
_cell_length_c   10.86130000
_cell_angle_alpha   85.96360000
_cell_angle_beta   65.83050000
_cell_angle_gamma   71.07990000
_symmetry_Int_Tables_number   1
_chemical_formula_structural   CdH12C22(N3O2)2
_chemical_formula_sum   'Cd2 H24 C44 N12 O8'
_cell_volume   951.37272032
_cell_formula_units_Z   2
loop_
 _symmetry_equiv_pos_site_id
 _symmetry_equiv_pos_as_xyz
  1  'x, y, z'
loop_
 _atom_site_type_symbol
 _atom_site_label
 _atom_site_symmetry_multiplicity
 _atom_site_fract_x
 _atom_site_fract_y
 _atom_site_fract_z
 _atom_site_occupancy
  Cd  Cd0  1  0.35115000  0.57531000  0.17206000  1.0
  Cd  Cd1  1  0.64885000  0.42469000  0.82794000  1.0
  H  H2  1  0.67379000  0.83037000  0.22366000  1.0
  H  H3  1  0.32621000  0.16963000  0.77634000  1.0
  H  H4  1  0.34882000  0.25074000  0.09763000  1.0
  H  H5  1  0.65118000  0.74926000  0.90237000  1.0
  H  H6  1  0.50561000  0.43549000  0.38796000  1.0
  H  H7  1  0.49439000  0.56451000  0.61204000  1.0
  H  H8  1  0.47925000  0.25687000  0.55631000  1.0
  H  H9  1  0.52075000  0.74313000  0.44369000  1.0
  H  H10  1  0.25710000  0.15874000  0.60851000  1.0
  H  H11  1  0.74290000  0.84126000  0.39149000  1.0
  H  H12  1  0.05259000  0.64598000  0.07728000  1.0
  H  H13  1  0.94741000  0.35402000  0.92272000  1.0
  H  H14  1  0.80972000  0.57609000  0.13014000  1.0
  H  H15  1  0.19028000  0.42391000  0.86986000  1.0
  H  H16  1  0.75820000  0.40278000  0.29653000  1.0
  H  H17  1  0.24180000  0.59722000  0.70347000  1.0
  H  H18  1  0.83377000  0.25195000  0.46532000  1.0
  H  H19  1  0.16623000  0.74805000  0.53468000  1.0
  H  H20  1  0.02014000  0.16008000  0.57567000  1.0
  H  H21  1  0.97986000  0.83992000  0.42433000  1.0
  H  H22  1  0.07349000  0.93195000  0.18540000  1.0
  H  H23  1  0.92651000  0.06805000  0.81460000  1.0
  H  H24  1  0.95202000  0.14801000  0.13035000  1.0
  H  H25  1  0.04798000  0.85199000  0.86965000  1.0
  C  C26  1  0.40670000  0.80832000  0.21993000  1.0
  C  C27  1  0.59330000  0.19168000  0.78007000  1.0
  C  C28  1  0.21615000  0.05198000  0.15573000  1.0
  C  C29  1  0.78385000  0.94802000  0.84427000  1.0
  C  C30  1  0.45641000  0.92921000  0.19917000  1.0
  C  C31  1  0.54359000  0.07079000  0.80083000  1.0
  C  C32  1  0.36389000  0.04941000  0.16369000  1.0
  C  C33  1  0.63611000  0.95059000  0.83631000  1.0
  C  C34  1  0.59939000  0.92439000  0.20274000  1.0
  C  C35  1  0.40061000  0.07561000  0.79725000  1.0
  C  C36  1  0.41703000  0.16130000  0.13039000  1.0
  C  C37  1  0.58297000  0.83870000  0.86960000  1.0
  C  C38  1  0.65050000  0.03751000  0.17296000  1.0
  C  C39  1  0.34950000  0.96249000  0.82704000  1.0
  C  C40  1  0.56021000  0.15685000  0.13458000  1.0
  C  C41  1  0.43979000  0.84315000  0.86542000  1.0
  C  C42  1  0.80137000  0.03325000  0.17422000  1.0
  C  C43  1  0.19863000  0.96675000  0.82578000  1.0
  C  C44  1  0.62446000  0.26891000  0.09305000  1.0
  C  C45  1  0.37554000  0.73109000  0.90695000  1.0
  C  C46  1  0.41269000  0.38909000  0.41339000  1.0
  C  C47  1  0.58731000  0.61091000  0.58661000  1.0
  C  C48  1  0.39898000  0.28770000  0.50529000  1.0
  C  C49  1  0.60102000  0.71230000  0.49471000  1.0
  C  C50  1  0.27665000  0.23485000  0.53478000  1.0
  C  C51  1  0.72336000  0.76515000  0.46522000  1.0
  C  C52  1  0.16924000  0.28374000  0.47276000  1.0
  C  C53  1  0.83076000  0.71626000  0.52724000  1.0
  C  C54  1  0.19370000  0.38534000  0.37960000  1.0
  C  C55  1  0.80630000  0.61466000  0.62040000  1.0
  C  C56  1  0.08834000  0.43574000  0.31135000  1.0
  C  C57  1  0.91166000  0.56426000  0.68865000  1.0
  C  C58  1  0.02105000  0.57438000  0.15358000  1.0
  C  C59  1  0.97894000  0.42562000  0.84642000  1.0
  C  C60  1  0.88787000  0.53361000  0.18176000  1.0
  C  C61  1  0.11213000  0.46639000  0.81824000  1.0
  C  C62  1  0.85779000  0.43918000  0.27607000  1.0
  C  C63  1  0.14221000  0.56082000  0.72393000  1.0
  C  C64  1  0.95841000  0.38674000  0.34387000  1.0
  C  C65  1  0.04159000  0.61326000  0.65613000  1.0
  C  C66  1  0.93536000  0.28696000  0.44095000  1.0
  C  C67  1  0.06464000  0.71304000  0.55905000  1.0
  C  C68  1  0.03772000  0.23608000  0.50194000  1.0
  C  C69  1  0.96228000  0.76392000  0.49806000  1.0
  N  N70  1  0.27104000  0.81564000  0.21229000  1.0
  N  N71  1  0.72896000  0.18436000  0.78771000  1.0
  N  N72  1  0.18114000  0.93473000  0.18322000  1.0
  N  N73  1  0.81886000  0.06527000  0.81678000  1.0
  N  N74  1  0.84299000  0.14637000  0.13441000  1.0
  N  N75  1  0.15701000  0.85363000  0.86559000  1.0
  N  N76  1  0.76230000  0.26150000  0.09303000  1.0
  N  N77  1  0.23770000  0.73851000  0.90697000  1.0
  N  N78  1  0.31386000  0.43580000  0.35260000  1.0
  N  N79  1  0.68614000  0.56420000  0.64740000  1.0
  N  N80  1  0.11799000  0.52649000  0.21646000  1.0
  N  N81  1  0.88201000  0.47351000  0.78354000  1.0
  O  O82  1  0.49271000  0.69205000  0.23868000  1.0
  O  O83  1  0.50729000  0.30795000  0.76132000  1.0
  O  O84  1  0.54679000  0.37724000  0.05039000  1.0
  O  O85  1  0.45320000  0.62276000  0.94961000  1.0
  O  O86  1  0.12695000  0.15439000  0.12496000  1.0
  O  O87  1  0.87305000  0.84561000  0.87504000  1.0
  O  O88  1  0.88873000  0.93262000  0.20955000  1.0
  O  O89  1  0.11127000  0.06738000  0.79045000  1.0
