# generated using pymatgen
data_MnH18C18N2O5
_symmetry_space_group_name_H-M   'P 1'
_cell_length_a   6.85924000
_cell_length_b   8.52114000
_cell_length_c   15.64410000
_cell_angle_alpha   90.00300000
_cell_angle_beta   90.00040000
_cell_angle_gamma   78.50200000
_symmetry_Int_Tables_number   1
_chemical_formula_structural   MnH18C18N2O5
_chemical_formula_sum   'Mn2 H36 C36 N4 O10'
_cell_volume   896.02488835
_cell_formula_units_Z   2
loop_
 _symmetry_equiv_pos_site_id
 _symmetry_equiv_pos_as_xyz
  1  'x, y, z'
loop_
 _atom_site_type_symbol
 _atom_site_label
 _atom_site_symmetry_multiplicity
 _atom_site_fract_x
 _atom_site_fract_y
 _atom_site_fract_z
 _atom_site_occupancy
  Mn  Mn0  1  0.38823000  0.30297000  0.64937000  1.0
  Mn  Mn1  1  0.61172000  0.69703000  0.14935000  1.0
  H  H2  1  0.82059000  0.20620000  0.66162000  1.0
  H  H3  1  0.17936000  0.79378000  0.16160000  1.0
  H  H4  1  0.70261000  0.15483000  0.57679000  1.0
  H  H5  1  0.29735000  0.84517000  0.07678000  1.0
  H  H6  1  0.72285000  0.41409000  0.76106000  1.0
  H  H7  1  0.27715000  0.58588000  0.26103000  1.0
  H  H8  1  0.67383000  0.91998000  0.71834000  1.0
  H  H9  1  0.32621000  0.07999000  0.21829000  1.0
  H  H10  1  0.36645000  0.91897000  0.63730000  1.0
  H  H11  1  0.63359000  0.08101000  0.13726000  1.0
  H  H12  1  0.07262000  0.90387000  0.59358000  1.0
  H  H13  1  0.92744000  0.09613000  0.09352000  1.0
  H  H14  1  0.78663000  0.85767000  0.50845000  1.0
  H  H15  1  0.21342000  0.14237000  0.00840000  1.0
  H  H16  1  0.01716000  0.34949000  0.53205000  1.0
  H  H17  1  0.98278000  0.65055000  0.03204000  1.0
  H  H18  1  0.98618000  0.75500000  0.78396000  1.0
  H  H19  1  0.01388000  0.24497000  0.28394000  1.0
  H  H20  1  0.01705000  0.54207000  0.78281000  1.0
  H  H21  1  0.98300000  0.45791000  0.28279000  1.0
  H  H22  1  0.88625000  0.65501000  0.86751000  1.0
  H  H23  1  0.11381000  0.34496000  0.36750000  1.0
  H  H24  1  0.56365000  0.63489000  0.48250000  1.0
  H  H25  1  0.43636000  0.36520000  0.98248000  1.0
  H  H26  1  0.69744000  0.43608000  0.46314000  1.0
  H  H27  1  0.30253000  0.56400000  0.96313000  1.0
  H  H28  1  0.71886000  0.59538000  0.39215000  1.0
  H  H29  1  0.28115000  0.40468000  0.89213000  1.0
  H  H30  1  0.50047000  0.94302000  0.37125000  1.0
  H  H31  1  0.49950000  0.05697000  0.87125000  1.0
  H  H32  1  0.08902000  0.06191000  0.45406000  1.0
  H  H33  1  0.91095000  0.93808000  0.95406000  1.0
  H  H34  1  0.23738000  0.84565000  0.29666000  1.0
  H  H35  1  0.76260000  0.15434000  0.79667000  1.0
  H  H36  1  0.81917000  0.97781000  0.37105000  1.0
  H  H37  1  0.18080000  0.02218000  0.87105000  1.0
  C  C38  1  0.64504000  0.52895000  0.73590000  1.0
  C  C39  1  0.35496000  0.47102000  0.23587000  1.0
  C  C40  1  0.72349000  0.66639000  0.74931000  1.0
  C  C41  1  0.27654000  0.33358000  0.24930000  1.0
  C  C42  1  0.61875000  0.80880000  0.71313000  1.0
  C  C43  1  0.38129000  0.19118000  0.21310000  1.0
  C  C44  1  0.44482000  0.80875000  0.66709000  1.0
  C  C45  1  0.55523000  0.19124000  0.16705000  1.0
  C  C46  1  0.37821000  0.66525000  0.65639000  1.0
  C  C47  1  0.62182000  0.33472000  0.15636000  1.0
  C  C48  1  0.20076000  0.65099000  0.60590000  1.0
  C  C49  1  0.79927000  0.34900000  0.10586000  1.0
  C  C50  1  0.05874000  0.78209000  0.57771000  1.0
  C  C51  1  0.94132000  0.21791000  0.07766000  1.0
  C  C52  1  0.89713000  0.75522000  0.53021000  1.0
  C  C53  1  0.10290000  0.24482000  0.03016000  1.0
  C  C54  1  0.87660000  0.59848000  0.51103000  1.0
  C  C55  1  0.12343000  0.40157000  0.01100000  1.0
  C  C56  1  0.02387000  0.47485000  0.54270000  1.0
  C  C57  1  0.97611000  0.52517000  0.04267000  1.0
  C  C58  1  0.91378000  0.65440000  0.79821000  1.0
  C  C59  1  0.08626000  0.34558000  0.29820000  1.0
  C  C60  1  0.70545000  0.56337000  0.45976000  1.0
  C  C61  1  0.29454000  0.43671000  0.95973000  1.0
  C  C62  1  0.46569000  0.09734000  0.48567000  1.0
  C  C63  1  0.53428000  0.90267000  0.98567000  1.0
  C  C64  1  0.39148000  0.00451000  0.41727000  1.0
  C  C65  1  0.60849000  0.99550000  0.91728000  1.0
  C  C66  1  0.19736000  0.99716000  0.40880000  1.0
  C  C67  1  0.80260000  0.00283000  0.90880000  1.0
  C  C68  1  0.12589000  0.91141000  0.34030000  1.0
  C  C69  1  0.87409000  0.08858000  0.84031000  1.0
  C  C70  1  0.93071000  0.91146000  0.32755000  1.0
  C  C71  1  0.06927000  0.08852000  0.82755000  1.0
  C  C72  1  0.85880000  0.82174000  0.25770000  1.0
  C  C73  1  0.14117000  0.17823000  0.75771000  1.0
  N  N74  1  0.48006000  0.52683000  0.69065000  1.0
  N  N75  1  0.51995000  0.47315000  0.19061000  1.0
  N  N76  1  0.18062000  0.49970000  0.58831000  1.0
  N  N77  1  0.81938000  0.50030000  0.08828000  1.0
  O  O78  1  0.34432000  0.15615000  0.54549000  1.0
  O  O79  1  0.65566000  0.84386000  0.04549000  1.0
  O  O80  1  0.64734000  0.11115000  0.48168000  1.0
  O  O81  1  0.35265000  0.88885000  0.98168000  1.0
  O  O82  1  0.67424000  0.80803000  0.26112000  1.0
  O  O83  1  0.32573000  0.19195000  0.76112000  1.0
  O  O84  1  0.97082000  0.75910000  0.19698000  1.0
  O  O85  1  0.02914000  0.24087000  0.69700000  1.0
  O  O86  1  0.69193000  0.18152000  0.64002000  1.0
  O  O87  1  0.30802000  0.81847000  0.14001000  1.0
