# generated using pymatgen
data_CuH14C14I(NO)2
_symmetry_space_group_name_H-M   'P 1'
_cell_length_a   4.15571000
_cell_length_b   12.24630000
_cell_length_c   14.86030000
_cell_angle_alpha   73.23500000
_cell_angle_beta   89.99960000
_cell_angle_gamma   89.99960000
_symmetry_Int_Tables_number   1
_chemical_formula_structural   CuH14C14I(NO)2
_chemical_formula_sum   'Cu2 H28 C28 I2 N4 O4'
_cell_volume   724.12679459
_cell_formula_units_Z   2
loop_
 _symmetry_equiv_pos_site_id
 _symmetry_equiv_pos_as_xyz
  1  'x, y, z'
loop_
 _atom_site_type_symbol
 _atom_site_label
 _atom_site_symmetry_multiplicity
 _atom_site_fract_x
 _atom_site_fract_y
 _atom_site_fract_z
 _atom_site_occupancy
  Cu  Cu0  1  0.99108000  0.27514000  0.93808000  1.0
  Cu  Cu1  1  0.00894000  0.27514000  0.43808000  1.0
  H  H2  1  0.73632000  0.21751000  0.77292000  1.0
  H  H3  1  0.26366000  0.21751000  0.27291000  1.0
  H  H4  1  0.86326000  0.08328000  0.68363000  1.0
  H  H5  1  0.13672000  0.08328000  0.18363000  1.0
  H  H6  1  0.44787000  0.89476000  0.91886000  1.0
  H  H7  1  0.55212000  0.89477000  0.41886000  1.0
  H  H8  1  0.32061000  0.04681000  0.99560000  1.0
  H  H9  1  0.67939000  0.04682000  0.49560000  1.0
  H  H10  1  0.26781000  0.84982000  0.61324000  1.0
  H  H11  1  0.73219000  0.84982000  0.11323000  1.0
  H  H12  1  0.19113000  0.99848000  0.60006000  1.0
  H  H13  1  0.80887000  0.99849000  0.10006000  1.0
  H  H14  1  0.88878000  0.89539000  0.64624000  1.0
  H  H15  1  0.11122000  0.89540000  0.14624000  1.0
  H  H16  1  0.26732000  0.33084000  0.74895000  1.0
  H  H17  1  0.73267000  0.33086000  0.24896000  1.0
  H  H18  1  0.16409000  0.46587000  0.59442000  1.0
  H  H19  1  0.83591000  0.46588000  0.09443000  1.0
  H  H20  1  0.57153000  0.66022000  0.73327000  1.0
  H  H21  1  0.42851000  0.66022000  0.23327000  1.0
  H  H22  1  0.67073000  0.50605000  0.88336000  1.0
  H  H23  1  0.32931000  0.50604000  0.38336000  1.0
  H  H24  1  0.77502000  0.69608000  0.40821000  1.0
  H  H25  1  0.22498000  0.69608000  0.90820000  1.0
  H  H26  1  0.84458000  0.54817000  0.46910000  1.0
  H  H27  1  0.15543000  0.54817000  0.96911000  1.0
  H  H28  1  0.14982000  0.65064000  0.46575000  1.0
  H  H29  1  0.85018000  0.65063000  0.96576000  1.0
  C  C30  1  0.89792000  0.14616000  0.80296000  1.0
  C  C31  1  0.10205000  0.14616000  0.30296000  1.0
  C  C32  1  0.96850000  0.06906000  0.75324000  1.0
  C  C33  1  0.03150000  0.06907000  0.25323000  1.0
  C  C34  1  0.17266000  0.97704000  0.79349000  1.0
  C  C35  1  0.82734000  0.97704000  0.29349000  1.0
  C  C36  1  0.29356000  0.96642000  0.88385000  1.0
  C  C37  1  0.70643000  0.96642000  0.38385000  1.0
  C  C38  1  0.21888000  0.04917000  0.92745000  1.0
  C  C39  1  0.78112000  0.04917000  0.42745000  1.0
  C  C40  1  0.27296000  0.89428000  0.74211000  1.0
  C  C41  1  0.72703000  0.89427000  0.24211000  1.0
  C  C42  1  0.15004000  0.91045000  0.64405000  1.0
  C  C43  1  0.84995000  0.91046000  0.14404000  1.0
  C  C44  1  0.10879000  0.40349000  0.74308000  1.0
  C  C45  1  0.89119000  0.40349000  0.24309000  1.0
  C  C46  1  0.05199000  0.48109000  0.65597000  1.0
  C  C47  1  0.94800000  0.48110000  0.15598000  1.0
  C  C48  1  0.85145000  0.57470000  0.65017000  1.0
  C  C49  1  0.14855000  0.57470000  0.15018000  1.0
  C  C50  1  0.72173000  0.58688000  0.73398000  1.0
  C  C51  1  0.27828000  0.58688000  0.23398000  1.0
  C  C52  1  0.78153000  0.50308000  0.81760000  1.0
  C  C53  1  0.21849000  0.50308000  0.31761000  1.0
  C  C54  1  0.75899000  0.65625000  0.55804000  1.0
  C  C55  1  0.24102000  0.65625000  0.05804000  1.0
  C  C56  1  0.88805000  0.63672000  0.46953000  1.0
  C  C57  1  0.11194000  0.63671000  0.96953000  1.0
  I  I58  1  0.49208000  0.27602000  0.04533000  1.0
  I  I59  1  0.50792000  0.27603000  0.54533000  1.0
  N  N60  1  0.02643000  0.13960000  0.88790000  1.0
  N  N61  1  0.97357000  0.13960000  0.38790000  1.0
  N  N62  1  0.96922000  0.41093000  0.82318000  1.0
  N  N63  1  0.03079000  0.41093000  0.32319000  1.0
  O  O64  1  0.45882000  0.81560000  0.78029000  1.0
  O  O65  1  0.54118000  0.81561000  0.28028000  1.0
  O  O66  1  0.57136000  0.73530000  0.55582000  1.0
  O  O67  1  0.42864000  0.73532000  0.05581000  1.0
