# generated using pymatgen
data_Zr6H25C54Br5O36
_symmetry_space_group_name_H-M   'P 1'
_cell_length_a   14.74830000
_cell_length_b   14.75630000
_cell_length_c   14.77716780
_cell_angle_alpha   90.09091103
_cell_angle_beta   119.89535141
_cell_angle_gamma   119.89230000
_symmetry_Int_Tables_number   1
_chemical_formula_structural   Zr6H25C54Br5O36
_chemical_formula_sum   'Zr6 H25 C54 Br5 O36'
_cell_volume   2279.51328407
_cell_formula_units_Z   1
loop_
 _symmetry_equiv_pos_site_id
 _symmetry_equiv_pos_as_xyz
  1  'x, y, z'
loop_
 _atom_site_type_symbol
 _atom_site_label
 _atom_site_symmetry_multiplicity
 _atom_site_fract_x
 _atom_site_fract_y
 _atom_site_fract_z
 _atom_site_occupancy
  Zr  Zr0  1  0.49626000  0.11715000  0.87920000  1.0
  Zr  Zr1  1  0.50163000  0.87964000  0.11962000  1.0
  Zr  Zr2  1  0.73863000  0.12039000  0.11758000  1.0
  Zr  Zr3  1  0.25961000  0.87968000  0.88072000  1.0
  Zr  Zr4  1  0.49984000  0.11812000  0.12090000  1.0
  Zr  Zr5  1  0.49799000  0.87781000  0.87976000  1.0
  H  H6  1  0.68845000  0.28255000  0.09633000  1.0
  H  H7  1  0.31468000  0.90492000  0.09730000  1.0
  H  H8  1  0.69058000  0.90709000  0.09336000  1.0
  H  H9  1  0.30745000  0.90291000  0.71707000  1.0
  H  H10  1  0.39495000  0.36530000  0.82079000  1.0
  H  H11  1  0.59437000  0.45619000  0.17484000  1.0
  H  H12  1  0.39951000  0.53780000  0.82902000  1.0
  H  H13  1  0.54129000  0.16138000  0.60131000  1.0
  H  H14  1  0.46574000  0.83777000  0.57334000  1.0
  H  H15  1  0.54520000  0.15525000  0.43368000  1.0
  H  H16  1  0.21885000  0.11474000  0.16681000  1.0
  H  H17  1  0.95871000  0.90735000  0.82568000  1.0
  H  H18  1  0.04065000  0.11026000  0.15479000  1.0
  H  H19  1  0.22497000  0.56092000  0.60101000  1.0
  H  H20  1  0.94400000  0.58452000  0.59594000  1.0
  H  H21  1  0.04899000  0.39312000  0.42960000  1.0
  H  H22  1  0.78084000  0.44064000  0.05232000  1.0
  H  H23  1  0.82418000  0.62259000  0.10768000  1.0
  H  H24  1  0.11301000  0.77368000  0.04430000  1.0
  H  H25  1  0.99137000  0.79001000  0.10335000  1.0
  H  H26  1  0.93430000  0.88246000  0.60340000  1.0
  H  H27  1  0.23641000  0.14364000  0.59074000  1.0
  H  H28  1  0.77487000  0.89205000  0.43342000  1.0
  H  H29  1  0.11214000  0.34464000  0.92851000  1.0
  H  H30  1  0.74109000  0.21459000  0.82593000  1.0
  C  C31  1  0.49159000  0.29864000  0.99618000  1.0
  C  C32  1  0.50786000  0.99818000  0.30786000  1.0
  C  C33  1  0.49900000  0.69462000  0.00151000  1.0
  C  C34  1  0.50165000  0.99969000  0.69705000  1.0
  C  C35  1  0.80162000  0.29969000  0.99108000  1.0
  C  C36  1  0.19335000  0.00488000  0.70250000  1.0
  C  C37  1  0.19525000  0.68883000  0.98829000  1.0
  C  C38  1  0.80966000  0.01224000  0.30883000  1.0
  C  C39  1  0.80151000  0.29869000  0.30897000  1.0
  C  C40  1  0.80024000  0.00605000  0.98820000  1.0
  C  C41  1  0.19613000  0.68863000  0.70410000  1.0
  C  C42  1  0.19928000  0.00618000  0.00096000  1.0
  C  C43  1  0.50235000  0.59510000  0.00531000  1.0
  C  C44  1  0.49293000  0.40034000  0.99733000  1.0
  C  C45  1  0.55919000  0.57226000  0.10329000  1.0
  C  C46  1  0.43971000  0.42335000  0.89934000  1.0
  C  C47  1  0.55213000  0.47452000  0.09911000  1.0
  C  C48  1  0.44327000  0.51911000  0.90403000  1.0
  C  C49  1  0.50745000  0.99400000  0.40874000  1.0
  C  C50  1  0.50387000  0.99957000  0.59722000  1.0
  C  C51  1  0.48583000  0.90402000  0.44934000  1.0
  C  C52  1  0.52616000  0.08985000  0.55851000  1.0
  C  C53  1  0.48375000  0.90737000  0.54249000  1.0
  C  C54  1  0.52784000  0.08623000  0.46563000  1.0
  C  C55  1  0.90043000  0.00768000  0.98434000  1.0
  C  C56  1  0.09791000  0.00935000  0.99699000  1.0
  C  C57  1  0.87832000  0.95171000  0.89046000  1.0
  C  C58  1  0.12301000  0.06860000  0.09019000  1.0
  C  C59  1  0.97604000  0.95161000  0.89766000  1.0
  C  C60  1  0.02450000  0.06647000  0.08316000  1.0
  C  C61  1  0.89793000  0.39494000  0.41460000  1.0
  C  C62  1  0.09439000  0.58355000  0.60735000  1.0
  C  C63  1  0.86889000  0.44896000  0.46394000  1.0
  C  C64  1  0.12506000  0.52902000  0.56204000  1.0
  C  C65  1  0.96644000  0.54213000  0.55902000  1.0
  C  C66  1  0.02763000  0.43632000  0.46721000  1.0
  C  C67  1  0.89982000  0.39720000  0.98329000  1.0
  C  C68  1  0.92601000  0.50186000  0.01981000  1.0
  C  C69  1  0.96229000  0.38479000  0.94332000  1.0
  C  C70  1  0.85679000  0.51373000  0.05400000  1.0
  C  C71  1  0.88008000  0.61543000  0.08389000  1.0
  C  C72  1  0.09023000  0.58415000  0.98257000  1.0
  C  C73  1  0.06274000  0.48120000  0.94523000  1.0
  C  C74  1  0.02214000  0.59730000  0.01793000  1.0
  C  C75  1  0.04407000  0.70107000  0.04971000  1.0
  C  C76  1  0.97456000  0.70990000  0.08150000  1.0
  C  C77  1  0.91414000  0.02019000  0.41440000  1.0
  C  C78  1  0.09491000  0.01148000  0.60571000  1.0
  C  C79  1  0.04613000  0.09332000  0.46123000  1.0
  C  C80  1  0.96480000  0.94099000  0.56303000  1.0
  C  C81  1  0.13488000  0.08844000  0.55569000  1.0
  C  C82  1  0.87676000  0.94622000  0.46890000  1.0
  C  C83  1  0.14079000  0.48367000  0.90502000  1.0
  C  C84  1  0.92041000  0.26936000  0.89955000  1.0
  Br  Br85  1  0.65791000  0.67349000  0.24793000  1.0
  Br  Br86  1  0.45532000  0.77102000  0.38559000  1.0
  Br  Br87  1  0.72216000  0.87801000  0.74684000  1.0
  Br  Br88  1  0.70107000  0.40739000  0.40972000  1.0
  Br  Br89  1  0.11961000  0.20280000  0.40456000  1.0
  O  O90  1  0.49062000  0.25928000  0.91824000  1.0
  O  O91  1  0.50829000  0.92335000  0.26526000  1.0
  O  O92  1  0.49771000  0.73528000  0.07672000  1.0
  O  O93  1  0.50538000  0.07931000  0.73762000  1.0
  O  O94  1  0.84275000  0.26768000  0.07250000  1.0
  O  O95  1  0.15458000  0.92646000  0.73978000  1.0
  O  O96  1  0.15752000  0.73400000  0.91793000  1.0
  O  O97  1  0.84239000  0.08441000  0.26342000  1.0
  O  O98  1  0.68370000  0.25653000  0.26556000  1.0
  O  O99  1  0.68397000  0.92617000  0.91663000  1.0
  O  O100  1  0.31218000  0.72833000  0.74181000  1.0
  O  O101  1  0.31531000  0.07975000  0.08101000  1.0
  O  O102  1  0.83910000  0.08283000  0.06650000  1.0
  O  O103  1  0.15919000  0.73330000  0.73877000  1.0
  O  O104  1  0.16182000  0.92887000  0.92437000  1.0
  O  O105  1  0.84264000  0.26592000  0.26776000  1.0
  O  O106  1  0.68496000  0.25949000  0.91390000  1.0
  O  O107  1  0.69506000  0.93253000  0.27036000  1.0
  O  O108  1  0.30928000  0.72958000  0.06999000  1.0
  O  O109  1  0.31002000  0.07786000  0.73915000  1.0
  O  O110  1  0.49565000  0.92047000  0.73409000  1.0
  O  O111  1  0.49493000  0.26066000  0.07448000  1.0
  O  O112  1  0.50608000  0.07554000  0.27028000  1.0
  O  O113  1  0.49808000  0.73199000  0.92345000  1.0
  O  O114  1  0.36249000  0.93123000  0.79730000  1.0
  O  O115  1  0.63634000  0.93334000  0.06687000  1.0
  O  O116  1  0.36634000  0.93181000  0.06860000  1.0
  O  O117  1  0.63453000  0.20234000  0.06592000  1.0
  O  O118  1  0.60018000  0.04963000  0.14810000  1.0
  O  O119  1  0.39991000  0.04936000  0.95120000  1.0
  O  O120  1  0.40118000  0.85152000  0.95085000  1.0
  O  O121  1  0.59757000  0.04895000  0.94860000  1.0
  O  O122  1  0.16470000  0.40725000  0.91019000  1.0
  O  O123  1  0.18568000  0.55914000  0.87196000  1.0
  O  O124  1  0.79440000  0.18832000  0.83702000  1.0
  O  O125  1  0.99396000  0.24349000  0.91769000  1.0
