# generated using pymatgen
data_ZnH10C12(NO3)2
_symmetry_space_group_name_H-M   'P 1'
_cell_length_a   8.46241000
_cell_length_b   11.78526557
_cell_length_c   11.78580000
_cell_angle_alpha   60.00150000
_cell_angle_beta   89.97530000
_cell_angle_gamma   90.00020001
_symmetry_Int_Tables_number   1
_chemical_formula_structural   ZnH10C12(NO3)2
_chemical_formula_sum   'Zn3 H30 C36 N6 O18'
_cell_volume   1017.95749627
_cell_formula_units_Z   3
loop_
 _symmetry_equiv_pos_site_id
 _symmetry_equiv_pos_as_xyz
  1  'x, y, z'
loop_
 _atom_site_type_symbol
 _atom_site_label
 _atom_site_symmetry_multiplicity
 _atom_site_fract_x
 _atom_site_fract_y
 _atom_site_fract_z
 _atom_site_occupancy
  Zn  Zn0  1  0.00000000  0.28433000  1.00000000  1.0
  Zn  Zn1  1  0.66649000  0.00007000  0.71561000  1.0
  Zn  Zn2  1  0.33351000  0.71568000  0.28439000  1.0
  H  H3  1  0.77428000  0.13992000  0.01105000  1.0
  H  H4  1  0.44073000  0.01110000  0.84905000  1.0
  H  H5  1  0.10764000  0.84877000  0.13997000  1.0
  H  H6  1  0.22572000  0.15097000  0.98896000  1.0
  H  H7  1  0.55927000  0.86014000  0.15096000  1.0
  H  H8  1  0.89236000  0.98874000  0.86003000  1.0
  H  H9  1  0.89694000  0.03835000  0.12906000  1.0
  H  H10  1  0.56347000  0.12916000  0.83253000  1.0
  H  H11  1  0.23035000  0.83219000  0.03845000  1.0
  H  H12  1  0.10306000  0.16741000  0.87094000  1.0
  H  H13  1  0.43652000  0.96169000  0.16747000  1.0
  H  H14  1  0.76965000  0.87064000  0.96155000  1.0
  H  H15  1  0.50480000  0.42219000  0.18044000  1.0
  H  H16  1  0.17147000  0.18032000  0.39748000  1.0
  H  H17  1  0.83834000  0.39739000  0.42253000  1.0
  H  H18  1  0.49521000  0.60263000  0.81956000  1.0
  H  H19  1  0.82854000  0.57781000  0.60250000  1.0
  H  H20  1  0.16166000  0.81993000  0.57747000  1.0
  H  H21  1  0.66750000  0.27065000  0.13175000  1.0
  H  H22  1  0.33408000  0.13144000  0.59772000  1.0
  H  H23  1  0.00094000  0.59767000  0.27108000  1.0
  H  H24  1  0.33250000  0.40239000  0.86826000  1.0
  H  H25  1  0.66593000  0.72915000  0.40228000  1.0
  H  H26  1  0.99906000  0.86877000  0.72891000  1.0
  H  H27  1  0.89074000  0.69473000  0.03255000  1.0
  H  H28  1  0.55748000  0.03288000  0.27242000  1.0
  H  H29  1  0.22429000  0.27236000  0.69482000  1.0
  H  H30  1  0.10926000  0.72728000  0.96745000  1.0
  H  H31  1  0.44253000  0.30530000  0.72757000  1.0
  H  H32  1  0.77571000  0.96717000  0.30518000  1.0
  C  C33  1  0.62298000  0.44907000  0.13871000  1.0
  C  C34  1  0.28966000  0.13862000  0.41229000  1.0
  C  C35  1  0.95652000  0.41221000  0.44938000  1.0
  C  C36  1  0.37701000  0.58778000  0.86129000  1.0
  C  C37  1  0.71034000  0.55091000  0.58771000  1.0
  C  C38  1  0.04348000  0.86160000  0.55062000  1.0
  C  C39  1  0.71195000  0.36575000  0.11179000  1.0
  C  C40  1  0.37863000  0.11164000  0.52249000  1.0
  C  C41  1  0.04547000  0.52250000  0.36610000  1.0
  C  C42  1  0.28805000  0.47754000  0.88820000  1.0
  C  C43  1  0.62138000  0.63413000  0.47750000  1.0
  C  C44  1  0.95453000  0.88861000  0.63389000  1.0
  C  C45  1  0.68823000  0.56967000  0.11008000  1.0
  C  C46  1  0.35489000  0.11013000  0.32020000  1.0
  C  C47  1  0.02175000  0.32012000  0.56985000  1.0
  C  C48  1  0.31177000  0.67976000  0.88991000  1.0
  C  C49  1  0.64512000  0.43033000  0.67980000  1.0
  C  C50  1  0.97824000  0.88997000  0.43015000  1.0
  C  C51  1  0.59910000  0.66483000  0.13726000  1.0
  C  C52  1  0.26566000  0.13730000  0.19793000  1.0
  C  C53  1  0.93235000  0.19789000  0.66500000  1.0
  C  C54  1  0.40090000  0.80209000  0.86274000  1.0
  C  C55  1  0.73434000  0.33524000  0.80206000  1.0
  C  C56  1  0.06765000  0.86289000  0.33500000  1.0
  C  C57  1  0.83910000  0.60124000  0.05585000  1.0
  C  C58  1  0.50580000  0.05608000  0.34269000  1.0
  C  C59  1  0.17264000  0.34266000  0.60140000  1.0
  C  C60  1  0.16090000  0.65709000  0.94415000  1.0
  C  C61  1  0.49421000  0.39877000  0.65730000  1.0
  C  C62  1  0.82735000  0.94406000  0.39860000  1.0
  C  C63  1  0.92048000  0.51341000  0.03028000  1.0
  C  C64  1  0.58711000  0.03039000  0.45613000  1.0
  C  C65  1  0.25398000  0.45616000  0.51364000  1.0
  C  C66  1  0.07953000  0.54368000  0.96973000  1.0
  C  C67  1  0.41289000  0.48651000  0.54388000  1.0
  C  C68  1  0.74602000  0.96980000  0.48636000  1.0
  N  N69  1  0.85702000  0.39712000  0.05907000  1.0
  N  N70  1  0.52364000  0.05902000  0.54374000  1.0
  N  N71  1  0.19047000  0.54382000  0.39746000  1.0
  N  N72  1  0.14298000  0.45618000  0.94094000  1.0
  N  N73  1  0.47636000  0.60276000  0.45625000  1.0
  N  N74  1  0.80953000  0.94129000  0.60254000  1.0
  O  O75  1  0.84262000  0.12486000  0.08713000  1.0
  O  O76  1  0.50907000  0.08723000  0.78797000  1.0
  O  O77  1  0.17606000  0.78767000  0.12503000  1.0
  O  O78  1  0.15738000  0.21199000  0.91288000  1.0
  O  O79  1  0.49092000  0.87520000  0.21203000  1.0
  O  O80  1  0.82394000  0.91270000  0.87497000  1.0
  O  O81  1  0.46837000  0.62474000  0.19654000  1.0
  O  O82  1  0.13497000  0.19655000  0.17884000  1.0
  O  O83  1  0.80159000  0.17887000  0.62488000  1.0
  O  O84  1  0.53163000  0.82129000  0.80345000  1.0
  O  O85  1  0.86503000  0.37540000  0.82117000  1.0
  O  O86  1  0.19840000  0.80374000  0.37512000  1.0
  O  O87  1  0.66252000  0.77623000  0.10031000  1.0
  O  O88  1  0.32897000  0.10032000  0.12346000  1.0
  O  O89  1  0.99561000  0.12333000  0.77641000  1.0
  O  O90  1  0.33748000  0.87654000  0.89969000  1.0
  O  O91  1  0.67103000  0.22378000  0.87654000  1.0
  O  O92  1  0.00439000  0.89973000  0.22360000  1.0
