# generated using pymatgen
data_ZnH26C38(NO4)2
_symmetry_space_group_name_H-M   'P 1'
_cell_length_a   13.80630000
_cell_length_b   13.80630000
_cell_length_c   19.03720000
_cell_angle_alpha   78.12820000
_cell_angle_beta   78.12830000
_cell_angle_gamma   86.55580000
_symmetry_Int_Tables_number   1
_chemical_formula_structural   ZnH26C38(NO4)2
_chemical_formula_sum   'Zn4 H104 C152 N8 O32'
_cell_volume   3474.58394756
_cell_formula_units_Z   4
loop_
 _symmetry_equiv_pos_site_id
 _symmetry_equiv_pos_as_xyz
  1  'x, y, z'
loop_
 _atom_site_type_symbol
 _atom_site_label
 _atom_site_symmetry_multiplicity
 _atom_site_fract_x
 _atom_site_fract_y
 _atom_site_fract_z
 _atom_site_occupancy
  Zn  Zn0  1  0.89252000  0.59116000  0.78200000  1.0
  Zn  Zn1  1  0.40884000  0.10748000  0.71800000  1.0
  Zn  Zn2  1  0.10748000  0.40884000  0.21800000  1.0
  Zn  Zn3  1  0.59116000  0.89252000  0.28200000  1.0
  H  H4  1  0.89200000  0.28748000  0.78879000  1.0
  H  H5  1  0.71252000  0.10801000  0.71121000  1.0
  H  H6  1  0.10800000  0.71252000  0.21121000  1.0
  H  H7  1  0.28748000  0.89199000  0.28879000  1.0
  H  H8  1  0.88206000  0.10300000  0.81672000  1.0
  H  H9  1  0.89700000  0.11794000  0.68328000  1.0
  H  H10  1  0.11793000  0.89700000  0.18328000  1.0
  H  H11  1  0.10300000  0.88206000  0.31672000  1.0
  H  H12  1  0.67059000  0.30378000  0.98011000  1.0
  H  H13  1  0.69622000  0.32941000  0.51989000  1.0
  H  H14  1  0.32941000  0.69622000  0.01989000  1.0
  H  H15  1  0.30378000  0.67059000  0.48011000  1.0
  H  H16  1  0.66121000  0.11817000  0.01062000  1.0
  H  H17  1  0.88183000  0.33879000  0.48938000  1.0
  H  H18  1  0.33879000  0.88183000  0.98939000  1.0
  H  H19  1  0.11817000  0.66121000  0.51062000  1.0
  H  H20  1  0.71253000  0.96323000  0.98381000  1.0
  H  H21  1  0.03677000  0.28747000  0.51619000  1.0
  H  H22  1  0.28747000  0.03677000  0.01619000  1.0
  H  H23  1  0.96323000  0.71253000  0.48381000  1.0
  H  H24  1  0.83736000  0.95298000  0.93748000  1.0
  H  H25  1  0.04702000  0.16264000  0.56252000  1.0
  H  H26  1  0.16264000  0.04702000  0.06252000  1.0
  H  H27  1  0.95298000  0.83736000  0.43748000  1.0
  H  H28  1  0.86552000  0.87867000  0.84428000  1.0
  H  H29  1  0.12133000  0.13448000  0.65573000  1.0
  H  H30  1  0.13448000  0.12133000  0.15572000  1.0
  H  H31  1  0.87867000  0.86552000  0.34428000  1.0
  H  H32  1  0.81090000  0.81479000  0.74636000  1.0
  H  H33  1  0.18521000  0.18910000  0.75364000  1.0
  H  H34  1  0.18910000  0.18521000  0.25364000  1.0
  H  H35  1  0.81479000  0.81090000  0.24636000  1.0
  H  H36  1  0.59156000  0.01913000  0.89968000  1.0
  H  H37  1  0.98087000  0.40844000  0.60032000  1.0
  H  H38  1  0.40844000  0.98087000  0.10032000  1.0
  H  H39  1  0.01913000  0.59156000  0.39968000  1.0
  H  H40  1  0.52621000  0.96152000  0.80405000  1.0
  H  H41  1  0.03848000  0.47379000  0.69595000  1.0
  H  H42  1  0.47379000  0.03848000  0.19594000  1.0
  H  H43  1  0.96152000  0.52621000  0.30405000  1.0
  H  H44  1  0.65552000  0.69179000  0.74980000  1.0
  H  H45  1  0.30821000  0.34448000  0.75020000  1.0
  H  H46  1  0.34448000  0.30821000  0.25020000  1.0
  H  H47  1  0.69179000  0.65552000  0.24980000  1.0
  H  H48  1  0.56771000  0.63670000  0.66224000  1.0
  H  H49  1  0.36330000  0.43229000  0.83776000  1.0
  H  H50  1  0.43229000  0.36330000  0.33776000  1.0
  H  H51  1  0.63670000  0.56771000  0.16224000  1.0
  H  H52  1  0.58530000  0.99437000  0.65449000  1.0
  H  H53  1  0.00563000  0.41470000  0.84551000  1.0
  H  H54  1  0.41470000  0.00563000  0.34551000  1.0
  H  H55  1  0.99437000  0.58530000  0.15449000  1.0
  H  H56  1  0.50983000  0.92767000  0.56587000  1.0
  H  H57  1  0.07234000  0.49017000  0.93413000  1.0
  H  H58  1  0.49016000  0.07233000  0.43413000  1.0
  H  H59  1  0.92766000  0.50983000  0.06587000  1.0
  H  H60  1  0.50923000  0.67365000  0.55525000  1.0
  H  H61  1  0.32635000  0.49077000  0.94474000  1.0
  H  H62  1  0.49077000  0.32635000  0.44475000  1.0
  H  H63  1  0.67365000  0.50922000  0.05525000  1.0
  H  H64  1  0.48470000  0.79778000  0.51484000  1.0
  H  H65  1  0.20222000  0.51530000  0.98516000  1.0
  H  H66  1  0.51530000  0.20222000  0.48516000  1.0
  H  H67  1  0.79778000  0.48470000  0.01484000  1.0
  H  H68  1  0.37443000  0.57282000  0.62316000  1.0
  H  H69  1  0.42718000  0.62557000  0.87684000  1.0
  H  H70  1  0.62556000  0.42718000  0.37684000  1.0
  H  H71  1  0.57282000  0.37444000  0.12316000  1.0
  H  H72  1  0.19803000  0.55554000  0.68867000  1.0
  H  H73  1  0.44446000  0.80197000  0.81133000  1.0
  H  H74  1  0.80197000  0.44446000  0.31133000  1.0
  H  H75  1  0.55554000  0.19803000  0.18867000  1.0
  H  H76  1  0.34198000  0.88985000  0.59822000  1.0
  H  H77  1  0.11016000  0.65802000  0.90178000  1.0
  H  H78  1  0.65802000  0.11015000  0.40178000  1.0
  H  H79  1  0.88985000  0.34198000  0.09822000  1.0
  H  H80  1  0.16525000  0.87060000  0.66282000  1.0
  H  H81  1  0.12940000  0.83475000  0.83718000  1.0
  H  H82  1  0.83475000  0.12940000  0.33718000  1.0
  H  H83  1  0.87060000  0.16525000  0.16282000  1.0
  H  H84  1  0.75628000  0.55859000  0.54541000  1.0
  H  H85  1  0.44141000  0.24372000  0.95459000  1.0
  H  H86  1  0.24372000  0.44141000  0.45459000  1.0
  H  H87  1  0.55859000  0.75627000  0.04541000  1.0
  H  H88  1  0.91136000  0.79600000  0.63762000  1.0
  H  H89  1  0.20400000  0.08864000  0.86238000  1.0
  H  H90  1  0.08864000  0.20400000  0.36238000  1.0
  H  H91  1  0.79600000  0.91136000  0.13762000  1.0
  H  H92  1  0.93009000  0.97524000  0.60445000  1.0
  H  H93  1  0.02477000  0.06992000  0.89554000  1.0
  H  H94  1  0.06991000  0.02476000  0.39555000  1.0
  H  H95  1  0.97523000  0.93008000  0.10446000  1.0
  H  H96  1  0.84104000  0.07779000  0.51169000  1.0
  H  H97  1  0.92221000  0.15896000  0.98830000  1.0
  H  H98  1  0.15896000  0.92221000  0.48831000  1.0
  H  H99  1  0.07779000  0.84104000  0.01170000  1.0
  H  H100  1  0.73511000  0.99632000  0.45191000  1.0
  H  H101  1  0.00368000  0.26489000  0.04809000  1.0
  H  H102  1  0.26489000  0.00368000  0.54809000  1.0
  H  H103  1  0.99632000  0.73511000  0.95191000  1.0
  H  H104  1  0.66964000  0.66128000  0.45055000  1.0
  H  H105  1  0.33872000  0.33037000  0.04945000  1.0
  H  H106  1  0.33036000  0.33872000  0.54945000  1.0
  H  H107  1  0.66128000  0.66964000  0.95055000  1.0
  C  C108  1  0.78909000  0.41738000  0.86607000  1.0
  C  C109  1  0.58262000  0.21091000  0.63393000  1.0
  C  C110  1  0.21091000  0.58262000  0.13393000  1.0
  C  C111  1  0.41738000  0.78909000  0.36607000  1.0
  C  C112  1  0.78212000  0.30607000  0.88300000  1.0
  C  C113  1  0.69393000  0.21788000  0.61700000  1.0
  C  C114  1  0.21788000  0.69393000  0.11700000  1.0
  C  C115  1  0.30607000  0.78212000  0.38300000  1.0
  C  C116  1  0.84156000  0.24936000  0.83691000  1.0
  C  C117  1  0.75065000  0.15845000  0.66309000  1.0
  C  C118  1  0.15844000  0.75065000  0.16309000  1.0
  C  C119  1  0.24935000  0.84155000  0.33691000  1.0
  C  C120  1  0.83557000  0.14688000  0.85278000  1.0
  C  C121  1  0.85312000  0.16443000  0.64722000  1.0
  C  C122  1  0.16443000  0.85312000  0.14722000  1.0
  C  C123  1  0.14688000  0.83557000  0.35278000  1.0
  C  C124  1  0.71650000  0.25864000  0.94502000  1.0
  C  C125  1  0.74136000  0.28350000  0.55498000  1.0
  C  C126  1  0.28350000  0.74136000  0.05498000  1.0
  C  C127  1  0.25864000  0.71650000  0.44502000  1.0
  C  C128  1  0.71112000  0.15565000  0.96157000  1.0
  C  C129  1  0.84436000  0.28888000  0.53843000  1.0
  C  C130  1  0.28888000  0.84435000  0.03843000  1.0
  C  C131  1  0.15565000  0.71112000  0.46157000  1.0
  C  C132  1  0.77076000  0.09944000  0.91536000  1.0
  C  C133  1  0.90056000  0.22924000  0.58464000  1.0
  C  C134  1  0.22923000  0.90056000  0.08464000  1.0
  C  C135  1  0.09944000  0.77076000  0.41536000  1.0
  C  C136  1  0.76521000  0.98861000  0.93260000  1.0
  C  C137  1  0.01139000  0.23479000  0.56740000  1.0
  C  C138  1  0.23478000  0.01139000  0.06740000  1.0
  C  C139  1  0.98861000  0.76522000  0.43260000  1.0
  C  C140  1  0.79185000  0.89542000  0.83251000  1.0
  C  C141  1  0.10458000  0.20815000  0.66749000  1.0
  C  C142  1  0.20815000  0.10458000  0.16749000  1.0
  C  C143  1  0.89542000  0.79185000  0.33251000  1.0
  C  C144  1  0.76010000  0.86032000  0.77815000  1.0
  C  C145  1  0.13968000  0.23990000  0.72185000  1.0
  C  C146  1  0.23990000  0.13968000  0.22185000  1.0
  C  C147  1  0.86032000  0.76010000  0.27815000  1.0
  C  C148  1  0.63719000  0.97428000  0.86426000  1.0
  C  C149  1  0.02572000  0.36281000  0.63574000  1.0
  C  C150  1  0.36281000  0.02572000  0.13574000  1.0
  C  C151  1  0.97429000  0.63719000  0.36425000  1.0
  C  C152  1  0.60220000  0.94228000  0.81027000  1.0
  C  C153  1  0.05772000  0.39780000  0.68973000  1.0
  C  C154  1  0.39780000  0.05772000  0.18973000  1.0
  C  C155  1  0.94228000  0.60221000  0.31027000  1.0
  C  C156  1  0.66407000  0.88407000  0.76629000  1.0
  C  C157  1  0.11593000  0.33593000  0.73371000  1.0
  C  C158  1  0.33593000  0.11593000  0.23371000  1.0
  C  C159  1  0.88407000  0.66407000  0.26629000  1.0
  C  C160  1  0.62456000  0.84782000  0.71015000  1.0
  C  C161  1  0.15218000  0.37544000  0.78986000  1.0
  C  C162  1  0.37544000  0.15218000  0.28985000  1.0
  C  C163  1  0.84781000  0.62456000  0.21014000  1.0
  C  C164  1  0.62178000  0.74605000  0.71148000  1.0
  C  C165  1  0.25395000  0.37822000  0.78852000  1.0
  C  C166  1  0.37822000  0.25395000  0.28852000  1.0
  C  C167  1  0.74605000  0.62178000  0.21148000  1.0
  C  C168  1  0.57503000  0.71443000  0.66293000  1.0
  C  C169  1  0.28557000  0.42497000  0.83707000  1.0
  C  C170  1  0.42497000  0.28557000  0.33707000  1.0
  C  C171  1  0.71443000  0.57503000  0.16293000  1.0
  C  C172  1  0.58430000  0.91463000  0.65733000  1.0
  C  C173  1  0.08537000  0.41570000  0.84267000  1.0
  C  C174  1  0.41570000  0.08537000  0.34267000  1.0
  C  C175  1  0.91463000  0.58430000  0.15733000  1.0
  C  C176  1  0.54094000  0.87911000  0.60859000  1.0
  C  C177  1  0.12089000  0.45906000  0.89141000  1.0
  C  C178  1  0.45906000  0.12089000  0.39141000  1.0
  C  C179  1  0.87911000  0.54094000  0.10859000  1.0
  C  C180  1  0.47597000  0.74415000  0.56683000  1.0
  C  C181  1  0.25585000  0.52403000  0.93317000  1.0
  C  C182  1  0.52403000  0.25585000  0.43317000  1.0
  C  C183  1  0.74415000  0.47597000  0.06683000  1.0
  C  C184  1  0.36930000  0.73262000  0.60573000  1.0
  C  C185  1  0.26738000  0.63070000  0.89427000  1.0
  C  C186  1  0.63070000  0.26738000  0.39427000  1.0
  C  C187  1  0.73262000  0.36930000  0.10573000  1.0
  C  C188  1  0.32880000  0.63842000  0.63188000  1.0
  C  C189  1  0.36158000  0.67120000  0.86812000  1.0
  C  C190  1  0.67120000  0.36158000  0.36812000  1.0
  C  C191  1  0.63842000  0.32880000  0.13188000  1.0
  C  C192  1  0.23030000  0.62840000  0.66823000  1.0
  C  C193  1  0.37160000  0.76970000  0.83177000  1.0
  C  C194  1  0.76970000  0.37160000  0.33177000  1.0
  C  C195  1  0.62840000  0.23030000  0.16823000  1.0
  C  C196  1  0.31017000  0.81630000  0.61715000  1.0
  C  C197  1  0.18370000  0.68983000  0.88285000  1.0
  C  C198  1  0.68983000  0.18370000  0.38285000  1.0
  C  C199  1  0.81630000  0.31017000  0.11715000  1.0
  C  C200  1  0.21180000  0.80608000  0.65335000  1.0
  C  C201  1  0.19392000  0.78820000  0.84665000  1.0
  C  C202  1  0.78820000  0.19391000  0.34665000  1.0
  C  C203  1  0.80608000  0.21180000  0.15335000  1.0
  C  C204  1  0.17087000  0.71185000  0.67921000  1.0
  C  C205  1  0.28815000  0.82913000  0.82079000  1.0
  C  C206  1  0.82914000  0.28815000  0.32079000  1.0
  C  C207  1  0.71185000  0.17087000  0.17921000  1.0
  C  C208  1  0.06392000  0.70128000  0.71774000  1.0
  C  C209  1  0.29872000  0.93608000  0.78226000  1.0
  C  C210  1  0.93608000  0.29872000  0.28226000  1.0
  C  C211  1  0.70128000  0.06392000  0.21774000  1.0
  C  C212  1  0.85637000  0.62237000  0.63442000  1.0
  C  C213  1  0.37763000  0.14363000  0.86558000  1.0
  C  C214  1  0.14363000  0.37763000  0.36558000  1.0
  C  C215  1  0.62236000  0.85637000  0.13443000  1.0
  C  C216  1  0.80545000  0.68440000  0.57734000  1.0
  C  C217  1  0.31560000  0.19455000  0.92266000  1.0
  C  C218  1  0.19455000  0.31560000  0.42266000  1.0
  C  C219  1  0.68440000  0.80545000  0.07734000  1.0
  C  C220  1  0.75683000  0.63935000  0.53608000  1.0
  C  C221  1  0.36065000  0.24317000  0.96392000  1.0
  C  C222  1  0.24317000  0.36065000  0.46391000  1.0
  C  C223  1  0.63935000  0.75683000  0.03608000  1.0
  C  C224  1  0.81120000  0.78985000  0.56361000  1.0
  C  C225  1  0.21015000  0.18880000  0.93639000  1.0
  C  C226  1  0.18880000  0.21015000  0.43639000  1.0
  C  C227  1  0.78985000  0.81120000  0.06361000  1.0
  C  C228  1  0.87122000  0.83872000  0.59745000  1.0
  C  C229  1  0.16128000  0.12877000  0.90254000  1.0
  C  C230  1  0.12877000  0.16128000  0.40255000  1.0
  C  C231  1  0.83872000  0.87122000  0.09746000  1.0
  C  C232  1  0.88202000  0.94002000  0.57867000  1.0
  C  C233  1  0.05999000  0.11798000  0.92132000  1.0
  C  C234  1  0.11798000  0.05999000  0.42132000  1.0
  C  C235  1  0.94001000  0.88202000  0.07868000  1.0
  C  C236  1  0.83236000  0.99771000  0.52607000  1.0
  C  C237  1  0.00229000  0.16764000  0.97392000  1.0
  C  C238  1  0.16764000  0.00229000  0.47392000  1.0
  C  C239  1  0.99771000  0.83236000  0.02608000  1.0
  C  C240  1  0.77332000  0.95246000  0.49252000  1.0
  C  C241  1  0.04754000  0.22667000  0.00747000  1.0
  C  C242  1  0.22668000  0.04754000  0.50748000  1.0
  C  C243  1  0.95246000  0.77333000  0.99253000  1.0
  C  C244  1  0.76176000  0.84807000  0.50935000  1.0
  C  C245  1  0.15193000  0.23824000  0.99065000  1.0
  C  C246  1  0.23824000  0.15193000  0.49065000  1.0
  C  C247  1  0.84807000  0.76176000  0.00935000  1.0
  C  C248  1  0.70852000  0.69662000  0.48276000  1.0
  C  C249  1  0.30338000  0.29148000  0.01724000  1.0
  C  C250  1  0.29148000  0.30338000  0.51723000  1.0
  C  C251  1  0.69662000  0.70852000  0.98276000  1.0
  C  C252  1  0.70813000  0.79914000  0.47064000  1.0
  C  C253  1  0.20086000  0.29187000  0.02936000  1.0
  C  C254  1  0.29187000  0.20086000  0.52936000  1.0
  C  C255  1  0.79914000  0.70813000  0.97064000  1.0
  C  C256  1  0.65174000  0.85707000  0.41559000  1.0
  C  C257  1  0.14292000  0.34826000  0.08441000  1.0
  C  C258  1  0.34826000  0.14292000  0.58441000  1.0
  C  C259  1  0.85708000  0.65174000  0.91559000  1.0
  N  N260  1  0.73087000  0.95092000  0.87431000  1.0
  N  N261  1  0.04909000  0.26913000  0.62569000  1.0
  N  N262  1  0.26912000  0.04909000  0.12569000  1.0
  N  N263  1  0.95092000  0.73088000  0.37431000  1.0
  N  N264  1  0.53490000  0.78045000  0.61314000  1.0
  N  N265  1  0.21956000  0.46509000  0.88686000  1.0
  N  N266  1  0.46510000  0.21956000  0.38686000  1.0
  N  N267  1  0.78044000  0.53490000  0.11314000  1.0
  O  O268  1  0.72412000  0.46880000  0.89773000  1.0
  O  O269  1  0.53120000  0.27588000  0.60227000  1.0
  O  O270  1  0.27588000  0.53120000  0.10227000  1.0
  O  O271  1  0.46880000  0.72412000  0.39773000  1.0
  O  O272  1  0.86755000  0.44929000  0.81740000  1.0
  O  O273  1  0.55071000  0.13245000  0.68260000  1.0
  O  O274  1  0.13245000  0.55071000  0.18260000  1.0
  O  O275  1  0.44929000  0.86755000  0.31740000  1.0
  O  O276  1  0.00988000  0.77660000  0.72224000  1.0
  O  O277  1  0.22340000  0.99012000  0.77776000  1.0
  O  O278  1  0.99012000  0.22340000  0.27776000  1.0
  O  O279  1  0.77660000  0.00988000  0.22224000  1.0
  O  O280  1  0.03591000  0.61026000  0.74339000  1.0
  O  O281  1  0.38974000  0.96409000  0.75661000  1.0
  O  O282  1  0.96409000  0.38973000  0.25661000  1.0
  O  O283  1  0.61026000  0.03591000  0.24339000  1.0
  O  O284  1  0.82251000  0.63809000  0.69973000  1.0
  O  O285  1  0.36191000  0.17749000  0.80027000  1.0
  O  O286  1  0.17749000  0.36191000  0.30027000  1.0
  O  O287  1  0.63810000  0.82251000  0.19973000  1.0
  O  O288  1  0.92480000  0.56412000  0.61523000  1.0
  O  O289  1  0.43588000  0.07520000  0.88477000  1.0
  O  O290  1  0.07520000  0.43588000  0.38477000  1.0
  O  O291  1  0.56412000  0.92479000  0.11524000  1.0
  O  O292  1  0.67274000  0.83100000  0.35298000  1.0
  O  O293  1  0.16900000  0.32726000  0.14702000  1.0
  O  O294  1  0.32726000  0.16900000  0.64702000  1.0
  O  O295  1  0.83100000  0.67274000  0.85298000  1.0
  O  O296  1  0.58990000  0.92288000  0.43297000  1.0
  O  O297  1  0.07712000  0.41010000  0.06703000  1.0
  O  O298  1  0.41010000  0.07712000  0.56703000  1.0
  O  O299  1  0.92288000  0.58990000  0.93297000  1.0
