# generated using pymatgen
data_BaH5C7NO5
_symmetry_space_group_name_H-M   'P 1'
_cell_length_a   6.74422000
_cell_length_b   7.01946269
_cell_length_c   10.26800000
_cell_angle_alpha   97.30700553
_cell_angle_beta   93.57210000
_cell_angle_gamma   117.87498581
_symmetry_Int_Tables_number   1
_chemical_formula_structural   BaH5C7NO5
_chemical_formula_sum   'Ba2 H10 C14 N2 O10'
_cell_volume   422.07372921
_cell_formula_units_Z   2
loop_
 _symmetry_equiv_pos_site_id
 _symmetry_equiv_pos_as_xyz
  1  'x, y, z'
loop_
 _atom_site_type_symbol
 _atom_site_label
 _atom_site_symmetry_multiplicity
 _atom_site_fract_x
 _atom_site_fract_y
 _atom_site_fract_z
 _atom_site_occupancy
  Ba  Ba0  1  0.30638000  0.62923000  0.38457000  1.0
  Ba  Ba1  1  0.69362000  0.37077000  0.61543000  1.0
  H  H2  1  0.31944000  0.89707000  0.05189000  1.0
  H  H3  1  0.68055000  0.10293000  0.94812000  1.0
  H  H4  1  0.23687000  0.96081000  0.82363000  1.0
  H  H5  1  0.76311000  0.03918000  0.17638000  1.0
  H  H6  1  0.19803000  0.52405000  0.01206000  1.0
  H  H7  1  0.80198000  0.47595000  0.98794000  1.0
  H  H8  1  0.89061000  0.09188000  0.40127000  1.0
  H  H9  1  0.10941000  0.90814000  0.59874000  1.0
  H  H10  1  0.05801000  0.22238000  0.53351000  1.0
  H  H11  1  0.94196000  0.77763000  0.46646000  1.0
  C  C12  1  0.32413000  0.18841000  0.14848000  1.0
  C  C13  1  0.67587000  0.81159000  0.85151000  1.0
  C  C14  1  0.29711000  0.03690000  0.03759000  1.0
  C  C15  1  0.70288000  0.96309000  0.96241000  1.0
  C  C16  1  0.24798000  0.07117000  0.91189000  1.0
  C  C17  1  0.75200000  0.92882000  0.08812000  1.0
  C  C18  1  0.21541000  0.25117000  0.90064000  1.0
  C  C19  1  0.78459000  0.74882000  0.09936000  1.0
  C  C20  1  0.23059000  0.38668000  0.01777000  1.0
  C  C21  1  0.76941000  0.61332000  0.98222000  1.0
  C  C22  1  0.40109000  0.16632000  0.28517000  1.0
  C  C23  1  0.59891000  0.83369000  0.71483000  1.0
  C  C24  1  0.16119000  0.29765000  0.76757000  1.0
  C  C25  1  0.83882000  0.70235000  0.23242000  1.0
  N  N26  1  0.28784000  0.36000000  0.13868000  1.0
  N  N27  1  0.71217000  0.64001000  0.86131000  1.0
  O  O28  1  0.43487000  0.31559000  0.38184000  1.0
  O  O29  1  0.56514000  0.68442000  0.61816000  1.0
  O  O30  1  0.43056000  0.00294000  0.29441000  1.0
  O  O31  1  0.56944000  0.99706000  0.70559000  1.0
  O  O32  1  0.07962000  0.42627000  0.76421000  1.0
  O  O33  1  0.92038000  0.57373000  0.23579000  1.0
  O  O34  1  0.20159000  0.20081000  0.66552000  1.0
  O  O35  1  0.79842000  0.79920000  0.33448000  1.0
  O  O36  1  0.95997000  0.23570000  0.46071000  1.0
  O  O37  1  0.04005000  0.76427000  0.53931000  1.0
