# generated using pymatgen
data_CdH6C7(NO4)2
_symmetry_space_group_name_H-M   'P 1'
_cell_length_a   5.86060000
_cell_length_b   8.73015000
_cell_length_c   10.17390000
_cell_angle_alpha   88.65270000
_cell_angle_beta   82.20200000
_cell_angle_gamma   88.67590000
_symmetry_Int_Tables_number   1
_chemical_formula_structural   CdH6C7(NO4)2
_chemical_formula_sum   'Cd2 H12 C14 N4 O16'
_cell_volume   515.47612258
_cell_formula_units_Z   2
loop_
 _symmetry_equiv_pos_site_id
 _symmetry_equiv_pos_as_xyz
  1  'x, y, z'
loop_
 _atom_site_type_symbol
 _atom_site_label
 _atom_site_symmetry_multiplicity
 _atom_site_fract_x
 _atom_site_fract_y
 _atom_site_fract_z
 _atom_site_occupancy
  Cd  Cd0  1  0.73340000  0.63053000  0.55334000  1.0
  Cd  Cd1  1  0.26658000  0.36947000  0.44666000  1.0
  H  H2  1  0.14127000  0.59415000  0.00948000  1.0
  H  H3  1  0.85873000  0.40585000  0.99053000  1.0
  H  H4  1  0.34734000  0.77746000  0.13612000  1.0
  H  H5  1  0.65268000  0.22255000  0.86388000  1.0
  H  H6  1  0.71368000  0.89322000  0.02623000  1.0
  H  H7  1  0.28634000  0.10678000  0.97376000  1.0
  H  H8  1  0.11085000  0.01349000  0.75185000  1.0
  H  H9  1  0.88916000  0.98651000  0.24815000  1.0
  H  H10  1  0.95832000  0.38260000  0.68071000  1.0
  H  H11  1  0.04167000  0.61740000  0.31930000  1.0
  H  H12  1  0.79895000  0.29686000  0.58027000  1.0
  H  H13  1  0.20104000  0.70314000  0.41974000  1.0
  C  C14  1  0.27458000  0.50956000  0.74839000  1.0
  C  C15  1  0.72542000  0.49044000  0.25162000  1.0
  C  C16  1  0.39357000  0.61338000  0.83388000  1.0
  C  C17  1  0.60643000  0.38662000  0.16612000  1.0
  C  C18  1  0.30101000  0.64606000  0.96441000  1.0
  C  C19  1  0.69899000  0.35395000  0.03559000  1.0
  C  C20  1  0.41660000  0.74693000  0.03513000  1.0
  C  C21  1  0.58342000  0.25307000  0.96487000  1.0
  C  C22  1  0.62052000  0.81231000  0.97471000  1.0
  C  C23  1  0.37949000  0.18769000  0.02528000  1.0
  C  C24  1  0.70056000  0.77392000  0.84386000  1.0
  C  C25  1  0.29945000  0.22607000  0.15613000  1.0
  C  C26  1  0.90676000  0.84404000  0.76343000  1.0
  C  C27  1  0.09324000  0.15595000  0.23657000  1.0
  N  N28  1  0.58950000  0.67627000  0.77649000  1.0
  N  N29  1  0.41050000  0.32373000  0.22351000  1.0
  N  N30  1  0.55683000  0.87758000  0.36975000  1.0
  N  N31  1  0.44316000  0.12242000  0.63026000  1.0
  O  O32  1  0.37265000  0.49398000  0.62913000  1.0
  O  O33  1  0.62734000  0.50602000  0.37088000  1.0
  O  O34  1  0.08976000  0.44829000  0.79937000  1.0
  O  O35  1  0.91023000  0.55171000  0.20064000  1.0
  O  O36  1  0.97692000  0.80170000  0.64943000  1.0
  O  O37  1  0.02306000  0.19831000  0.35055000  1.0
  O  O38  1  0.00125000  0.95426000  0.82251000  1.0
  O  O39  1  0.99876000  0.04573000  0.17748000  1.0
  O  O40  1  0.90226000  0.38285000  0.59082000  1.0
  O  O41  1  0.09773000  0.61715000  0.40919000  1.0
  O  O42  1  0.77614000  0.87846000  0.36190000  1.0
  O  O43  1  0.22386000  0.12155000  0.63811000  1.0
  O  O44  1  0.44630000  0.80265000  0.46723000  1.0
  O  O45  1  0.55370000  0.19735000  0.53277000  1.0
  O  O46  1  0.45328000  0.94488000  0.28562000  1.0
  O  O47  1  0.54672000  0.05512000  0.71439000  1.0
