# generated using pymatgen
data_AlH9(C3O2)6
_symmetry_space_group_name_H-M   'P 1'
_cell_length_a   4.27435000
_cell_length_b   17.17650000
_cell_length_c   17.17650000
_cell_angle_alpha   60.00000000
_cell_angle_beta   89.99980000
_cell_angle_gamma   90.00010000
_symmetry_Int_Tables_number   1
_chemical_formula_structural   AlH9(C3O2)6
_chemical_formula_sum   'Al2 H18 C36 O24'
_cell_volume   1092.11924481
_cell_formula_units_Z   2
loop_
 _symmetry_equiv_pos_site_id
 _symmetry_equiv_pos_as_xyz
  1  'x, y, z'
loop_
 _atom_site_type_symbol
 _atom_site_label
 _atom_site_symmetry_multiplicity
 _atom_site_fract_x
 _atom_site_fract_y
 _atom_site_fract_z
 _atom_site_occupancy
  Al  Al0  1  0.98884000  0.00000000  0.50000000  1.0
  Al  Al1  1  0.01066000  0.66666000  0.16667000  1.0
  H  H2  1  0.29049000  0.41781000  0.47605000  1.0
  H  H3  1  0.70475000  0.41881000  0.47446000  1.0
  H  H4  1  0.71021000  0.24902000  0.56050000  1.0
  H  H5  1  0.29599000  0.24805000  0.55999000  1.0
  H  H6  1  0.29049000  0.97604000  0.10614000  1.0
  H  H7  1  0.70475000  0.97445000  0.10673000  1.0
  H  H8  1  0.71021000  0.06049000  0.19048000  1.0
  H  H9  1  0.29599000  0.05999000  0.19196000  1.0
  H  H10  1  0.29049000  0.60614000  0.91782000  1.0
  H  H11  1  0.70475000  0.60672000  0.91882000  1.0
  H  H12  1  0.71021000  0.69048000  0.74902000  1.0
  H  H13  1  0.29598000  0.69196000  0.74805000  1.0
  H  H14  1  0.89104000  0.20551000  0.23789000  1.0
  H  H15  1  0.10874000  0.46103000  0.11014000  1.0
  H  H16  1  0.89104000  0.73788000  0.55661000  1.0
  H  H17  1  0.10875000  0.61014000  0.42883000  1.0
  H  H18  1  0.89104000  0.05661000  0.70551000  1.0
  H  H19  1  0.10874000  0.92883000  0.96103000  1.0
  C  C20  1  0.49248000  0.92931000  0.63593000  1.0
  C  C21  1  0.49248000  0.13593000  0.43476000  1.0
  C  C22  1  0.49248000  0.93476000  0.42931000  1.0
  C  C23  1  0.50725000  0.53067000  0.23722000  1.0
  C  C24  1  0.50725000  0.73722000  0.23211000  1.0
  C  C25  1  0.50726000  0.73211000  0.03067000  1.0
  C  C26  1  0.49622000  0.43018000  0.28690000  1.0
  C  C27  1  0.50356000  0.23642000  0.38389000  1.0
  C  C28  1  0.49471000  0.38030000  0.38034000  1.0
  C  C29  1  0.49793000  0.28590000  0.28889000  1.0
  C  C30  1  0.50559000  0.28637000  0.42736000  1.0
  C  C31  1  0.50167000  0.38058000  0.24149000  1.0
  C  C32  1  0.49721000  0.38646000  0.46546000  1.0
  C  C33  1  0.50347000  0.28034000  0.51858000  1.0
  C  C34  1  0.49622000  0.78690000  0.28292000  1.0
  C  C35  1  0.50356000  0.88389000  0.37969000  1.0
  C  C36  1  0.49471000  0.88033000  0.23936000  1.0
  C  C37  1  0.49793000  0.78889000  0.42521000  1.0
  C  C38  1  0.50559000  0.92735000  0.28627000  1.0
  C  C39  1  0.50168000  0.74149000  0.37793000  1.0
  C  C40  1  0.49721000  0.96546000  0.14808000  1.0
  C  C41  1  0.50347000  0.01857000  0.20108000  1.0
  C  C42  1  0.49623000  0.78292000  0.93018000  1.0
  C  C43  1  0.50355000  0.87969000  0.73642000  1.0
  C  C44  1  0.49471000  0.73936000  0.88030000  1.0
  C  C45  1  0.49792000  0.92520000  0.78590000  1.0
  C  C46  1  0.50558000  0.78626000  0.78638000  1.0
  C  C47  1  0.50167000  0.87792000  0.88058000  1.0
  C  C48  1  0.49720000  0.64808000  0.88646000  1.0
  C  C49  1  0.50346000  0.70108000  0.78034000  1.0
  C  C50  1  0.45191000  0.23629000  0.23840000  1.0
  C  C51  1  0.54769000  0.43017000  0.14141000  1.0
  C  C52  1  0.45191000  0.73840000  0.52531000  1.0
  C  C53  1  0.54769000  0.64141000  0.42842000  1.0
  C  C54  1  0.45191000  0.02531000  0.73629000  1.0
  C  C55  1  0.54770000  0.92842000  0.93017000  1.0
  O  O56  1  0.72149000  0.98702000  0.41697000  1.0
  O  O57  1  0.72148000  0.91696000  0.59601000  1.0
  O  O58  1  0.72148000  0.09600000  0.48703000  1.0
  O  O59  1  0.25254000  0.92153000  0.47869000  1.0
  O  O60  1  0.25254000  0.09978000  0.42153000  1.0
  O  O61  1  0.25254000  0.97869000  0.59978000  1.0
  O  O62  1  0.74718000  0.74526000  0.06689000  1.0
  O  O63  1  0.74718000  0.56689000  0.18785000  1.0
  O  O64  1  0.74718000  0.68785000  0.24526000  1.0
  O  O65  1  0.27816000  0.67986000  0.07057000  1.0
  O  O66  1  0.27815000  0.74958000  0.17985000  1.0
  O  O67  1  0.27815000  0.57058000  0.24957000  1.0
  O  O68  1  0.67001000  0.18213000  0.23928000  1.0
  O  O69  1  0.20182000  0.24349000  0.19925000  1.0
  O  O70  1  0.32969000  0.48440000  0.08814000  1.0
  O  O71  1  0.79781000  0.42295000  0.10948000  1.0
  O  O72  1  0.67001000  0.73928000  0.57859000  1.0
  O  O73  1  0.20183000  0.69926000  0.55726000  1.0
  O  O74  1  0.32971000  0.58813000  0.42746000  1.0
  O  O75  1  0.79783000  0.60948000  0.46758000  1.0
  O  O76  1  0.67001000  0.07859000  0.68213000  1.0
  O  O77  1  0.20181000  0.05726000  0.74349000  1.0
  O  O78  1  0.32969000  0.92745000  0.98441000  1.0
  O  O79  1  0.79780000  0.96757000  0.92294000  1.0
