# generated using pymatgen
data_Zr6H13C52S10Br2N5O42
_symmetry_space_group_name_H-M   'P 1'
_cell_length_a   16.44110000
_cell_length_b   16.44229552
_cell_length_c   16.45640000
_cell_angle_alpha   88.72780985
_cell_angle_beta   60.22790000
_cell_angle_gamma   60.29437335
_symmetry_Int_Tables_number   1
_chemical_formula_structural   Zr6H13C52S10Br2N5O42
_chemical_formula_sum   'Zr6 H13 C52 S10 Br2 N5 O42'
_cell_volume   3202.73767380
_cell_formula_units_Z   1
loop_
 _symmetry_equiv_pos_site_id
 _symmetry_equiv_pos_as_xyz
  1  'x, y, z'
loop_
 _atom_site_type_symbol
 _atom_site_label
 _atom_site_symmetry_multiplicity
 _atom_site_fract_x
 _atom_site_fract_y
 _atom_site_fract_z
 _atom_site_occupancy
  Zr  Zr0  1  0.48620000  0.40170000  0.90160000  1.0
  Zr  Zr1  1  0.50870000  0.60189000  0.10212000  1.0
  Zr  Zr2  1  0.70920000  0.39281000  0.89375000  1.0
  Zr  Zr3  1  0.28583000  0.61039000  0.11075000  1.0
  Zr  Zr4  1  0.49780000  0.61061000  0.89254000  1.0
  Zr  Zr5  1  0.49702000  0.39228000  0.11114000  1.0
  H  H6  1  0.65605000  0.42228000  0.75219000  1.0
  H  H7  1  0.34016000  0.75144000  0.08074000  1.0
  H  H8  1  0.67191000  0.41031000  0.08241000  1.0
  H  H9  1  0.32253000  0.42177000  0.09308000  1.0
  H  H10  1  0.48625000  0.63894000  0.61125000  1.0
  H  H11  1  0.50062000  0.10419000  0.13050000  1.0
  H  H12  1  0.98578000  0.88539000  0.12839000  1.0
  H  H13  1  0.98575000  0.63587000  0.39445000  1.0
  H  H14  1  0.97545000  0.12861000  0.63416000  1.0
  H  H15  1  0.69313000  0.14643000  0.66018000  1.0
  H  H16  1  0.02095000  0.86646000  0.37877000  1.0
  H  H17  1  0.30316000  0.85044000  0.35071000  1.0
  H  H18  1  0.23201000  0.38654000  0.87700000  1.0
  C  C19  1  0.48067000  0.51454000  0.73747000  1.0
  C  C20  1  0.51700000  0.76450000  0.98727000  1.0
  C  C21  1  0.50060000  0.49563000  0.27287000  1.0
  C  C22  1  0.49229000  0.23156000  0.00775000  1.0
  C  C23  1  0.74798000  0.23379000  0.74124000  1.0
  C  C24  1  0.21823000  0.51257000  0.00513000  1.0
  C  C25  1  0.24762000  0.76356000  0.26934000  1.0
  C  C26  1  0.77625000  0.49866000  0.99213000  1.0
  C  C27  1  0.76925000  0.50448000  0.73161000  1.0
  C  C28  1  0.76701000  0.22255000  0.99833000  1.0
  C  C29  1  0.22712000  0.50549000  0.28004000  1.0
  C  C30  1  0.22692000  0.77334000  0.99917000  1.0
  C  C31  1  0.48901000  0.43748000  0.42271000  1.0
  C  C32  1  0.48536000  0.57667000  0.59203000  1.0
  C  C33  1  0.49338000  0.50010000  0.36537000  1.0
  C  C34  1  0.48158000  0.51294000  0.64783000  1.0
  C  C35  1  0.48824000  0.54860000  0.50968000  1.0
  C  C36  1  0.48680000  0.46356000  0.50506000  1.0
  C  C37  1  0.51551000  0.90993000  0.92318000  1.0
  C  C38  1  0.50173000  0.08400000  0.06732000  1.0
  C  C39  1  0.51875000  0.85301000  0.98652000  1.0
  C  C40  1  0.49826000  0.13958000  0.00341000  1.0
  C  C41  1  0.50640000  0.00081000  0.03830000  1.0
  C  C42  1  0.50682000  0.99529000  0.95248000  1.0
  C  C43  1  0.97278000  0.08145000  0.92881000  1.0
  C  C44  1  0.02207000  0.90900000  0.06527000  1.0
  C  C45  1  0.85681000  0.13184000  0.99592000  1.0
  C  C46  1  0.13741000  0.86055000  0.99751000  1.0
  C  C47  1  0.96233000  0.99019000  0.04025000  1.0
  C  C48  1  0.03431000  0.00130000  0.95347000  1.0
  C  C49  1  0.97623000  0.44087000  0.59573000  1.0
  C  C50  1  0.02257000  0.57329000  0.41839000  1.0
  C  C51  1  0.85983000  0.50673000  0.64602000  1.0
  C  C52  1  0.13809000  0.50588000  0.36966000  1.0
  C  C53  1  0.96353000  0.54833000  0.50016000  1.0
  C  C54  1  0.03632000  0.46245000  0.51149000  1.0
  C  C55  1  0.94356000  0.10000000  0.60688000  1.0
  C  C56  1  0.78419000  0.10915000  0.62126000  1.0
  C  C57  1  0.85696000  0.02821000  0.54075000  1.0
  C  C58  1  0.97666000  0.97873000  0.48853000  1.0
  C  C59  1  0.05269000  0.89564000  0.40560000  1.0
  C  C60  1  0.21210000  0.88707000  0.39024000  1.0
  C  C61  1  0.13949000  0.96834000  0.47067000  1.0
  C  C62  1  0.01965000  0.01714000  0.52353000  1.0
  C  C63  1  0.82832000  0.14512000  0.65453000  1.0
  C  C64  1  0.16794000  0.85061000  0.35763000  1.0
  C  C65  1  0.84793000  0.56873000  0.05731000  1.0
  C  C66  1  0.14790000  0.44610000  0.93603000  1.0
  C  C67  1  0.86402000  0.50222000  0.99137000  1.0
  C  C68  1  0.13000000  0.51293000  0.00277000  1.0
  C  C69  1  0.04443000  0.46662000  0.95651000  1.0
  C  C70  1  0.94990000  0.54944000  0.03888000  1.0
  S  S71  1  0.49459000  0.59280000  0.41226000  1.0
  S  S72  1  0.48183000  0.41849000  0.60155000  1.0
  S  S73  1  0.51273000  0.90337000  0.08241000  1.0
  S  S74  1  0.50020000  0.09249000  0.90820000  1.0
  S  S75  1  0.82179000  0.08009000  0.09065000  1.0
  S  S76  1  0.17475000  0.91286000  0.90346000  1.0
  S  S77  1  0.82345000  0.59771000  0.59072000  1.0
  S  S78  1  0.17627000  0.41207000  0.42189000  1.0
  S  S79  1  0.00594000  0.41451000  0.90480000  1.0
  S  S80  1  0.98827000  0.60141000  0.09084000  1.0
  Br  Br81  1  0.20207000  0.01659000  0.51022000  1.0
  Br  Br82  1  0.79330000  0.98263000  0.49907000  1.0
  N  N83  1  0.48773000  0.35182000  0.40162000  1.0
  N  N84  1  0.52118000  0.88692000  0.83421000  1.0
  N  N85  1  0.02950000  0.10590000  0.83993000  1.0
  N  N86  1  0.03680000  0.35763000  0.62362000  1.0
  N  N87  1  0.73780000  0.65141000  0.13933000  1.0
  O  O88  1  0.47694000  0.44675000  0.77557000  1.0
  O  O89  1  0.52043000  0.72727000  0.05537000  1.0
  O  O90  1  0.50593000  0.56268000  0.23449000  1.0
  O  O91  1  0.48619000  0.27097000  0.94131000  1.0
  O  O92  1  0.78788000  0.26531000  0.77182000  1.0
  O  O93  1  0.18727000  0.57880000  0.07310000  1.0
  O  O94  1  0.20701000  0.73302000  0.23867000  1.0
  O  O95  1  0.80725000  0.43090000  0.92602000  1.0
  O  O96  1  0.66758000  0.57395000  0.76381000  1.0
  O  O97  1  0.66520000  0.25614000  0.06860000  1.0
  O  O98  1  0.32938000  0.43511000  0.24522000  1.0
  O  O99  1  0.32916000  0.73978000  0.92968000  1.0
  O  O100  1  0.79937000  0.26095000  0.93075000  1.0
  O  O101  1  0.19459000  0.57502000  0.24343000  1.0
  O  O102  1  0.19449000  0.73909000  0.07091000  1.0
  O  O103  1  0.80029000  0.43181000  0.76488000  1.0
  O  O104  1  0.64286000  0.27332000  0.77809000  1.0
  O  O105  1  0.67471000  0.56458000  0.06196000  1.0
  O  O106  1  0.35283000  0.72635000  0.22937000  1.0
  O  O107  1  0.31974000  0.44372000  0.93843000  1.0
  O  O108  1  0.49278000  0.26483000  0.07686000  1.0
  O  O109  1  0.48571000  0.58129000  0.76875000  1.0
  O  O110  1  0.50875000  0.73442000  0.92257000  1.0
  O  O111  1  0.50235000  0.42541000  0.23852000  1.0
  O  O112  1  0.37178000  0.44502000  0.06782000  1.0
  O  O113  1  0.62254000  0.43555000  0.05935000  1.0
  O  O114  1  0.38523000  0.68040000  0.05767000  1.0
  O  O115  1  0.61009000  0.44594000  0.82321000  1.0
  O  O116  1  0.59026000  0.54337000  0.95309000  1.0
  O  O117  1  0.40509000  0.55070000  0.96021000  1.0
  O  O118  1  0.41436000  0.54263000  0.13402000  1.0
  O  O119  1  0.58044000  0.36967000  0.96109000  1.0
  O  O120  1  0.57689000  0.27064000  0.36935000  1.0
  O  O121  1  0.39766000  0.36737000  0.42089000  1.0
  O  O122  1  0.43984000  0.94877000  0.83131000  1.0
  O  O123  1  0.60697000  0.81087000  0.76827000  1.0
  O  O124  1  0.08612000  0.13542000  0.83878000  1.0
  O  O125  1  0.01998000  0.09145000  0.77283000  1.0
  O  O126  1  0.10350000  0.27660000  0.56049000  1.0
  O  O127  1  0.02161000  0.37458000  0.70430000  1.0
  O  O128  1  0.70342000  0.63888000  0.22136000  1.0
  O  O129  1  0.69129000  0.72781000  0.12056000  1.0
