# generated using pymatgen
data_CdH5C7S2N3
_symmetry_space_group_name_H-M   'P 1'
_cell_length_a   5.92918000
_cell_length_b   12.17540000
_cell_length_c   13.65980769
_cell_angle_alpha   89.99926929
_cell_angle_beta   77.57615917
_cell_angle_gamma   89.99970000
_symmetry_Int_Tables_number   1
_chemical_formula_structural   CdH5C7S2N3
_chemical_formula_sum   'Cd4 H20 C28 S8 N12'
_cell_volume   963.01166551
_cell_formula_units_Z   4
loop_
 _symmetry_equiv_pos_site_id
 _symmetry_equiv_pos_as_xyz
  1  'x, y, z'
loop_
 _atom_site_type_symbol
 _atom_site_label
 _atom_site_symmetry_multiplicity
 _atom_site_fract_x
 _atom_site_fract_y
 _atom_site_fract_z
 _atom_site_occupancy
  Cd  Cd0  1  0.12366000  0.84007000  0.47777000  1.0
  Cd  Cd1  1  0.87633000  0.34007000  0.02224000  1.0
  Cd  Cd2  1  0.87632000  0.15992000  0.52222000  1.0
  Cd  Cd3  1  0.12367000  0.65993000  0.97777000  1.0
  H  H4  1  0.68790000  0.71213000  0.61460000  1.0
  H  H5  1  0.31209000  0.21214000  0.88539000  1.0
  H  H6  1  0.31212000  0.28785000  0.38539000  1.0
  H  H7  1  0.68791000  0.78785000  0.11461000  1.0
  H  H8  1  0.59177000  0.53950000  0.71279000  1.0
  H  H9  1  0.40824000  0.03952000  0.78719000  1.0
  H  H10  1  0.40825000  0.46049000  0.28720000  1.0
  H  H11  1  0.59176000  0.96048000  0.21281000  1.0
  H  H12  1  0.90971000  0.40378000  0.71715000  1.0
  H  H13  1  0.09029000  0.90379000  0.78285000  1.0
  H  H14  1  0.09031000  0.59622000  0.28287000  1.0
  H  H15  1  0.90970000  0.09621000  0.21715000  1.0
  H  H16  1  0.31012000  0.44734000  0.62156000  1.0
  H  H17  1  0.68988000  0.94735000  0.87844000  1.0
  H  H18  1  0.68990000  0.55266000  0.37845000  1.0
  H  H19  1  0.31011000  0.05266000  0.12156000  1.0
  H  H20  1  0.37645000  0.62409000  0.52506000  1.0
  H  H21  1  0.62355000  0.12410000  0.97494000  1.0
  H  H22  1  0.62356000  0.37590000  0.47494000  1.0
  H  H23  1  0.37645000  0.87591000  0.02506000  1.0
  C  C24  1  0.55532000  0.91864000  0.59264000  1.0
  C  C25  1  0.44469000  0.41864000  0.90735000  1.0
  C  C26  1  0.44467000  0.08137000  0.40735000  1.0
  C  C27  1  0.55531000  0.58136000  0.09265000  1.0
  C  C28  1  0.67379000  0.78149000  0.36677000  1.0
  C  C29  1  0.32623000  0.28148000  0.13323000  1.0
  C  C30  1  0.32619000  0.21851000  0.63324000  1.0
  C  C31  1  0.67379000  0.71852000  0.86676000  1.0
  C  C32  1  0.82061000  0.65076000  0.61692000  1.0
  C  C33  1  0.17939000  0.15077000  0.88307000  1.0
  C  C34  1  0.17940000  0.34923000  0.38307000  1.0
  C  C35  1  0.82062000  0.84923000  0.11693000  1.0
  C  C36  1  0.76783000  0.55409000  0.67151000  1.0
  C  C37  1  0.23216000  0.05411000  0.82848000  1.0
  C  C38  1  0.23218000  0.44590000  0.32849000  1.0
  C  C39  1  0.76783000  0.94589000  0.17153000  1.0
  C  C40  1  0.94430000  0.47925000  0.67375000  1.0
  C  C41  1  0.05569000  0.97926000  0.82625000  1.0
  C  C42  1  0.05571000  0.52075000  0.32626000  1.0
  C  C43  1  0.94429000  0.02074000  0.17376000  1.0
  C  C44  1  0.16726000  0.50342000  0.62081000  1.0
  C  C45  1  0.83274000  0.00343000  0.87919000  1.0
  C  C46  1  0.83276000  0.49658000  0.37920000  1.0
  C  C47  1  0.16724000  0.99657000  0.12082000  1.0
  C  C48  1  0.20551000  0.60173000  0.56810000  1.0
  C  C49  1  0.79449000  0.10173000  0.93190000  1.0
  C  C50  1  0.79450000  0.39827000  0.43190000  1.0
  C  C51  1  0.20551000  0.89827000  0.06810000  1.0
  S  S52  1  0.79725000  0.95742000  0.62197000  1.0
  S  S53  1  0.20275000  0.45742000  0.87803000  1.0
  S  S54  1  0.20274000  0.04259000  0.37802000  1.0
  S  S55  1  0.79726000  0.54258000  0.12197000  1.0
  S  S56  1  0.43929000  0.74132000  0.33281000  1.0
  S  S57  1  0.56073000  0.24132000  0.16719000  1.0
  S  S58  1  0.56069000  0.25867000  0.66718000  1.0
  S  S59  1  0.43927000  0.75867000  0.83281000  1.0
  N  N60  1  0.37833000  0.88898000  0.57559000  1.0
  N  N61  1  0.62169000  0.38899000  0.92441000  1.0
  N  N62  1  0.62166000  0.11104000  0.42440000  1.0
  N  N63  1  0.37831000  0.61102000  0.07560000  1.0
  N  N64  1  0.84681000  0.80980000  0.38877000  1.0
  N  N65  1  0.15319000  0.30979000  0.11122000  1.0
  N  N66  1  0.15315000  0.19020000  0.61123000  1.0
  N  N67  1  0.84681000  0.69021000  0.88878000  1.0
  N  N68  1  0.03559000  0.67447000  0.56621000  1.0
  N  N69  1  0.96439000  0.17448000  0.93379000  1.0
  N  N70  1  0.96442000  0.32552000  0.43378000  1.0
  N  N71  1  0.03560000  0.82552000  0.06622000  1.0
