# generated using pymatgen
data_CoH7C6N4O3
_symmetry_space_group_name_H-M   'P 1'
_cell_length_a   12.24670000
_cell_length_b   12.24860000
_cell_length_c   15.73369197
_cell_angle_alpha   67.10315515
_cell_angle_beta   67.08900244
_cell_angle_gamma   90.00120000
_symmetry_Int_Tables_number   1
_chemical_formula_structural   CoH7C6N4O3
_chemical_formula_sum   'Co8 H56 C48 N32 O24'
_cell_volume   1970.47733290
_cell_formula_units_Z   8
loop_
 _symmetry_equiv_pos_site_id
 _symmetry_equiv_pos_as_xyz
  1  'x, y, z'
loop_
 _atom_site_type_symbol
 _atom_site_label
 _atom_site_symmetry_multiplicity
 _atom_site_fract_x
 _atom_site_fract_y
 _atom_site_fract_z
 _atom_site_occupancy
  Co  Co0  1  0.61005000  0.50398000  0.37368000  1.0
  Co  Co1  1  0.01632000  0.12245000  0.37357000  1.0
  Co  Co2  1  0.50408000  0.01634000  0.37358000  1.0
  Co  Co3  1  0.12237000  0.61014000  0.37353000  1.0
  Co  Co4  1  0.38994000  0.49602000  0.62633000  1.0
  Co  Co5  1  0.98369000  0.87755000  0.62643000  1.0
  Co  Co6  1  0.49593000  0.98366000  0.62642000  1.0
  Co  Co7  1  0.87763000  0.38986000  0.62647000  1.0
  H  H8  1  0.02020000  0.57529000  0.16415000  1.0
  H  H9  1  0.81555000  0.26070000  0.16390000  1.0
  H  H10  1  0.57527000  0.81565000  0.16405000  1.0
  H  H11  1  0.26059000  0.02042000  0.16399000  1.0
  H  H12  1  0.97979000  0.42471000  0.83585000  1.0
  H  H13  1  0.18444000  0.73929000  0.83610000  1.0
  H  H14  1  0.42473000  0.18436000  0.83595000  1.0
  H  H15  1  0.73940000  0.97958000  0.83602000  1.0
  H  H16  1  0.79841000  0.67624000  0.00003000  1.0
  H  H17  1  0.20159000  0.32376000  0.99997000  1.0
  H  H18  1  0.67601000  0.20154000  0.00004000  1.0
  H  H19  1  0.32400000  0.79846000  0.99995000  1.0
  H  H20  1  0.18468000  0.55123000  0.55621000  1.0
  H  H21  1  0.25900000  0.89265000  0.55623000  1.0
  H  H22  1  0.55103000  0.25898000  0.55637000  1.0
  H  H23  1  0.89259000  0.18486000  0.55628000  1.0
  H  H24  1  0.81531000  0.44877000  0.44379000  1.0
  H  H25  1  0.74100000  0.10735000  0.44377000  1.0
  H  H26  1  0.44897000  0.74101000  0.44363000  1.0
  H  H27  1  0.10742000  0.81514000  0.44372000  1.0
  H  H28  1  0.20260000  0.64633000  0.00018000  1.0
  H  H29  1  0.79740000  0.35367000  0.99981000  1.0
  H  H30  1  0.64641000  0.79729000  0.00003000  1.0
  H  H31  1  0.35359000  0.20270000  0.99997000  1.0
  H  H32  1  0.52187000  0.59200000  0.21017000  1.0
  H  H33  1  0.26796000  0.19776000  0.21019000  1.0
  H  H34  1  0.59202000  0.26791000  0.21030000  1.0
  H  H35  1  0.19780000  0.52186000  0.21017000  1.0
  H  H36  1  0.47813000  0.40800000  0.78983000  1.0
  H  H37  1  0.73204000  0.80224000  0.78981000  1.0
  H  H38  1  0.40798000  0.73209000  0.78971000  1.0
  H  H39  1  0.80219000  0.47814000  0.78983000  1.0
  H  H40  1  0.38275000  0.62841000  0.20536000  1.0
  H  H41  1  0.41191000  0.16628000  0.20540000  1.0
  H  H42  1  0.62831000  0.41183000  0.20552000  1.0
  H  H43  1  0.16622000  0.38273000  0.20539000  1.0
  H  H44  1  0.61725000  0.37159000  0.79464000  1.0
  H  H45  1  0.58809000  0.83372000  0.79460000  1.0
  H  H46  1  0.37168000  0.58818000  0.79449000  1.0
  H  H47  1  0.83378000  0.61727000  0.79461000  1.0
  H  H48  1  0.62941000  0.80040000  0.29849000  1.0
  H  H49  1  0.07214000  0.90110000  0.29852000  1.0
  H  H50  1  0.80033000  0.07209000  0.29850000  1.0
  H  H51  1  0.90102000  0.62937000  0.29852000  1.0
  H  H52  1  0.37059000  0.19960000  0.70150000  1.0
  H  H53  1  0.92787000  0.09890000  0.70148000  1.0
  H  H54  1  0.19966000  0.92791000  0.70150000  1.0
  H  H55  1  0.09898000  0.37063000  0.70147000  1.0
  H  H56  1  0.74680000  0.74309000  0.29241000  1.0
  H  H57  1  0.96074000  0.96437000  0.29258000  1.0
  H  H58  1  0.74311000  0.96076000  0.29241000  1.0
  H  H59  1  0.96451000  0.74672000  0.29240000  1.0
  H  H60  1  0.25319000  0.25691000  0.70761000  1.0
  H  H61  1  0.03927000  0.03563000  0.70742000  1.0
  H  H62  1  0.25689000  0.03924000  0.70759000  1.0
  H  H63  1  0.03552000  0.25329000  0.70757000  1.0
  C  C64  1  0.78528000  0.58195000  0.18873000  1.0
  C  C65  1  0.02594000  0.22942000  0.18861000  1.0
  C  C66  1  0.58195000  0.02592000  0.18871000  1.0
  C  C67  1  0.22936000  0.78544000  0.18861000  1.0
  C  C68  1  0.21472000  0.41805000  0.81127000  1.0
  C  C69  1  0.97406000  0.77057000  0.81139000  1.0
  C  C70  1  0.41806000  0.97408000  0.81129000  1.0
  C  C71  1  0.77064000  0.21456000  0.81139000  1.0
  C  C72  1  0.89716000  0.62292000  0.09250000  1.0
  C  C73  1  0.01030000  0.28465000  0.09236000  1.0
  C  C74  1  0.62277000  0.01031000  0.09246000  1.0
  C  C75  1  0.28474000  0.89731000  0.09238000  1.0
  C  C76  1  0.10284000  0.37708000  0.90750000  1.0
  C  C77  1  0.98970000  0.71535000  0.90764000  1.0
  C  C78  1  0.37723000  0.98969000  0.90754000  1.0
  C  C79  1  0.71527000  0.10269000  0.90761000  1.0
  C  C80  1  0.01158000  0.61462000  0.09238000  1.0
  C  C81  1  0.89604000  0.29312000  0.09216000  1.0
  C  C82  1  0.61453000  0.89605000  0.09230000  1.0
  C  C83  1  0.29311000  0.01173000  0.09224000  1.0
  C  C84  1  0.98843000  0.38538000  0.90761000  1.0
  C  C85  1  0.10396000  0.70688000  0.90784000  1.0
  C  C86  1  0.38547000  0.10395000  0.90770000  1.0
  C  C87  1  0.70688000  0.98826000  0.90777000  1.0
  C  C88  1  0.88707000  0.67131000  0.00005000  1.0
  C  C89  1  0.11293000  0.32869000  0.99995000  1.0
  C  C90  1  0.67110000  0.11288000  0.00004000  1.0
  C  C91  1  0.32890000  0.88712000  0.99996000  1.0
  C  C92  1  0.26465000  0.55422000  0.49273000  1.0
  C  C93  1  0.24254000  0.95315000  0.49276000  1.0
  C  C94  1  0.55409000  0.24253000  0.49287000  1.0
  C  C95  1  0.95307000  0.26478000  0.49276000  1.0
  C  C96  1  0.73535000  0.44578000  0.50727000  1.0
  C  C97  1  0.75746000  0.04685000  0.50724000  1.0
  C  C98  1  0.44592000  0.75747000  0.50713000  1.0
  C  C99  1  0.04692000  0.73522000  0.50724000  1.0
  C  C100  1  0.38642000  0.57527000  0.34381000  1.0
  C  C101  1  0.26977000  0.08101000  0.34385000  1.0
  C  C102  1  0.57509000  0.26973000  0.34396000  1.0
  C  C103  1  0.08092000  0.38647000  0.34383000  1.0
  C  C104  1  0.61358000  0.42473000  0.65619000  1.0
  C  C105  1  0.73024000  0.91898000  0.65615000  1.0
  C  C106  1  0.42492000  0.73027000  0.65604000  1.0
  C  C107  1  0.91908000  0.61354000  0.65617000  1.0
  C  C108  1  0.11401000  0.65495000  0.00013000  1.0
  C  C109  1  0.88599000  0.34505000  0.99987000  1.0
  C  C110  1  0.65493000  0.88591000  0.00004000  1.0
  C  C111  1  0.34507000  0.11409000  0.99997000  1.0
  N  N112  1  0.44690000  0.54158000  0.40306000  1.0
  N  N113  1  0.15001000  0.05546000  0.40309000  1.0
  N  N114  1  0.54145000  0.15000000  0.40317000  1.0
  N  N115  1  0.05540000  0.44697000  0.40306000  1.0
  N  N116  1  0.55310000  0.45842000  0.59694000  1.0
  N  N117  1  0.85000000  0.94454000  0.59691000  1.0
  N  N118  1  0.45855000  0.85000000  0.59683000  1.0
  N  N119  1  0.94461000  0.55303000  0.59693000  1.0
  N  N120  1  0.27117000  0.58510000  0.39766000  1.0
  N  N121  1  0.33114000  0.01736000  0.39770000  1.0
  N  N122  1  0.58489000  0.33109000  0.39783000  1.0
  N  N123  1  0.01724000  0.27125000  0.39770000  1.0
  N  N124  1  0.72883000  0.41490000  0.60234000  1.0
  N  N125  1  0.66886000  0.98264000  0.60230000  1.0
  N  N126  1  0.41510000  0.66891000  0.60218000  1.0
  N  N127  1  0.98277000  0.72875000  0.60230000  1.0
  N  N128  1  0.43364000  0.59674000  0.24476000  1.0
  N  N129  1  0.32160000  0.15849000  0.24478000  1.0
  N  N130  1  0.59663000  0.32155000  0.24490000  1.0
  N  N131  1  0.15843000  0.43367000  0.24476000  1.0
  N  N132  1  0.56636000  0.40326000  0.75524000  1.0
  N  N133  1  0.67840000  0.84151000  0.75522000  1.0
  N  N134  1  0.40338000  0.67845000  0.75510000  1.0
  N  N135  1  0.84157000  0.56633000  0.75524000  1.0
  N  N136  1  0.36631000  0.52789000  0.49935000  1.0
  N  N137  1  0.13426000  0.97281000  0.49937000  1.0
  N  N138  1  0.52783000  0.13426000  0.49945000  1.0
  N  N139  1  0.97279000  0.36643000  0.49937000  1.0
  N  N140  1  0.63369000  0.47211000  0.50065000  1.0
  N  N141  1  0.86575000  0.02719000  0.50063000  1.0
  N  N142  1  0.47218000  0.86573000  0.50055000  1.0
  N  N143  1  0.02720000  0.63357000  0.50063000  1.0
  O  O144  1  0.68308000  0.56745000  0.18780000  1.0
  O  O145  1  0.12913000  0.24480000  0.18757000  1.0
  O  O146  1  0.56775000  0.12908000  0.18778000  1.0
  O  O147  1  0.24477000  0.68329000  0.18762000  1.0
  O  O148  1  0.31691000  0.43256000  0.81220000  1.0
  O  O149  1  0.87086000  0.75520000  0.81243000  1.0
  O  O150  1  0.43226000  0.87092000  0.81222000  1.0
  O  O151  1  0.75522000  0.31671000  0.81238000  1.0
  O  O152  1  0.65986000  0.72772000  0.33001000  1.0
  O  O153  1  0.01032000  0.94248000  0.32996000  1.0
  O  O154  1  0.72763000  0.01013000  0.32999000  1.0
  O  O155  1  0.94226000  0.65980000  0.33001000  1.0
  O  O156  1  0.34013000  0.27227000  0.66999000  1.0
  O  O157  1  0.98968000  0.05753000  0.67004000  1.0
  O  O158  1  0.27234000  0.98988000  0.67001000  1.0
  O  O159  1  0.05772000  0.34021000  0.67000000  1.0
  O  O160  1  0.79303000  0.56204000  0.27279000  1.0
  O  O161  1  0.93414000  0.16537000  0.27271000  1.0
  O  O162  1  0.56191000  0.93407000  0.27276000  1.0
  O  O163  1  0.16509000  0.79313000  0.27270000  1.0
  O  O164  1  0.20697000  0.43795000  0.72721000  1.0
  O  O165  1  0.06586000  0.83463000  0.72729000  1.0
  O  O166  1  0.43809000  0.06593000  0.72724000  1.0
  O  O167  1  0.83490000  0.20687000  0.72730000  1.0
