# generated using pymatgen
data_NiH6(C3N2)2
_symmetry_space_group_name_H-M   'P 1'
_cell_length_a   7.45705000
_cell_length_b   8.72098000
_cell_length_c   10.38950000
_cell_angle_alpha   90.00010000
_cell_angle_beta   90.00030000
_cell_angle_gamma   90.00000000
_symmetry_Int_Tables_number   1
_chemical_formula_structural   NiH6(C3N2)2
_chemical_formula_sum   'Ni4 H24 C24 N16'
_cell_volume   675.65810841
_cell_formula_units_Z   4
loop_
 _symmetry_equiv_pos_site_id
 _symmetry_equiv_pos_as_xyz
  1  'x, y, z'
loop_
 _atom_site_type_symbol
 _atom_site_label
 _atom_site_symmetry_multiplicity
 _atom_site_fract_x
 _atom_site_fract_y
 _atom_site_fract_z
 _atom_site_occupancy
  Ni  Ni0  1  0.00000000  0.56633000  0.25000000  1.0
  Ni  Ni1  1  0.50000000  0.06633000  0.25000000  1.0
  Ni  Ni2  1  0.00000000  0.43367000  0.75000000  1.0
  Ni  Ni3  1  0.50000000  0.93367000  0.75000000  1.0
  H  H4  1  0.16056000  0.24991000  0.16268000  1.0
  H  H5  1  0.66056000  0.74991000  0.33732000  1.0
  H  H6  1  0.16056000  0.75008000  0.66267000  1.0
  H  H7  1  0.33944000  0.74991000  0.16268000  1.0
  H  H8  1  0.83944000  0.75008000  0.83733000  1.0
  H  H9  1  0.33944000  0.25009000  0.66268000  1.0
  H  H10  1  0.83944000  0.24991000  0.33732000  1.0
  H  H11  1  0.66056000  0.25009000  0.83732000  1.0
  H  H12  1  0.25173000  0.52423000  0.49137000  1.0
  H  H13  1  0.75173000  0.02423000  0.00863000  1.0
  H  H14  1  0.25173000  0.47577000  0.99137000  1.0
  H  H15  1  0.24827000  0.02423000  0.49137000  1.0
  H  H16  1  0.74827000  0.47578000  0.50863000  1.0
  H  H17  1  0.24827000  0.97577000  0.99136000  1.0
  H  H18  1  0.74827000  0.52423000  0.00863000  1.0
  H  H19  1  0.75173000  0.97577000  0.50863000  1.0
  H  H20  1  0.49667000  0.28410000  0.48721000  1.0
  H  H21  1  0.99667000  0.78410000  0.01279000  1.0
  H  H22  1  0.49667000  0.71591000  0.98721000  1.0
  H  H23  1  0.00333000  0.78410000  0.48721000  1.0
  H  H24  1  0.50333000  0.71591000  0.51279000  1.0
  H  H25  1  0.00333000  0.21590000  0.98721000  1.0
  H  H26  1  0.50332000  0.28410000  0.01279000  1.0
  H  H27  1  0.99667000  0.21590000  0.51279000  1.0
  C  C28  1  0.21632000  0.29109000  0.25239000  1.0
  C  C29  1  0.71632000  0.79110000  0.24761000  1.0
  C  C30  1  0.21632000  0.70890000  0.75239000  1.0
  C  C31  1  0.28368000  0.79110000  0.25239000  1.0
  C  C32  1  0.78368000  0.70890000  0.74761000  1.0
  C  C33  1  0.28369000  0.20890000  0.75240000  1.0
  C  C34  1  0.78368000  0.29109000  0.24761000  1.0
  C  C35  1  0.71632000  0.20890000  0.74761000  1.0
  C  C36  1  0.26736000  0.43157000  0.42296000  1.0
  C  C37  1  0.76736000  0.93157000  0.07704000  1.0
  C  C38  1  0.26736000  0.56843000  0.92296000  1.0
  C  C39  1  0.23264000  0.93157000  0.42296000  1.0
  C  C40  1  0.73264000  0.56844000  0.57704000  1.0
  C  C41  1  0.23263000  0.06843000  0.92296000  1.0
  C  C42  1  0.73264000  0.43157000  0.07704000  1.0
  C  C43  1  0.76736000  0.06843000  0.57704000  1.0
  C  C44  1  0.38814000  0.31183000  0.42185000  1.0
  C  C45  1  0.88814000  0.81184000  0.07815000  1.0
  C  C46  1  0.38814000  0.68817000  0.92185000  1.0
  C  C47  1  0.11186000  0.81183000  0.42185000  1.0
  C  C48  1  0.61186000  0.68817000  0.57815000  1.0
  C  C49  1  0.11186000  0.18816000  0.92185000  1.0
  C  C50  1  0.61185000  0.31184000  0.07815000  1.0
  C  C51  1  0.88814000  0.18816000  0.57815000  1.0
  N  N52  1  0.15961000  0.41819000  0.31517000  1.0
  N  N53  1  0.65961000  0.91819000  0.18483000  1.0
  N  N54  1  0.15962000  0.58181000  0.81517000  1.0
  N  N55  1  0.34039000  0.91819000  0.31517000  1.0
  N  N56  1  0.84039000  0.58181000  0.68483000  1.0
  N  N57  1  0.34039000  0.08181000  0.81517000  1.0
  N  N58  1  0.84039000  0.41819000  0.18483000  1.0
  N  N59  1  0.65961000  0.08181000  0.68483000  1.0
  N  N60  1  0.35390000  0.22422000  0.31416000  1.0
  N  N61  1  0.85391000  0.72422000  0.18584000  1.0
  N  N62  1  0.35390000  0.77578000  0.81416000  1.0
  N  N63  1  0.14609000  0.72422000  0.31416000  1.0
  N  N64  1  0.64610000  0.77578000  0.68584000  1.0
  N  N65  1  0.14610000  0.27577000  0.81416000  1.0
  N  N66  1  0.64609000  0.22422000  0.18584000  1.0
  N  N67  1  0.85390000  0.27577000  0.68584000  1.0
