# generated using pymatgen
data_CdH14C22(N3O)4
_symmetry_space_group_name_H-M   'P 1'
_cell_length_a   4.38540000
_cell_length_b   9.64172000
_cell_length_c   26.20770000
_cell_angle_alpha   90.00000000
_cell_angle_beta   90.00010000
_cell_angle_gamma   93.06500000
_symmetry_Int_Tables_number   1
_chemical_formula_structural   CdH14C22(N3O)4
_chemical_formula_sum   'Cd2 H28 C44 N24 O8'
_cell_volume   1106.54974236
_cell_formula_units_Z   2
loop_
 _symmetry_equiv_pos_site_id
 _symmetry_equiv_pos_as_xyz
  1  'x, y, z'
loop_
 _atom_site_type_symbol
 _atom_site_label
 _atom_site_symmetry_multiplicity
 _atom_site_fract_x
 _atom_site_fract_y
 _atom_site_fract_z
 _atom_site_occupancy
  Cd  Cd0  1  0.70098000  0.23020000  0.08039000  1.0
  Cd  Cd1  1  0.29902000  0.76980000  0.58038000  1.0
  H  H2  1  0.46837000  0.86874000  0.90576000  1.0
  H  H3  1  0.53162000  0.13126000  0.40576000  1.0
  H  H4  1  0.97829000  0.67408000  0.03235000  1.0
  H  H5  1  0.02171000  0.32592000  0.53235000  1.0
  H  H6  1  0.88059000  0.43025000  0.87759000  1.0
  H  H7  1  0.11943000  0.56975000  0.37759000  1.0
  H  H8  1  0.53407000  0.25228000  0.21430000  1.0
  H  H9  1  0.46592000  0.74772000  0.71430000  1.0
  H  H10  1  0.95753000  0.59300000  0.25719000  1.0
  H  H11  1  0.04248000  0.40700000  0.75719000  1.0
  H  H12  1  0.81537000  0.02141000  0.21757000  1.0
  H  H13  1  0.18464000  0.97859000  0.71757000  1.0
  H  H14  1  0.42787000  0.78770000  0.12882000  1.0
  H  H15  1  0.57213000  0.21230000  0.62882000  1.0
  H  H16  1  0.47814000  0.56253000  0.10300000  1.0
  H  H17  1  0.52187000  0.43747000  0.60300000  1.0
  H  H18  1  0.62295000  0.61325000  0.31544000  1.0
  H  H19  1  0.37706000  0.38675000  0.81544000  1.0
  H  H20  1  0.23401000  0.98866000  0.35494000  1.0
  H  H21  1  0.76601000  0.01134000  0.85494000  1.0
  H  H22  1  0.15456000  0.77928000  0.78996000  1.0
  H  H23  1  0.84542000  0.22073000  0.28996000  1.0
  H  H24  1  0.92654000  0.89983000  0.05819000  1.0
  H  H25  1  0.07346000  0.10017000  0.55819000  1.0
  H  H26  1  0.86403000  0.20626000  0.94534000  1.0
  H  H27  1  0.13597000  0.79374000  0.44534000  1.0
  H  H28  1  0.58738000  0.43793000  0.94483000  1.0
  H  H29  1  0.41262000  0.56207000  0.44483000  1.0
  C  C30  1  0.28308000  0.54700000  0.99184000  1.0
  C  C31  1  0.71691000  0.45300000  0.49184000  1.0
  C  C32  1  0.55332000  0.65337000  0.92054000  1.0
  C  C33  1  0.44667000  0.34663000  0.42054000  1.0
  C  C34  1  0.41977000  0.77904000  0.93000000  1.0
  C  C35  1  0.58022000  0.22096000  0.43000000  1.0
  C  C36  1  0.14619000  0.67180000  0.00183000  1.0
  C  C37  1  0.85380000  0.32820000  0.50183000  1.0
  C  C38  1  0.91336000  0.53516000  0.86264000  1.0
  C  C39  1  0.08664000  0.46484000  0.36264000  1.0
  C  C40  1  0.48681000  0.34904000  0.19563000  1.0
  C  C41  1  0.51319000  0.65096000  0.69563000  1.0
  C  C42  1  0.19551000  0.67619000  0.19121000  1.0
  C  C43  1  0.80449000  0.32381000  0.69121000  1.0
  C  C44  1  0.99920000  0.68396000  0.23293000  1.0
  C  C45  1  0.00081000  0.31604000  0.73293000  1.0
  C  C46  1  0.12321000  0.91467000  0.16946000  1.0
  C  C47  1  0.87679000  0.08533000  0.66946000  1.0
  C  C48  1  0.92289000  0.92446000  0.21046000  1.0
  C  C49  1  0.07712000  0.07554000  0.71046000  1.0
  C  C50  1  0.26235000  0.79033000  0.15970000  1.0
  C  C51  1  0.73765000  0.20967000  0.65970000  1.0
  C  C52  1  0.86534000  0.80994000  0.24227000  1.0
  C  C53  1  0.13466000  0.19006000  0.74227000  1.0
  C  C54  1  0.19937000  0.04063000  0.13670000  1.0
  C  C55  1  0.80064000  0.95936000  0.63671000  1.0
  C  C56  1  0.46352000  0.50454000  0.13834000  1.0
  C  C57  1  0.53649000  0.49546000  0.63834000  1.0
  C  C58  1  0.56006000  0.72103000  0.31751000  1.0
  C  C59  1  0.43995000  0.27898000  0.81751000  1.0
  C  C60  1  0.36885000  0.91198000  0.33629000  1.0
  C  C61  1  0.63116000  0.08803000  0.83629000  1.0
  C  C62  1  0.21776000  0.78665000  0.97089000  1.0
  C  C63  1  0.78223000  0.21335000  0.47089000  1.0
  C  C64  1  0.04097000  0.71170000  0.81798000  1.0
  C  C65  1  0.95902000  0.28830000  0.31798000  1.0
  C  C66  1  0.20270000  0.42047000  0.02416000  1.0
  C  C67  1  0.79730000  0.57953000  0.52416000  1.0
  C  C68  1  0.94318000  0.95767000  0.02284000  1.0
  C  C69  1  0.05682000  0.04233000  0.52283000  1.0
  C  C70  1  0.92032000  0.11240000  0.96519000  1.0
  C  C71  1  0.07967000  0.88760000  0.46519000  1.0
  C  C72  1  0.48734000  0.53727000  0.95133000  1.0
  C  C73  1  0.51265000  0.46273000  0.45133000  1.0
  N  N74  1  0.84199000  0.08326000  0.01476000  1.0
  N  N75  1  0.15800000  0.91674000  0.51476000  1.0
  N  N76  1  0.07785000  0.91353000  0.97980000  1.0
  N  N77  1  0.92214000  0.08647000  0.47980000  1.0
  N  N78  1  0.06387000  0.01222000  0.94240000  1.0
  N  N79  1  0.93612000  0.98778000  0.44240000  1.0
  N  N80  1  0.75999000  0.64553000  0.87938000  1.0
  N  N81  1  0.24000000  0.35447000  0.37938000  1.0
  N  N82  1  0.09287000  0.57373000  0.82382000  1.0
  N  N83  1  0.90712000  0.42627000  0.32382000  1.0
  N  N84  1  0.84095000  0.75987000  0.85060000  1.0
  N  N85  1  0.15903000  0.24014000  0.35060000  1.0
  N  N86  1  0.56097000  0.37796000  0.14591000  1.0
  N  N87  1  0.43904000  0.62204000  0.64591000  1.0
  N  N88  1  0.33531000  0.54925000  0.18186000  1.0
  N  N89  1  0.66470000  0.45075000  0.68186000  1.0
  N  N90  1  0.35046000  0.45029000  0.21907000  1.0
  N  N91  1  0.64954000  0.54971000  0.71907000  1.0
  N  N92  1  0.66635000  0.82130000  0.28438000  1.0
  N  N93  1  0.33367000  0.17870000  0.78438000  1.0
  N  N94  1  0.54356000  0.94481000  0.29623000  1.0
  N  N95  1  0.45646000  0.05519000  0.79623000  1.0
  N  N96  1  0.37173000  0.77531000  0.35088000  1.0
  N  N97  1  0.62829000  0.22470000  0.85088000  1.0
  O  O98  1  0.04081000  0.14565000  0.14241000  1.0
  O  O99  1  0.95919000  0.85435000  0.64241000  1.0
  O  O100  1  0.42193000  0.03095000  0.10576000  1.0
  O  O101  1  0.57808000  0.96905000  0.60576000  1.0
  O  O102  1  0.36081000  0.31544000  0.01841000  1.0
  O  O103  1  0.63919000  0.68456000  0.51841000  1.0
  O  O104  1  0.97846000  0.43028000  0.05470000  1.0
  O  O105  1  0.02154000  0.56972000  0.55470000  1.0
