# generated using pymatgen
data_ZnH28C28(N5O3)2
_symmetry_space_group_name_H-M   'P 1'
_cell_length_a   8.67394000
_cell_length_b   9.41032000
_cell_length_c   9.84377000
_cell_angle_alpha   83.05680000
_cell_angle_beta   64.74460000
_cell_angle_gamma   81.76940000
_symmetry_Int_Tables_number   1
_chemical_formula_structural   ZnH28C28(N5O3)2
_chemical_formula_sum   'Zn1 H28 C28 N10 O6'
_cell_volume   717.59918678
_cell_formula_units_Z   1
loop_
 _symmetry_equiv_pos_site_id
 _symmetry_equiv_pos_as_xyz
  1  'x, y, z'
loop_
 _atom_site_type_symbol
 _atom_site_label
 _atom_site_symmetry_multiplicity
 _atom_site_fract_x
 _atom_site_fract_y
 _atom_site_fract_z
 _atom_site_occupancy
  Zn  Zn0  1  0.00000000  0.50000000  0.00000000  1.0
  H  H1  1  0.57576000  0.56043000  0.17626000  1.0
  H  H2  1  0.42424000  0.43956000  0.82374000  1.0
  H  H3  1  0.36370000  0.36840000  0.16282000  1.0
  H  H4  1  0.63629000  0.63160000  0.83718000  1.0
  H  H5  1  0.88035000  0.18653000  0.97939000  1.0
  H  H6  1  0.11964000  0.81346000  0.02061000  1.0
  H  H7  1  0.38749000  0.07390000  0.26071000  1.0
  H  H8  1  0.61251000  0.92609000  0.73929000  1.0
  H  H9  1  0.88435000  0.12626000  0.74693000  1.0
  H  H10  1  0.11565000  0.87374000  0.25308000  1.0
  H  H11  1  0.73114000  0.27644000  0.75962000  1.0
  H  H12  1  0.26885000  0.72356000  0.24039000  1.0
  H  H13  1  0.76136000  0.13449000  0.64271000  1.0
  H  H14  1  0.23863000  0.86551000  0.35729000  1.0
  H  H15  1  0.74228000  0.79004000  0.14370000  1.0
  H  H16  1  0.25772000  0.20996000  0.85631000  1.0
  H  H17  1  0.00057000  0.47562000  0.33675000  1.0
  H  H18  1  0.99942000  0.52438000  0.66325000  1.0
  H  H19  1  0.81668000  0.68578000  0.54441000  1.0
  H  H20  1  0.18332000  0.31422000  0.45559000  1.0
  H  H21  1  0.44520000  0.63655000  0.59781000  1.0
  H  H22  1  0.55480000  0.36345000  0.40219000  1.0
  H  H23  1  0.43909000  0.66750000  0.41974000  1.0
  H  H24  1  0.56091000  0.33251000  0.58026000  1.0
  H  H25  1  0.25283000  0.71450000  0.58394000  1.0
  H  H26  1  0.74717000  0.28551000  0.41606000  1.0
  H  H27  1  0.80680000  0.04035000  0.35228000  1.0
  H  H28  1  0.19321000  0.95965000  0.64772000  1.0
  C  C29  1  0.60697000  0.45318000  0.13633000  1.0
  C  C30  1  0.39302000  0.54682000  0.86367000  1.0
  C  C31  1  0.50036000  0.36038000  0.13289000  1.0
  C  C32  1  0.49963000  0.63961000  0.86711000  1.0
  C  C33  1  0.77125000  0.26478000  0.02951000  1.0
  C  C34  1  0.22875000  0.73521000  0.97049000  1.0
  C  C35  1  0.55555000  0.11809000  0.02880000  1.0
  C  C36  1  0.44445000  0.88190000  0.97120000  1.0
  C  C37  1  0.43565000  0.04034000  0.14635000  1.0
  C  C38  1  0.56435000  0.95966000  0.85365000  1.0
  C  C39  1  0.62425000  0.07968000  0.87891000  1.0
  C  C40  1  0.37575000  0.92031000  0.12109000  1.0
  C  C41  1  0.75609000  0.15943000  0.75045000  1.0
  C  C42  1  0.24391000  0.84057000  0.24955000  1.0
  C  C43  1  0.78607000  0.73003000  0.22416000  1.0
  C  C44  1  0.21393000  0.26997000  0.77584000  1.0
  C  C45  1  0.91850000  0.57180000  0.32921000  1.0
  C  C46  1  0.08150000  0.42820000  0.67079000  1.0
  C  C47  1  0.82640000  0.67180000  0.43312000  1.0
  C  C48  1  0.17360000  0.32820000  0.56688000  1.0
  C  C49  1  0.61855000  0.88798000  0.43443000  1.0
  C  C50  1  0.38145000  0.11203000  0.56557000  1.0
  C  C51  1  0.44689000  0.85937000  0.51578000  1.0
  C  C52  1  0.55312000  0.14064000  0.48422000  1.0
  C  C53  1  0.39265000  0.71186000  0.53021000  1.0
  C  C54  1  0.60735000  0.28814000  0.46979000  1.0
  C  C55  1  0.67182000  0.02438000  0.41789000  1.0
  C  C56  1  0.32819000  0.97562000  0.58211000  1.0
  N  N57  1  0.89196000  0.60949000  0.20014000  1.0
  N  N58  1  0.10804000  0.39051000  0.79986000  1.0
  N  N59  1  0.74348000  0.77149000  0.36457000  1.0
  N  N60  1  0.25652000  0.22852000  0.63542000  1.0
  N  N61  1  0.77497000  0.39246000  0.07208000  1.0
  N  N62  1  0.22502000  0.60753000  0.92792000  1.0
  N  N63  1  0.60729000  0.24124000  0.06364000  1.0
  N  N64  1  0.39271000  0.75875000  0.93636000  1.0
  N  N65  1  0.08057000  0.21755000  0.18625000  1.0
  N  N66  1  0.91943000  0.78245000  0.81375000  1.0
  O  O67  1  0.04424000  0.12150000  0.12960000  1.0
  O  O68  1  0.95576000  0.87850000  0.87039000  1.0
  O  O69  1  0.05839000  0.20622000  0.32217000  1.0
  O  O70  1  0.94161000  0.79378000  0.67783000  1.0
  O  O71  1  0.14440000  0.33064000  0.10350000  1.0
  O  O72  1  0.85560000  0.66937000  0.89650000  1.0
