# generated using pymatgen
data_Zn3H22C39O17
_symmetry_space_group_name_H-M   'P 1'
_cell_length_a   18.42040000
_cell_length_b   18.53350000
_cell_length_c   18.57560000
_cell_angle_alpha   109.52900000
_cell_angle_beta   109.06700000
_cell_angle_gamma   108.56100000
_symmetry_Int_Tables_number   1
_chemical_formula_structural   Zn3H22C39O17
_chemical_formula_sum   'Zn6 H44 C78 O34'
_cell_volume   4955.76973812
_cell_formula_units_Z   2
loop_
 _symmetry_equiv_pos_site_id
 _symmetry_equiv_pos_as_xyz
  1  'x, y, z'
loop_
 _atom_site_type_symbol
 _atom_site_label
 _atom_site_symmetry_multiplicity
 _atom_site_fract_x
 _atom_site_fract_y
 _atom_site_fract_z
 _atom_site_occupancy
  Zn  Zn0  1  0.55239000  0.49779000  0.56232000  1.0
  Zn  Zn1  1  0.42858000  0.50116000  0.43650000  1.0
  Zn  Zn2  1  0.58772000  0.07295000  0.00357000  1.0
  Zn  Zn3  1  0.46578000  0.95445000  0.01279000  1.0
  Zn  Zn4  1  0.00424000  0.06407000  0.57386000  1.0
  Zn  Zn5  1  0.99801000  0.92704000  0.45664000  1.0
  H  H6  1  0.31693000  0.72425000  0.70575000  1.0
  H  H7  1  0.06336000  0.05145000  0.35063000  1.0
  H  H8  1  0.24953000  0.27452000  0.65336000  1.0
  H  H9  1  0.41530000  0.21560000  0.32354000  1.0
  H  H10  1  0.53528000  0.46803000  0.29606000  1.0
  H  H11  1  0.60087000  0.50412000  0.20811000  1.0
  H  H12  1  0.61128000  0.38921000  0.09948000  1.0
  H  H13  1  0.56195000  0.24288000  0.08401000  1.0
  H  H14  1  0.42510000  0.10037000  0.21615000  1.0
  H  H15  1  0.79829000  0.67341000  0.58247000  1.0
  H  H16  1  0.36215000  0.58965000  0.69400000  1.0
  H  H17  1  0.54683000  0.71504000  0.53163000  1.0
  H  H18  1  0.50784000  0.82524000  0.51386000  1.0
  H  H19  1  0.61145000  0.94757000  0.50962000  1.0
  H  H20  1  0.90429000  0.79650000  0.58217000  1.0
  H  H21  1  0.31714000  0.89470000  0.73894000  1.0
  H  H22  1  0.46916000  0.19967000  0.94326000  1.0
  H  H23  1  0.44486000  0.32508000  0.95266000  1.0
  H  H24  1  0.31853000  0.30522000  0.82805000  1.0
  H  H25  1  0.21427000  0.16044000  0.70020000  1.0
  H  H26  1  0.52228000  0.71300000  0.85314000  1.0
  H  H27  1  0.19037000  0.87318000  0.61414000  1.0
  H  H28  1  0.77326000  0.13498000  0.28429000  1.0
  H  H29  1  0.68813000  0.76073000  0.95901000  1.0
  H  H30  1  0.79866000  0.81094000  0.22429000  1.0
  H  H31  1  0.86311000  0.10637000  0.39365000  1.0
  H  H32  1  0.55944000  0.88136000  0.76156000  1.0
  H  H33  1  0.37823000  0.37912000  0.65726000  1.0
  H  H34  1  0.31032000  0.27118000  0.35733000  1.0
  H  H35  1  0.19314000  0.13988000  0.21775000  1.0
  H  H36  1  0.94660000  0.97594000  0.20292000  1.0
  H  H37  1  0.01182000  0.92545000  0.22843000  1.0
  H  H38  1  0.98310000  0.85929000  0.07186000  1.0
  H  H39  1  0.88429000  0.82399000  0.07776000  1.0
  H  H40  1  0.91340000  0.90554000  0.04681000  1.0
  H  H41  1  0.84807000  0.06974000  0.66034000  1.0
  H  H42  1  0.74419000  0.06567000  0.61441000  1.0
  H  H43  1  0.86372000  0.19732000  0.63656000  1.0
  H  H44  1  0.88798000  0.12887000  0.56556000  1.0
  H  H45  1  0.78539000  0.12655000  0.52352000  1.0
  H  H46  1  0.78418000  0.01760000  0.98698000  1.0
  H  H47  1  0.73405000  0.60134000  0.08845000  1.0
  H  H48  1  0.70748000  0.71421000  0.79479000  1.0
  H  H49  1  0.28067000  0.71909000  0.48573000  1.0
  C  C50  1  0.39636000  0.38107000  0.52111000  1.0
  C  C51  1  0.51479000  0.81704000  0.74718000  1.0
  C  C52  1  0.42556000  0.75096000  0.66168000  1.0
  C  C53  1  0.45080000  0.67615000  0.65598000  1.0
  C  C54  1  0.25718000  0.22310000  0.35658000  1.0
  C  C55  1  0.19206000  0.15082000  0.27873000  1.0
  C  C56  1  0.12108000  0.08843000  0.27628000  1.0
  C  C57  1  0.11695000  0.09977000  0.35221000  1.0
  C  C58  1  0.18437000  0.17398000  0.43408000  1.0
  C  C59  1  0.25607000  0.23757000  0.43641000  1.0
  C  C60  1  0.32497000  0.31141000  0.51815000  1.0
  C  C61  1  0.45104000  0.61022000  0.58386000  1.0
  C  C62  1  0.32399000  0.32308000  0.59543000  1.0
  C  C63  1  0.25196000  0.26402000  0.59307000  1.0
  C  C64  1  0.18367000  0.19071000  0.51517000  1.0
  C  C65  1  0.54127000  0.41863000  0.24983000  1.0
  C  C66  1  0.57745000  0.43864000  0.20038000  1.0
  C  C67  1  0.58363000  0.37396000  0.13958000  1.0
  C  C68  1  0.55552000  0.29130000  0.13023000  1.0
  C  C69  1  0.51885000  0.26804000  0.18075000  1.0
  C  C70  1  0.51041000  0.33369000  0.24087000  1.0
  C  C71  1  0.47354000  0.31311000  0.29248000  1.0
  C  C72  1  0.63224000  0.62818000  0.54017000  1.0
  C  C73  1  0.44306000  0.23036000  0.28338000  1.0
  C  C74  1  0.44918000  0.16555000  0.22333000  1.0
  C  C75  1  0.48822000  0.18311000  0.17432000  1.0
  C  C76  1  0.59266000  0.76864000  0.53125000  1.0
  C  C77  1  0.57044000  0.83000000  0.52064000  1.0
  C  C78  1  0.62913000  0.89958000  0.51980000  1.0
  C  C79  1  0.71045000  0.90906000  0.53201000  1.0
  C  C80  1  0.73741000  0.84796000  0.54540000  1.0
  C  C81  1  0.67453000  0.77436000  0.54229000  1.0
  C  C82  1  0.69795000  0.71064000  0.55390000  1.0
  C  C83  1  0.47224000  0.38303000  0.36129000  1.0
  C  C84  1  0.78100000  0.72157000  0.57227000  1.0
  C  C85  1  0.84094000  0.79146000  0.57287000  1.0
  C  C86  1  0.82057000  0.85331000  0.55901000  1.0
  C  C87  1  0.43572000  0.03955000  0.88796000  1.0
  C  C88  1  0.48526000  0.86843000  0.88248000  1.0
  C  C89  1  0.67198000  0.02866000  0.11202000  1.0
  C  C90  1  0.49951000  0.11230000  0.11941000  1.0
  C  C91  1  0.88584000  0.97021000  0.37102000  1.0
  C  C92  1  0.11398000  0.12880000  0.52115000  1.0
  C  C93  1  0.13415000  0.98540000  0.60519000  1.0
  C  C94  1  0.40593000  0.65577000  0.71127000  1.0
  C  C95  1  0.88952000  0.91808000  0.55351000  1.0
  C  C96  1  0.41302000  0.19080000  0.89033000  1.0
  C  C97  1  0.39982000  0.26090000  0.89497000  1.0
  C  C98  1  0.32812000  0.24932000  0.82493000  1.0
  C  C99  1  0.26950000  0.16793000  0.75279000  1.0
  C  C100  1  0.27933000  0.09333000  0.74657000  1.0
  C  C101  1  0.35449000  0.10615000  0.81667000  1.0
  C  C102  1  0.36570000  0.03243000  0.81245000  1.0
  C  C103  1  0.30796000  0.95035000  0.74033000  1.0
  C  C104  1  0.23623000  0.93801000  0.67049000  1.0
  C  C105  1  0.38081000  0.72946000  0.71639000  1.0
  C  C106  1  0.21946000  0.00658000  0.67404000  1.0
  C  C107  1  0.72102000  0.88630000  0.05583000  1.0
  C  C108  1  0.70989000  0.80271000  0.02749000  1.0
  C  C109  1  0.73300000  0.77358000  0.08864000  1.0
  C  C110  1  0.77435000  0.83131000  0.17726000  1.0
  C  C111  1  0.78616000  0.91769000  0.20849000  1.0
  C  C112  1  0.74933000  0.94203000  0.14556000  1.0
  C  C113  1  0.74023000  0.01883000  0.17406000  1.0
  C  C114  1  0.78047000  0.07648000  0.26244000  1.0
  C  C115  1  0.82852000  0.05903000  0.32435000  1.0
  C  C116  1  0.47078000  0.79833000  0.80239000  1.0
  C  C117  1  0.83061000  0.98062000  0.29957000  1.0
  C  C118  1  0.49440000  0.72251000  0.79764000  1.0
  C  C119  1  0.53989000  0.74354000  0.74430000  1.0
  C  C120  1  0.98805000  0.95038000  0.18450000  1.0
  C  C121  1  0.93925000  0.88063000  0.08946000  1.0
  C  C122  1  0.79799000  0.06260000  0.60201000  1.0
  C  C123  1  0.83592000  0.13274000  0.58050000  1.0
  C  C124  1  0.71921000  0.91987000  0.99305000  1.0
  C  C125  1  0.71898000  0.68275000  0.05447000  1.0
  C  C126  1  0.62489000  0.74943000  0.75288000  1.0
  C  C127  1  0.38601000  0.76688000  0.58899000  1.0
  O  O128  1  0.47622000  0.40891000  0.57640000  1.0
  O  O129  1  0.41025000  0.99105000  0.91868000  1.0
  O  O130  1  0.54176000  0.94569000  0.90989000  1.0
  O  O131  1  0.43927000  0.84673000  0.91879000  1.0
  O  O132  1  0.69465000  0.08462000  0.08674000  1.0
  O  O133  1  0.59423000  0.97958000  0.09152000  1.0
  O  O134  1  0.55881000  0.13238000  0.09786000  1.0
  O  O135  1  0.44921000  0.03277000  0.09749000  1.0
  O  O136  1  0.90890000  0.02298000  0.44865000  1.0
  O  O137  1  0.91040000  0.91185000  0.35020000  1.0
  O  O138  1  0.09107000  0.16150000  0.57793000  1.0
  O  O139  1  0.37274000  0.40935000  0.46892000  1.0
  O  O140  1  0.08254000  0.04755000  0.47285000  1.0
  O  O141  1  0.09758000  0.02990000  0.62732000  1.0
  O  O142  1  0.09950000  0.92144000  0.52722000  1.0
  O  O143  1  0.92807000  0.00003000  0.60762000  1.0
  O  O144  1  0.90871000  0.88377000  0.49549000  1.0
  O  O145  1  0.50146000  0.58027000  0.60902000  1.0
  O  O146  1  0.40394000  0.58821000  0.50368000  1.0
  O  O147  1  0.65692000  0.59721000  0.59103000  1.0
  O  O148  1  0.55503000  0.59027000  0.47669000  1.0
  O  O149  1  0.52301000  0.40725000  0.43973000  1.0
  O  O150  1  0.42014000  0.41262000  0.33577000  1.0
  O  O151  1  0.51651000  0.09293000  0.91645000  1.0
  O  O152  1  0.06140000  0.01961000  0.19498000  1.0
  O  O153  1  0.76485000  0.97791000  0.52913000  1.0
  O  O154  1  0.66706000  0.87979000  0.91511000  1.0
  O  O155  1  0.78948000  0.99998000  0.03188000  1.0
  O  O156  1  0.68764000  0.63114000  0.97725000  1.0
  O  O157  1  0.74553000  0.66158000  0.11862000  1.0
  O  O158  1  0.66420000  0.78392000  0.72181000  1.0
  O  O159  1  0.65429000  0.71060000  0.79765000  1.0
  O  O160  1  0.42288000  0.82851000  0.58033000  1.0
  O  O161  1  0.30078000  0.70457000  0.53210000  1.0
