# generated using pymatgen
data_H12PbC13Br2N4O
_symmetry_space_group_name_H-M   'P 1'
_cell_length_a   9.39895000
_cell_length_b   10.33930000
_cell_length_c   16.17410000
_cell_angle_alpha   90.00000000
_cell_angle_beta   90.00000000
_cell_angle_gamma   100.33400000
_symmetry_Int_Tables_number   1
_chemical_formula_structural   H12PbC13Br2N4O
_chemical_formula_sum   'H48 Pb4 C52 Br8 N16 O4'
_cell_volume   1546.27965721
_cell_formula_units_Z   4
loop_
 _symmetry_equiv_pos_site_id
 _symmetry_equiv_pos_as_xyz
  1  'x, y, z'
loop_
 _atom_site_type_symbol
 _atom_site_label
 _atom_site_symmetry_multiplicity
 _atom_site_fract_x
 _atom_site_fract_y
 _atom_site_fract_z
 _atom_site_occupancy
  H  H0  1  0.74950000  0.67549000  0.76901000  1.0
  H  H1  1  0.25054000  0.82445000  0.26898000  1.0
  H  H2  1  0.25051000  0.32443000  0.23102000  1.0
  H  H3  1  0.74948000  0.17553000  0.73098000  1.0
  H  H4  1  0.10335000  0.49411000  0.59803000  1.0
  H  H5  1  0.89663000  0.00597000  0.09797000  1.0
  H  H6  1  0.89665000  0.50594000  0.40200000  1.0
  H  H7  1  0.10336000  0.99413000  0.90198000  1.0
  H  H8  1  0.12178000  0.55311000  0.44555000  1.0
  H  H9  1  0.87824000  0.94692000  0.94549000  1.0
  H  H10  1  0.87826000  0.44696000  0.55450000  1.0
  H  H11  1  0.12181000  0.05306000  0.05448000  1.0
  H  H12  1  0.36465000  0.65927000  0.39023000  1.0
  H  H13  1  0.63538000  0.84066000  0.89018000  1.0
  H  H14  1  0.63539000  0.34078000  0.60983000  1.0
  H  H15  1  0.36470000  0.15917000  0.10979000  1.0
  H  H16  1  0.57197000  0.70214000  0.48403000  1.0
  H  H17  1  0.42807000  0.79773000  0.98399000  1.0
  H  H18  1  0.42807000  0.29786000  0.51604000  1.0
  H  H19  1  0.57201000  0.20206000  0.01599000  1.0
  H  H20  1  0.75298000  0.79866000  0.66536000  1.0
  H  H21  1  0.24705000  0.70131000  0.16535000  1.0
  H  H22  1  0.24702000  0.20133000  0.33470000  1.0
  H  H23  1  0.75302000  0.29862000  0.83461000  1.0
  H  H24  1  0.72088000  0.74952000  0.56133000  1.0
  H  H25  1  0.27916000  0.75034000  0.06130000  1.0
  H  H26  1  0.27914000  0.25044000  0.43874000  1.0
  H  H27  1  0.72085000  0.24959000  0.93866000  1.0
  H  H28  1  0.80053000  0.64978000  0.63125000  1.0
  H  H29  1  0.19949000  0.85015000  0.13117000  1.0
  H  H30  1  0.19948000  0.35019000  0.36884000  1.0
  H  H31  1  0.80052000  0.14976000  0.86880000  1.0
  H  H32  1  0.60650000  0.50246000  0.01438000  1.0
  H  H33  1  0.39349000  0.99760000  0.51432000  1.0
  H  H34  1  0.39351000  0.49753000  0.98569000  1.0
  H  H35  1  0.60647000  0.00250000  0.48561000  1.0
  H  H36  1  0.01136000  0.67145000  0.09837000  1.0
  H  H37  1  0.98861000  0.82867000  0.59832000  1.0
  H  H38  1  0.98863000  0.32867000  0.90166000  1.0
  H  H39  1  0.01135000  0.17141000  0.40161000  1.0
  H  H40  1  0.10283000  0.71980000  0.95193000  1.0
  H  H41  1  0.89717000  0.78025000  0.45189000  1.0
  H  H42  1  0.89713000  0.28028000  0.04809000  1.0
  H  H43  1  0.10282000  0.21977000  0.54805000  1.0
  H  H44  1  0.93678000  0.65637000  0.83539000  1.0
  H  H45  1  0.06323000  0.84359000  0.33535000  1.0
  H  H46  1  0.06319000  0.34361000  0.16465000  1.0
  H  H47  1  0.93677000  0.15639000  0.66460000  1.0
  Pb  Pb48  1  0.28182000  0.45966000  0.77312000  1.0
  Pb  Pb49  1  0.71809000  0.04033000  0.27308000  1.0
  Pb  Pb50  1  0.71807000  0.54034000  0.22690000  1.0
  Pb  Pb51  1  0.28184000  0.95964000  0.72686000  1.0
  C  C52  1  0.20561000  0.54061000  0.56984000  1.0
  C  C53  1  0.79438000  0.95944000  0.06978000  1.0
  C  C54  1  0.79439000  0.45943000  0.43020000  1.0
  C  C55  1  0.20563000  0.04060000  0.93017000  1.0
  C  C56  1  0.21578000  0.57324000  0.48602000  1.0
  C  C57  1  0.78423000  0.92677000  0.98597000  1.0
  C  C58  1  0.78424000  0.42680000  0.51402000  1.0
  C  C59  1  0.21581000  0.07320000  0.01399000  1.0
  C  C60  1  0.34982000  0.63268000  0.45531000  1.0
  C  C61  1  0.65022000  0.86726000  0.95526000  1.0
  C  C62  1  0.65021000  0.36735000  0.54474000  1.0
  C  C63  1  0.34985000  0.13261000  0.04470000  1.0
  C  C64  1  0.46748000  0.65683000  0.50886000  1.0
  C  C65  1  0.53255000  0.84309000  0.00881000  1.0
  C  C66  1  0.53254000  0.34317000  0.49119000  1.0
  C  C67  1  0.46751000  0.15677000  0.99116000  1.0
  C  C68  1  0.44982000  0.62002000  0.59204000  1.0
  C  C69  1  0.55021000  0.87996000  0.09198000  1.0
  C  C70  1  0.55018000  0.37998000  0.40801000  1.0
  C  C71  1  0.44982000  0.11999000  0.90797000  1.0
  C  C72  1  0.57408000  0.63887000  0.64948000  1.0
  C  C73  1  0.42593000  0.86109000  0.14942000  1.0
  C  C74  1  0.42591000  0.36111000  0.35058000  1.0
  C  C75  1  0.57407000  0.13886000  0.85052000  1.0
  C  C76  1  0.71876000  0.71323000  0.62469000  1.0
  C  C77  1  0.28126000  0.78670000  0.12465000  1.0
  C  C78  1  0.28124000  0.28674000  0.37538000  1.0
  C  C79  1  0.71876000  0.21323000  0.87531000  1.0
  C  C80  1  0.63948000  0.53921000  0.85242000  1.0
  C  C81  1  0.36052000  0.96079000  0.35236000  1.0
  C  C82  1  0.36050000  0.46077000  0.14765000  1.0
  C  C83  1  0.63948000  0.03923000  0.64758000  1.0
  C  C84  1  0.75475000  0.57636000  0.91544000  1.0
  C  C85  1  0.24524000  0.92365000  0.41538000  1.0
  C  C86  1  0.24525000  0.42361000  0.08461000  1.0
  C  C87  1  0.75474000  0.07639000  0.58455000  1.0
  C  C88  1  0.71551000  0.55124000  0.99843000  1.0
  C  C89  1  0.28448000  0.94881000  0.49837000  1.0
  C  C90  1  0.28448000  0.44877000  0.00163000  1.0
  C  C91  1  0.71549000  0.05126000  0.50156000  1.0
  C  C92  1  0.94154000  0.64687000  0.04461000  1.0
  C  C93  1  0.05844000  0.85321000  0.54456000  1.0
  C  C94  1  0.05845000  0.35321000  0.95543000  1.0
  C  C95  1  0.94153000  0.14686000  0.45538000  1.0
  C  C96  1  0.99135000  0.67349000  0.96424000  1.0
  C  C97  1  0.00864000  0.82657000  0.46420000  1.0
  C  C98  1  0.00863000  0.32657000  0.03579000  1.0
  C  C99  1  0.99134000  0.17348000  0.53573000  1.0
  C  C100  1  0.89716000  0.63777000  0.89832000  1.0
  C  C101  1  0.10284000  0.86222000  0.39828000  1.0
  C  C102  1  0.10283000  0.36224000  0.10172000  1.0
  C  C103  1  0.89715000  0.13778000  0.60166000  1.0
  Br  Br104  1  0.95612000  0.42231000  0.73168000  1.0
  Br  Br105  1  0.04390000  0.07765000  0.23166000  1.0
  Br  Br106  1  0.04385000  0.57773000  0.26831000  1.0
  Br  Br107  1  0.95610000  0.92235000  0.76832000  1.0
  Br  Br108  1  0.31820000  0.22714000  0.66242000  1.0
  Br  Br109  1  0.68174000  0.27289000  0.16239000  1.0
  Br  Br110  1  0.68172000  0.77289000  0.33761000  1.0
  Br  Br111  1  0.31823000  0.72715000  0.83759000  1.0
  N  N112  1  0.31849000  0.56317000  0.62154000  1.0
  N  N113  1  0.68152000  0.93686000  0.12148000  1.0
  N  N114  1  0.68150000  0.43685000  0.37851000  1.0
  N  N115  1  0.31849000  0.06316000  0.87846000  1.0
  N  N116  1  0.55075000  0.58495000  0.72203000  1.0
  N  N117  1  0.44925000  0.91502000  0.22197000  1.0
  N  N118  1  0.44924000  0.41501000  0.27803000  1.0
  N  N119  1  0.55075000  0.08497000  0.77797000  1.0
  N  N120  1  0.65897000  0.60513000  0.77851000  1.0
  N  N121  1  0.34104000  0.89483000  0.27846000  1.0
  N  N122  1  0.34103000  0.39480000  0.22154000  1.0
  N  N123  1  0.65896000  0.10517000  0.72148000  1.0
  N  N124  1  0.80578000  0.58648000  0.06157000  1.0
  N  N125  1  0.19420000  0.91361000  0.56151000  1.0
  N  N126  1  0.19423000  0.41358000  0.93847000  1.0
  N  N127  1  0.80576000  0.08649000  0.43842000  1.0
  O  O128  1  0.52882000  0.45619000  0.86701000  1.0
  O  O129  1  0.47116000  0.04382000  0.36694000  1.0
  O  O130  1  0.47115000  0.54380000  0.13306000  1.0
  O  O131  1  0.52883000  0.95620000  0.63299000  1.0
