# generated using pymatgen
data_AgH19C21SN4O5
_symmetry_space_group_name_H-M   'P 1'
_cell_length_a   8.44077000
_cell_length_b   9.84450000
_cell_length_c   12.76970000
_cell_angle_alpha   90.86900000
_cell_angle_beta   91.54360000
_cell_angle_gamma   94.58320000
_symmetry_Int_Tables_number   1
_chemical_formula_structural   AgH19C21SN4O5
_chemical_formula_sum   'Ag2 H38 C42 S2 N8 O10'
_cell_volume   1057.16370215
_cell_formula_units_Z   2
loop_
 _symmetry_equiv_pos_site_id
 _symmetry_equiv_pos_as_xyz
  1  'x, y, z'
loop_
 _atom_site_type_symbol
 _atom_site_label
 _atom_site_symmetry_multiplicity
 _atom_site_fract_x
 _atom_site_fract_y
 _atom_site_fract_z
 _atom_site_occupancy
  Ag  Ag0  1  0.15598000  0.12298000  0.70673000  1.0
  Ag  Ag1  1  0.84401000  0.87702000  0.29328000  1.0
  H  H2  1  0.22406000  0.08843000  0.97908000  1.0
  H  H3  1  0.77595000  0.91157000  0.02092000  1.0
  H  H4  1  0.48948000  0.03065000  0.82551000  1.0
  H  H5  1  0.51051000  0.96934000  0.17448000  1.0
  H  H6  1  0.74221000  0.21505000  0.87727000  1.0
  H  H7  1  0.25779000  0.78493000  0.12272000  1.0
  H  H8  1  0.64452000  0.45961000  0.80136000  1.0
  H  H9  1  0.35548000  0.54038000  0.19865000  1.0
  H  H10  1  0.34033000  0.52029000  0.74476000  1.0
  H  H11  1  0.65967000  0.47971000  0.25525000  1.0
  H  H12  1  0.22955000  0.37977000  0.68209000  1.0
  H  H13  1  0.77044000  0.62023000  0.31792000  1.0
  H  H14  1  0.44221000  0.25643000  0.54459000  1.0
  H  H15  1  0.55779000  0.74357000  0.45542000  1.0
  H  H16  1  0.56857000  0.31826000  0.37508000  1.0
  H  H17  1  0.43143000  0.68175000  0.62494000  1.0
  H  H18  1  0.79755000  0.98516000  0.74297000  1.0
  H  H19  1  0.20245000  0.01484000  0.25703000  1.0
  H  H20  1  0.55635000  0.97094000  0.59277000  1.0
  H  H21  1  0.44365000  0.02905000  0.40723000  1.0
  H  H22  1  0.69850000  0.10391000  0.42184000  1.0
  H  H23  1  0.30150000  0.89609000  0.57816000  1.0
  H  H24  1  0.98661000  0.18054000  0.38520000  1.0
  H  H25  1  0.01340000  0.81946000  0.61480000  1.0
  H  H26  1  0.12832000  0.17589000  0.48994000  1.0
  H  H27  1  0.87168000  0.82412000  0.51007000  1.0
  H  H28  1  0.17735000  0.40734000  0.36970000  1.0
  H  H29  1  0.82265000  0.59266000  0.63030000  1.0
  H  H30  1  0.17093000  0.65616000  0.39161000  1.0
  H  H31  1  0.82907000  0.34384000  0.60839000  1.0
  H  H32  1  0.36174000  0.42617000  0.00975000  1.0
  H  H33  1  0.63827000  0.57383000  0.99024000  1.0
  H  H34  1  0.40092000  0.67330000  0.96521000  1.0
  H  H35  1  0.59909000  0.32671000  0.03477000  1.0
  H  H36  1  0.95696000  0.64099000  0.79113000  1.0
  H  H37  1  0.04304000  0.35900000  0.20887000  1.0
  H  H38  1  0.92285000  0.39040000  0.83031000  1.0
  H  H39  1  0.07715000  0.60959000  0.16969000  1.0
  C  C40  1  0.50478000  0.13875000  0.81002000  1.0
  C  C41  1  0.49522000  0.86124000  0.18998000  1.0
  C  C42  1  0.63228000  0.23442000  0.83629000  1.0
  C  C43  1  0.36771000  0.76557000  0.16371000  1.0
  C  C44  1  0.58594000  0.35738000  0.79915000  1.0
  C  C45  1  0.41406000  0.64261000  0.20086000  1.0
  C  C46  1  0.35028000  0.42912000  0.69573000  1.0
  C  C47  1  0.64971000  0.57089000  0.30427000  1.0
  C  C48  1  0.42815000  0.46571000  0.59430000  1.0
  C  C49  1  0.57185000  0.53430000  0.40571000  1.0
  C  C50  1  0.46701000  0.36331000  0.52458000  1.0
  C  C51  1  0.53299000  0.63669000  0.47543000  1.0
  C  C52  1  0.53832000  0.39730000  0.43039000  1.0
  C  C53  1  0.46167000  0.60270000  0.56962000  1.0
  C  C54  1  0.79677000  0.02502000  0.66427000  1.0
  C  C55  1  0.20322000  0.97498000  0.33573000  1.0
  C  C56  1  0.67603000  0.01754000  0.58609000  1.0
  C  C57  1  0.32397000  0.98245000  0.41391000  1.0
  C  C58  1  0.74346000  0.08286000  0.50010000  1.0
  C  C59  1  0.25655000  0.91714000  0.49989000  1.0
  C  C60  1  0.00950000  0.20721000  0.46851000  1.0
  C  C61  1  0.99050000  0.79279000  0.53149000  1.0
  C  C62  1  0.00300000  0.35836000  0.48670000  1.0
  C  C63  1  0.99701000  0.64165000  0.51331000  1.0
  C  C64  1  0.09818000  0.44790000  0.42640000  1.0
  C  C65  1  0.90183000  0.55210000  0.57360000  1.0
  C  C66  1  0.09523000  0.58836000  0.43921000  1.0
  C  C67  1  0.90477000  0.41164000  0.56079000  1.0
  C  C68  1  0.11746000  0.24249000  0.93507000  1.0
  C  C69  1  0.88255000  0.75752000  0.06493000  1.0
  C  C70  1  0.13894000  0.39335000  0.92266000  1.0
  C  C71  1  0.86107000  0.60665000  0.07733000  1.0
  C  C72  1  0.27335000  0.47338000  0.96188000  1.0
  C  C73  1  0.72667000  0.52663000  0.03811000  1.0
  C  C74  1  0.29548000  0.61076000  0.93717000  1.0
  C  C75  1  0.70452000  0.38925000  0.06282000  1.0
  C  C76  1  0.18131000  0.66973000  0.87478000  1.0
  C  C77  1  0.81868000  0.33027000  0.12521000  1.0
  C  C78  1  0.04444000  0.59240000  0.83871000  1.0
  C  C79  1  0.95556000  0.40760000  0.16129000  1.0
  C  C80  1  0.02486000  0.45435000  0.86156000  1.0
  C  C81  1  0.97515000  0.54564000  0.13844000  1.0
  S  S82  1  0.21963000  0.84161000  0.83303000  1.0
  S  S83  1  0.78036000  0.15839000  0.16696000  1.0
  N  N84  1  0.38812000  0.19897000  0.75926000  1.0
  N  N85  1  0.61187000  0.80104000  0.24074000  1.0
  N  N86  1  0.43895000  0.33333333  0.75417000  1.0
  N  N87  1  0.56104000  0.66671000  0.24584000  1.0
  N  N88  1  0.92966000  0.09056000  0.62856000  1.0
  N  N89  1  0.07033000  0.90944000  0.37144000  1.0
  N  N90  1  0.89568000  0.12481000  0.52829000  1.0
  N  N91  1  0.10432000  0.87519000  0.47170000  1.0
  O  O92  1  0.23246000  0.18965000  0.99204000  1.0
  O  O93  1  0.76755000  0.81036000  0.00796000  1.0
  O  O94  1  0.00687000  0.17241000  0.89097000  1.0
  O  O95  1  0.99315000  0.82759000  0.10903000  1.0
  O  O96  1  0.07126000  0.87764000  0.78087000  1.0
  O  O97  1  0.92873000  0.12235000  0.21912000  1.0
  O  O98  1  0.26441000  0.92314000  0.92824000  1.0
  O  O99  1  0.73558000  0.07686000  0.07176000  1.0
  O  O100  1  0.35102000  0.83493000  0.75967000  1.0
  O  O101  1  0.64897000  0.16508000  0.24033000  1.0
