# generated using pymatgen
data_ZnH21C28(NO)4
_symmetry_space_group_name_H-M   'P 1'
_cell_length_a   9.40167000
_cell_length_b   15.99150000
_cell_length_c   18.16810000
_cell_angle_alpha   89.99980000
_cell_angle_beta   100.96900000
_cell_angle_gamma   89.99980000
_symmetry_Int_Tables_number   1
_chemical_formula_structural   ZnH21C28(NO)4
_chemical_formula_sum   'Zn4 H84 C112 N16 O16'
_cell_volume   2681.61176642
_cell_formula_units_Z   4
loop_
 _symmetry_equiv_pos_site_id
 _symmetry_equiv_pos_as_xyz
  1  'x, y, z'
loop_
 _atom_site_type_symbol
 _atom_site_label
 _atom_site_symmetry_multiplicity
 _atom_site_fract_x
 _atom_site_fract_y
 _atom_site_fract_z
 _atom_site_occupancy
  Zn  Zn0  1  0.39038000  0.28427000  0.80613000  1.0
  Zn  Zn1  1  0.10962000  0.78428000  0.69387000  1.0
  Zn  Zn2  1  0.60962000  0.71572000  0.19387000  1.0
  Zn  Zn3  1  0.89038000  0.21572000  0.30612000  1.0
  H  H4  1  0.13397000  0.22218000  0.53312000  1.0
  H  H5  1  0.36603000  0.72217000  0.96689000  1.0
  H  H6  1  0.86604000  0.77783000  0.46689000  1.0
  H  H7  1  0.63397000  0.27783000  0.03311000  1.0
  H  H8  1  0.41698000  0.11284000  0.40158000  1.0
  H  H9  1  0.08302000  0.61284000  0.09842000  1.0
  H  H10  1  0.58301000  0.88716000  0.59842000  1.0
  H  H11  1  0.91698000  0.38716000  0.90158000  1.0
  H  H12  1  0.55142000  0.13722000  0.64278000  1.0
  H  H13  1  0.94857000  0.63722000  0.85722000  1.0
  H  H14  1  0.44857000  0.86278000  0.35722000  1.0
  H  H15  1  0.05143000  0.36278000  0.14278000  1.0
  H  H16  1  0.59372000  0.05243000  0.39783000  1.0
  H  H17  1  0.90628000  0.55242000  0.10217000  1.0
  H  H18  1  0.40627000  0.94757000  0.60217000  1.0
  H  H19  1  0.09372000  0.44758000  0.89783000  1.0
  H  H20  1  0.82734000  0.99739000  0.38720000  1.0
  H  H21  1  0.67265000  0.49739000  0.11280000  1.0
  H  H22  1  0.17265000  0.00261000  0.61280000  1.0
  H  H23  1  0.32735000  0.50262000  0.88719000  1.0
  H  H24  1  0.98556000  0.04877000  0.62174000  1.0
  H  H25  1  0.51443000  0.54878000  0.87826000  1.0
  H  H26  1  0.01443000  0.95122000  0.37826000  1.0
  H  H27  1  0.48557000  0.45123000  0.12173000  1.0
  H  H28  1  0.75222000  0.10487000  0.63207000  1.0
  H  H29  1  0.74778000  0.60487000  0.86792000  1.0
  H  H30  1  0.24777000  0.89513000  0.36792000  1.0
  H  H31  1  0.25223000  0.39513000  0.13207000  1.0
  H  H32  1  0.10827000  0.39394000  0.75294000  1.0
  H  H33  1  0.39173000  0.89394000  0.74706000  1.0
  H  H34  1  0.89173000  0.60606000  0.24706000  1.0
  H  H35  1  0.60827000  0.10606000  0.25294000  1.0
  H  H36  1  0.54386000  0.44424000  0.74292000  1.0
  H  H37  1  0.95614000  0.94425000  0.75708000  1.0
  H  H38  1  0.45614000  0.55575000  0.25708000  1.0
  H  H39  1  0.04386000  0.05575000  0.24292000  1.0
  H  H40  1  0.36709000  0.56754000  0.66169000  1.0
  H  H41  1  0.13291000  0.06754000  0.83831000  1.0
  H  H42  1  0.63291000  0.43245000  0.33832000  1.0
  H  H43  1  0.86709000  0.93246000  0.16169000  1.0
  H  H44  1  0.08141000  0.60407000  0.67069000  1.0
  H  H45  1  0.41859000  0.10407000  0.82931000  1.0
  H  H46  1  0.91859000  0.39593000  0.32931000  1.0
  H  H47  1  0.58142000  0.89592000  0.17069000  1.0
  H  H48  1  0.98070000  0.51568000  0.68763000  1.0
  H  H49  1  0.51930000  0.01569000  0.81237000  1.0
  H  H50  1  0.01930000  0.48432000  0.31238000  1.0
  H  H51  1  0.48070000  0.98431000  0.18763000  1.0
  H  H52  1  0.09738000  0.38608000  0.58903000  1.0
  H  H53  1  0.40262000  0.88608000  0.91098000  1.0
  H  H54  1  0.90262000  0.61392000  0.41098000  1.0
  H  H55  1  0.59738000  0.11391000  0.08902000  1.0
  H  H56  1  0.03316000  0.35649000  0.45309000  1.0
  H  H57  1  0.46685000  0.85649000  0.04691000  1.0
  H  H58  1  0.96684000  0.64351000  0.54692000  1.0
  H  H59  1  0.53316000  0.14351000  0.95309000  1.0
  H  H60  1  0.33075000  0.23951000  0.96916000  1.0
  H  H61  1  0.16925000  0.73951000  0.53084000  1.0
  H  H62  1  0.66925000  0.76049000  0.03084000  1.0
  H  H63  1  0.83076000  0.26048000  0.46916000  1.0
  H  H64  1  0.04558000  0.23635000  0.76002000  1.0
  H  H65  1  0.45442000  0.73635000  0.73998000  1.0
  H  H66  1  0.95442000  0.76365000  0.23998000  1.0
  H  H67  1  0.54558000  0.26365000  0.26002000  1.0
  H  H68  1  0.89444000  0.18571000  0.87140000  1.0
  H  H69  1  0.60557000  0.68571000  0.62861000  1.0
  H  H70  1  0.10557000  0.81429000  0.12861000  1.0
  H  H71  1  0.39444000  0.31429000  0.37139000  1.0
  H  H72  1  0.99107000  0.21371000  0.02927000  1.0
  H  H73  1  0.50893000  0.71370000  0.47073000  1.0
  H  H74  1  0.00894000  0.78630000  0.97073000  1.0
  H  H75  1  0.49107000  0.28629000  0.52927000  1.0
  H  H76  1  0.17730000  0.18732000  0.05529000  1.0
  H  H77  1  0.32270000  0.68732000  0.44471000  1.0
  H  H78  1  0.82271000  0.81268000  0.94471000  1.0
  H  H79  1  0.67730000  0.31268000  0.55529000  1.0
  H  H80  1  0.25954000  0.04066000  0.03449000  1.0
  H  H81  1  0.24046000  0.54065000  0.46551000  1.0
  H  H82  1  0.74046000  0.95935000  0.96552000  1.0
  H  H83  1  0.75954000  0.45935000  0.53449000  1.0
  H  H84  1  0.80846000  0.10914000  0.98151000  1.0
  H  H85  1  0.69154000  0.60914000  0.51849000  1.0
  H  H86  1  0.19154000  0.89086000  0.01849000  1.0
  H  H87  1  0.30847000  0.39086000  0.48151000  1.0
  C  C88  1  0.30909000  0.21368000  0.66749000  1.0
  C  C89  1  0.19092000  0.71368000  0.83251000  1.0
  C  C90  1  0.69092000  0.78632000  0.33251000  1.0
  C  C91  1  0.80910000  0.28632000  0.16749000  1.0
  C  C92  1  0.34060000  0.18122000  0.59460000  1.0
  C  C93  1  0.15940000  0.68122000  0.90540000  1.0
  C  C94  1  0.65940000  0.81878000  0.40540000  1.0
  C  C95  1  0.84061000  0.31878000  0.09460000  1.0
  C  C96  1  0.23704000  0.19330000  0.52934000  1.0
  C  C97  1  0.26296000  0.69329000  0.97066000  1.0
  C  C98  1  0.76296000  0.80671000  0.47065000  1.0
  C  C99  1  0.73704000  0.30671000  0.02935000  1.0
  C  C100  1  0.26677000  0.16796000  0.46029000  1.0
  C  C101  1  0.23322000  0.66795000  0.03971000  1.0
  C  C102  1  0.73323000  0.83205000  0.53971000  1.0
  C  C103  1  0.76677000  0.33205000  0.96029000  1.0
  C  C104  1  0.39970000  0.13069000  0.45697000  1.0
  C  C105  1  0.10030000  0.63069000  0.04303000  1.0
  C  C106  1  0.60030000  0.86932000  0.54303000  1.0
  C  C107  1  0.89970000  0.36931000  0.95697000  1.0
  C  C108  1  0.50702000  0.11880000  0.52147000  1.0
  C  C109  1  0.99298000  0.61880000  0.97853000  1.0
  C  C110  1  0.49297000  0.88120000  0.47853000  1.0
  C  C111  1  0.00702000  0.38120000  0.02147000  1.0
  C  C112  1  0.47369000  0.14413000  0.59048000  1.0
  C  C113  1  0.02631000  0.64413000  0.90952000  1.0
  C  C114  1  0.52631000  0.85587000  0.40952000  1.0
  C  C115  1  0.97369000  0.35587000  0.09047000  1.0
  C  C116  1  0.65064000  0.08401000  0.51588000  1.0
  C  C117  1  0.84936000  0.58401000  0.98412000  1.0
  C  C118  1  0.34936000  0.91599000  0.48412000  1.0
  C  C119  1  0.15064000  0.41599000  0.01587000  1.0
  C  C120  1  0.67894000  0.05291000  0.44762000  1.0
  C  C121  1  0.82106000  0.55291000  0.05238000  1.0
  C  C122  1  0.32105000  0.94709000  0.55237000  1.0
  C  C123  1  0.17895000  0.44709000  0.94762000  1.0
  C  C124  1  0.81324000  0.02086000  0.44155000  1.0
  C  C125  1  0.68675000  0.52086000  0.05845000  1.0
  C  C126  1  0.18675000  0.97913000  0.55845000  1.0
  C  C127  1  0.31324000  0.47914000  0.94155000  1.0
  C  C128  1  0.92886000  0.01758000  0.50335000  1.0
  C  C129  1  0.57113000  0.51758000  0.99664000  1.0
  C  C130  1  0.07113000  0.98241000  0.49665000  1.0
  C  C131  1  0.42887000  0.48242000  0.00335000  1.0
  C  C132  1  0.90113000  0.04922000  0.57159000  1.0
  C  C133  1  0.59886000  0.54922000  0.92841000  1.0
  C  C134  1  0.09885000  0.95077000  0.42841000  1.0
  C  C135  1  0.40114000  0.45078000  0.07159000  1.0
  C  C136  1  0.76641000  0.08139000  0.57762000  1.0
  C  C137  1  0.73359000  0.58140000  0.92238000  1.0
  C  C138  1  0.23358000  0.91860000  0.42238000  1.0
  C  C139  1  0.26641000  0.41861000  0.07762000  1.0
  C  C140  1  0.15776000  0.18048000  0.38911000  1.0
  C  C141  1  0.34223000  0.68047000  0.11090000  1.0
  C  C142  1  0.84223000  0.81953000  0.61090000  1.0
  C  C143  1  0.65777000  0.31953000  0.88910000  1.0
  C  C144  1  0.20418000  0.42434000  0.74071000  1.0
  C  C145  1  0.29582000  0.92434000  0.75929000  1.0
  C  C146  1  0.79582000  0.57566000  0.25929000  1.0
  C  C147  1  0.70418000  0.07566000  0.24071000  1.0
  C  C148  1  0.42744000  0.45317000  0.73244000  1.0
  C  C149  1  0.07257000  0.95318000  0.76756000  1.0
  C  C150  1  0.57257000  0.54682000  0.26756000  1.0
  C  C151  1  0.92744000  0.04682000  0.23244000  1.0
  C  C152  1  0.34142000  0.51355000  0.69267000  1.0
  C  C153  1  0.15858000  0.01356000  0.80733000  1.0
  C  C154  1  0.65858000  0.48644000  0.30733000  1.0
  C  C155  1  0.84142000  0.98644000  0.19267000  1.0
  C  C156  1  0.06957000  0.53659000  0.66041000  1.0
  C  C157  1  0.43043000  0.03659000  0.83959000  1.0
  C  C158  1  0.93044000  0.46341000  0.33959000  1.0
  C  C159  1  0.56957000  0.96341000  0.16041000  1.0
  C  C160  1  0.03597000  0.51718000  0.57733000  1.0
  C  C161  1  0.46403000  0.01718000  0.92267000  1.0
  C  C162  1  0.96404000  0.48282000  0.42268000  1.0
  C  C163  1  0.53597000  0.98282000  0.07733000  1.0
  C  C164  1  0.05424000  0.43645000  0.55045000  1.0
  C  C165  1  0.44576000  0.93645000  0.94955000  1.0
  C  C166  1  0.94576000  0.56355000  0.44956000  1.0
  C  C167  1  0.55424000  0.06355000  0.05045000  1.0
  C  C168  1  0.01819000  0.41955000  0.47372000  1.0
  C  C169  1  0.48181000  0.91955000  0.02628000  1.0
  C  C170  1  0.98181000  0.58045000  0.52628000  1.0
  C  C171  1  0.51819000  0.08045000  0.97372000  1.0
  C  C172  1  0.23364000  0.23135000  0.92684000  1.0
  C  C173  1  0.26636000  0.73135000  0.57316000  1.0
  C  C174  1  0.76637000  0.76865000  0.07316000  1.0
  C  C175  1  0.73364000  0.26865000  0.42684000  1.0
  C  C176  1  0.08013000  0.23029000  0.82024000  1.0
  C  C177  1  0.41987000  0.73029000  0.67976000  1.0
  C  C178  1  0.91987000  0.76971000  0.17976000  1.0
  C  C179  1  0.58014000  0.26971000  0.32024000  1.0
  C  C180  1  0.00613000  0.20414000  0.87432000  1.0
  C  C181  1  0.49387000  0.70413000  0.62568000  1.0
  C  C182  1  0.99387000  0.79586000  0.12568000  1.0
  C  C183  1  0.50613000  0.29586000  0.37432000  1.0
  C  C184  1  0.07801000  0.17575000  0.01391000  1.0
  C  C185  1  0.42199000  0.67575000  0.48609000  1.0
  C  C186  1  0.92200000  0.82425000  0.98609000  1.0
  C  C187  1  0.57801000  0.32425000  0.51391000  1.0
  C  C188  1  0.03813000  0.08450000  0.00933000  1.0
  C  C189  1  0.46187000  0.58450000  0.49067000  1.0
  C  C190  1  0.96187000  0.91550000  0.99068000  1.0
  C  C191  1  0.53813000  0.41550000  0.50932000  1.0
  C  C192  1  0.14560000  0.02287000  0.01989000  1.0
  C  C193  1  0.35440000  0.52287000  0.48011000  1.0
  C  C194  1  0.85440000  0.97713000  0.98011000  1.0
  C  C195  1  0.64560000  0.47713000  0.51989000  1.0
  C  C196  1  0.89249000  0.06115000  0.98940000  1.0
  C  C197  1  0.60750000  0.56115000  0.51060000  1.0
  C  C198  1  0.10751000  0.93885000  0.01060000  1.0
  C  C199  1  0.39250000  0.43885000  0.48940000  1.0
  N  N200  1  0.34008000  0.39799000  0.76207000  1.0
  N  N201  1  0.15992000  0.89799000  0.73793000  1.0
  N  N202  1  0.65992000  0.60201000  0.23793000  1.0
  N  N203  1  0.84008000  0.10201000  0.26207000  1.0
  N  N204  1  0.20058000  0.49463000  0.69899000  1.0
  N  N205  1  0.29942000  0.99463000  0.80101000  1.0
  N  N206  1  0.79942000  0.50536000  0.30101000  1.0
  N  N207  1  0.70059000  0.00537000  0.19899000  1.0
  N  N208  1  0.22201000  0.24691000  0.85386000  1.0
  N  N209  1  0.27799000  0.74691000  0.64614000  1.0
  N  N210  1  0.77799000  0.75309000  0.14614000  1.0
  N  N211  1  0.72201000  0.25309000  0.35386000  1.0
  N  N212  1  0.10503000  0.20498000  0.94129000  1.0
  N  N213  1  0.39497000  0.70497000  0.55872000  1.0
  N  N214  1  0.89497000  0.79502000  0.05872000  1.0
  N  N215  1  0.60504000  0.29502000  0.44128000  1.0
  O  O216  1  0.18958000  0.24761000  0.66897000  1.0
  O  O217  1  0.31042000  0.74761000  0.83103000  1.0
  O  O218  1  0.81042000  0.75240000  0.33103000  1.0
  O  O219  1  0.68959000  0.25240000  0.16898000  1.0
  O  O220  1  0.41460000  0.20623000  0.72518000  1.0
  O  O221  1  0.08540000  0.70623000  0.77482000  1.0
  O  O222  1  0.58541000  0.79377000  0.27482000  1.0
  O  O223  1  0.91461000  0.29377000  0.22518000  1.0
  O  O224  1  0.04312000  0.22358000  0.39655000  1.0
  O  O225  1  0.45687000  0.72357000  0.10346000  1.0
  O  O226  1  0.95687000  0.77642000  0.60346000  1.0
  O  O227  1  0.54313000  0.27642000  0.89654000  1.0
  O  O228  1  0.17871000  0.15086000  0.32849000  1.0
  O  O229  1  0.32127000  0.65084000  0.17151000  1.0
  O  O230  1  0.82128000  0.84916000  0.67151000  1.0
  O  O231  1  0.67872000  0.34915000  0.82849000  1.0
