# generated using pymatgen
data_ZnHC5Br3NO4
_symmetry_space_group_name_H-M   'P 1'
_cell_length_a   7.28635000
_cell_length_b   8.91113000
_cell_length_c   11.53030000
_cell_angle_alpha   87.46480000
_cell_angle_beta   75.56900000
_cell_angle_gamma   76.21540000
_symmetry_Int_Tables_number   1
_chemical_formula_structural   ZnHC5Br3NO4
_chemical_formula_sum   'Zn2 H2 C10 Br6 N2 O8'
_cell_volume   704.06303096
_cell_formula_units_Z   2
loop_
 _symmetry_equiv_pos_site_id
 _symmetry_equiv_pos_as_xyz
  1  'x, y, z'
loop_
 _atom_site_type_symbol
 _atom_site_label
 _atom_site_symmetry_multiplicity
 _atom_site_fract_x
 _atom_site_fract_y
 _atom_site_fract_z
 _atom_site_occupancy
  Zn  Zn0  1  0.71093000  0.47988000  0.44347000  1.0
  Zn  Zn1  1  0.29539000  0.53516000  0.55600000  1.0
  H  H2  1  0.89181000  0.53425000  0.61652000  1.0
  H  H3  1  0.11354000  0.48808000  0.38175000  1.0
  C  C4  1  0.46303000  0.79931000  0.48625000  1.0
  C  C5  1  0.56232000  0.04389000  0.51980000  1.0
  C  C6  1  0.55018000  0.21442000  0.51266000  1.0
  C  C7  1  0.50036000  0.49356000  0.26897000  1.0
  C  C8  1  0.50197000  0.52857000  0.72986000  1.0
  C  C9  1  0.45831000  0.49147000  0.14781000  1.0
  C  C10  1  0.54191000  0.54055000  0.85001000  1.0
  C  C11  1  0.46640000  0.60388000  0.06689000  1.0
  C  C12  1  0.41370000  0.60224000  0.95226000  1.0
  C  C13  1  0.44702000  0.97070000  0.48066000  1.0
  Br  Br14  1  0.14685000  0.69760000  0.96364000  1.0
  Br  Br15  1  0.53830000  0.78614000  0.10223000  1.0
  Br  Br16  1  0.80734000  0.46267000  0.85537000  1.0
  Br  Br17  1  0.37661000  0.31298000  0.11814000  1.0
  Br  Br18  1  0.24499000  0.07383000  0.40859000  1.0
  Br  Br19  1  0.75980000  0.93460000  0.59382000  1.0
  N  N20  1  0.01829000  0.52755000  0.54653000  1.0
  N  N21  1  0.98711000  0.49357000  0.45126000  1.0
  O  O22  1  0.62555000  0.71416000  0.43358000  1.0
  O  O23  1  0.38106000  0.30147000  0.54641000  1.0
  O  O24  1  0.31081000  0.75657000  0.54212000  1.0
  O  O25  1  0.70917000  0.25640000  0.47396000  1.0
  O  O26  1  0.67685000  0.46311000  0.27365000  1.0
  O  O27  1  0.32904000  0.52845000  0.72721000  1.0
  O  O28  1  0.35196000  0.52438000  0.35738000  1.0
  O  O29  1  0.64455000  0.51877000  0.63803000  1.0
