# generated using pymatgen
data_CdH14C20(NO)4
_symmetry_space_group_name_H-M   'P 1'
_cell_length_a   8.48597000
_cell_length_b   17.99530000
_cell_length_c   18.60510000
_cell_angle_alpha   89.99980000
_cell_angle_beta   89.99990000
_cell_angle_gamma   89.99960000
_symmetry_Int_Tables_number   1
_chemical_formula_structural   CdH14C20(NO)4
_chemical_formula_sum   'Cd4 H56 C80 N16 O16'
_cell_volume   2841.13972105
_cell_formula_units_Z   4
loop_
 _symmetry_equiv_pos_site_id
 _symmetry_equiv_pos_as_xyz
  1  'x, y, z'
loop_
 _atom_site_type_symbol
 _atom_site_label
 _atom_site_symmetry_multiplicity
 _atom_site_fract_x
 _atom_site_fract_y
 _atom_site_fract_z
 _atom_site_occupancy
  Cd  Cd0  1  0.00284000  0.31310000  0.46981000  1.0
  Cd  Cd1  1  0.99716000  0.81310000  0.53019000  1.0
  Cd  Cd2  1  0.99715000  0.31310000  0.96981000  1.0
  Cd  Cd3  1  0.00284000  0.81310000  0.03019000  1.0
  H  H4  1  0.31479000  0.34910000  0.58581000  1.0
  H  H5  1  0.68520000  0.84909000  0.41419000  1.0
  H  H6  1  0.68522000  0.34909000  0.08581000  1.0
  H  H7  1  0.31478000  0.84909000  0.91418000  1.0
  H  H8  1  0.87433000  0.25178000  0.63058000  1.0
  H  H9  1  0.12568000  0.75178000  0.36942000  1.0
  H  H10  1  0.12569000  0.25178000  0.13059000  1.0
  H  H11  1  0.87430000  0.75178000  0.86942000  1.0
  H  H12  1  0.05206000  0.25196000  0.75630000  1.0
  H  H13  1  0.94795000  0.75196000  0.24371000  1.0
  H  H14  1  0.94795000  0.25196000  0.25630000  1.0
  H  H15  1  0.05204000  0.75196000  0.74370000  1.0
  H  H16  1  0.20224000  0.33220000  0.82437000  1.0
  H  H17  1  0.79776000  0.83221000  0.17564000  1.0
  H  H18  1  0.79774000  0.33220000  0.32437000  1.0
  H  H19  1  0.20224000  0.83220000  0.67563000  1.0
  H  H20  1  0.42671000  0.33930000  0.91035000  1.0
  H  H21  1  0.57330000  0.83930000  0.08965000  1.0
  H  H22  1  0.57327000  0.33929000  0.41035000  1.0
  H  H23  1  0.42672000  0.83930000  0.58965000  1.0
  H  H24  1  0.75355000  0.30582000  0.73710000  1.0
  H  H25  1  0.24646000  0.80581000  0.26290000  1.0
  H  H26  1  0.24645000  0.30581000  0.23709000  1.0
  H  H27  1  0.75354000  0.80581000  0.76291000  1.0
  H  H28  1  0.53055000  0.29455000  0.65038000  1.0
  H  H29  1  0.46946000  0.79453000  0.34961000  1.0
  H  H30  1  0.46947000  0.29454000  0.15038000  1.0
  H  H31  1  0.53052000  0.79453000  0.84962000  1.0
  H  H32  1  0.69108000  0.42723000  0.49469000  1.0
  H  H33  1  0.30893000  0.92723000  0.50531000  1.0
  H  H34  1  0.30893000  0.42723000  0.99470000  1.0
  H  H35  1  0.69107000  0.92723000  0.00530000  1.0
  H  H36  1  0.10782000  0.47320000  0.38001000  1.0
  H  H37  1  0.89219000  0.97320000  0.62000000  1.0
  H  H38  1  0.89221000  0.47319000  0.87999000  1.0
  H  H39  1  0.10781000  0.97320000  0.11999000  1.0
  H  H40  1  0.91765000  0.59964000  0.37802000  1.0
  H  H41  1  0.08237000  0.09964000  0.62199000  1.0
  H  H42  1  0.08238000  0.59962000  0.87800000  1.0
  H  H43  1  0.91763000  0.09963000  0.12198000  1.0
  H  H44  1  0.79088000  0.67052000  0.46983000  1.0
  H  H45  1  0.20913000  0.17053000  0.53018000  1.0
  H  H46  1  0.20912000  0.67052000  0.96982000  1.0
  H  H47  1  0.79087000  0.17052000  0.03017000  1.0
  H  H48  1  0.56894000  0.75791000  0.49437000  1.0
  H  H49  1  0.43107000  0.25791000  0.50565000  1.0
  H  H50  1  0.43105000  0.75791000  0.99435000  1.0
  H  H51  1  0.56894000  0.25791000  0.00564000  1.0
  H  H52  1  0.23823000  0.57803000  0.47535000  1.0
  H  H53  1  0.76178000  0.07803000  0.52465000  1.0
  H  H54  1  0.76177000  0.57803000  0.97534000  1.0
  H  H55  1  0.23822000  0.07803000  0.02465000  1.0
  H  H56  1  0.45743000  0.49080000  0.44485000  1.0
  H  H57  1  0.54259000  0.99080000  0.55516000  1.0
  H  H58  1  0.54259000  0.49080000  0.94484000  1.0
  H  H59  1  0.45742000  0.99080000  0.05515000  1.0
  C  C60  1  0.21913000  0.32213000  0.61426000  1.0
  C  C61  1  0.78087000  0.82213000  0.38574000  1.0
  C  C62  1  0.78088000  0.32213000  0.11427000  1.0
  C  C63  1  0.21911000  0.82213000  0.88573000  1.0
  C  C64  1  0.99312000  0.27146000  0.64029000  1.0
  C  C65  1  0.00689000  0.77146000  0.35971000  1.0
  C  C66  1  0.00690000  0.27146000  0.14029000  1.0
  C  C67  1  0.99309000  0.77146000  0.85971000  1.0
  C  C68  1  0.07977000  0.27093000  0.70247000  1.0
  C  C69  1  0.92024000  0.77093000  0.29753000  1.0
  C  C70  1  0.92024000  0.27093000  0.20247000  1.0
  C  C71  1  0.07975000  0.77093000  0.79753000  1.0
  C  C72  1  0.35325000  0.31212000  0.73286000  1.0
  C  C73  1  0.64676000  0.81211000  0.26714000  1.0
  C  C74  1  0.64675000  0.31211000  0.23286000  1.0
  C  C75  1  0.35324000  0.81211000  0.76714000  1.0
  C  C76  1  0.32311000  0.32570000  0.80554000  1.0
  C  C77  1  0.67689000  0.82570000  0.19446000  1.0
  C  C78  1  0.67688000  0.32569000  0.30554000  1.0
  C  C79  1  0.32311000  0.82569000  0.69446000  1.0
  C  C80  1  0.44872000  0.33089000  0.85326000  1.0
  C  C81  1  0.55128000  0.83089000  0.14673000  1.0
  C  C82  1  0.55126000  0.33088000  0.35326000  1.0
  C  C83  1  0.44873000  0.83088000  0.64674000  1.0
  C  C84  1  0.60395000  0.32298000  0.82884000  1.0
  C  C85  1  0.39605000  0.82298000  0.17116000  1.0
  C  C86  1  0.39604000  0.32297000  0.32883000  1.0
  C  C87  1  0.60395000  0.82298000  0.67117000  1.0
  C  C88  1  0.63233000  0.31148000  0.75547000  1.0
  C  C89  1  0.36767000  0.81147000  0.24453000  1.0
  C  C90  1  0.36766000  0.31147000  0.25546000  1.0
  C  C91  1  0.63233000  0.81147000  0.74454000  1.0
  C  C92  1  0.50777000  0.30585000  0.70710000  1.0
  C  C93  1  0.49224000  0.80584000  0.29290000  1.0
  C  C94  1  0.49224000  0.30584000  0.20709000  1.0
  C  C95  1  0.50776000  0.80584000  0.79291000  1.0
  C  C96  1  0.73738000  0.32426000  0.88145000  1.0
  C  C97  1  0.26262000  0.82425000  0.11855000  1.0
  C  C98  1  0.26260000  0.32424000  0.38144000  1.0
  C  C99  1  0.73739000  0.82425000  0.61856000  1.0
  C  C100  1  0.77828000  0.45615000  0.46262000  1.0
  C  C101  1  0.22173000  0.95616000  0.53739000  1.0
  C  C102  1  0.22174000  0.45615000  0.96262000  1.0
  C  C103  1  0.77827000  0.95615000  0.03738000  1.0
  C  C104  1  0.99258000  0.48278000  0.40336000  1.0
  C  C105  1  0.00743000  0.98278000  0.59664000  1.0
  C  C106  1  0.00744000  0.48278000  0.90336000  1.0
  C  C107  1  0.99257000  0.98278000  0.09663000  1.0
  C  C108  1  0.90070000  0.54546000  0.40216000  1.0
  C  C109  1  0.09931000  0.04546000  0.59785000  1.0
  C  C110  1  0.09931000  0.54545000  0.90215000  1.0
  C  C111  1  0.90069000  0.04546000  0.09784000  1.0
  C  C112  1  0.63656000  0.57643000  0.45468000  1.0
  C  C113  1  0.36345000  0.07644000  0.54533000  1.0
  C  C114  1  0.36345000  0.57643000  0.95467000  1.0
  C  C115  1  0.63655000  0.07643000  0.04532000  1.0
  C  C116  1  0.66917000  0.65119000  0.46858000  1.0
  C  C117  1  0.33084000  0.15119000  0.53144000  1.0
  C  C118  1  0.33083000  0.65119000  0.96856000  1.0
  C  C119  1  0.66917000  0.15119000  0.03143000  1.0
  C  C120  1  0.54541000  0.69963000  0.48261000  1.0
  C  C121  1  0.45460000  0.19963000  0.51740000  1.0
  C  C122  1  0.45458000  0.69963000  0.98260000  1.0
  C  C123  1  0.54541000  0.19963000  0.01739000  1.0
  C  C124  1  0.39000000  0.67343000  0.48484000  1.0
  C  C125  1  0.61001000  0.17343000  0.51517000  1.0
  C  C126  1  0.61000000  0.67343000  0.98483000  1.0
  C  C127  1  0.39000000  0.17343000  0.01516000  1.0
  C  C128  1  0.35944000  0.59791000  0.47276000  1.0
  C  C129  1  0.64057000  0.09791000  0.52725000  1.0
  C  C130  1  0.64057000  0.59791000  0.97275000  1.0
  C  C131  1  0.35943000  0.09791000  0.02724000  1.0
  C  C132  1  0.48200000  0.54918000  0.45642000  1.0
  C  C133  1  0.51801000  0.04918000  0.54359000  1.0
  C  C134  1  0.51801000  0.54918000  0.95641000  1.0
  C  C135  1  0.48198000  0.04918000  0.04358000  1.0
  C  C136  1  0.25886000  0.72690000  0.49967000  1.0
  C  C137  1  0.74115000  0.22691000  0.50033000  1.0
  C  C138  1  0.74114000  0.72691000  0.99967000  1.0
  C  C139  1  0.25885000  0.22691000  0.00033000  1.0
  N  N140  1  0.08098000  0.30364000  0.58607000  1.0
  N  N141  1  0.91902000  0.80364000  0.41393000  1.0
  N  N142  1  0.91903000  0.30364000  0.08607000  1.0
  N  N143  1  0.08096000  0.80364000  0.91393000  1.0
  N  N144  1  0.22376000  0.30304000  0.68518000  1.0
  N  N145  1  0.77625000  0.80303000  0.31482000  1.0
  N  N146  1  0.77625000  0.30303000  0.18519000  1.0
  N  N147  1  0.22374000  0.80303000  0.81481000  1.0
  N  N148  1  0.91500000  0.42793000  0.44131000  1.0
  N  N149  1  0.08501000  0.92793000  0.55869000  1.0
  N  N150  1  0.08501000  0.42793000  0.94131000  1.0
  N  N151  1  0.91499000  0.92793000  0.05868000  1.0
  N  N152  1  0.76446000  0.52776000  0.43977000  1.0
  N  N153  1  0.23555000  0.02776000  0.56024000  1.0
  N  N154  1  0.23555000  0.52775000  0.93976000  1.0
  N  N155  1  0.76445000  0.02776000  0.06023000  1.0
  O  O156  1  0.87011000  0.29705000  0.86112000  1.0
  O  O157  1  0.12989000  0.79705000  0.13887000  1.0
  O  O158  1  0.12987000  0.29704000  0.36111000  1.0
  O  O159  1  0.87012000  0.79705000  0.63888000  1.0
  O  O160  1  0.71455000  0.35081000  0.94399000  1.0
  O  O161  1  0.28546000  0.85080000  0.05601000  1.0
  O  O162  1  0.28543000  0.35080000  0.44398000  1.0
  O  O163  1  0.71456000  0.85080000  0.55602000  1.0
  O  O164  1  0.28212000  0.79567000  0.48767000  1.0
  O  O165  1  0.71788000  0.29567000  0.51233000  1.0
  O  O166  1  0.71787000  0.79567000  0.98766000  1.0
  O  O167  1  0.28212000  0.29567000  0.01234000  1.0
  O  O168  1  0.12791000  0.70084000  0.52311000  1.0
  O  O169  1  0.87210000  0.20084000  0.47690000  1.0
  O  O170  1  0.87209000  0.70084000  0.02310000  1.0
  O  O171  1  0.12790000  0.20084000  0.97690000  1.0
