# generated using pymatgen
data_Mn3H10(C2O3)4
_symmetry_space_group_name_H-M   'P 1'
_cell_length_a   10.97770000
_cell_length_b   11.71520000
_cell_length_c   15.83660000
_cell_angle_alpha   88.91870000
_cell_angle_beta   89.98370000
_cell_angle_gamma   89.97870000
_symmetry_Int_Tables_number   1
_chemical_formula_structural   Mn3H10(C2O3)4
_chemical_formula_sum   'Mn12 H40 C32 O48'
_cell_volume   2036.31810205
_cell_formula_units_Z   4
loop_
 _symmetry_equiv_pos_site_id
 _symmetry_equiv_pos_as_xyz
  1  'x, y, z'
loop_
 _atom_site_type_symbol
 _atom_site_label
 _atom_site_symmetry_multiplicity
 _atom_site_fract_x
 _atom_site_fract_y
 _atom_site_fract_z
 _atom_site_occupancy
  Mn  Mn0  1  0.99998000  0.99989000  0.00002000  1.0
  Mn  Mn1  1  0.49990000  0.50080000  0.49970000  1.0
  Mn  Mn2  1  0.04086000  0.26080000  0.86553000  1.0
  Mn  Mn3  1  0.54114000  0.23862000  0.63539000  1.0
  Mn  Mn4  1  0.95890000  0.73912000  0.13496000  1.0
  Mn  Mn5  1  0.45874000  0.76005000  0.36448000  1.0
  Mn  Mn6  1  0.82669000  0.23847000  0.71484000  1.0
  Mn  Mn7  1  0.32726000  0.26161000  0.78477000  1.0
  Mn  Mn8  1  0.17283000  0.76167000  0.28485000  1.0
  Mn  Mn9  1  0.67308000  0.73863000  0.21504000  1.0
  Mn  Mn10  1  0.99995000  0.50000000  0.99994000  1.0
  Mn  Mn11  1  0.50014000  0.00100000  0.50020000  1.0
  H  H12  1  0.90138000  0.97489000  0.74846000  1.0
  H  H13  1  0.40182000  0.52506000  0.75179000  1.0
  H  H14  1  0.09870000  0.02480000  0.25164000  1.0
  H  H15  1  0.59904000  0.47501000  0.24819000  1.0
  H  H16  1  0.34872000  0.05811000  0.91425000  1.0
  H  H17  1  0.84853000  0.44230000  0.58625000  1.0
  H  H18  1  0.65114000  0.94150000  0.08585000  1.0
  H  H19  1  0.15085000  0.55849000  0.41407000  1.0
  H  H20  1  0.13057000  0.33488000  0.53732000  1.0
  H  H21  1  0.63095000  0.16520000  0.96287000  1.0
  H  H22  1  0.86932000  0.66520000  0.46284000  1.0
  H  H23  1  0.36923000  0.83493000  0.03698000  1.0
  H  H24  1  0.26296000  0.31388000  0.60268000  1.0
  H  H25  1  0.76308000  0.18637000  0.89722000  1.0
  H  H26  1  0.73705000  0.68635000  0.39734000  1.0
  H  H27  1  0.23697000  0.81378000  0.10252000  1.0
  H  H28  1  0.18858000  0.44724000  0.59873000  1.0
  H  H29  1  0.68902000  0.05288000  0.90142000  1.0
  H  H30  1  0.81125000  0.55289000  0.40141000  1.0
  H  H31  1  0.31124000  0.94717000  0.09856000  1.0
  H  H32  1  0.87463000  0.18864000  0.09173000  1.0
  H  H33  1  0.37527000  0.31142000  0.40855000  1.0
  H  H34  1  0.12521000  0.81148000  0.90855000  1.0
  H  H35  1  0.62591000  0.68891000  0.59100000  1.0
  H  H36  1  0.26430000  0.51121000  0.95800000  1.0
  H  H37  1  0.76459000  0.98882000  0.54173000  1.0
  H  H38  1  0.73570000  0.48901000  0.04186000  1.0
  H  H39  1  0.23569000  0.01075000  0.45802000  1.0
  H  H40  1  0.72067000  0.55162000  0.76335000  1.0
  H  H41  1  0.22046000  0.94853000  0.73686000  1.0
  H  H42  1  0.27927000  0.44848000  0.23661000  1.0
  H  H43  1  0.77951000  0.05142000  0.26350000  1.0
  H  H44  1  0.64591000  0.51632000  0.85921000  1.0
  H  H45  1  0.14568000  0.98396000  0.64106000  1.0
  H  H46  1  0.35413000  0.48376000  0.14077000  1.0
  H  H47  1  0.85398000  0.01606000  0.35943000  1.0
  H  H48  1  0.65817000  0.41230000  0.77792000  1.0
  H  H49  1  0.15810000  0.08798000  0.72232000  1.0
  H  H50  1  0.34171000  0.58782000  0.22202000  1.0
  H  H51  1  0.84202000  0.91207000  0.27810000  1.0
  C  C52  1  0.93561000  0.01993000  0.80456000  1.0
  C  C53  1  0.43553000  0.48018000  0.69542000  1.0
  C  C54  1  0.06456000  0.98014000  0.19535000  1.0
  C  C55  1  0.56482000  0.51967000  0.30447000  1.0
  C  C56  1  0.25035000  0.07721000  0.92031000  1.0
  C  C57  1  0.75023000  0.42303000  0.57991000  1.0
  C  C58  1  0.74967000  0.92300000  0.07995000  1.0
  C  C59  1  0.24936000  0.57694000  0.41993000  1.0
  C  C60  1  0.09153000  0.31992000  0.66969000  1.0
  C  C61  1  0.59149000  0.18000000  0.83058000  1.0
  C  C62  1  0.90854000  0.68006000  0.33049000  1.0
  C  C63  1  0.40851000  0.81976000  0.16927000  1.0
  C  C64  1  0.17353000  0.35451000  0.59772000  1.0
  C  C65  1  0.67377000  0.14560000  0.90240000  1.0
  C  C66  1  0.82641000  0.64561000  0.40241000  1.0
  C  C67  1  0.32635000  0.85444000  0.09745000  1.0
  C  C68  1  0.91694000  0.24284000  0.04191000  1.0
  C  C69  1  0.41736000  0.25741000  0.45858000  1.0
  C  C70  1  0.08272000  0.75717000  0.95825000  1.0
  C  C71  1  0.58270000  0.74295000  0.54143000  1.0
  C  C72  1  0.24136000  0.43901000  0.91697000  1.0
  C  C73  1  0.74166000  0.06077000  0.58304000  1.0
  C  C74  1  0.75867000  0.56103000  0.08306000  1.0
  C  C75  1  0.25885000  0.93876000  0.41679000  1.0
  C  C76  1  0.82494000  0.44563000  0.84746000  1.0
  C  C77  1  0.32476000  0.05424000  0.65260000  1.0
  C  C78  1  0.17506000  0.55435000  0.15237000  1.0
  C  C79  1  0.67496000  0.94552000  0.34746000  1.0
  C  C80  1  0.70449000  0.48201000  0.80959000  1.0
  C  C81  1  0.20431000  0.01817000  0.69065000  1.0
  C  C82  1  0.29547000  0.51807000  0.19035000  1.0
  C  C83  1  0.79558000  0.98179000  0.30974000  1.0
  O  O84  1  0.96750000  0.96211000  0.86805000  1.0
  O  O85  1  0.46739000  0.53813000  0.63202000  1.0
  O  O86  1  0.03237000  0.03829000  0.13212000  1.0
  O  O87  1  0.53243000  0.46160000  0.36768000  1.0
  O  O88  1  0.93889000  0.12960000  0.79770000  1.0
  O  O89  1  0.43812000  0.37042000  0.70193000  1.0
  O  O90  1  0.06185000  0.87037000  0.20169000  1.0
  O  O91  1  0.56222000  0.62947000  0.29814000  1.0
  O  O92  1  0.18874000  0.01919000  0.97207000  1.0
  O  O93  1  0.68886000  0.48066000  0.52783000  1.0
  O  O94  1  0.81103000  0.98112000  0.02814000  1.0
  O  O95  1  0.31076000  0.51889000  0.47176000  1.0
  O  O96  1  0.21050000  0.15862000  0.87220000  1.0
  O  O97  1  0.71029000  0.34172000  0.62813000  1.0
  O  O98  1  0.78995000  0.84205000  0.12838000  1.0
  O  O99  1  0.28965000  0.65786000  0.37147000  1.0
  O  O100  1  0.13912000  0.29941000  0.74324000  1.0
  O  O101  1  0.63905000  0.20108000  0.75705000  1.0
  O  O102  1  0.86096000  0.70106000  0.25700000  1.0
  O  O103  1  0.36090000  0.79858000  0.24274000  1.0
  O  O104  1  0.97846000  0.31445000  0.65562000  1.0
  O  O105  1  0.47840000  0.18483000  0.84457000  1.0
  O  O106  1  0.02163000  0.68496000  0.34446000  1.0
  O  O107  1  0.52161000  0.81479000  0.15528000  1.0
  O  O108  1  0.97276000  0.18897000  0.98306000  1.0
  O  O109  1  0.47312000  0.31129000  0.51730000  1.0
  O  O110  1  0.02670000  0.81091000  0.01707000  1.0
  O  O111  1  0.52652000  0.68881000  0.48291000  1.0
  O  O112  1  0.90627000  0.34885000  0.04659000  1.0
  O  O113  1  0.40638000  0.15133000  0.45413000  1.0
  O  O114  1  0.09349000  0.65119000  0.95345000  1.0
  O  O115  1  0.59278000  0.84896000  0.54607000  1.0
  O  O116  1  0.13125000  0.40198000  0.92270000  1.0
  O  O117  1  0.63153000  0.09793000  0.57754000  1.0
  O  O118  1  0.86882000  0.59802000  0.07749000  1.0
  O  O119  1  0.36890000  0.90173000  0.42241000  1.0
  O  O120  1  0.32287000  0.40162000  0.86933000  1.0
  O  O121  1  0.82316000  0.09788000  0.63071000  1.0
  O  O122  1  0.67714000  0.59829000  0.13072000  1.0
  O  O123  1  0.17730000  0.90166000  0.36904000  1.0
  O  O124  1  0.87160000  0.34913000  0.82493000  1.0
  O  O125  1  0.37151000  0.15082000  0.67492000  1.0
  O  O126  1  0.12839000  0.65094000  0.17472000  1.0
  O  O127  1  0.62843000  0.84899000  0.32491000  1.0
  O  O128  1  0.87458000  0.51138000  0.89905000  1.0
  O  O129  1  0.37433000  0.98831000  0.60109000  1.0
  O  O130  1  0.12554000  0.48847000  0.10083000  1.0
  O  O131  1  0.62507000  0.01138000  0.39887000  1.0
