# generated using pymatgen
data_CuH3C4IN
_symmetry_space_group_name_H-M   'P 1'
_cell_length_a   4.34269000
_cell_length_b   13.47090000
_cell_length_c   17.43040000
_cell_angle_alpha   90.00010000
_cell_angle_beta   90.00020000
_cell_angle_gamma   93.67770000
_symmetry_Int_Tables_number   1
_chemical_formula_structural   CuH3C4IN
_chemical_formula_sum   'Cu8 H24 C32 I8 N8'
_cell_volume   1017.57753833
_cell_formula_units_Z   8
loop_
 _symmetry_equiv_pos_site_id
 _symmetry_equiv_pos_as_xyz
  1  'x, y, z'
loop_
 _atom_site_type_symbol
 _atom_site_label
 _atom_site_symmetry_multiplicity
 _atom_site_fract_x
 _atom_site_fract_y
 _atom_site_fract_z
 _atom_site_occupancy
  Cu  Cu0  1  0.36061000  0.18720000  0.43597000  1.0
  Cu  Cu1  1  0.13938000  0.31280000  0.93597000  1.0
  Cu  Cu2  1  0.63938000  0.81280000  0.56403000  1.0
  Cu  Cu3  1  0.86061000  0.68720000  0.06403000  1.0
  Cu  Cu4  1  0.02706000  0.26045000  0.32552000  1.0
  Cu  Cu5  1  0.47294000  0.23955000  0.82552000  1.0
  Cu  Cu6  1  0.97294000  0.73955000  0.67448000  1.0
  Cu  Cu7  1  0.52706000  0.76045000  0.17448000  1.0
  H  H8  1  0.73610000  0.10868000  0.70481000  1.0
  H  H9  1  0.76390000  0.39132000  0.20481000  1.0
  H  H10  1  0.26391000  0.89132000  0.29519000  1.0
  H  H11  1  0.23609000  0.60868000  0.79519000  1.0
  H  H12  1  0.68072000  0.08754000  0.56290000  1.0
  H  H13  1  0.81928000  0.41246000  0.06290000  1.0
  H  H14  1  0.31929000  0.91246000  0.43710000  1.0
  H  H15  1  0.18071000  0.58754000  0.93710000  1.0
  H  H16  1  0.01834000  0.32618000  0.48594000  1.0
  H  H17  1  0.48166000  0.17382000  0.98594000  1.0
  H  H18  1  0.98166000  0.67382000  0.51406000  1.0
  H  H19  1  0.51834000  0.82618000  0.01406000  1.0
  H  H20  1  0.76153000  0.46095000  0.55315000  1.0
  H  H21  1  0.73847000  0.03905000  0.05315000  1.0
  H  H22  1  0.23847000  0.53905000  0.44685000  1.0
  H  H23  1  0.26153000  0.96095000  0.94685000  1.0
  H  H24  1  0.82981000  0.48464000  0.69387000  1.0
  H  H25  1  0.67019000  0.01536000  0.19387000  1.0
  H  H26  1  0.17019000  0.51536000  0.30613000  1.0
  H  H27  1  0.32981000  0.98464000  0.80613000  1.0
  H  H28  1  0.15814000  0.37390000  0.76791000  1.0
  H  H29  1  0.34186000  0.12610000  0.26791000  1.0
  H  H30  1  0.84188000  0.62610000  0.23209000  1.0
  H  H31  1  0.65813000  0.87390000  0.73209000  1.0
  C  C32  1  0.59225000  0.15721000  0.67223000  1.0
  C  C33  1  0.90775000  0.34279000  0.17223000  1.0
  C  C34  1  0.40775000  0.84279000  0.32777000  1.0
  C  C35  1  0.09224000  0.65721000  0.82777000  1.0
  C  C36  1  0.55894000  0.14478000  0.59243000  1.0
  C  C37  1  0.94106000  0.35522000  0.09243000  1.0
  C  C38  1  0.44106000  0.85522000  0.40757000  1.0
  C  C39  1  0.05893000  0.64477000  0.90757000  1.0
  C  C40  1  0.24190000  0.27557000  0.58788000  1.0
  C  C41  1  0.25810000  0.22443000  0.08788000  1.0
  C  C42  1  0.75811000  0.72444000  0.41212000  1.0
  C  C43  1  0.74189000  0.77557000  0.91212000  1.0
  C  C44  1  0.05257000  0.33871000  0.54723000  1.0
  C  C45  1  0.44743000  0.16129000  0.04723000  1.0
  C  C46  1  0.94743000  0.66129000  0.45277000  1.0
  C  C47  1  0.55257000  0.83871000  0.95277000  1.0
  C  C48  1  0.90915000  0.41300000  0.58493000  1.0
  C  C49  1  0.59084000  0.08700000  0.08493000  1.0
  C  C50  1  0.09085000  0.58700000  0.41507000  1.0
  C  C51  1  0.40915000  0.91300000  0.91506000  1.0
  C  C52  1  0.94839000  0.42652000  0.66477000  1.0
  C  C53  1  0.55161000  0.07348000  0.16477000  1.0
  C  C54  1  0.05162000  0.57348000  0.33523000  1.0
  C  C55  1  0.44839000  0.92652000  0.83523000  1.0
  C  C56  1  0.12955000  0.36545000  0.70604000  1.0
  C  C57  1  0.37045000  0.13455000  0.20604000  1.0
  C  C58  1  0.87047000  0.63456000  0.29396000  1.0
  C  C59  1  0.62954000  0.86545000  0.79396000  1.0
  C  C60  1  0.27957000  0.28908000  0.66889000  1.0
  C  C61  1  0.22044000  0.21091000  0.16889000  1.0
  C  C62  1  0.72044000  0.71092000  0.33111000  1.0
  C  C63  1  0.77956000  0.78908000  0.83111000  1.0
  I  I64  1  0.54174000  0.35881000  0.36941000  1.0
  I  I65  1  0.95826000  0.14119000  0.86941000  1.0
  I  I66  1  0.45826000  0.64119000  0.63059000  1.0
  I  I67  1  0.04174000  0.85881000  0.13059000  1.0
  I  I68  1  0.86154000  0.08528000  0.39087000  1.0
  I  I69  1  0.63846000  0.41472000  0.89087000  1.0
  I  I70  1  0.13846000  0.91472000  0.60913000  1.0
  I  I71  1  0.36154000  0.58529000  0.10913000  1.0
  N  N72  1  0.45810000  0.22807000  0.71082000  1.0
  N  N73  1  0.04190000  0.27193000  0.21082000  1.0
  N  N74  1  0.54191000  0.77194000  0.28918000  1.0
  N  N75  1  0.95810000  0.72807000  0.78918000  1.0
  N  N76  1  0.38796000  0.20229000  0.54988000  1.0
  N  N77  1  0.11203000  0.29771000  0.04988000  1.0
  N  N78  1  0.61203000  0.79771000  0.45012000  1.0
  N  N79  1  0.88796000  0.70229000  0.95012000  1.0
