# generated using pymatgen
data_MnH24C18(SN7)2
_symmetry_space_group_name_H-M   'P 1'
_cell_length_a   8.39660000
_cell_length_b   8.71081000
_cell_length_c   11.23420000
_cell_angle_alpha   108.43300000
_cell_angle_beta   91.08000000
_cell_angle_gamma   105.22300000
_symmetry_Int_Tables_number   1
_chemical_formula_structural   MnH24C18(SN7)2
_chemical_formula_sum   'Mn1 H24 C18 S2 N14'
_cell_volume   747.50049694
_cell_formula_units_Z   1
loop_
 _symmetry_equiv_pos_site_id
 _symmetry_equiv_pos_as_xyz
  1  'x, y, z'
loop_
 _atom_site_type_symbol
 _atom_site_label
 _atom_site_symmetry_multiplicity
 _atom_site_fract_x
 _atom_site_fract_y
 _atom_site_fract_z
 _atom_site_occupancy
  Mn  Mn0  1  0.00007000  0.00001000  0.99990000  1.0
  H  H1  1  0.51119000  0.72052000  0.18351000  1.0
  H  H2  1  0.48881000  0.27948000  0.81650000  1.0
  H  H3  1  0.64094000  0.79135000  0.07643000  1.0
  H  H4  1  0.35907000  0.20866000  0.92358000  1.0
  H  H5  1  0.45723000  0.56431000  0.89433000  1.0
  H  H6  1  0.54278000  0.43569000  0.10568000  1.0
  H  H7  1  0.31752000  0.50075000  0.99814000  1.0
  H  H8  1  0.68248000  0.49925000  0.00186000  1.0
  H  H9  1  0.35638000  0.20675000  0.17932000  1.0
  H  H10  1  0.64363000  0.79326000  0.82064000  1.0
  H  H11  1  0.19014000  0.69244000  0.96191000  1.0
  H  H12  1  0.80989000  0.30757000  0.03805000  1.0
  H  H13  1  0.73401000  0.20837000  0.47581000  1.0
  H  H14  1  0.26597000  0.79162000  0.52420000  1.0
  H  H15  1  0.79570000  0.07555000  0.54734000  1.0
  H  H16  1  0.20426000  0.92444000  0.45269000  1.0
  H  H17  1  0.54510000  0.83664000  0.42942000  1.0
  H  H18  1  0.45486000  0.16335000  0.57058000  1.0
  H  H19  1  0.48561000  0.96992000  0.35717000  1.0
  H  H20  1  0.51436000  0.03009000  0.64283000  1.0
  H  H21  1  0.97593000  0.74950000  0.18033000  1.0
  H  H22  1  0.02406000  0.25050000  0.81971000  1.0
  H  H23  1  0.82968000  0.19511000  0.25762000  1.0
  H  H24  1  0.17031000  0.80487000  0.74240000  1.0
  C  C25  1  0.51304000  0.73106000  0.08849000  1.0
  C  C26  1  0.48697000  0.26894000  0.91151000  1.0
  C  C27  1  0.44880000  0.55674000  0.99015000  1.0
  C  C28  1  0.55121000  0.44327000  0.00986000  1.0
  C  C29  1  0.35222000  0.07541000  0.13554000  1.0
  C  C30  1  0.64779000  0.92461000  0.86442000  1.0
  C  C31  1  0.26451000  0.81453000  0.02379000  1.0
  C  C32  1  0.73551000  0.18548000  0.97618000  1.0
  C  C33  1  0.72706000  0.07648000  0.46349000  1.0
  C  C34  1  0.27290000  0.92351000  0.53654000  1.0
  C  C35  1  0.54663000  0.96811000  0.44399000  1.0
  C  C36  1  0.45334000  0.03189000  0.55602000  1.0
  C  C37  1  0.92485000  0.85342000  0.22479000  1.0
  C  C38  1  0.07514000  0.14657000  0.77525000  1.0
  C  C39  1  0.85387000  0.08089000  0.26203000  1.0
  C  C40  1  0.14612000  0.91909000  0.73801000  1.0
  C  C41  1  0.12624000  0.38198000  0.15341000  1.0
  C  C42  1  0.87379000  0.61801000  0.84656000  1.0
  S  S43  1  0.17059000  0.57452000  0.24862000  1.0
  S  S44  1  0.82940000  0.42544000  0.75140000  1.0
  N  N45  1  0.41569000  0.84585000  0.08371000  1.0
  N  N46  1  0.58431000  0.15415000  0.91630000  1.0
  N  N47  1  0.47319000  0.01155000  0.15572000  1.0
  N  N48  1  0.52680000  0.98845000  0.84428000  1.0
  N  N49  1  0.22087000  0.95893000  0.05412000  1.0
  N  N50  1  0.77917000  0.04109000  0.94582000  1.0
  N  N51  1  0.81584000  0.01721000  0.35584000  1.0
  N  N52  1  0.18413000  0.98279000  0.64419000  1.0
  N  N53  1  0.86016000  0.87196000  0.33376000  1.0
  N  N54  1  0.13981000  0.12803000  0.66629000  1.0
  N  N55  1  0.92298000  0.97921000  0.17661000  1.0
  N  N56  1  0.07702000  0.02078000  0.82345000  1.0
  N  N57  1  0.09190000  0.23957000  0.08370000  1.0
  N  N58  1  0.90815000  0.76046000  0.91621000  1.0
