# generated using pymatgen
data_CuH4C4IN2
_symmetry_space_group_name_H-M   'P 1'
_cell_length_a   7.85852000
_cell_length_b   9.72315000
_cell_length_c   16.65710000
_cell_angle_alpha   90.00040000
_cell_angle_beta   90.00000000
_cell_angle_gamma   112.12700000
_symmetry_Int_Tables_number   1
_chemical_formula_structural   CuH4C4IN2
_chemical_formula_sum   'Cu8 H32 C32 I8 N16'
_cell_volume   1179.02449257
_cell_formula_units_Z   8
loop_
 _symmetry_equiv_pos_site_id
 _symmetry_equiv_pos_as_xyz
  1  'x, y, z'
loop_
 _atom_site_type_symbol
 _atom_site_label
 _atom_site_symmetry_multiplicity
 _atom_site_fract_x
 _atom_site_fract_y
 _atom_site_fract_z
 _atom_site_occupancy
  Cu  Cu0  1  0.46787000  0.67626000  0.20991000  1.0
  Cu  Cu1  1  0.03213000  0.32374000  0.70991000  1.0
  Cu  Cu2  1  0.53213000  0.32374000  0.79009000  1.0
  Cu  Cu3  1  0.96787000  0.67626000  0.29009000  1.0
  Cu  Cu4  1  0.72855000  0.79668000  0.32086000  1.0
  Cu  Cu5  1  0.77146000  0.20331000  0.82086000  1.0
  Cu  Cu6  1  0.27145000  0.20332000  0.67914000  1.0
  Cu  Cu7  1  0.22855000  0.79669000  0.17914000  1.0
  H  H8  1  0.66840000  0.90567000  0.62270000  1.0
  H  H9  1  0.83160000  0.09433000  0.12270000  1.0
  H  H10  1  0.33160000  0.09434000  0.37730000  1.0
  H  H11  1  0.16840000  0.90567000  0.87730000  1.0
  H  H12  1  0.33056000  0.62009000  0.53981000  1.0
  H  H13  1  0.16944000  0.37991000  0.03981000  1.0
  H  H14  1  0.66944000  0.37991000  0.46019000  1.0
  H  H15  1  0.83057000  0.62009000  0.96019000  1.0
  H  H16  1  0.81624000  0.63712000  0.64459000  1.0
  H  H17  1  0.68376000  0.36288000  0.14459000  1.0
  H  H18  1  0.18376000  0.36288000  0.35541000  1.0
  H  H19  1  0.31624000  0.63712000  0.85541000  1.0
  H  H20  1  0.91941000  0.81818000  0.68610000  1.0
  H  H21  1  0.58059000  0.18181000  0.18610000  1.0
  H  H22  1  0.08058000  0.18182000  0.31390000  1.0
  H  H23  1  0.41941000  0.81819000  0.81390000  1.0
  H  H24  1  0.57704000  0.93242000  0.46297000  1.0
  H  H25  1  0.92297000  0.06759000  0.96298000  1.0
  H  H26  1  0.42296000  0.06759000  0.53703000  1.0
  H  H27  1  0.07703000  0.93241000  0.03703000  1.0
  H  H28  1  0.20819000  0.86686000  0.62173000  1.0
  H  H29  1  0.29180000  0.13314000  0.12173000  1.0
  H  H30  1  0.79180000  0.13314000  0.37827000  1.0
  H  H31  1  0.70820000  0.86686000  0.87827000  1.0
  H  H32  1  0.13746000  0.67988000  0.65622000  1.0
  H  H33  1  0.36254000  0.32012000  0.15622000  1.0
  H  H34  1  0.86254000  0.32012000  0.34378000  1.0
  H  H35  1  0.63746000  0.67988000  0.84378000  1.0
  H  H36  1  0.27763000  0.59979000  0.37384000  1.0
  H  H37  1  0.22238000  0.40022000  0.87384000  1.0
  H  H38  1  0.72237000  0.40022000  0.62616000  1.0
  H  H39  1  0.77763000  0.59978000  0.12616000  1.0
  C  C40  1  0.01390000  0.72622000  0.46973000  1.0
  C  C41  1  0.48610000  0.27377000  0.96973000  1.0
  C  C42  1  0.98610000  0.27377000  0.53027000  1.0
  C  C43  1  0.51390000  0.72623000  0.03027000  1.0
  C  C44  1  0.71610000  0.87484000  0.56696000  1.0
  C  C45  1  0.78389000  0.12515000  0.06697000  1.0
  C  C46  1  0.28389000  0.12516000  0.43303000  1.0
  C  C47  1  0.21610000  0.87484000  0.93304000  1.0
  C  C48  1  0.23671000  0.64769000  0.50138000  1.0
  C  C49  1  0.26329000  0.35231000  0.00137000  1.0
  C  C50  1  0.76329000  0.35231000  0.49863000  1.0
  C  C51  1  0.73671000  0.64769000  0.99862000  1.0
  C  C52  1  0.87884000  0.78843000  0.48676000  1.0
  C  C53  1  0.62116000  0.21156000  0.98676000  1.0
  C  C54  1  0.12116000  0.21157000  0.51324000  1.0
  C  C55  1  0.37884000  0.78844000  0.01324000  1.0
  C  C56  1  0.91375000  0.75059000  0.63268000  1.0
  C  C57  1  0.58625000  0.24941000  0.13268000  1.0
  C  C58  1  0.08625000  0.24941000  0.36732000  1.0
  C  C59  1  0.41375000  0.75059000  0.86732000  1.0
  C  C60  1  0.67483000  0.88978000  0.48791000  1.0
  C  C61  1  0.82517000  0.11022000  0.98791000  1.0
  C  C62  1  0.32518000  0.11022000  0.51209000  1.0
  C  C63  1  0.17483000  0.88978000  0.01209000  1.0
  C  C64  1  0.10485000  0.75374000  0.61436000  1.0
  C  C65  1  0.39515000  0.24626000  0.11436000  1.0
  C  C66  1  0.89515000  0.24626000  0.38564000  1.0
  C  C67  1  0.60485000  0.75374000  0.88564000  1.0
  C  C68  1  0.20646000  0.63634000  0.41985000  1.0
  C  C69  1  0.29355000  0.36366000  0.91985000  1.0
  C  C70  1  0.79354000  0.36365000  0.58015000  1.0
  C  C71  1  0.70646000  0.63634000  0.08015000  1.0
  I  I72  1  0.50155000  0.92848000  0.28091000  1.0
  I  I73  1  0.99845000  0.07152000  0.78091000  1.0
  I  I74  1  0.49845000  0.07152000  0.71909000  1.0
  I  I75  1  0.00155000  0.92848000  0.21909000  1.0
  I  I76  1  0.59205000  0.50530000  0.30131000  1.0
  I  I77  1  0.90793000  0.49471000  0.80132000  1.0
  I  I78  1  0.40794000  0.49470000  0.69869000  1.0
  I  I79  1  0.09206000  0.50529000  0.19868000  1.0
  N  N80  1  0.77585000  0.83566000  0.43810000  1.0
  N  N81  1  0.72415000  0.16434000  0.93810000  1.0
  N  N82  1  0.22415000  0.16434000  0.56190000  1.0
  N  N83  1  0.27585000  0.83565000  0.06190000  1.0
  N  N84  1  0.11426000  0.70416000  0.53230000  1.0
  N  N85  1  0.38574000  0.29584000  0.03230000  1.0
  N  N86  1  0.88573000  0.29584000  0.46770000  1.0
  N  N87  1  0.61426000  0.70416000  0.96770000  1.0
  N  N88  1  0.84500000  0.81092000  0.56545000  1.0
  N  N89  1  0.65499000  0.18907000  0.06545000  1.0
  N  N90  1  0.15499000  0.18908000  0.43455000  1.0
  N  N91  1  0.34501000  0.81093000  0.93455000  1.0
  N  N92  1  0.06662000  0.68383000  0.40046000  1.0
  N  N93  1  0.43338000  0.31616000  0.90046000  1.0
  N  N94  1  0.93338000  0.31616000  0.59954000  1.0
  N  N95  1  0.56662000  0.68383000  0.09954000  1.0
