# generated using pymatgen
data_CdH6(C3N2)2
_symmetry_space_group_name_H-M   'P 1'
_cell_length_a   8.27151000
_cell_length_b   8.61907000
_cell_length_c   13.82480000
_cell_angle_alpha   88.95270000
_cell_angle_beta   77.81400000
_cell_angle_gamma   63.56290000
_symmetry_Int_Tables_number   1
_chemical_formula_structural   CdH6(C3N2)2
_chemical_formula_sum   'Cd4 H24 C24 N16'
_cell_volume   859.41800685
_cell_formula_units_Z   4
loop_
 _symmetry_equiv_pos_site_id
 _symmetry_equiv_pos_as_xyz
  1  'x, y, z'
loop_
 _atom_site_type_symbol
 _atom_site_label
 _atom_site_symmetry_multiplicity
 _atom_site_fract_x
 _atom_site_fract_y
 _atom_site_fract_z
 _atom_site_occupancy
  Cd  Cd0  1  0.25652000  0.11942000  0.30063000  1.0
  Cd  Cd1  1  0.74348000  0.88057000  0.69936000  1.0
  Cd  Cd2  1  0.50000000  0.50000000  0.50000000  1.0
  Cd  Cd3  1  0.00000000  0.00000000  0.00000000  1.0
  H  H4  1  0.91757000  0.05217000  0.26559000  1.0
  H  H5  1  0.08243000  0.94782000  0.73440000  1.0
  H  H6  1  0.81590000  0.72829000  0.08797000  1.0
  H  H7  1  0.18410000  0.27171000  0.91203000  1.0
  H  H8  1  0.75803000  0.64791000  0.28616000  1.0
  H  H9  1  0.24197000  0.35208000  0.71384000  1.0
  H  H10  1  0.84859000  0.96194000  0.43454000  1.0
  H  H11  1  0.15141000  0.03807000  0.56546000  1.0
  H  H12  1  0.91743000  0.73325000  0.43316000  1.0
  H  H13  1  0.08257000  0.26675000  0.56684000  1.0
  H  H14  1  0.67782000  0.88466000  0.45089000  1.0
  H  H15  1  0.32218000  0.11534000  0.54911000  1.0
  H  H16  1  0.53172000  0.21774000  0.05922000  1.0
  H  H17  1  0.46828000  0.78227000  0.94079000  1.0
  H  H18  1  0.89530000  0.42329000  0.09269000  1.0
  H  H19  1  0.10469000  0.57672000  0.90732000  1.0
  H  H20  1  0.53249000  0.66035000  0.18553000  1.0
  H  H21  1  0.46751000  0.33966000  0.81448000  1.0
  H  H22  1  0.22728000  0.44595000  0.14983000  1.0
  H  H23  1  0.77272000  0.55405000  0.85017000  1.0
  H  H24  1  0.20749000  0.65951000  0.13747000  1.0
  H  H25  1  0.79250000  0.34050000  0.86253000  1.0
  H  H26  1  0.24374000  0.55955000  0.25129000  1.0
  H  H27  1  0.75625000  0.44046000  0.74871000  1.0
  C  C28  1  0.41288000  0.24282000  0.34787000  1.0
  C  C29  1  0.58712000  0.75717000  0.65213000  1.0
  C  C30  1  0.33740000  0.86473000  0.36454000  1.0
  C  C31  1  0.66259000  0.13527000  0.63546000  1.0
  C  C32  1  0.96161000  0.30167000  0.37188000  1.0
  C  C33  1  0.03839000  0.69833000  0.62811000  1.0
  C  C34  1  0.25075000  0.08632000  0.14349000  1.0
  C  C35  1  0.74927000  0.91366000  0.85651000  1.0
  C  C36  1  0.88595000  0.95157000  0.24185000  1.0
  C  C37  1  0.11405000  0.04844000  0.75815000  1.0
  C  C38  1  0.83076000  0.78159000  0.15409000  1.0
  C  C39  1  0.16924000  0.21841000  0.84591000  1.0
  C  C40  1  0.79989000  0.74173000  0.25100000  1.0
  C  C41  1  0.20011000  0.25827000  0.74900000  1.0
  C  C42  1  0.81908000  0.85767000  0.41247000  1.0
  C  C43  1  0.18092000  0.14233000  0.58753000  1.0
  C  C44  1  0.58406000  0.30499000  0.07920000  1.0
  C  C45  1  0.41594000  0.69501000  0.92080000  1.0
  C  C46  1  0.76560000  0.41737000  0.09781000  1.0
  C  C47  1  0.23440000  0.58264000  0.90220000  1.0
  C  C48  1  0.58832000  0.53507000  0.14430000  1.0
  C  C49  1  0.41168000  0.46494000  0.85571000  1.0
  C  C50  1  0.27606000  0.53708000  0.17019000  1.0
  C  C51  1  0.72394000  0.46292000  0.82981000  1.0
  N  N52  1  0.46634000  0.32122000  0.38917000  1.0
  N  N53  1  0.53366000  0.67878000  0.61083000  1.0
  N  N54  1  0.39006000  0.73354000  0.40164000  1.0
  N  N55  1  0.60994000  0.26646000  0.59836000  1.0
  N  N56  1  0.80871000  0.39823000  0.41007000  1.0
  N  N57  1  0.19129000  0.60177000  0.58992000  1.0
  N  N58  1  0.21148000  0.06688000  0.06960000  1.0
  N  N59  1  0.78853000  0.93311000  0.93039000  1.0
  N  N60  1  0.83546000  0.85093000  0.30556000  1.0
  N  N61  1  0.16454000  0.14908000  0.69444000  1.0
  N  N62  1  0.88558000  0.91161000  0.14936000  1.0
  N  N63  1  0.11442000  0.08839000  0.85064000  1.0
  N  N64  1  0.47548000  0.46144000  0.13183000  1.0
  N  N65  1  0.52452000  0.53856000  0.86817000  1.0
  N  N66  1  0.76080000  0.27487000  0.05722000  1.0
  N  N67  1  0.23919000  0.72514000  0.94278000  1.0
