# generated using pymatgen
data_Cu5As2H12C12(SO8)2
_symmetry_space_group_name_H-M   'P 1'
_cell_length_a   6.22478000
_cell_length_b   7.30958000
_cell_length_c   12.00110000
_cell_angle_alpha   85.83960000
_cell_angle_beta   80.29420000
_cell_angle_gamma   73.88860000
_symmetry_Int_Tables_number   1
_chemical_formula_structural   Cu5As2H12C12(SO8)2
_chemical_formula_sum   'Cu5 As2 H12 C12 S2 O16'
_cell_volume   516.90897909
_cell_formula_units_Z   1
loop_
 _symmetry_equiv_pos_site_id
 _symmetry_equiv_pos_as_xyz
  1  'x, y, z'
loop_
 _atom_site_type_symbol
 _atom_site_label
 _atom_site_symmetry_multiplicity
 _atom_site_fract_x
 _atom_site_fract_y
 _atom_site_fract_z
 _atom_site_occupancy
  Cu  Cu0  1  0.04295000  0.67706000  0.12569000  1.0
  Cu  Cu1  1  0.95923000  0.32222000  0.87286000  1.0
  Cu  Cu2  1  0.49708000  0.50046000  0.00083000  1.0
  Cu  Cu3  1  0.24690000  0.91684000  0.90841000  1.0
  Cu  Cu4  1  0.75260000  0.08496000  0.08972000  1.0
  As  As5  1  0.19736000  0.21483000  0.14431000  1.0
  As  As6  1  0.80184000  0.78288000  0.85629000  1.0
  H  H7  1  0.67902000  0.47591000  0.51275000  1.0
  H  H8  1  0.32266000  0.52582000  0.48739000  1.0
  H  H9  1  0.93092000  0.25904000  0.63286000  1.0
  H  H10  1  0.06940000  0.74167000  0.36749000  1.0
  H  H11  1  0.28708000  0.03237000  0.54373000  1.0
  H  H12  1  0.71160000  0.96613000  0.45685000  1.0
  H  H13  1  0.38134000  0.01864000  0.33495000  1.0
  H  H14  1  0.61632000  0.97777000  0.66568000  1.0
  H  H15  1  0.60866000  0.16630000  0.91280000  1.0
  H  H16  1  0.39172000  0.83447000  0.08602000  1.0
  H  H17  1  0.75171000  0.86712000  0.25227000  1.0
  H  H18  1  0.24974000  0.13355000  0.74604000  1.0
  C  C19  1  0.08233000  0.23773000  0.30575000  1.0
  C  C20  1  0.91671000  0.76029000  0.69465000  1.0
  C  C21  1  0.88267000  0.36609000  0.35582000  1.0
  C  C22  1  0.11759000  0.63367000  0.64442000  1.0
  C  C23  1  0.83078000  0.37325000  0.47369000  1.0
  C  C24  1  0.17001000  0.62734000  0.52655000  1.0
  C  C25  1  0.97536000  0.25374000  0.54118000  1.0
  C  C26  1  0.02478000  0.74637000  0.45918000  1.0
  C  C27  1  0.17428000  0.12750000  0.49137000  1.0
  C  C28  1  0.82491000  0.87136000  0.50908000  1.0
  C  C29  1  0.22810000  0.11928000  0.37403000  1.0
  C  C30  1  0.77048000  0.87843000  0.62646000  1.0
  S  S31  1  0.67687000  0.51948000  0.28001000  1.0
  S  S32  1  0.32345000  0.48169000  0.72060000  1.0
  O  O33  1  0.24990000  0.42916000  0.09086000  1.0
  O  O34  1  0.75164000  0.56840000  0.91342000  1.0
  O  O35  1  0.03676000  0.16236000  0.05419000  1.0
  O  O36  1  0.96369000  0.83870000  0.94460000  1.0
  O  O37  1  0.45040000  0.03938000  0.13151000  1.0
  O  O38  1  0.54964000  0.95961000  0.86838000  1.0
  O  O39  1  0.80144000  0.54069000  0.16240000  1.0
  O  O40  1  0.19754000  0.46066000  0.83802000  1.0
  O  O41  1  0.50538000  0.42106000  0.27599000  1.0
  O  O42  1  0.49376000  0.58101000  0.72544000  1.0
  O  O43  1  0.59766000  0.70128000  0.33724000  1.0
  O  O44  1  0.40465000  0.29978000  0.66355000  1.0
  O  O45  1  0.67882000  0.24579000  0.95248000  1.0
  O  O46  1  0.32102000  0.75793000  0.04447000  1.0
  O  O47  1  0.87697000  0.90553000  0.20323000  1.0
  O  O48  1  0.12431000  0.09442000  0.79449000  1.0
