# generated using pymatgen
data_CdH8C6(N2Cl)2
_symmetry_space_group_name_H-M   'P 1'
_cell_length_a   3.89231000
_cell_length_b   9.66087000
_cell_length_c   13.10140000
_cell_angle_alpha   90.00010000
_cell_angle_beta   90.00020000
_cell_angle_gamma   92.80250000
_symmetry_Int_Tables_number   1
_chemical_formula_structural   CdH8C6(N2Cl)2
_chemical_formula_sum   'Cd2 H16 C12 N8 Cl4'
_cell_volume   492.06405537
_cell_formula_units_Z   2
loop_
 _symmetry_equiv_pos_site_id
 _symmetry_equiv_pos_as_xyz
  1  'x, y, z'
loop_
 _atom_site_type_symbol
 _atom_site_label
 _atom_site_symmetry_multiplicity
 _atom_site_fract_x
 _atom_site_fract_y
 _atom_site_fract_z
 _atom_site_occupancy
  Cd  Cd0  1  0.00000000  0.00000000  0.00000000  1.0
  Cd  Cd1  1  0.00000000  0.50000000  0.50000000  1.0
  H  H2  1  0.68914000  0.79353000  0.80811000  1.0
  H  H3  1  0.31085000  0.70647000  0.30812000  1.0
  H  H4  1  0.31087000  0.20647000  0.19189000  1.0
  H  H5  1  0.68914000  0.29353000  0.69189000  1.0
  H  H6  1  0.79908000  0.83338000  0.61737000  1.0
  H  H7  1  0.20092000  0.66666667  0.11737000  1.0
  H  H8  1  0.20092000  0.16662000  0.38263000  1.0
  H  H9  1  0.79908000  0.33338000  0.88263000  1.0
  H  H10  1  0.18189000  0.05680000  0.58713000  1.0
  H  H11  1  0.81811000  0.44321000  0.08713000  1.0
  H  H12  1  0.81811000  0.94320000  0.41287000  1.0
  H  H13  1  0.18190000  0.55680000  0.91287000  1.0
  H  H14  1  0.31208000  0.15985000  0.78255000  1.0
  H  H15  1  0.68792000  0.34015000  0.28255000  1.0
  H  H16  1  0.68792000  0.84015000  0.21745000  1.0
  H  H17  1  0.31208000  0.65985000  0.71745000  1.0
  C  C18  1  0.84077000  0.87917000  0.77502000  1.0
  C  C19  1  0.15923000  0.62083000  0.27502000  1.0
  C  C20  1  0.15924000  0.12083000  0.22498000  1.0
  C  C21  1  0.84077000  0.37917000  0.72498000  1.0
  C  C22  1  0.09945000  0.01800000  0.66121000  1.0
  C  C23  1  0.90055000  0.48200000  0.16121000  1.0
  C  C24  1  0.90055000  0.98200000  0.33879000  1.0
  C  C25  1  0.09946000  0.51800000  0.83879000  1.0
  C  C26  1  0.16119000  0.06903000  0.75780000  1.0
  C  C27  1  0.83881000  0.43097000  0.25780000  1.0
  C  C28  1  0.83881000  0.93097000  0.24220000  1.0
  C  C29  1  0.16119000  0.56903000  0.74220000  1.0
  N  N30  1  0.99838000  0.98154000  0.82788000  1.0
  N  N31  1  0.00162000  0.51846000  0.32788000  1.0
  N  N32  1  0.00162000  0.01846000  0.17212000  1.0
  N  N33  1  0.99838000  0.48153000  0.67212000  1.0
  N  N34  1  0.89854000  0.89779000  0.67412000  1.0
  N  N35  1  0.10146000  0.60221000  0.17412000  1.0
  N  N36  1  0.10147000  0.10221000  0.32588000  1.0
  N  N37  1  0.89854000  0.39779000  0.82588000  1.0
  Cl  Cl38  1  0.52252000  0.20011000  0.99133000  1.0
  Cl  Cl39  1  0.47748000  0.29989000  0.49133000  1.0
  Cl  Cl40  1  0.47748000  0.79988000  0.00867000  1.0
  Cl  Cl41  1  0.52251000  0.70012000  0.50867000  1.0
