# generated using pymatgen
data_Al2H14C21S2(NO5)2
_symmetry_space_group_name_H-M   'P 1'
_cell_length_a   6.84423000
_cell_length_b   11.02929239
_cell_length_c   12.67101695
_cell_angle_alpha   81.77046108
_cell_angle_beta   76.16160036
_cell_angle_gamma   72.57688735
_symmetry_Int_Tables_number   1
_chemical_formula_structural   Al2H14C21S2(NO5)2
_chemical_formula_sum   'Al2 H14 C21 S2 N2 O10'
_cell_volume   883.47884271
_cell_formula_units_Z   1
loop_
 _symmetry_equiv_pos_site_id
 _symmetry_equiv_pos_as_xyz
  1  'x, y, z'
loop_
 _atom_site_type_symbol
 _atom_site_label
 _atom_site_symmetry_multiplicity
 _atom_site_fract_x
 _atom_site_fract_y
 _atom_site_fract_z
 _atom_site_occupancy
  Al  Al0  1  0.49246000  0.49828000  0.49848000  1.0
  Al  Al1  1  0.99265000  0.49656000  0.49779000  1.0
  H  H2  1  0.18810000  0.65327000  0.44423000  1.0
  H  H3  1  0.80148000  0.33924000  0.53954000  1.0
  H  H4  1  0.38977000  0.47366000  0.86268000  1.0
  H  H5  1  0.83138000  0.75920000  0.66139000  1.0
  H  H6  1  0.60084000  0.23241000  0.63918000  1.0
  H  H7  1  0.20367000  0.11413000  0.42385000  1.0
  H  H8  1  0.31800000  0.87631000  0.43676000  1.0
  H  H9  1  0.45924000  0.53490000  0.21440000  1.0
  H  H10  1  0.52166000  0.43435000  0.10686000  1.0
  H  H11  1  0.45513000  0.60197000  0.07737000  1.0
  H  H12  1  0.02547000  0.76996000  0.79174000  1.0
  H  H13  1  0.98347000  0.90824000  0.84741000  1.0
  H  H14  1  0.84829000  0.22350000  0.74430000  1.0
  H  H15  1  0.03564000  0.08833000  0.76266000  1.0
  C  C16  1  0.62276000  0.72183000  0.52037000  1.0
  C  C17  1  0.82578000  0.50595000  0.30203000  1.0
  C  C18  1  0.35491000  0.27073000  0.49670000  1.0
  C  C19  1  0.15888000  0.48981000  0.69479000  1.0
  C  C20  1  0.76162000  0.51414000  0.10706000  1.0
  C  C21  1  0.22178000  0.48618000  0.88773000  1.0
  C  C22  1  0.88368000  0.50230000  0.18282000  1.0
  C  C23  1  0.09714000  0.49616000  0.81357000  1.0
  C  C24  1  0.10094000  0.49220000  0.99544000  1.0
  C  C25  1  0.88709000  0.50799000  0.00058000  1.0
  C  C26  1  0.54914000  0.86194000  0.52941000  1.0
  C  C27  1  0.64024000  0.92716000  0.58586000  1.0
  C  C28  1  0.38826000  0.92895000  0.47626000  1.0
  C  C29  1  0.78423000  0.86294000  0.65304000  1.0
  C  C30  1  0.86198000  0.92774000  0.71173000  1.0
  C  C31  1  0.41781000  0.12970000  0.51673000  1.0
  C  C32  1  0.32367000  0.06200000  0.46934000  1.0
  C  C33  1  0.57099000  0.06478000  0.58027000  1.0
  C  C34  1  0.65393000  0.12897000  0.64050000  1.0
  C  C35  1  0.79987000  0.06465000  0.70259000  1.0
  C  C36  1  0.53653000  0.52361000  0.12891000  1.0
  S  S37  1  0.14509000  0.48354000  0.12478000  1.0
  S  S38  1  0.83411000  0.51347000  0.87356000  1.0
  N  N39  1  0.00304000  0.86577000  0.77798000  1.0
  N  N40  1  0.88076000  0.12758000  0.76241000  1.0
  O  O41  1  0.48461333  0.66666667  0.51748000  1.0
  O  O42  1  0.97518000  0.50269000  0.34802000  1.0
  O  O43  1  0.16362000  0.32465000  0.49168000  1.0
  O  O44  1  0.34942000  0.48240000  0.65027000  1.0
  O  O45  1  0.49551000  0.32877000  0.48435000  1.0
  O  O46  1  0.01134000  0.49089000  0.64837000  1.0
  O  O47  1  0.81812000  0.66676000  0.51165000  1.0
  O  O48  1  0.63626000  0.51289000  0.34879000  1.0
  O  O49  1  0.23072000  0.56087000  0.45496000  1.0
  O  O50  1  0.75506000  0.43145000  0.54185000  1.0
