# generated using pymatgen
data_HoPH3CO6
_symmetry_space_group_name_H-M   'P 1'
_cell_length_a   6.45969000
_cell_length_b   6.86731000
_cell_length_c   8.14646000
_cell_angle_alpha   114.34400000
_cell_angle_beta   101.44600000
_cell_angle_gamma   90.17210000
_symmetry_Int_Tables_number   1
_chemical_formula_structural   HoPH3CO6
_chemical_formula_sum   'Ho2 P2 H6 C2 O12'
_cell_volume   321.24433364
_cell_formula_units_Z   2
loop_
 _symmetry_equiv_pos_site_id
 _symmetry_equiv_pos_as_xyz
  1  'x, y, z'
loop_
 _atom_site_type_symbol
 _atom_site_label
 _atom_site_symmetry_multiplicity
 _atom_site_fract_x
 _atom_site_fract_y
 _atom_site_fract_z
 _atom_site_occupancy
  Ho  Ho0  1  0.11453000  0.21832000  0.93564000  1.0
  Ho  Ho1  1  0.88547000  0.78167000  0.06437000  1.0
  P  P2  1  0.66848000  0.25270000  0.00884000  1.0
  P  P3  1  0.33152000  0.74729000  0.99115000  1.0
  H  H4  1  0.66024000  0.33945000  0.19688000  1.0
  H  H5  1  0.33976000  0.66056000  0.80310000  1.0
  H  H6  1  0.12803000  0.28776000  0.30667000  1.0
  H  H7  1  0.87195000  0.71223000  0.69334000  1.0
  H  H8  1  0.13414000  0.51715000  0.30797000  1.0
  H  H9  1  0.86587000  0.48284000  0.69204000  1.0
  C  C10  1  0.99393000  0.11125000  0.49910000  1.0
  C  C11  1  0.00605000  0.88875000  0.50091000  1.0
  O  O12  1  0.80282000  0.05775000  0.96967000  1.0
  O  O13  1  0.19719000  0.94225000  0.03033000  1.0
  O  O14  1  0.44265000  0.19861000  0.89465000  1.0
  O  O15  1  0.55736000  0.80138000  0.10533000  1.0
  O  O16  1  0.80410000  0.41557000  0.97723000  1.0
  O  O17  1  0.19591000  0.58443000  0.02276000  1.0
  O  O18  1  0.01424000  0.26942000  0.65457000  1.0
  O  O19  1  0.98574000  0.73058000  0.34543000  1.0
  O  O20  1  0.03495000  0.88411000  0.65732000  1.0
  O  O21  1  0.96505000  0.11590000  0.34270000  1.0
  O  O22  1  0.19415000  0.37686000  0.25782000  1.0
  O  O23  1  0.80585000  0.62316000  0.74219000  1.0
