# generated using pymatgen
data_Cu3H42C40(N3O7)2
_symmetry_space_group_name_H-M   'P 1'
_cell_length_a   9.17772000
_cell_length_b   10.64610000
_cell_length_c   11.32459272
_cell_angle_alpha   89.87107344
_cell_angle_beta   66.23978054
_cell_angle_gamma   87.08370000
_symmetry_Int_Tables_number   1
_chemical_formula_structural   Cu3H42C40(N3O7)2
_chemical_formula_sum   'Cu3 H42 C40 N6 O14'
_cell_volume   1011.19142032
_cell_formula_units_Z   1
loop_
 _symmetry_equiv_pos_site_id
 _symmetry_equiv_pos_as_xyz
  1  'x, y, z'
loop_
 _atom_site_type_symbol
 _atom_site_label
 _atom_site_symmetry_multiplicity
 _atom_site_fract_x
 _atom_site_fract_y
 _atom_site_fract_z
 _atom_site_occupancy
  Cu  Cu0  1  0.02871000  0.39231000  0.54319000  1.0
  Cu  Cu1  1  0.97134000  0.60769000  0.45674000  1.0
  Cu  Cu2  1  0.99999000  0.00000000  0.00001000  1.0
  H  H3  1  0.41662000  0.95112000  0.79557000  1.0
  H  H4  1  0.58337000  0.04888000  0.20445000  1.0
  H  H5  1  0.22932000  0.31351000  0.69851000  1.0
  H  H6  1  0.77071000  0.68650000  0.30148000  1.0
  H  H7  1  0.36213000  0.91613000  0.63611000  1.0
  H  H8  1  0.63785000  0.08387000  0.36393000  1.0
  H  H9  1  0.19610000  0.90608000  0.50884000  1.0
  H  H10  1  0.80386000  0.09391000  0.49122000  1.0
  H  H11  1  0.05763000  0.10725000  0.47823000  1.0
  H  H12  1  0.94235000  0.89274000  0.52180000  1.0
  H  H13  1  0.56090000  0.83821000  0.88749000  1.0
  H  H14  1  0.43909000  0.16179000  0.11255000  1.0
  H  H15  1  0.78484000  0.82563000  0.95976000  1.0
  H  H16  1  0.21515000  0.17437000  0.04027000  1.0
  H  H17  1  0.69736000  0.21389000  0.75583000  1.0
  H  H18  1  0.30263000  0.78610000  0.24419000  1.0
  H  H19  1  0.90599000  0.18793000  0.83914000  1.0
  H  H20  1  0.09399000  0.81208000  0.16089000  1.0
  H  H21  1  0.70876000  0.63530000  0.91073000  1.0
  H  H22  1  0.29128000  0.36469000  0.08921000  1.0
  H  H23  1  0.56962000  0.65335000  0.83910000  1.0
  H  H24  1  0.43046000  0.34667000  0.16081000  1.0
  H  H25  1  0.64738000  0.40717000  0.94916000  1.0
  H  H26  1  0.35264000  0.59282000  0.05075000  1.0
  H  H27  1  0.50685000  0.42618000  0.88062000  1.0
  H  H28  1  0.49319000  0.57383000  0.11928000  1.0
  H  H29  1  0.32701000  0.71267000  0.64381000  1.0
  H  H30  1  0.67296000  0.28732000  0.35621000  1.0
  H  H31  1  0.42081000  0.71169000  0.47293000  1.0
  H  H32  1  0.57922000  0.28832000  0.52709000  1.0
  H  H33  1  0.41262000  0.48664000  0.64663000  1.0
  H  H34  1  0.58738000  0.51337000  0.35340000  1.0
  H  H35  1  0.57607000  0.58136000  0.56971000  1.0
  H  H36  1  0.42393000  0.41866000  0.43031000  1.0
  H  H37  1  0.90310000  0.62650000  0.02557000  1.0
  H  H38  1  0.09686000  0.37352000  0.97443000  1.0
  H  H39  1  0.03245000  0.57888000  0.09940000  1.0
  H  H40  1  0.96751000  0.42113000  0.90060000  1.0
  H  H41  1  0.13667000  0.59876000  0.80647000  1.0
  H  H42  1  0.86331000  0.40124000  0.19353000  1.0
  H  H43  1  0.26605000  0.57157000  0.88433000  1.0
  H  H44  1  0.73390000  0.42842000  0.11570000  1.0
  C  C45  1  0.22299000  0.22170000  0.65891000  1.0
  C  C46  1  0.77700000  0.77830000  0.34111000  1.0
  C  C47  1  0.30854000  0.11637000  0.67805000  1.0
  C  C48  1  0.69143000  0.88363000  0.32198000  1.0
  C  C49  1  0.29804000  0.00070000  0.62413000  1.0
  C  C50  1  0.70193000  0.99930000  0.37592000  1.0
  C  C51  1  0.20585000  0.99505000  0.55222000  1.0
  C  C52  1  0.79411000  0.00494000  0.44784000  1.0
  C  C53  1  0.12762000  0.10540000  0.53652000  1.0
  C  C54  1  0.87237000  0.89460000  0.46351000  1.0
  C  C55  1  0.41747000  0.13839000  0.74374000  1.0
  C  C56  1  0.58254000  0.86161000  0.25626000  1.0
  C  C57  1  0.78385000  0.54869000  0.72620000  1.0
  C  C58  1  0.21622000  0.45130000  0.27371000  1.0
  C  C59  1  0.60652000  0.02796000  0.81791000  1.0
  C  C60  1  0.39347000  0.97204000  0.18212000  1.0
  C  C61  1  0.63623000  0.91718000  0.87427000  1.0
  C  C62  1  0.36376000  0.08281000  0.12576000  1.0
  C  C63  1  0.75913000  0.91007000  0.91555000  1.0
  C  C64  1  0.24085000  0.08993000  0.08448000  1.0
  C  C65  1  0.70953000  0.12637000  0.80123000  1.0
  C  C66  1  0.29045000  0.87362000  0.19880000  1.0
  C  C67  1  0.82812000  0.11163000  0.84743000  1.0
  C  C68  1  0.17187000  0.88837000  0.15259000  1.0
  C  C69  1  0.65240000  0.58507000  0.85636000  1.0
  C  C70  1  0.34764000  0.41492000  0.14357000  1.0
  C  C71  1  0.56290000  0.47633000  0.93499000  1.0
  C  C72  1  0.43711000  0.52367000  0.06494000  1.0
  C  C73  1  0.21124000  0.61019000  0.54738000  1.0
  C  C74  1  0.78880000  0.38980000  0.45256000  1.0
  C  C75  1  0.36145000  0.65267000  0.55672000  1.0
  C  C76  1  0.63854000  0.34733000  0.44329000  1.0
  C  C77  1  0.47249000  0.54262000  0.56035000  1.0
  C  C78  1  0.52751000  0.45738000  0.43968000  1.0
  C  C79  1  0.01224000  0.56867000  0.01036000  1.0
  C  C80  1  0.98771000  0.43134000  0.98964000  1.0
  C  C81  1  0.15171000  0.61918000  0.89625000  1.0
  C  C82  1  0.84825000  0.38081000  0.10376000  1.0
  C  C83  1  0.16681000  0.76046000  0.90125000  1.0
  C  C84  1  0.83318000  0.23953000  0.09876000  1.0
  N  N85  1  0.13412000  0.21658000  0.59020000  1.0
  N  N86  1  0.86589000  0.78343000  0.40980000  1.0
  N  N87  1  0.85285000  0.00683000  0.90552000  1.0
  N  N88  1  0.14713000  0.99317000  0.09451000  1.0
  N  N89  1  0.48004000  0.03181000  0.78014000  1.0
  N  N90  1  0.51994000  0.96820000  0.21989000  1.0
  O  O91  1  0.45209000  0.24621000  0.75898000  1.0
  O  O92  1  0.54789000  0.75380000  0.24106000  1.0
  O  O93  1  0.81161000  0.63139000  0.63932000  1.0
  O  O94  1  0.18851000  0.36865000  0.36063000  1.0
  O  O95  1  0.85536000  0.44072000  0.71450000  1.0
  O  O96  1  0.14466000  0.55925000  0.28539000  1.0
  O  O97  1  0.17107000  0.49980000  0.58657000  1.0
  O  O98  1  0.82891000  0.50021000  0.41342000  1.0
  O  O99  1  0.13865000  0.68574000  0.49897000  1.0
  O  O100  1  0.86147000  0.31425000  0.50090000  1.0
  O  O101  1  0.03270000  0.82187000  0.96700000  1.0
  O  O102  1  0.96730000  0.17814000  0.03301000  1.0
  O  O103  1  0.29870000  0.80850000  0.84316000  1.0
  O  O104  1  0.70130000  0.19148000  0.15686000  1.0
