# generated using pymatgen
data_Zn4H66C66N16O3
_symmetry_space_group_name_H-M   'P 1'
_cell_length_a   14.81950000
_cell_length_b   14.95270000
_cell_length_c   14.96419607
_cell_angle_alpha   107.15220625
_cell_angle_beta   110.02817725
_cell_angle_gamma   111.02700000
_symmetry_Int_Tables_number   1
_chemical_formula_structural   Zn4H66C66N16O3
_chemical_formula_sum   'Zn4 H66 C66 N16 O3'
_cell_volume   2556.73710839
_cell_formula_units_Z   1
loop_
 _symmetry_equiv_pos_site_id
 _symmetry_equiv_pos_as_xyz
  1  'x, y, z'
loop_
 _atom_site_type_symbol
 _atom_site_label
 _atom_site_symmetry_multiplicity
 _atom_site_fract_x
 _atom_site_fract_y
 _atom_site_fract_z
 _atom_site_occupancy
  Zn  Zn0  1  0.14341000  0.62731000  0.99076000  1.0
  Zn  Zn1  1  0.86347000  0.36542000  0.99266000  1.0
  Zn  Zn2  1  0.87085000  0.50588000  0.86668000  1.0
  Zn  Zn3  1  0.13189000  0.49686000  0.13402000  1.0
  H  H4  1  0.81710000  0.14618000  0.82049000  1.0
  H  H5  1  0.57841000  0.14006000  0.55729000  1.0
  H  H6  1  0.81164000  0.49104000  0.16475000  1.0
  H  H7  1  0.55793000  0.05375000  0.61572000  1.0
  H  H8  1  0.52592000  0.83330000  0.51190000  1.0
  H  H9  1  0.68505000  0.98380000  0.66442000  1.0
  H  H10  1  0.66447000  0.91987000  0.36203000  1.0
  H  H11  1  0.58507000  0.97554000  0.31107000  1.0
  H  H12  1  0.70105000  0.14248000  0.46907000  1.0
  H  H13  1  0.79524000  0.09599000  0.50608000  1.0
  H  H14  1  0.61375000  0.81638000  0.46115000  1.0
  H  H15  1  0.82643000  0.56939000  0.66526000  1.0
  H  H16  1  0.14658000  0.79067000  0.50425000  1.0
  H  H17  1  0.61143000  0.47201000  0.78737000  1.0
  H  H18  1  0.79723000  0.41051000  0.46228000  1.0
  H  H19  1  0.72239000  0.48135000  0.45335000  1.0
  H  H20  1  0.78881000  0.39446000  0.28858000  1.0
  H  H21  1  0.71404000  0.46547000  0.27925000  1.0
  H  H22  1  0.24659000  0.22057000  0.89777000  1.0
  H  H23  1  0.40628000  0.21798000  0.88869000  1.0
  H  H24  1  0.50278000  0.56139000  0.82158000  1.0
  H  H25  1  0.41499000  0.46032000  0.68223000  1.0
  H  H26  1  0.16562000  0.33739000  0.24683000  1.0
  H  H27  1  0.33856000  0.56269000  0.82936000  1.0
  H  H28  1  0.37431000  0.67156000  0.35366000  1.0
  H  H29  1  0.24900000  0.46164000  0.69009000  1.0
  H  H30  1  0.82771000  0.82966000  0.04250000  1.0
  H  H31  1  0.25788000  0.23360000  0.25201000  1.0
  H  H32  1  0.23650000  0.25465000  0.36526000  1.0
  H  H33  1  0.28159000  0.07863000  0.26035000  1.0
  H  H34  1  0.24976000  0.09290000  0.36628000  1.0
  H  H35  1  0.59707000  0.26657000  0.94045000  1.0
  H  H36  1  0.40813000  0.83375000  0.16130000  1.0
  H  H37  1  0.81411000  0.13420000  0.00432000  1.0
  H  H38  1  0.17376000  0.68801000  0.34621000  1.0
  H  H39  1  0.83896000  0.67382000  0.02753000  1.0
  H  H40  1  0.14492000  0.47138000  0.80112000  1.0
  H  H41  1  0.18062000  0.88422000  0.99961000  1.0
  H  H42  1  0.25534000  0.81897000  0.03660000  1.0
  H  H43  1  0.34618000  0.06471000  0.14488000  1.0
  H  H44  1  0.41555000  0.00215000  0.19743000  1.0
  H  H45  1  0.42137000  0.92572000  0.02565000  1.0
  H  H46  1  0.48602000  0.06970000  0.08498000  1.0
  H  H47  1  0.34894000  0.98555000  0.97048000  1.0
  H  H48  1  0.18286000  0.70030000  0.80448000  1.0
  H  H49  1  0.88150000  0.90909000  0.62286000  1.0
  H  H50  1  0.74326000  0.83109000  0.59508000  1.0
  H  H51  1  0.93333000  0.03796000  0.80786000  1.0
  H  H52  1  0.79721000  0.95794000  0.78275000  1.0
  H  H53  1  0.82334000  0.79558000  0.75472000  1.0
  H  H54  1  0.92549000  0.90756000  0.88545000  1.0
  H  H55  1  0.96081000  0.87576000  0.78248000  1.0
  H  H56  1  0.16220000  0.85981000  0.76694000  1.0
  H  H57  1  0.25016000  0.81814000  0.73568000  1.0
  H  H58  1  0.21897000  0.90625000  0.69118000  1.0
  H  H59  1  0.17430000  0.31476000  0.00304000  1.0
  H  H60  1  0.66433000  0.00001000  0.06711000  1.0
  H  H61  1  0.79346000  0.12392000  0.13187000  1.0
  H  H62  1  0.73297000  0.96218000  0.21684000  1.0
  H  H63  1  0.87327000  0.05558000  0.26272000  1.0
  H  H64  1  0.84030000  0.21221000  0.31155000  1.0
  H  H65  1  0.81189000  0.13939000  0.38238000  1.0
  H  H66  1  0.69986000  0.12140000  0.27055000  1.0
  H  H67  1  0.79197000  0.31594000  0.63157000  1.0
  H  H68  1  0.41051000  0.91539000  0.44119000  1.0
  H  H69  1  0.45397000  0.99329000  0.38031000  1.0
  C  C70  1  0.10557000  0.80495000  0.10579000  1.0
  C  C71  1  0.09615000  0.66527000  0.78475000  1.0
  C  C72  1  0.15940000  0.36082000  0.96136000  1.0
  C  C73  1  0.90086000  0.53092000  0.19414000  1.0
  C  C74  1  0.80668000  0.29006000  0.69319000  1.0
  C  C75  1  0.18097000  0.37021000  0.87876000  1.0
  C  C76  1  0.77557000  0.18521000  0.68227000  1.0
  C  C77  1  0.00333000  0.64762000  0.69698000  1.0
  C  C78  1  0.98730000  0.19659000  0.13703000  1.0
  C  C79  1  0.48428000  0.96667000  0.43964000  1.0
  C  C80  1  0.57497000  0.06397000  0.55218000  1.0
  C  C81  1  0.99110000  0.61097000  0.29889000  1.0
  C  C82  1  0.58736000  0.87346000  0.49051000  1.0
  C  C83  1  0.62345000  0.96503000  0.38149000  1.0
  C  C84  1  0.53194000  0.89683000  0.39952000  1.0
  C  C85  1  0.62559000  0.42552000  0.82866000  1.0
  C  C86  1  0.69226000  0.07892000  0.57989000  1.0
  C  C87  1  0.69069000  0.97954000  0.59170000  1.0
  C  C88  1  0.70951000  0.07722000  0.48375000  1.0
  C  C89  1  0.89601000  0.57219000  0.40267000  1.0
  C  C90  1  0.98613000  0.64095000  0.39845000  1.0
  C  C91  1  0.07585000  0.72881000  0.50080000  1.0
  C  C92  1  0.55325000  0.35636000  0.85103000  1.0
  C  C93  1  0.08196000  0.73945000  0.59955000  1.0
  C  C94  1  0.99500000  0.65931000  0.60132000  1.0
  C  C95  1  0.90091000  0.58125000  0.49970000  1.0
  C  C96  1  0.79069000  0.47488000  0.44419000  1.0
  C  C97  1  0.36638000  0.69689000  0.29174000  1.0
  C  C98  1  0.78528000  0.46467000  0.33417000  1.0
  C  C99  1  0.30654000  0.39707000  0.80111000  1.0
  C  C100  1  0.25133000  0.34087000  0.84361000  1.0
  C  C101  1  0.28809000  0.27143000  0.86853000  1.0
  C  C102  1  0.37999000  0.27012000  0.86346000  1.0
  C  C103  1  0.43660000  0.79424000  0.29877000  1.0
  C  C104  1  0.44387000  0.33808000  0.83316000  1.0
  C  C105  1  0.39858000  0.39617000  0.79660000  1.0
  C  C106  1  0.42282000  0.48451000  0.76269000  1.0
  C  C107  1  0.31851000  0.48544000  0.76767000  1.0
  C  C108  1  0.10063000  0.02153000  0.20686000  1.0
  C  C109  1  0.61789000  0.32033000  0.90610000  1.0
  C  C110  1  0.00926000  0.91444000  0.13893000  1.0
  C  C111  1  0.90519000  0.90859000  0.09159000  1.0
  C  C112  1  0.89425000  0.99924000  0.10011000  1.0
  C  C113  1  0.98923000  0.10546000  0.15193000  1.0
  C  C114  1  0.14548000  0.44148000  0.85904000  1.0
  C  C115  1  0.08956000  0.11113000  0.21045000  1.0
  C  C116  1  0.21377000  0.19253000  0.28697000  1.0
  C  C117  1  0.22581000  0.09227000  0.28781000  1.0
  C  C118  1  0.38321000  0.77909000  0.19362000  1.0
  C  C119  1  0.08552000  0.63269000  0.28645000  1.0
  C  C120  1  0.92579000  0.70629000  0.04786000  1.0
  C  C121  1  0.01483000  0.81532000  0.10694000  1.0
  C  C122  1  0.24626000  0.89012000  0.06862000  1.0
  C  C123  1  0.35749000  0.99418000  0.12187000  1.0
  C  C124  1  0.40604000  0.99381000  0.04661000  1.0
  C  C125  1  0.81872000  0.20325000  0.78912000  1.0
  C  C126  1  0.81760000  0.91438000  0.64208000  1.0
  C  C127  1  0.86142000  0.95417000  0.76312000  1.0
  C  C128  1  0.89482000  0.87953000  0.79867000  1.0
  C  C129  1  0.18343000  0.83582000  0.70367000  1.0
  C  C130  1  0.75548000  0.03910000  0.11735000  1.0
  C  C131  1  0.78788000  0.04135000  0.22657000  1.0
  C  C132  1  0.78456000  0.13338000  0.30187000  1.0
  C  C133  1  0.91434000  0.59734000  0.71330000  1.0
  C  C134  1  0.07959000  0.30230000  0.18554000  1.0
  C  C135  1  0.89998000  0.19904000  0.06262000  1.0
  N  N136  1  0.07237000  0.69921000  0.05132000  1.0
  N  N137  1  0.72442000  0.42991000  0.86736000  1.0
  N  N138  1  0.27810000  0.62972000  0.19060000  1.0
  N  N139  1  0.71933000  0.36430000  0.91535000  1.0
  N  N140  1  0.28794000  0.68085000  0.12902000  1.0
  N  N141  1  0.05310000  0.56848000  0.18325000  1.0
  N  N142  1  0.96086000  0.63827000  0.01405000  1.0
  N  N143  1  0.10967000  0.47408000  0.92702000  1.0
  N  N144  1  0.86975000  0.31067000  0.85786000  1.0
  N  N145  1  0.95139000  0.58672000  0.80295000  1.0
  N  N146  1  0.04908000  0.36192000  0.14411000  1.0
  N  N147  1  0.93727000  0.29788000  0.06841000  1.0
  N  N148  1  0.06452000  0.62829000  0.84706000  1.0
  N  N149  1  0.11810000  0.42434000  0.98975000  1.0
  N  N150  1  0.86228000  0.36389000  0.79888000  1.0
  N  N151  1  0.93962000  0.50632000  0.12685000  1.0
  O  O152  1  0.21179000  0.88649000  0.14750000  1.0
  O  O153  1  0.79366000  0.98558000  0.60529000  1.0
  O  O154  1  0.78533000  0.97805000  0.04980000  1.0
