# generated using pymatgen
data_CuH8(C3N)4
_symmetry_space_group_name_H-M   'P 1'
_cell_length_a   8.96811000
_cell_length_b   15.25071449
_cell_length_c   15.25070000
_cell_angle_alpha   60.02209424
_cell_angle_beta   89.90160000
_cell_angle_gamma   89.90140003
_symmetry_Int_Tables_number   1
_chemical_formula_structural   CuH8(C3N)4
_chemical_formula_sum   'Cu6 H48 C72 N24'
_cell_volume   1806.78850002
_cell_formula_units_Z   6
loop_
 _symmetry_equiv_pos_site_id
 _symmetry_equiv_pos_as_xyz
  1  'x, y, z'
loop_
 _atom_site_type_symbol
 _atom_site_label
 _atom_site_symmetry_multiplicity
 _atom_site_fract_x
 _atom_site_fract_y
 _atom_site_fract_z
 _atom_site_occupancy
  Cu  Cu0  1  0.25000000  0.75192000  0.24808000  1.0
  Cu  Cu1  1  0.25073000  0.00005000  0.75233000  1.0
  Cu  Cu2  1  0.24927000  0.24768000  0.99995000  1.0
  Cu  Cu3  1  0.75000000  0.24807000  0.75193000  1.0
  Cu  Cu4  1  0.74927000  0.99995000  0.24768000  1.0
  Cu  Cu5  1  0.75073000  0.75232000  0.00005000  1.0
  H  H6  1  0.84777000  0.59999000  0.55488000  1.0
  H  H7  1  0.84771000  0.84541000  0.59983000  1.0
  H  H8  1  0.84802000  0.55526000  0.84530000  1.0
  H  H9  1  0.65197000  0.15470000  0.44474000  1.0
  H  H10  1  0.65223000  0.44511000  0.40001000  1.0
  H  H11  1  0.65230000  0.40018000  0.15459000  1.0
  H  H12  1  0.15223000  0.40001000  0.44512000  1.0
  H  H13  1  0.15230000  0.15459000  0.40018000  1.0
  H  H14  1  0.15198000  0.44474000  0.15470000  1.0
  H  H15  1  0.34801000  0.84530000  0.55526000  1.0
  H  H16  1  0.34777000  0.55489000  0.59998000  1.0
  H  H17  1  0.34771000  0.59982000  0.84541000  1.0
  H  H18  1  0.11662000  0.58156000  0.33016000  1.0
  H  H19  1  0.11608000  0.08796000  0.58187000  1.0
  H  H20  1  0.11567000  0.32978000  0.08808000  1.0
  H  H21  1  0.38433000  0.91192000  0.67022000  1.0
  H  H22  1  0.38338000  0.66984000  0.41843000  1.0
  H  H23  1  0.38392000  0.41812000  0.91205000  1.0
  H  H24  1  0.88338000  0.41844000  0.66984000  1.0
  H  H25  1  0.88392000  0.91205000  0.41812000  1.0
  H  H26  1  0.88433000  0.67022000  0.91192000  1.0
  H  H27  1  0.61566000  0.08808000  0.32978000  1.0
  H  H28  1  0.61662000  0.33016000  0.58156000  1.0
  H  H29  1  0.61608000  0.58187000  0.08796000  1.0
  H  H30  1  0.72908000  0.75260000  0.39770000  1.0
  H  H31  1  0.72896000  0.85137000  0.75274000  1.0
  H  H32  1  0.72922000  0.39830000  0.84919000  1.0
  H  H33  1  0.77078000  0.15080000  0.60171000  1.0
  H  H34  1  0.77092000  0.60229000  0.24740000  1.0
  H  H35  1  0.77104000  0.24726000  0.14864000  1.0
  H  H36  1  0.27091000  0.24740000  0.60230000  1.0
  H  H37  1  0.27105000  0.14863000  0.24726000  1.0
  H  H38  1  0.27079000  0.60171000  0.15080000  1.0
  H  H39  1  0.22921000  0.84919000  0.39829000  1.0
  H  H40  1  0.22909000  0.39771000  0.75260000  1.0
  H  H41  1  0.22896000  0.75274000  0.85136000  1.0
  H  H42  1  0.06439000  0.93964000  0.19831000  1.0
  H  H43  1  0.06605000  0.86280000  0.93886000  1.0
  H  H44  1  0.06458000  0.19834000  0.86200000  1.0
  H  H45  1  0.43542000  0.13801000  0.80165000  1.0
  H  H46  1  0.43561000  0.80169000  0.06036000  1.0
  H  H47  1  0.43395000  0.06115000  0.13720000  1.0
  H  H48  1  0.93561000  0.06036000  0.80169000  1.0
  H  H49  1  0.93395000  0.13720000  0.06115000  1.0
  H  H50  1  0.93542000  0.80165000  0.13801000  1.0
  H  H51  1  0.56458000  0.86199000  0.19835000  1.0
  H  H52  1  0.56439000  0.19831000  0.93964000  1.0
  H  H53  1  0.56605000  0.93886000  0.86279000  1.0
  C  C54  1  0.97996000  0.60590000  0.43335000  1.0
  C  C55  1  0.97974000  0.96086000  0.60575000  1.0
  C  C56  1  0.97959000  0.43343000  0.96072000  1.0
  C  C57  1  0.52040000  0.03928000  0.56657000  1.0
  C  C58  1  0.52004000  0.56665000  0.39410000  1.0
  C  C59  1  0.52026000  0.39425000  0.03914000  1.0
  C  C60  1  0.02004000  0.39410000  0.56665000  1.0
  C  C61  1  0.02026000  0.03915000  0.39424000  1.0
  C  C62  1  0.02041000  0.56657000  0.03928000  1.0
  C  C63  1  0.47959000  0.96071000  0.43344000  1.0
  C  C64  1  0.47996000  0.43335000  0.60590000  1.0
  C  C65  1  0.47975000  0.60575000  0.96086000  1.0
  C  C66  1  0.91364000  0.55633000  0.52985000  1.0
  C  C67  1  0.91361000  0.91394000  0.55623000  1.0
  C  C68  1  0.91385000  0.53011000  0.91388000  1.0
  C  C69  1  0.58615000  0.08613000  0.46989000  1.0
  C  C70  1  0.58635000  0.47015000  0.44367000  1.0
  C  C71  1  0.58640000  0.44376000  0.08607000  1.0
  C  C72  1  0.08635000  0.44367000  0.47015000  1.0
  C  C73  1  0.08640000  0.08606000  0.44377000  1.0
  C  C74  1  0.08615000  0.46989000  0.08612000  1.0
  C  C75  1  0.41385000  0.91387000  0.53012000  1.0
  C  C76  1  0.41365000  0.52985000  0.55633000  1.0
  C  C77  1  0.41361000  0.55623000  0.91394000  1.0
  C  C78  1  0.06679000  0.54690000  0.40520000  1.0
  C  C79  1  0.06651000  0.04782000  0.54696000  1.0
  C  C80  1  0.06621000  0.40498000  0.04781000  1.0
  C  C81  1  0.43379000  0.95218000  0.59503000  1.0
  C  C82  1  0.43321000  0.59479000  0.45310000  1.0
  C  C83  1  0.43349000  0.45304000  0.95218000  1.0
  C  C84  1  0.93321000  0.45310000  0.59480000  1.0
  C  C85  1  0.93349000  0.95218000  0.45304000  1.0
  C  C86  1  0.93379000  0.59502000  0.95219000  1.0
  C  C87  1  0.56621000  0.04781000  0.40498000  1.0
  C  C88  1  0.56679000  0.40520000  0.54690000  1.0
  C  C89  1  0.56651000  0.54696000  0.04781000  1.0
  C  C90  1  0.95753000  0.71461000  0.36659000  1.0
  C  C91  1  0.95779000  0.91916000  0.71443000  1.0
  C  C92  1  0.95710000  0.36675000  0.91868000  1.0
  C  C93  1  0.54290000  0.08132000  0.63325000  1.0
  C  C94  1  0.54247000  0.63340000  0.28539000  1.0
  C  C95  1  0.54220000  0.28556000  0.08085000  1.0
  C  C96  1  0.04247000  0.28539000  0.63341000  1.0
  C  C97  1  0.04221000  0.08085000  0.28556000  1.0
  C  C98  1  0.04290000  0.63326000  0.08131000  1.0
  C  C99  1  0.45709000  0.91868000  0.36675000  1.0
  C  C100  1  0.45753000  0.36660000  0.71461000  1.0
  C  C101  1  0.45780000  0.71444000  0.91915000  1.0
  C  C102  1  0.83550000  0.77435000  0.35888000  1.0
  C  C103  1  0.83551000  0.86816000  0.77438000  1.0
  C  C104  1  0.83555000  0.35935000  0.86636000  1.0
  C  C105  1  0.66445000  0.13364000  0.64065000  1.0
  C  C106  1  0.66450000  0.64112000  0.22565000  1.0
  C  C107  1  0.66449000  0.22562000  0.13184000  1.0
  C  C108  1  0.16450000  0.22565000  0.64112000  1.0
  C  C109  1  0.16449000  0.13184000  0.22562000  1.0
  C  C110  1  0.16445000  0.64065000  0.13364000  1.0
  C  C111  1  0.33554000  0.86636000  0.35935000  1.0
  C  C112  1  0.33550000  0.35889000  0.77434000  1.0
  C  C113  1  0.33551000  0.77438000  0.86816000  1.0
  C  C114  1  0.00533000  0.87256000  0.25349000  1.0
  C  C115  1  0.00628000  0.87477000  0.87203000  1.0
  C  C116  1  0.00532000  0.25361000  0.87380000  1.0
  C  C117  1  0.49468000  0.12620000  0.74639000  1.0
  C  C118  1  0.49467000  0.74651000  0.12744000  1.0
  C  C119  1  0.49372000  0.12797000  0.12523000  1.0
  C  C120  1  0.99466000  0.12744000  0.74651000  1.0
  C  C121  1  0.99372000  0.12522000  0.12798000  1.0
  C  C122  1  0.99468000  0.74639000  0.12620000  1.0
  C  C123  1  0.50532000  0.87380000  0.25361000  1.0
  C  C124  1  0.50533000  0.25349000  0.87256000  1.0
  C  C125  1  0.50628000  0.87203000  0.87477000  1.0
  N  N126  1  0.06363000  0.77900000  0.29824000  1.0
  N  N127  1  0.06471000  0.92268000  0.77842000  1.0
  N  N128  1  0.06312000  0.29814000  0.92286000  1.0
  N  N129  1  0.43688000  0.07714000  0.70186000  1.0
  N  N130  1  0.43637000  0.70176000  0.22100000  1.0
  N  N131  1  0.43529000  0.22159000  0.07731000  1.0
  N  N132  1  0.93637000  0.22100000  0.70177000  1.0
  N  N133  1  0.93529000  0.07732000  0.22159000  1.0
  N  N134  1  0.93688000  0.70186000  0.07714000  1.0
  N  N135  1  0.56311000  0.92286000  0.29814000  1.0
  N  N136  1  0.56363000  0.29824000  0.77900000  1.0
  N  N137  1  0.56471000  0.77842000  0.92267000  1.0
  N  N138  1  0.86626000  0.87337000  0.28708000  1.0
  N  N139  1  0.86661000  0.84132000  0.87323000  1.0
  N  N140  1  0.86659000  0.28754000  0.83907000  1.0
  N  N141  1  0.63341000  0.16092000  0.71247000  1.0
  N  N142  1  0.63374000  0.71291000  0.12664000  1.0
  N  N143  1  0.63339000  0.12677000  0.15868000  1.0
  N  N144  1  0.13374000  0.12664000  0.71291000  1.0
  N  N145  1  0.13339000  0.15868000  0.12677000  1.0
  N  N146  1  0.13341000  0.71247000  0.16092000  1.0
  N  N147  1  0.36659000  0.83908000  0.28753000  1.0
  N  N148  1  0.36626000  0.28709000  0.87336000  1.0
  N  N149  1  0.36661000  0.87323000  0.84131000  1.0
