# generated using pymatgen
data_CdH13C21N4ClO2
_symmetry_space_group_name_H-M   'P 1'
_cell_length_a   9.99951000
_cell_length_b   10.45710000
_cell_length_c   10.81318088
_cell_angle_alpha   74.88593660
_cell_angle_beta   62.59081848
_cell_angle_gamma   72.33650000
_symmetry_Int_Tables_number   1
_chemical_formula_structural   CdH13C21N4ClO2
_chemical_formula_sum   'Cd2 H26 C42 N8 Cl2 O4'
_cell_volume   946.59214973
_cell_formula_units_Z   2
loop_
 _symmetry_equiv_pos_site_id
 _symmetry_equiv_pos_as_xyz
  1  'x, y, z'
loop_
 _atom_site_type_symbol
 _atom_site_label
 _atom_site_symmetry_multiplicity
 _atom_site_fract_x
 _atom_site_fract_y
 _atom_site_fract_z
 _atom_site_occupancy
  Cd  Cd0  1  0.37677000  0.38086000  0.06824000  1.0
  Cd  Cd1  1  0.62323000  0.61914000  0.93176000  1.0
  H  H2  1  0.73741000  0.21623000  0.93077000  1.0
  H  H3  1  0.26259000  0.78377000  0.06923000  1.0
  H  H4  1  0.90117000  0.03469000  0.77533000  1.0
  H  H5  1  0.09882000  0.96531000  0.22467000  1.0
  H  H6  1  0.77227000  0.92518000  0.69117000  1.0
  H  H7  1  0.22773000  0.07482000  0.30883000  1.0
  H  H8  1  0.01731000  0.41018000  0.14071000  1.0
  H  H9  1  0.98269000  0.58982000  0.85929000  1.0
  H  H10  1  0.85466000  0.32403000  0.07232000  1.0
  H  H11  1  0.14534000  0.67597000  0.92768000  1.0
  H  H12  1  0.98812000  0.15340000  0.90248000  1.0
  H  H13  1  0.01188000  0.84660000  0.09752000  1.0
  H  H14  1  0.12346000  0.86238000  0.65063000  1.0
  H  H15  1  0.87653000  0.13761000  0.34937000  1.0
  H  H16  1  0.11300000  0.71440000  0.50929000  1.0
  H  H17  1  0.88700000  0.28560000  0.49071000  1.0
  H  H18  1  0.35695000  0.57541000  0.35310000  1.0
  H  H19  1  0.64305000  0.42459000  0.64690000  1.0
  H  H20  1  0.60719000  0.58459000  0.34083000  1.0
  H  H21  1  0.39281000  0.41541000  0.65917000  1.0
  H  H22  1  0.61860000  0.73147000  0.48020000  1.0
  H  H23  1  0.38140000  0.26853000  0.51981000  1.0
  H  H24  1  0.05304000  0.36168000  0.57696000  1.0
  H  H25  1  0.94696000  0.63832000  0.42304000  1.0
  H  H26  1  0.60614000  0.83470000  0.63758000  1.0
  H  H27  1  0.39387000  0.16530000  0.36241000  1.0
  C  C28  1  0.68711000  0.16534000  0.89170000  1.0
  C  C29  1  0.31289000  0.83466000  0.10830000  1.0
  C  C30  1  0.77718000  0.06459000  0.80461000  1.0
  C  C31  1  0.22282000  0.93541000  0.19539000  1.0
  C  C32  1  0.70626000  0.00502000  0.75751000  1.0
  C  C33  1  0.29374000  0.99498000  0.24249000  1.0
  C  C34  1  0.54563000  0.04729000  0.79722000  1.0
  C  C35  1  0.45437000  0.95270000  0.20278000  1.0
  C  C36  1  0.46240000  0.15044000  0.88619000  1.0
  C  C37  1  0.53760000  0.84955000  0.11381000  1.0
  C  C38  1  0.29603000  0.19854000  0.93157000  1.0
  C  C39  1  0.70397000  0.80147000  0.06843000  1.0
  C  C40  1  0.06904000  0.33511000  0.06862000  1.0
  C  C41  1  0.93096000  0.66489000  0.93138000  1.0
  C  C42  1  0.97927000  0.28707000  0.02970000  1.0
  C  C43  1  0.02073000  0.71293000  0.97030000  1.0
  C  C44  1  0.05243000  0.19328000  0.93664000  1.0
  C  C45  1  0.94756000  0.80672000  0.06337000  1.0
  C  C46  1  0.21343000  0.14604000  0.88568000  1.0
  C  C47  1  0.78657000  0.85396000  0.11432000  1.0
  C  C48  1  0.29892000  0.04580000  0.79355000  1.0
  C  C49  1  0.70108000  0.95420000  0.20645000  1.0
  C  C50  1  0.45808000  0.99746000  0.75430000  1.0
  C  C51  1  0.54192000  0.00254000  0.24570000  1.0
  C  C52  1  0.37096000  0.89636000  0.65840000  1.0
  C  C53  1  0.62904000  0.10364000  0.34160000  1.0
  C  C54  1  0.37049000  0.80732000  0.57513000  1.0
  C  C55  1  0.62951000  0.19268000  0.42487000  1.0
  C  C56  1  0.22860000  0.80104000  0.58221000  1.0
  C  C57  1  0.77140000  0.19896000  0.41779000  1.0
  C  C58  1  0.22366000  0.71783000  0.50335000  1.0
  C  C59  1  0.77633000  0.28217000  0.49665000  1.0
  C  C60  1  0.35971000  0.64021000  0.41582000  1.0
  C  C61  1  0.64029000  0.35979000  0.58418000  1.0
  C  C62  1  0.50117000  0.64610000  0.40821000  1.0
  C  C63  1  0.49883000  0.35390000  0.59179000  1.0
  C  C64  1  0.50713000  0.72841000  0.48742000  1.0
  C  C65  1  0.49287000  0.27158000  0.51258000  1.0
  C  C66  1  0.16023000  0.40906000  0.34468000  1.0
  C  C67  1  0.83977000  0.59094000  0.65532000  1.0
  C  C68  1  0.05052000  0.44049000  0.48852000  1.0
  C  C69  1  0.94948000  0.55951000  0.51148000  1.0
  N  N70  1  0.22170000  0.29267000  0.02013000  1.0
  N  N71  1  0.77830000  0.70733000  0.97987000  1.0
  N  N72  1  0.53514000  0.20534000  0.93167000  1.0
  N  N73  1  0.46486000  0.79466000  0.06833000  1.0
  N  N74  1  0.50138000  0.90293000  0.66810000  1.0
  N  N75  1  0.49862000  0.09707000  0.33190000  1.0
  N  N76  1  0.24640000  0.98303000  0.73323000  1.0
  N  N77  1  0.75360000  0.01697000  0.26677000  1.0
  Cl  Cl78  1  0.42035000  0.58467000  0.86624000  1.0
  Cl  Cl79  1  0.57966000  0.41533000  0.13376000  1.0
  O  O80  1  0.24116000  0.28810000  0.33227000  1.0
  O  O81  1  0.75884000  0.71190000  0.66773000  1.0
  O  O82  1  0.16927000  0.50204000  0.23953000  1.0
  O  O83  1  0.83073000  0.49797000  0.76047000  1.0
