# generated using pymatgen
data_ZnH9C14NO7
_symmetry_space_group_name_H-M   'P 1'
_cell_length_a   7.62055000
_cell_length_b   8.41227000
_cell_length_c   10.42620000
_cell_angle_alpha   96.02000000
_cell_angle_beta   98.16150000
_cell_angle_gamma   104.60600000
_symmetry_Int_Tables_number   1
_chemical_formula_structural   ZnH9C14NO7
_chemical_formula_sum   'Zn2 H18 C28 N2 O14'
_cell_volume   633.29038552
_cell_formula_units_Z   2
loop_
 _symmetry_equiv_pos_site_id
 _symmetry_equiv_pos_as_xyz
  1  'x, y, z'
loop_
 _atom_site_type_symbol
 _atom_site_label
 _atom_site_symmetry_multiplicity
 _atom_site_fract_x
 _atom_site_fract_y
 _atom_site_fract_z
 _atom_site_occupancy
  Zn  Zn0  1  0.68621000  0.99309000  0.24152000  1.0
  Zn  Zn1  1  0.31379000  0.00691000  0.75848000  1.0
  H  H2  1  0.68971000  0.17059000  0.68674000  1.0
  H  H3  1  0.31029000  0.82941000  0.31326000  1.0
  H  H4  1  0.41727000  0.11337000  0.26604000  1.0
  H  H5  1  0.58273000  0.88663000  0.73396000  1.0
  H  H6  1  0.41052000  0.08751000  0.11661000  1.0
  H  H7  1  0.58948000  0.91249000  0.88339000  1.0
  H  H8  1  0.74900000  0.72361000  0.65130000  1.0
  H  H9  1  0.25100000  0.27639000  0.34870000  1.0
  H  H10  1  0.76160000  0.44174000  0.54931000  1.0
  H  H11  1  0.23840000  0.55826000  0.45069000  1.0
  H  H12  1  0.78391000  0.39907000  0.31191000  1.0
  H  H13  1  0.21609000  0.60093000  0.68809000  1.0
  H  H14  1  0.00594000  0.86594000  0.16922000  1.0
  H  H15  1  0.99405000  0.13406000  0.83078000  1.0
  H  H16  1  0.89028000  0.57372000  0.78966000  1.0
  H  H17  1  0.10972000  0.42628000  0.21034000  1.0
  H  H18  1  0.60873000  0.38399000  0.09490000  1.0
  H  H19  1  0.39127000  0.61601000  0.90510000  1.0
  C  C20  1  0.72286000  0.98506000  0.51826000  1.0
  C  C21  1  0.27714000  0.01494000  0.48174000  1.0
  C  C22  1  0.74874000  0.81934000  0.46802000  1.0
  C  C23  1  0.25125000  0.18066000  0.53198000  1.0
  C  C24  1  0.75300000  0.69685000  0.54762000  1.0
  C  C25  1  0.24699000  0.30315000  0.45238000  1.0
  C  C26  1  0.76262000  0.54211000  0.49101000  1.0
  C  C27  1  0.23737000  0.45789000  0.50898000  1.0
  C  C28  1  0.77394000  0.51765000  0.35879000  1.0
  C  C29  1  0.22606000  0.48235000  0.64121000  1.0
  C  C30  1  0.77624000  0.64869000  0.28524000  1.0
  C  C31  1  0.22376000  0.35131000  0.71476000  1.0
  C  C32  1  0.80040000  0.62947000  0.14683000  1.0
  C  C33  1  0.19960000  0.37053000  0.85317000  1.0
  C  C34  1  0.92654000  0.75444000  0.10252000  1.0
  C  C35  1  0.07345000  0.24555000  0.89748000  1.0
  C  C36  1  0.95809000  0.73475000  0.97377000  1.0
  C  C37  1  0.04191000  0.26525000  0.02622000  1.0
  C  C38  1  0.86207000  0.59035000  0.88871000  1.0
  C  C39  1  0.13793000  0.40965000  0.11129000  1.0
  C  C40  1  0.73541000  0.46498000  0.93194000  1.0
  C  C41  1  0.26458000  0.53502000  0.06806000  1.0
  C  C42  1  0.70489000  0.48385000  0.06133000  1.0
  C  C43  1  0.29512000  0.51615000  0.93867000  1.0
  C  C44  1  0.10155000  0.86431000  0.92963000  1.0
  C  C45  1  0.89845000  0.13569000  0.07037000  1.0
  C  C46  1  0.64098000  0.30832000  0.84286000  1.0
  C  C47  1  0.35902000  0.69167000  0.15714000  1.0
  N  N48  1  0.76094000  0.79639000  0.33994000  1.0
  N  N49  1  0.23906000  0.20361000  0.66006000  1.0
  O  O50  1  0.70450000  0.08498000  0.43784000  1.0
  O  O51  1  0.29550000  0.91502000  0.56216000  1.0
  O  O52  1  0.71934000  0.01486000  0.64040000  1.0
  O  O53  1  0.28067000  0.98514000  0.35960000  1.0
  O  O54  1  0.21247000  0.97646000  0.01220000  1.0
  O  O55  1  0.78753000  0.02355000  0.98780000  1.0
  O  O56  1  0.10183000  0.85010000  0.80470000  1.0
  O  O57  1  0.89817000  0.14990000  0.19530000  1.0
  O  O58  1  0.69885000  0.29406000  0.73028000  1.0
  O  O59  1  0.30115000  0.70593000  0.26972000  1.0
  O  O60  1  0.51641000  0.20124000  0.87671000  1.0
  O  O61  1  0.48358000  0.79876000  0.12329000  1.0
  O  O62  1  0.49709000  0.13969000  0.19967000  1.0
  O  O63  1  0.50291000  0.86031000  0.80033000  1.0
