# generated using pymatgen
data_CdH15C20NO6
_symmetry_space_group_name_H-M   'P 1'
_cell_length_a   9.48376000
_cell_length_b   9.76523000
_cell_length_c   10.77200000
_cell_angle_alpha   88.49930000
_cell_angle_beta   72.57540000
_cell_angle_gamma   69.45680000
_symmetry_Int_Tables_number   1
_chemical_formula_structural   CdH15C20NO6
_chemical_formula_sum   'Cd2 H30 C40 N2 O12'
_cell_volume   887.81800570
_cell_formula_units_Z   2
loop_
 _symmetry_equiv_pos_site_id
 _symmetry_equiv_pos_as_xyz
  1  'x, y, z'
loop_
 _atom_site_type_symbol
 _atom_site_label
 _atom_site_symmetry_multiplicity
 _atom_site_fract_x
 _atom_site_fract_y
 _atom_site_fract_z
 _atom_site_occupancy
  Cd  Cd0  1  0.65064000  0.57310000  0.15169000  1.0
  Cd  Cd1  1  0.34936000  0.42690000  0.84831000  1.0
  H  H2  1  0.73175000  0.42678000  0.90890000  1.0
  H  H3  1  0.26825000  0.57322000  0.09110000  1.0
  H  H4  1  0.88983000  0.45950000  0.90209000  1.0
  H  H5  1  0.11017000  0.54051000  0.09791000  1.0
  H  H6  1  0.66492000  0.41819000  0.40823000  1.0
  H  H7  1  0.33508000  0.58181000  0.59177000  1.0
  H  H8  1  0.61953000  0.20646000  0.52420000  1.0
  H  H9  1  0.38047000  0.79354000  0.47580000  1.0
  H  H10  1  0.46268000  0.10948000  0.21061000  1.0
  H  H11  1  0.53732000  0.89052000  0.78939000  1.0
  H  H12  1  0.50512000  0.33262000  0.11156000  1.0
  H  H13  1  0.49487000  0.66738000  0.88845000  1.0
  H  H14  1  0.48816000  0.93868000  0.37387000  1.0
  H  H15  1  0.51185000  0.06132000  0.62613000  1.0
  H  H16  1  0.37671000  0.04904000  0.04509000  1.0
  H  H17  1  0.62329000  0.95096000  0.95491000  1.0
  H  H18  1  0.15114000  0.26732000  0.02960000  1.0
  H  H19  1  0.84886000  0.73268000  0.97040000  1.0
  H  H20  1  0.87903000  0.26176000  0.10259000  1.0
  H  H21  1  0.12097000  0.73824000  0.89741000  1.0
  H  H22  1  0.83487000  0.03478000  0.18854000  1.0
  H  H23  1  0.16513000  0.96522000  0.81146000  1.0
  H  H24  1  0.12991000  0.88888000  0.39012000  1.0
  H  H25  1  0.87008000  0.11112000  0.60988000  1.0
  H  H26  1  0.05279000  0.83647000  0.62239000  1.0
  H  H27  1  0.94721000  0.16353000  0.37761000  1.0
  H  H28  1  0.88086000  0.68804000  0.69725000  1.0
  H  H29  1  0.11914000  0.31196000  0.30274000  1.0
  H  H30  1  0.78445000  0.59642000  0.53690000  1.0
  H  H31  1  0.21555000  0.40358000  0.46309000  1.0
  C  C32  1  0.61871000  0.34724000  0.36905000  1.0
  C  C33  1  0.38129000  0.65276000  0.63095000  1.0
  C  C34  1  0.59352000  0.22875000  0.43244000  1.0
  C  C35  1  0.40649000  0.77125000  0.56756000  1.0
  C  C36  1  0.53617000  0.13892000  0.37700000  1.0
  C  C37  1  0.46384000  0.86107000  0.62300000  1.0
  C  C38  1  0.50670000  0.17599000  0.25772000  1.0
  C  C39  1  0.49331000  0.82401000  0.74228000  1.0
  C  C40  1  0.53125000  0.29867000  0.20175000  1.0
  C  C41  1  0.46875000  0.70133000  0.79825000  1.0
  C  C42  1  0.50499000  0.01329000  0.43726000  1.0
  C  C43  1  0.49502000  0.98671000  0.56274000  1.0
  C  C44  1  0.37626000  0.79114000  0.13307000  1.0
  C  C45  1  0.62374000  0.20886000  0.86693000  1.0
  C  C46  1  0.23503000  0.91840000  0.12591000  1.0
  C  C47  1  0.76497000  0.08159000  0.87409000  1.0
  C  C48  1  0.25719000  0.04728000  0.07817000  1.0
  C  C49  1  0.74281000  0.95271000  0.92182000  1.0
  C  C50  1  0.13109000  0.16981000  0.06918000  1.0
  C  C51  1  0.86891000  0.83018000  0.93082000  1.0
  C  C52  1  0.97811000  0.16688000  0.11063000  1.0
  C  C53  1  0.02189000  0.83312000  0.88937000  1.0
  C  C54  1  0.95245000  0.04125000  0.15923000  1.0
  C  C55  1  0.04755000  0.95875000  0.84077000  1.0
  C  C56  1  0.07996000  0.91749000  0.16526000  1.0
  C  C57  1  0.92004000  0.08251000  0.83474000  1.0
  C  C58  1  0.00580000  0.76691000  0.33253000  1.0
  C  C59  1  0.99419000  0.23309000  0.66747000  1.0
  C  C60  1  0.05712000  0.82192000  0.42231000  1.0
  C  C61  1  0.94288000  0.17809000  0.57769000  1.0
  C  C62  1  0.01234000  0.79319000  0.55297000  1.0
  C  C63  1  0.98765000  0.20681000  0.44703000  1.0
  C  C64  1  0.91541000  0.71070000  0.59526000  1.0
  C  C65  1  0.08458000  0.28930000  0.40474000  1.0
  C  C66  1  0.86244000  0.65873000  0.50572000  1.0
  C  C67  1  0.13755000  0.34127000  0.49428000  1.0
  C  C68  1  0.90703000  0.68435000  0.37337000  1.0
  C  C69  1  0.09296000  0.31565000  0.62663000  1.0
  C  C70  1  0.83937000  0.63178000  0.28390000  1.0
  C  C71  1  0.16063000  0.36821000  0.71609000  1.0
  N  N72  1  0.58802000  0.38260000  0.25541000  1.0
  N  N73  1  0.41198000  0.61740000  0.74459000  1.0
  O  O74  1  0.49387000  0.81882000  0.14517000  1.0
  O  O75  1  0.50614000  0.18118000  0.85483000  1.0
  O  O76  1  0.38004000  0.65925000  0.12555000  1.0
  O  O77  1  0.61996000  0.34075000  0.87447000  1.0
  O  O78  1  0.04737000  0.79168000  0.20237000  1.0
  O  O79  1  0.95263000  0.20832000  0.79763000  1.0
  O  O80  1  0.91736000  0.58526000  0.16468000  1.0
  O  O81  1  0.08264000  0.41474000  0.83532000  1.0
  O  O82  1  0.69671000  0.63671000  0.33388000  1.0
  O  O83  1  0.30329000  0.36328000  0.66612000  1.0
  O  O84  1  0.77059000  0.49853000  0.93943000  1.0
  O  O85  1  0.22941000  0.50147000  0.06056000  1.0
