# generated using pymatgen
data_FeHC6O7
_symmetry_space_group_name_H-M   'P 1'
_cell_length_a   6.83934000
_cell_length_b   15.21930000
_cell_length_c   15.25930000
_cell_angle_alpha   117.36800000
_cell_angle_beta   98.50280000
_cell_angle_gamma   98.92620000
_symmetry_Int_Tables_number   1
_chemical_formula_structural   FeHC6O7
_chemical_formula_sum   'Fe6 H6 C36 O42'
_cell_volume   1349.28731144
_cell_formula_units_Z   6
loop_
 _symmetry_equiv_pos_site_id
 _symmetry_equiv_pos_as_xyz
  1  'x, y, z'
loop_
 _atom_site_type_symbol
 _atom_site_label
 _atom_site_symmetry_multiplicity
 _atom_site_fract_x
 _atom_site_fract_y
 _atom_site_fract_z
 _atom_site_occupancy
  Fe  Fe0  1  0.51808000  0.40001000  0.72863000  1.0
  Fe  Fe1  1  0.78892000  0.27249000  0.67288000  1.0
  Fe  Fe2  1  0.11764000  0.32886000  0.60186000  1.0
  Fe  Fe3  1  0.46712000  0.58995000  0.26322000  1.0
  Fe  Fe4  1  0.20096000  0.73403000  0.32456000  1.0
  Fe  Fe5  1  0.88042000  0.67409000  0.40719000  1.0
  H  H6  1  0.18203000  0.52979000  0.55284000  1.0
  H  H7  1  0.62703000  0.44722000  0.97669000  1.0
  H  H8  1  0.64918000  0.02302000  0.47080000  1.0
  H  H9  1  0.81836000  0.47083000  0.44609000  1.0
  H  H10  1  0.37141000  0.55349000  0.02352000  1.0
  H  H11  1  0.34575000  0.97643000  0.52974000  1.0
  C  C12  1  0.76392000  0.40639000  0.57466000  1.0
  C  C13  1  0.18882000  0.42610000  0.83214000  1.0
  C  C14  1  0.35630000  0.16895000  0.59570000  1.0
  C  C15  1  0.24132000  0.59850000  0.42774000  1.0
  C  C16  1  0.81121000  0.57085000  0.16902000  1.0
  C  C17  1  0.64072000  0.82888000  0.39977000  1.0
  C  C18  1  0.62525000  0.45435000  0.53916000  1.0
  C  C19  1  0.08489000  0.46118000  0.91497000  1.0
  C  C20  1  0.16901000  0.08563000  0.54723000  1.0
  C  C21  1  0.37624000  0.54713000  0.46081000  1.0
  C  C22  1  0.91357000  0.53852000  0.08516000  1.0
  C  C23  1  0.82621000  0.91400000  0.45273000  1.0
  C  C24  1  0.44118000  0.47156000  0.57138000  1.0
  C  C25  1  0.86821000  0.42908000  0.90023000  1.0
  C  C26  1  0.96719000  0.10023000  0.53009000  1.0
  C  C27  1  0.55934000  0.52938000  0.42823000  1.0
  C  C28  1  0.12968000  0.57084000  0.09967000  1.0
  C  C29  1  0.02765000  0.89989000  0.47094000  1.0
  C  C30  1  0.32296000  0.51711000  0.52987000  1.0
  C  C31  1  0.79116000  0.47019000  0.98672000  1.0
  C  C32  1  0.80300000  0.01303000  0.48376000  1.0
  C  C33  1  0.67716000  0.48336000  0.46888000  1.0
  C  C34  1  0.20712000  0.53073000  0.01345000  1.0
  C  C35  1  0.19190000  0.98662000  0.51740000  1.0
  C  C36  1  0.78307000  0.65331000  0.91003000  1.0
  C  C37  1  0.87651000  0.08866000  0.74326000  1.0
  C  C38  1  0.12932000  0.25847000  0.34957000  1.0
  C  C39  1  0.21541000  0.34402000  0.08798000  1.0
  C  C40  1  0.12658000  0.91196000  0.25654000  1.0
  C  C41  1  0.87031000  0.74387000  0.65392000  1.0
  C  C42  1  0.70669000  0.34034000  0.21148000  1.0
  C  C43  1  0.49629000  0.78899000  0.12918000  1.0
  C  C44  1  0.36969000  0.86973000  0.65810000  1.0
  C  C45  1  0.29388000  0.65861000  0.78784000  1.0
  C  C46  1  0.50808000  0.21001000  0.87057000  1.0
  C  C47  1  0.63868000  0.13118000  0.34278000  1.0
  O  O48  1  0.72892000  0.38660000  0.64581000  1.0
  O  O49  1  0.08288000  0.35511000  0.74191000  1.0
  O  O50  1  0.34179000  0.25999000  0.61606000  1.0
  O  O51  1  0.28434000  0.62430000  0.36209000  1.0
  O  O52  1  0.92024000  0.63516000  0.26028000  1.0
  O  O53  1  0.65960000  0.73748000  0.37262000  1.0
  O  O54  1  0.91655000  0.38417000  0.53792000  1.0
  O  O55  1  0.37870000  0.46310000  0.84661000  1.0
  O  O56  1  0.53113000  0.15422000  0.61779000  1.0
  O  O57  1  0.08675000  0.61781000  0.46439000  1.0
  O  O58  1  0.61938000  0.53506000  0.15182000  1.0
  O  O59  1  0.46587000  0.84535000  0.38032000  1.0
  O  O60  1  0.37319000  0.44787000  0.63799000  1.0
  O  O61  1  0.73407000  0.36267000  0.81049000  1.0
  O  O62  1  0.92381000  0.19058000  0.55446000  1.0
  O  O63  1  0.62663000  0.55499000  0.36202000  1.0
  O  O64  1  0.26303000  0.63643000  0.19054000  1.0
  O  O65  1  0.07011000  0.80891000  0.44547000  1.0
  O  O66  1  0.82597000  0.72316000  0.99310000  1.0
  O  O67  1  0.84006000  0.00496000  0.73017000  1.0
  O  O68  1  0.09753000  0.27155000  0.27930000  1.0
  O  O69  1  0.17305000  0.27437000  0.00487000  1.0
  O  O70  1  0.16814000  0.99570000  0.27005000  1.0
  O  O71  1  0.89730000  0.73163000  0.72481000  1.0
  O  O72  1  0.73974000  0.58408000  0.82627000  1.0
  O  O73  1  0.91259000  0.17302000  0.75762000  1.0
  O  O74  1  0.15984000  0.24424000  0.41935000  1.0
  O  O75  1  0.25851000  0.41329000  0.17183000  1.0
  O  O76  1  0.08489000  0.82752000  0.24198000  1.0
  O  O77  1  0.84410000  0.75706000  0.58330000  1.0
  O  O78  1  0.85073000  0.39429000  0.21241000  1.0
  O  O79  1  0.63920000  0.78579000  0.17972000  1.0
  O  O80  1  0.46020000  0.81917000  0.60358000  1.0
  O  O81  1  0.14996000  0.60472000  0.78710000  1.0
  O  O82  1  0.36340000  0.20856000  0.81730000  1.0
  O  O83  1  0.54735000  0.18317000  0.39542000  1.0
  O  O84  1  0.56266000  0.28534000  0.20967000  1.0
  O  O85  1  0.35445000  0.79302000  0.07832000  1.0
  O  O86  1  0.28044000  0.92051000  0.71370000  1.0
  O  O87  1  0.43741000  0.71379000  0.78953000  1.0
  O  O88  1  0.65154000  0.21051000  0.92417000  1.0
  O  O89  1  0.72851000  0.07893000  0.28884000  1.0
