# generated using pymatgen
data_CdH12C14(SN4)2
_symmetry_space_group_name_H-M   'P 1'
_cell_length_a   8.04470000
_cell_length_b   9.40952000
_cell_length_c   12.23044477
_cell_angle_alpha   67.38398623
_cell_angle_beta   81.59790651
_cell_angle_gamma   89.96760000
_symmetry_Int_Tables_number   1
_chemical_formula_structural   CdH12C14(SN4)2
_chemical_formula_sum   'Cd2 H24 C28 S4 N16'
_cell_volume   843.87079783
_cell_formula_units_Z   2
loop_
 _symmetry_equiv_pos_site_id
 _symmetry_equiv_pos_as_xyz
  1  'x, y, z'
loop_
 _atom_site_type_symbol
 _atom_site_label
 _atom_site_symmetry_multiplicity
 _atom_site_fract_x
 _atom_site_fract_y
 _atom_site_fract_z
 _atom_site_occupancy
  Cd  Cd0  1  0.00000000  0.50000000  0.50000000  1.0
  Cd  Cd1  1  0.50000000  0.00000000  0.50000000  1.0
  H  H2  1  0.88397000  0.12248000  0.69708000  1.0
  H  H3  1  0.61607000  0.81992000  0.30288000  1.0
  H  H4  1  0.11604000  0.87752000  0.30292000  1.0
  H  H5  1  0.38393000  0.18007000  0.69713000  1.0
  H  H6  1  0.64117000  0.51242000  0.70917000  1.0
  H  H7  1  0.85910000  0.22116000  0.29155000  1.0
  H  H8  1  0.35882000  0.48757000  0.29083000  1.0
  H  H9  1  0.14089000  0.77885000  0.70845000  1.0
  H  H10  1  0.44496000  0.14483000  0.97928000  1.0
  H  H11  1  0.05478000  0.12409000  0.02085000  1.0
  H  H12  1  0.55504000  0.85516000  0.02073000  1.0
  H  H13  1  0.94521000  0.87591000  0.97915000  1.0
  H  H14  1  0.33926000  0.27642000  0.86630000  1.0
  H  H15  1  0.16060000  0.14266000  0.13377000  1.0
  H  H16  1  0.66074000  0.72358000  0.13370000  1.0
  H  H17  1  0.83940000  0.85733000  0.86623000  1.0
  H  H18  1  0.37181000  0.56118000  0.81537000  1.0
  H  H19  1  0.12786000  0.37648000  0.18480000  1.0
  H  H20  1  0.62819000  0.43881000  0.18464000  1.0
  H  H21  1  0.87216000  0.62352000  0.81520000  1.0
  H  H22  1  0.57615000  0.23248000  0.11202000  1.0
  H  H23  1  0.92402000  0.34445000  0.88801000  1.0
  H  H24  1  0.42384000  0.76751000  0.88799000  1.0
  H  H25  1  0.07598000  0.65554000  0.11200000  1.0
  C  C26  1  0.79842000  0.19450000  0.72629000  1.0
  C  C27  1  0.70156000  0.92107000  0.27379000  1.0
  C  C28  1  0.20158000  0.80550000  0.27371000  1.0
  C  C29  1  0.29843000  0.07893000  0.72621000  1.0
  C  C30  1  0.67729000  0.39515000  0.72875000  1.0
  C  C31  1  0.82289000  0.12373000  0.27173000  1.0
  C  C32  1  0.32270000  0.60485000  0.27125000  1.0
  C  C33  1  0.17711000  0.87628000  0.72826000  1.0
  C  C34  1  0.45248000  0.26144000  0.90930000  1.0
  C  C35  1  0.04730000  0.17074000  0.09084000  1.0
  C  C36  1  0.54752000  0.73855000  0.09070000  1.0
  C  C37  1  0.95269000  0.82926000  0.90916000  1.0
  C  C38  1  0.47273000  0.38395000  0.95812000  1.0
  C  C39  1  0.02709000  0.34205000  0.04202000  1.0
  C  C40  1  0.52726000  0.61604000  0.04188000  1.0
  C  C41  1  0.97292000  0.65795000  0.95798000  1.0
  C  C42  1  0.42938000  0.53478000  0.89586000  1.0
  C  C43  1  0.07044000  0.43063000  0.10424000  1.0
  C  C44  1  0.57061000  0.46522000  0.10414000  1.0
  C  C45  1  0.92957000  0.56937000  0.89576000  1.0
  C  C46  1  0.54298000  0.34993000  0.06278000  1.0
  C  C47  1  0.95709000  0.41270000  0.93722000  1.0
  C  C48  1  0.45701000  0.65007000  0.93722000  1.0
  C  C49  1  0.04292000  0.58732000  0.06277000  1.0
  C  C50  1  0.65514000  0.36470000  0.42760000  1.0
  C  C51  1  0.84467000  0.79210000  0.57245000  1.0
  C  C52  1  0.34487000  0.63530000  0.57240000  1.0
  C  C53  1  0.15533000  0.20791000  0.42755000  1.0
  S  S54  1  0.76240000  0.52900000  0.35200000  1.0
  S  S55  1  0.73715000  0.88064000  0.64815000  1.0
  S  S56  1  0.23761000  0.47100000  0.64800000  1.0
  S  S57  1  0.26285000  0.11937000  0.35184000  1.0
  N  N58  1  0.59884000  0.26940000  0.81926000  1.0
  N  N59  1  0.90108000  0.08875000  0.18096000  1.0
  N  N60  1  0.40116000  0.73060000  0.18074000  1.0
  N  N61  1  0.09892000  0.91125000  0.81904000  1.0
  N  N62  1  0.67444000  0.13956000  0.81916000  1.0
  N  N63  1  0.82535000  0.95912000  0.18079000  1.0
  N  N64  1  0.32557000  0.86045000  0.18084000  1.0
  N  N65  1  0.17465000  0.04089000  0.81921000  1.0
  N  N66  1  0.80524000  0.35103000  0.66875000  1.0
  N  N67  1  0.69499000  0.01969000  0.33164000  1.0
  N  N68  1  0.19475000  0.64897000  0.33125000  1.0
  N  N69  1  0.30501000  0.98031000  0.66836000  1.0
  N  N70  1  0.57539000  0.24615000  0.48147000  1.0
  N  N71  1  0.92471000  0.72752000  0.51854000  1.0
  N  N72  1  0.42463000  0.75384000  0.51853000  1.0
  N  N73  1  0.07530000  0.27249000  0.48145000  1.0
