# generated using pymatgen
data_NiH24C22(NO)6
_symmetry_space_group_name_H-M   'P 1'
_cell_length_a   8.59663000
_cell_length_b   11.53960000
_cell_length_c   12.11300000
_cell_angle_alpha   111.42100000
_cell_angle_beta   90.00000000
_cell_angle_gamma   90.00000000
_symmetry_Int_Tables_number   1
_chemical_formula_structural   NiH24C22(NO)6
_chemical_formula_sum   'Ni2 H48 C44 N12 O12'
_cell_volume   1118.62368369
_cell_formula_units_Z   2
loop_
 _symmetry_equiv_pos_site_id
 _symmetry_equiv_pos_as_xyz
  1  'x, y, z'
loop_
 _atom_site_type_symbol
 _atom_site_label
 _atom_site_symmetry_multiplicity
 _atom_site_fract_x
 _atom_site_fract_y
 _atom_site_fract_z
 _atom_site_occupancy
  Ni  Ni0  1  0.00000000  0.50000000  0.00000000  1.0
  Ni  Ni1  1  0.50000000  0.00000000  0.00000000  1.0
  H  H2  1  0.93521000  0.30167000  0.06163000  1.0
  H  H3  1  0.43522000  0.19833000  0.93837000  1.0
  H  H4  1  0.06478000  0.69833000  0.93837000  1.0
  H  H5  1  0.56479000  0.80167000  0.06163000  1.0
  H  H6  1  0.92725000  0.52725000  0.24547000  1.0
  H  H7  1  0.42725000  0.97275000  0.75453000  1.0
  H  H8  1  0.07275000  0.47275000  0.75453000  1.0
  H  H9  1  0.57275000  0.02725000  0.24547000  1.0
  H  H10  1  0.96919000  0.67756000  0.45133000  1.0
  H  H11  1  0.46919000  0.82244000  0.54867000  1.0
  H  H12  1  0.03081000  0.32244000  0.54867000  1.0
  H  H13  1  0.53081000  0.17757000  0.45133000  1.0
  H  H14  1  0.27494000  0.88179000  0.30420000  1.0
  H  H15  1  0.77493000  0.61821000  0.69580000  1.0
  H  H16  1  0.72506000  0.11821000  0.69579000  1.0
  H  H17  1  0.22506000  0.38179000  0.30420000  1.0
  H  H18  1  0.21151000  0.72809000  0.10539000  1.0
  H  H19  1  0.71151000  0.77191000  0.89461000  1.0
  H  H20  1  0.78849000  0.27191000  0.89461000  1.0
  H  H21  1  0.28849000  0.22809000  0.10539000  1.0
  H  H22  1  0.29709000  0.04221000  0.50406000  1.0
  H  H23  1  0.79709000  0.45779000  0.49594000  1.0
  H  H24  1  0.70291000  0.95779000  0.49593000  1.0
  H  H25  1  0.20291000  0.54221000  0.50407000  1.0
  H  H26  1  0.22471000  0.14478000  0.74274000  1.0
  H  H27  1  0.72472000  0.35522000  0.25726000  1.0
  H  H28  1  0.77529000  0.85522000  0.25726000  1.0
  H  H29  1  0.27528000  0.64478000  0.74274000  1.0
  H  H30  1  0.88832000  0.01037000  0.79917000  1.0
  H  H31  1  0.38832000  0.48963000  0.20083000  1.0
  H  H32  1  0.11168000  0.98963000  0.20083000  1.0
  H  H33  1  0.61168000  0.51037000  0.79917000  1.0
  H  H34  1  0.05928000  0.08318000  0.87707000  1.0
  H  H35  1  0.55928000  0.41682000  0.12293000  1.0
  H  H36  1  0.94072000  0.91682000  0.12293000  1.0
  H  H37  1  0.44072000  0.58318000  0.87707000  1.0
  H  H38  1  0.94040000  0.89229000  0.91703000  1.0
  H  H39  1  0.44040000  0.60771000  0.08297000  1.0
  H  H40  1  0.05960000  0.10772000  0.08297000  1.0
  H  H41  1  0.55960000  0.39229000  0.91703000  1.0
  H  H42  1  0.01808000  0.79995000  0.77925000  1.0
  H  H43  1  0.51808000  0.70005000  0.22075000  1.0
  H  H44  1  0.98192000  0.20006000  0.22075000  1.0
  H  H45  1  0.48192000  0.29995000  0.77925000  1.0
  H  H46  1  0.11347000  0.31193000  0.01501000  1.0
  H  H47  1  0.61347000  0.18807000  0.98499000  1.0
  H  H48  1  0.88654000  0.68807000  0.98499000  1.0
  H  H49  1  0.38654000  0.81193000  0.01501000  1.0
  C  C50  1  0.00235000  0.60777000  0.26281000  1.0
  C  C51  1  0.50235000  0.89223000  0.73719000  1.0
  C  C52  1  0.99765000  0.39223000  0.73719000  1.0
  C  C53  1  0.49765000  0.10777000  0.26281000  1.0
  C  C54  1  0.02786000  0.69074000  0.37715000  1.0
  C  C55  1  0.52785000  0.80926000  0.62285000  1.0
  C  C56  1  0.97214000  0.30926000  0.62285000  1.0
  C  C57  1  0.47214000  0.19074000  0.37715000  1.0
  C  C58  1  0.12485000  0.79465000  0.39665000  1.0
  C  C59  1  0.62485000  0.70535000  0.60335000  1.0
  C  C60  1  0.87514000  0.20535000  0.60335000  1.0
  C  C61  1  0.37514000  0.29465000  0.39665000  1.0
  C  C62  1  0.19594000  0.80538000  0.29652000  1.0
  C  C63  1  0.69593000  0.69462000  0.70348000  1.0
  C  C64  1  0.80406000  0.19462000  0.70348000  1.0
  C  C65  1  0.30406000  0.30538000  0.29652000  1.0
  C  C66  1  0.16181000  0.71902000  0.18449000  1.0
  C  C67  1  0.66181000  0.78098000  0.81551000  1.0
  C  C68  1  0.83819000  0.28098000  0.81551000  1.0
  C  C69  1  0.33819000  0.21902000  0.18449000  1.0
  C  C70  1  0.14176000  0.88851000  0.51532000  1.0
  C  C71  1  0.64176000  0.61149000  0.48468000  1.0
  C  C72  1  0.85824000  0.11149000  0.48468000  1.0
  C  C73  1  0.35824000  0.38851000  0.51532000  1.0
  C  C74  1  0.22475000  0.00293000  0.55496000  1.0
  C  C75  1  0.72475000  0.49707000  0.44504000  1.0
  C  C76  1  0.77525000  0.99707000  0.44504000  1.0
  C  C77  1  0.27525000  0.50293000  0.55496000  1.0
  C  C78  1  0.18979000  0.05757000  0.67451000  1.0
  C  C79  1  0.68979000  0.44243000  0.32549000  1.0
  C  C80  1  0.81021000  0.94243000  0.32549000  1.0
  C  C81  1  0.31021000  0.55757000  0.67451000  1.0
  C  C82  1  0.01255000  0.99702000  0.81197000  1.0
  C  C83  1  0.51255000  0.50298000  0.18803000  1.0
  C  C84  1  0.98744000  0.00298000  0.18803000  1.0
  C  C85  1  0.48744000  0.49702000  0.81197000  1.0
  C  C86  1  0.03366000  0.88873000  0.85368000  1.0
  C  C87  1  0.53366000  0.61127000  0.14632000  1.0
  C  C88  1  0.96634000  0.11128000  0.14632000  1.0
  C  C89  1  0.46634000  0.38872000  0.85368000  1.0
  C  C90  1  0.18798000  0.88678000  0.91432000  1.0
  C  C91  1  0.68798000  0.61322000  0.08568000  1.0
  C  C92  1  0.81202000  0.11322000  0.08569000  1.0
  C  C93  1  0.31202000  0.38678000  0.91432000  1.0
  N  N94  1  0.06532000  0.62200000  0.16639000  1.0
  N  N95  1  0.56532000  0.87800000  0.83361000  1.0
  N  N96  1  0.93467000  0.37800000  0.83361000  1.0
  N  N97  1  0.43468000  0.12200000  0.16639000  1.0
  N  N98  1  0.06171000  0.87480000  0.60585000  1.0
  N  N99  1  0.56171000  0.62520000  0.39415000  1.0
  N  N100  1  0.93829000  0.12520000  0.39415000  1.0
  N  N101  1  0.43829000  0.37480000  0.60585000  1.0
  N  N102  1  0.09278000  0.97745000  0.70049000  1.0
  N  N103  1  0.59278000  0.52255000  0.29951000  1.0
  N  N104  1  0.90722000  0.02255000  0.29951000  1.0
  N  N105  1  0.40722000  0.47745000  0.70049000  1.0
  O  O106  1  0.22110000  0.78808000  0.93451000  1.0
  O  O107  1  0.72110000  0.71192000  0.06549000  1.0
  O  O108  1  0.77891000  0.21192000  0.06549000  1.0
  O  O109  1  0.27891000  0.28808000  0.93451000  1.0
  O  O110  1  0.27219000  0.98360000  0.94272000  1.0
  O  O111  1  0.77219000  0.51640000  0.05728000  1.0
  O  O112  1  0.72781000  0.01640000  0.05728000  1.0
  O  O113  1  0.22781000  0.48360000  0.94272000  1.0
  O  O114  1  0.02629000  0.35757000  0.06773000  1.0
  O  O115  1  0.52629000  0.14243000  0.93227000  1.0
  O  O116  1  0.97371000  0.64243000  0.93227000  1.0
  O  O117  1  0.47371000  0.85757000  0.06773000  1.0
