# generated using pymatgen
data_TmH7C8NO8
_symmetry_space_group_name_H-M   'P 1'
_cell_length_a   7.44211000
_cell_length_b   8.37841000
_cell_length_c   9.29065000
_cell_angle_alpha   78.01630000
_cell_angle_beta   76.46450000
_cell_angle_gamma   69.96360000
_symmetry_Int_Tables_number   1
_chemical_formula_structural   TmH7C8NO8
_chemical_formula_sum   'Tm2 H14 C16 N2 O16'
_cell_volume   523.94611626
_cell_formula_units_Z   2
loop_
 _symmetry_equiv_pos_site_id
 _symmetry_equiv_pos_as_xyz
  1  'x, y, z'
loop_
 _atom_site_type_symbol
 _atom_site_label
 _atom_site_symmetry_multiplicity
 _atom_site_fract_x
 _atom_site_fract_y
 _atom_site_fract_z
 _atom_site_occupancy
  Tm  Tm0  1  0.17274000  0.86857000  0.20497000  1.0
  Tm  Tm1  1  0.82726000  0.13143000  0.79503000  1.0
  H  H2  1  0.53853000  0.52077000  0.09803000  1.0
  H  H3  1  0.46147000  0.47923000  0.90197000  1.0
  H  H4  1  0.60583000  0.09915000  0.45791000  1.0
  H  H5  1  0.39418000  0.90085000  0.54209000  1.0
  H  H6  1  0.32705000  0.28883000  0.61702000  1.0
  H  H7  1  0.67295000  0.71117000  0.38299000  1.0
  H  H8  1  0.10424000  0.09863000  0.42566000  1.0
  H  H9  1  0.89576000  0.90137000  0.57434000  1.0
  H  H10  1  0.18935000  0.17866000  0.27394000  1.0
  H  H11  1  0.81064000  0.82134000  0.72606000  1.0
  H  H12  1  0.95528000  0.60405000  0.24943000  1.0
  H  H13  1  0.04472000  0.39596000  0.75057000  1.0
  H  H14  1  0.88897000  0.76090000  0.11718000  1.0
  H  H15  1  0.11101000  0.23911000  0.88282000  1.0
  C  C16  1  0.12557000  0.63080000  0.52605000  1.0
  C  C17  1  0.87443000  0.36920000  0.47395000  1.0
  C  C18  1  0.28968000  0.50352000  0.43977000  1.0
  C  C19  1  0.71032000  0.49648000  0.56023000  1.0
  C  C20  1  0.49394000  0.46452000  0.21166000  1.0
  C  C21  1  0.50606000  0.53547000  0.78834000  1.0
  C  C22  1  0.58960000  0.29424000  0.26403000  1.0
  C  C23  1  0.41040000  0.70575000  0.73597000  1.0
  C  C24  1  0.53118000  0.22988000  0.41245000  1.0
  C  C25  1  0.46883000  0.77012000  0.58755000  1.0
  C  C26  1  0.37698000  0.33545000  0.50135000  1.0
  C  C27  1  0.62302000  0.66455000  0.49865000  1.0
  C  C28  1  0.74889000  0.18722000  0.15930000  1.0
  C  C29  1  0.25112000  0.81278000  0.84070000  1.0
  C  C30  1  0.57457000  0.92150000  0.03662000  1.0
  C  C31  1  0.42544000  0.07851000  0.96338000  1.0
  N  N32  1  0.34891000  0.56703000  0.29729000  1.0
  N  N33  1  0.65109000  0.43297000  0.70271000  1.0
  O  O34  1  0.04519000  0.58630000  0.65557000  1.0
  O  O35  1  0.95482000  0.41370000  0.34443000  1.0
  O  O36  1  0.07716000  0.78560000  0.45653000  1.0
  O  O37  1  0.92283000  0.21440000  0.54348000  1.0
  O  O38  1  0.73822000  0.22613000  0.02145000  1.0
  O  O39  1  0.26178000  0.77387000  0.97855000  1.0
  O  O40  1  0.88032000  0.06527000  0.21507000  1.0
  O  O41  1  0.11969000  0.93473000  0.78492000  1.0
  O  O42  1  0.50868000  0.82988000  0.14783000  1.0
  O  O43  1  0.49133000  0.17013000  0.85217000  1.0
  O  O44  1  0.75276000  0.89797000  0.97819000  1.0
  O  O45  1  0.24725000  0.10202000  0.02181000  1.0
  O  O46  1  0.20665000  0.06618000  0.33553000  1.0
  O  O47  1  0.79335000  0.93382000  0.66447000  1.0
  O  O48  1  0.96334000  0.71974000  0.20029000  1.0
  O  O49  1  0.03665000  0.28026000  0.79971000  1.0
