# generated using pymatgen
data_CuH7(C7O2)2
_symmetry_space_group_name_H-M   'P 1'
_cell_length_a   18.26830000
_cell_length_b   18.26830000
_cell_length_c   24.50484171
_cell_angle_alpha   105.40741284
_cell_angle_beta   105.40741284
_cell_angle_gamma   106.68500000
_symmetry_Int_Tables_number   1
_chemical_formula_structural   CuH7(C7O2)2
_chemical_formula_sum   'Cu8 H56 C112 O32'
_cell_volume   7015.30812413
_cell_formula_units_Z   8
loop_
 _symmetry_equiv_pos_site_id
 _symmetry_equiv_pos_as_xyz
  1  'x, y, z'
loop_
 _atom_site_type_symbol
 _atom_site_label
 _atom_site_symmetry_multiplicity
 _atom_site_fract_x
 _atom_site_fract_y
 _atom_site_fract_z
 _atom_site_occupancy
  Cu  Cu0  1  0.50602000  0.95304000  0.95718000  1.0
  Cu  Cu1  1  0.45117000  0.50418000  0.95721000  1.0
  Cu  Cu2  1  0.04697000  0.49399000  0.54283000  1.0
  Cu  Cu3  1  0.49583000  0.54884000  0.54280000  1.0
  Cu  Cu4  1  0.49398000  0.04696000  0.04283000  1.0
  Cu  Cu5  1  0.54884000  0.49583000  0.04280000  1.0
  Cu  Cu6  1  0.95304000  0.50602000  0.45717000  1.0
  Cu  Cu7  1  0.50417000  0.45116000  0.45720000  1.0
  H  H8  1  0.77847000  0.57201000  0.00946000  1.0
  H  H9  1  0.70899000  0.65065000  0.82897000  1.0
  H  H10  1  0.88397000  0.61334000  0.96525000  1.0
  H  H11  1  0.60355000  0.60667000  0.87234000  1.0
  H  H12  1  0.76628000  0.57986000  0.77376000  1.0
  H  H13  1  0.72766000  0.60038000  0.68855000  1.0
  H  H14  1  0.23107000  0.93744000  0.00943000  1.0
  H  H15  1  0.11990000  0.67830000  0.82895000  1.0
  H  H16  1  0.08136000  0.85194000  0.96528000  1.0
  H  H17  1  0.26873000  0.76558000  0.87228000  1.0
  H  H18  1  0.00754000  0.69394000  0.77375000  1.0
  H  H19  1  0.96089000  0.58824000  0.68850000  1.0
  H  H20  1  0.42799000  0.22153000  0.49054000  1.0
  H  H21  1  0.34935000  0.29101000  0.67103000  1.0
  H  H22  1  0.38666000  0.11603000  0.53475000  1.0
  H  H23  1  0.39333000  0.39645000  0.62766000  1.0
  H  H24  1  0.42014000  0.23372000  0.72624000  1.0
  H  H25  1  0.39961000  0.27234000  0.81145000  1.0
  H  H26  1  0.06256000  0.76894000  0.49057000  1.0
  H  H27  1  0.32170000  0.88010000  0.67105000  1.0
  H  H28  1  0.14806000  0.91864000  0.53472000  1.0
  H  H29  1  0.23442000  0.73127000  0.62772000  1.0
  H  H30  1  0.30606000  0.99246000  0.72625000  1.0
  H  H31  1  0.41176000  0.03911000  0.81150000  1.0
  H  H32  1  0.22153000  0.42799000  0.99054000  1.0
  H  H33  1  0.29101000  0.34935000  0.17103000  1.0
  H  H34  1  0.11603000  0.38666000  0.03475000  1.0
  H  H35  1  0.39645000  0.39333000  0.12766000  1.0
  H  H36  1  0.23372000  0.42014000  0.22624000  1.0
  H  H37  1  0.27233000  0.39961000  0.31145000  1.0
  H  H38  1  0.76893000  0.06256000  0.99057000  1.0
  H  H39  1  0.88010000  0.32170000  0.17105000  1.0
  H  H40  1  0.91863000  0.14806000  0.03472000  1.0
  H  H41  1  0.73127000  0.23442000  0.12772000  1.0
  H  H42  1  0.99246000  0.30606000  0.22625000  1.0
  H  H43  1  0.03910000  0.41175000  0.31149000  1.0
  H  H44  1  0.57201000  0.77847000  0.50946000  1.0
  H  H45  1  0.65065000  0.70899000  0.32897000  1.0
  H  H46  1  0.61334000  0.88397000  0.46525000  1.0
  H  H47  1  0.60667000  0.60355000  0.37234000  1.0
  H  H48  1  0.57986000  0.76628000  0.27376000  1.0
  H  H49  1  0.60039000  0.72767000  0.18855000  1.0
  H  H50  1  0.93744000  0.23106000  0.50943000  1.0
  H  H51  1  0.67830000  0.11990000  0.32895000  1.0
  H  H52  1  0.85194000  0.08136000  0.46528000  1.0
  H  H53  1  0.76558000  0.26873000  0.37228000  1.0
  H  H54  1  0.69394000  0.00754000  0.27375000  1.0
  H  H55  1  0.58825000  0.96090000  0.18851000  1.0
  H  H56  1  0.97176000  0.72178000  0.94352000  1.0
  H  H57  1  0.75985000  0.50987000  0.51976000  1.0
  H  H58  1  0.27822000  0.02824000  0.55648000  1.0
  H  H59  1  0.49013000  0.24015000  0.98024000  1.0
  H  H60  1  0.02824000  0.27822000  0.05648000  1.0
  H  H61  1  0.24015000  0.49013000  0.48024000  1.0
  H  H62  1  0.72178000  0.97176000  0.44352000  1.0
  H  H63  1  0.50987000  0.75985000  0.01976000  1.0
  C  C64  1  0.68390000  0.58523000  0.94293000  1.0
  C  C65  1  0.76378000  0.58942000  0.96991000  1.0
  C  C66  1  0.72431000  0.63227000  0.86803000  1.0
  C  C67  1  0.80367000  0.63329000  0.89299000  1.0
  C  C68  1  0.82294000  0.61324000  0.94518000  1.0
  C  C69  1  0.66513000  0.60833000  0.89234000  1.0
  C  C70  1  0.86218000  0.65105000  0.86200000  1.0
  C  C71  1  0.83136000  0.61887000  0.79806000  1.0
  C  C72  1  0.76721000  0.58488000  0.66502000  1.0
  C  C73  1  0.73476000  0.55100000  0.60135000  1.0
  C  C74  1  0.61776000  0.55450000  0.96565000  1.0
  C  C75  1  0.64693000  0.53213000  0.56627000  1.0
  C  C76  1  0.25901000  0.85770000  0.94281000  1.0
  C  C77  1  0.20617000  0.88051000  0.96985000  1.0
  C  C78  1  0.14367000  0.73575000  0.86799000  1.0
  C  C79  1  0.08932000  0.75973000  0.89299000  1.0
  C  C80  1  0.12229000  0.83194000  0.94519000  1.0
  C  C81  1  0.22716000  0.78398000  0.89227000  1.0
  C  C82  1  0.99984000  0.71101000  0.86200000  1.0
  C  C83  1  0.96676000  0.67927000  0.79806000  1.0
  C  C84  1  0.89783000  0.58027000  0.66499000  1.0
  C  C85  1  0.86657000  0.55039000  0.60132000  1.0
  C  C86  1  0.34789000  0.91112000  0.96554000  1.0
  C  C87  1  0.91932000  0.53415000  0.56623000  1.0
  C  C88  1  0.41477000  0.31610000  0.55707000  1.0
  C  C89  1  0.41058000  0.23621000  0.53009000  1.0
  C  C90  1  0.36773000  0.27569000  0.63197000  1.0
  C  C91  1  0.36672000  0.19634000  0.60702000  1.0
  C  C92  1  0.38676000  0.17706000  0.55482000  1.0
  C  C93  1  0.39167000  0.33487000  0.60766000  1.0
  C  C94  1  0.34895000  0.13782000  0.63800000  1.0
  C  C95  1  0.38113000  0.16865000  0.70194000  1.0
  C  C96  1  0.41512000  0.23279000  0.83498000  1.0
  C  C97  1  0.44900000  0.26524000  0.89865000  1.0
  C  C98  1  0.44550000  0.38224000  0.53435000  1.0
  C  C99  1  0.46788000  0.35308000  0.93374000  1.0
  C  C100  1  0.14231000  0.74099000  0.55719000  1.0
  C  C101  1  0.11949000  0.79383000  0.53015000  1.0
  C  C102  1  0.26425000  0.85633000  0.63201000  1.0
  C  C103  1  0.24027000  0.91068000  0.60701000  1.0
  C  C104  1  0.16806000  0.87771000  0.55481000  1.0
  C  C105  1  0.21602000  0.77284000  0.60773000  1.0
  C  C106  1  0.28899000  0.00016000  0.63800000  1.0
  C  C107  1  0.32073000  0.03324000  0.70194000  1.0
  C  C108  1  0.41973000  0.10217000  0.83501000  1.0
  C  C109  1  0.44961000  0.13342000  0.89868000  1.0
  C  C110  1  0.08888000  0.65210000  0.53445000  1.0
  C  C111  1  0.46584000  0.08068000  0.93377000  1.0
  C  C112  1  0.31609000  0.41477000  0.05707000  1.0
  C  C113  1  0.23623000  0.41059000  0.03010000  1.0
  C  C114  1  0.27569000  0.36773000  0.13197000  1.0
  C  C115  1  0.19634000  0.36672000  0.10702000  1.0
  C  C116  1  0.17706000  0.38676000  0.05482000  1.0
  C  C117  1  0.33486000  0.39167000  0.10766000  1.0
  C  C118  1  0.13782000  0.34895000  0.13800000  1.0
  C  C119  1  0.16864000  0.38113000  0.20194000  1.0
  C  C120  1  0.23279000  0.41512000  0.33498000  1.0
  C  C121  1  0.26525000  0.44900000  0.39865000  1.0
  C  C122  1  0.38225000  0.44551000  0.03436000  1.0
  C  C123  1  0.35307000  0.46787000  0.43373000  1.0
  C  C124  1  0.74099000  0.14231000  0.05719000  1.0
  C  C125  1  0.79383000  0.11949000  0.03015000  1.0
  C  C126  1  0.85633000  0.26425000  0.13201000  1.0
  C  C127  1  0.91067000  0.24028000  0.10701000  1.0
  C  C128  1  0.87771000  0.16806000  0.05481000  1.0
  C  C129  1  0.77284000  0.21602000  0.10773000  1.0
  C  C130  1  0.00015000  0.28900000  0.13800000  1.0
  C  C131  1  0.03324000  0.32073000  0.20194000  1.0
  C  C132  1  0.10216000  0.41973000  0.33501000  1.0
  C  C133  1  0.13343000  0.44961000  0.39868000  1.0
  C  C134  1  0.65211000  0.08889000  0.03446000  1.0
  C  C135  1  0.08067000  0.46584000  0.43376000  1.0
  C  C136  1  0.58523000  0.68390000  0.44293000  1.0
  C  C137  1  0.58941000  0.76378000  0.46990000  1.0
  C  C138  1  0.63227000  0.72431000  0.36803000  1.0
  C  C139  1  0.63328000  0.80366000  0.39298000  1.0
  C  C140  1  0.61324000  0.82294000  0.44518000  1.0
  C  C141  1  0.60833000  0.66514000  0.39234000  1.0
  C  C142  1  0.65105000  0.86218000  0.36200000  1.0
  C  C143  1  0.61887000  0.83136000  0.29806000  1.0
  C  C144  1  0.58488000  0.76721000  0.16502000  1.0
  C  C145  1  0.55100000  0.73476000  0.10135000  1.0
  C  C146  1  0.55450000  0.61776000  0.46565000  1.0
  C  C147  1  0.53213000  0.64692000  0.06627000  1.0
  C  C148  1  0.85769000  0.25901000  0.44281000  1.0
  C  C149  1  0.88051000  0.20617000  0.46985000  1.0
  C  C150  1  0.73575000  0.14367000  0.36799000  1.0
  C  C151  1  0.75973000  0.08933000  0.39299000  1.0
  C  C152  1  0.83194000  0.12229000  0.44519000  1.0
  C  C153  1  0.78398000  0.22716000  0.39227000  1.0
  C  C154  1  0.71101000  0.99985000  0.36200000  1.0
  C  C155  1  0.67927000  0.96676000  0.29806000  1.0
  C  C156  1  0.58027000  0.89783000  0.16499000  1.0
  C  C157  1  0.55039000  0.86657000  0.10132000  1.0
  C  C158  1  0.91111000  0.34789000  0.46554000  1.0
  C  C159  1  0.53416000  0.91933000  0.06624000  1.0
  C  C160  1  0.94689000  0.69691000  0.89376000  1.0
  C  C161  1  0.88266000  0.63268000  0.76526000  1.0
  C  C162  1  0.84894000  0.59900000  0.69781000  1.0
  C  C163  1  0.78463000  0.53467000  0.56929000  1.0
  C  C164  1  0.30310000  0.05312000  0.60625000  1.0
  C  C165  1  0.36732000  0.11734000  0.73474000  1.0
  C  C166  1  0.40100000  0.15106000  0.80219000  1.0
  C  C167  1  0.46533000  0.21536000  0.93071000  1.0
  C  C168  1  0.05311000  0.30309000  0.10624000  1.0
  C  C169  1  0.11734000  0.36732000  0.23474000  1.0
  C  C170  1  0.15106000  0.40100000  0.30219000  1.0
  C  C171  1  0.21536000  0.46533000  0.43070000  1.0
  C  C172  1  0.69691000  0.94689000  0.39376000  1.0
  C  C173  1  0.63268000  0.88266000  0.26526000  1.0
  C  C174  1  0.59900000  0.84894000  0.19781000  1.0
  C  C175  1  0.53467000  0.78464000  0.06930000  1.0
  O  O176  1  0.54517000  0.54546000  0.93402000  1.0
  O  O177  1  0.60944000  0.56999000  0.59264000  1.0
  O  O178  1  0.63723000  0.53852000  0.01409000  1.0
  O  O179  1  0.61645000  0.47889000  0.51187000  1.0
  O  O180  1  0.38885000  0.88857000  0.93390000  1.0
  O  O181  1  0.98319000  0.52271000  0.59264000  1.0
  O  O182  1  0.37688000  0.97545000  0.01403000  1.0
  O  O183  1  0.89541000  0.53298000  0.51183000  1.0
  O  O184  1  0.45454000  0.45483000  0.56598000  1.0
  O  O185  1  0.43001000  0.39056000  0.90736000  1.0
  O  O186  1  0.46148000  0.36277000  0.48591000  1.0
  O  O187  1  0.52111000  0.38356000  0.98813000  1.0
  O  O188  1  0.11143000  0.61115000  0.56610000  1.0
  O  O189  1  0.47728000  0.01681000  0.90736000  1.0
  O  O190  1  0.02455000  0.62313000  0.48597000  1.0
  O  O191  1  0.46703000  0.10460000  0.98818000  1.0
  O  O192  1  0.45483000  0.45455000  0.06598000  1.0
  O  O193  1  0.39056000  0.43001000  0.40736000  1.0
  O  O194  1  0.36276000  0.46147000  0.98591000  1.0
  O  O195  1  0.38355000  0.52112000  0.48813000  1.0
  O  O196  1  0.61115000  0.11143000  0.06610000  1.0
  O  O197  1  0.01681000  0.47728000  0.40736000  1.0
  O  O198  1  0.62313000  0.02455000  0.98597000  1.0
  O  O199  1  0.10460000  0.46702000  0.48817000  1.0
  O  O200  1  0.54545000  0.54517000  0.43402000  1.0
  O  O201  1  0.56998000  0.60943000  0.09263000  1.0
  O  O202  1  0.53853000  0.63724000  0.51409000  1.0
  O  O203  1  0.47888000  0.61646000  0.01187000  1.0
  O  O204  1  0.88857000  0.38885000  0.43390000  1.0
  O  O205  1  0.52271000  0.98319000  0.09263000  1.0
  O  O206  1  0.97545000  0.37687000  0.51403000  1.0
  O  O207  1  0.53299000  0.89540000  0.01183000  1.0
