# generated using pymatgen
data_CuH24C26(NO)6
_symmetry_space_group_name_H-M   'P 1'
_cell_length_a   9.36457000
_cell_length_b   11.78050000
_cell_length_c   13.19688609
_cell_angle_alpha   114.97331003
_cell_angle_beta   110.75636560
_cell_angle_gamma   90.00690000
_symmetry_Int_Tables_number   1
_chemical_formula_structural   CuH24C26(NO)6
_chemical_formula_sum   'Cu2 H48 C52 N12 O12'
_cell_volume   1214.68782775
_cell_formula_units_Z   2
loop_
 _symmetry_equiv_pos_site_id
 _symmetry_equiv_pos_as_xyz
  1  'x, y, z'
loop_
 _atom_site_type_symbol
 _atom_site_label
 _atom_site_symmetry_multiplicity
 _atom_site_fract_x
 _atom_site_fract_y
 _atom_site_fract_z
 _atom_site_occupancy
  Cu  Cu0  1  0.50000000  0.50000000  0.50000000  1.0
  Cu  Cu1  1  1.00000000  0.00000000  0.50000000  1.0
  H  H2  1  0.17146000  0.30723000  0.51497000  1.0
  H  H3  1  0.65655000  0.19276000  0.48491000  1.0
  H  H4  1  0.82854000  0.69277000  0.48503000  1.0
  H  H5  1  0.34344000  0.80724000  0.51508000  1.0
  H  H6  1  0.92781000  0.89041000  0.06008000  1.0
  H  H7  1  0.86756000  0.60956000  0.93997000  1.0
  H  H8  1  0.07219000  0.10959000  0.93992000  1.0
  H  H9  1  0.13244000  0.39044000  0.06003000  1.0
  H  H10  1  0.07208000  0.82052000  0.13374000  1.0
  H  H11  1  0.93810000  0.67963000  0.86634000  1.0
  H  H12  1  0.92791000  0.17948000  0.86626000  1.0
  H  H13  1  0.06190000  0.32037000  0.13366000  1.0
  H  H14  1  0.95372000  0.91135000  0.20907000  1.0
  H  H15  1  0.74462000  0.58857000  0.79096000  1.0
  H  H16  1  0.04627000  0.08865000  0.79092000  1.0
  H  H17  1  0.25538000  0.41143000  0.20904000  1.0
  H  H18  1  0.36303000  0.24147000  0.10413000  1.0
  H  H19  1  0.25839000  0.25841000  0.89568000  1.0
  H  H20  1  0.63698000  0.75853000  0.89588000  1.0
  H  H21  1  0.74162000  0.74159000  0.10432000  1.0
  H  H22  1  0.51747000  0.18234000  0.17968000  1.0
  H  H23  1  0.33781000  0.31747000  0.82028000  1.0
  H  H24  1  0.48252000  0.81767000  0.82032000  1.0
  H  H25  1  0.66219000  0.68253000  0.17972000  1.0
  H  H26  1  0.36209000  0.07347000  0.04055000  1.0
  H  H27  1  0.32128000  0.42638000  0.95934000  1.0
  H  H28  1  0.63791000  0.92653000  0.95945000  1.0
  H  H29  1  0.67873000  0.57362000  0.04066000  1.0
  H  H30  1  0.15809000  0.61785000  0.53227000  1.0
  H  H31  1  0.62579000  0.88201000  0.46765000  1.0
  H  H32  1  0.84191000  0.38215000  0.46773000  1.0
  H  H33  1  0.37421000  0.11799000  0.53235000  1.0
  H  H34  1  0.09727000  0.77210000  0.70357000  1.0
  H  H35  1  0.39366000  0.72792000  0.29641000  1.0
  H  H36  1  0.90273000  0.22790000  0.29643000  1.0
  H  H37  1  0.60634000  0.27208000  0.70359000  1.0
  H  H38  1  0.20682000  0.77167000  0.90529000  1.0
  H  H39  1  0.30168000  0.72847000  0.09472000  1.0
  H  H40  1  0.79318000  0.22834000  0.09471000  1.0
  H  H41  1  0.69833000  0.27153000  0.90528000  1.0
  H  H42  1  0.38049000  0.61813000  0.93471000  1.0
  H  H43  1  0.44587000  0.88198000  0.06529000  1.0
  H  H44  1  0.61950000  0.38187000  0.06529000  1.0
  H  H45  1  0.55413000  0.11802000  0.93471000  1.0
  H  H46  1  0.44316000  0.46480000  0.76196000  1.0
  H  H47  1  0.68126000  0.03525000  0.23803000  1.0
  H  H48  1  0.55684000  0.53520000  0.23804000  1.0
  H  H49  1  0.31874000  0.96475000  0.76197000  1.0
  C  C50  1  0.25286000  0.32886000  0.48016000  1.0
  C  C51  1  0.77269000  0.17110000  0.51985000  1.0
  C  C52  1  0.74715000  0.67114000  0.51985000  1.0
  C  C53  1  0.22731000  0.82890000  0.48015000  1.0
  C  C54  1  0.25037000  0.22722000  0.37192000  1.0
  C  C55  1  0.87843000  0.27279000  0.62804000  1.0
  C  C56  1  0.74963000  0.77278000  0.62808000  1.0
  C  C57  1  0.12157000  0.72720000  0.37196000  1.0
  C  C58  1  0.33728000  0.24115000  0.30807000  1.0
  C  C59  1  0.02910000  0.25883000  0.69184000  1.0
  C  C60  1  0.66273000  0.75885000  0.69193000  1.0
  C  C61  1  0.97089000  0.74117000  0.30816000  1.0
  C  C62  1  0.19556000  0.03495000  0.13583000  1.0
  C  C63  1  0.05988000  0.46517000  0.86410000  1.0
  C  C64  1  0.80444000  0.96505000  0.86417000  1.0
  C  C65  1  0.94012000  0.53482000  0.13590000  1.0
  C  C66  1  0.14005000  0.11266000  0.32110000  1.0
  C  C67  1  0.81915000  0.38747000  0.67892000  1.0
  C  C68  1  0.85995000  0.88734000  0.67890000  1.0
  C  C69  1  0.18085000  0.61252000  0.32108000  1.0
  C  C70  1  0.01156000  0.90215000  0.14785000  1.0
  C  C71  1  0.86364000  0.59788000  0.85222000  1.0
  C  C72  1  0.98844000  0.09785000  0.85215000  1.0
  C  C73  1  0.13636000  0.40212000  0.14778000  1.0
  C  C74  1  0.39290000  0.16150000  0.12474000  1.0
  C  C75  1  0.26797000  0.33838000  0.87512000  1.0
  C  C76  1  0.60711000  0.83850000  0.87527000  1.0
  C  C77  1  0.73203000  0.66161000  0.12488000  1.0
  C  C78  1  0.30185000  0.53162000  0.63728000  1.0
  C  C79  1  0.66470000  0.96829000  0.36265000  1.0
  C  C80  1  0.69815000  0.46838000  0.36272000  1.0
  C  C81  1  0.33530000  0.03171000  0.63735000  1.0
  C  C82  1  0.20551000  0.61848000  0.62077000  1.0
  C  C83  1  0.58483000  0.88145000  0.37919000  1.0
  C  C84  1  0.79450000  0.38152000  0.37923000  1.0
  C  C85  1  0.41517000  0.11855000  0.62081000  1.0
  C  C86  1  0.17155000  0.70430000  0.71723000  1.0
  C  C87  1  0.45441000  0.79568000  0.28276000  1.0
  C  C88  1  0.82845000  0.29570000  0.28277000  1.0
  C  C89  1  0.54559000  0.20432000  0.71724000  1.0
  C  C90  1  0.23380000  0.70407000  0.83036000  1.0
  C  C91  1  0.40363000  0.79591000  0.16963000  1.0
  C  C92  1  0.76620000  0.29593000  0.16964000  1.0
  C  C93  1  0.59637000  0.20409000  0.83037000  1.0
  C  C94  1  0.33141000  0.61795000  0.84646000  1.0
  C  C95  1  0.48514000  0.88205000  0.15351000  1.0
  C  C96  1  0.66859000  0.38205000  0.15354000  1.0
  C  C97  1  0.51485000  0.11795000  0.84648000  1.0
  C  C98  1  0.36607000  0.53178000  0.75052000  1.0
  C  C99  1  0.61572000  0.96816000  0.24941000  1.0
  C  C100  1  0.63393000  0.46822000  0.24948000  1.0
  C  C101  1  0.38427000  0.03184000  0.75058000  1.0
  N  N102  1  0.33423000  0.44358000  0.53761000  1.0
  N  N103  1  0.79662000  0.05637000  0.46243000  1.0
  N  N104  1  0.66578000  0.55642000  0.46240000  1.0
  N  N105  1  0.20338000  0.94363000  0.53757000  1.0
  N  N106  1  0.30647000  0.14508000  0.19207000  1.0
  N  N107  1  0.11442000  0.35498000  0.80775000  1.0
  N  N108  1  0.69353000  0.85492000  0.80793000  1.0
  N  N109  1  0.88558000  0.64502000  0.19225000  1.0
  N  N110  1  0.12286000  0.01962000  0.20521000  1.0
  N  N111  1  0.91776000  0.48049000  0.79483000  1.0
  N  N112  1  0.87715000  0.98038000  0.79480000  1.0
  N  N113  1  0.08224000  0.51951000  0.20517000  1.0
  O  O114  1  0.43982000  0.33664000  0.34670000  1.0
  O  O115  1  0.09298000  0.16326000  0.65328000  1.0
  O  O116  1  0.56018000  0.66335000  0.65330000  1.0
  O  O117  1  0.90703000  0.83674000  0.34673000  1.0
  O  O118  1  0.05931000  0.09448000  0.37218000  1.0
  O  O119  1  0.68745000  0.40576000  0.62787000  1.0
  O  O120  1  0.94069000  0.90553000  0.62782000  1.0
  O  O121  1  0.31256000  0.59424000  0.37213000  1.0
  O  O122  1  0.16462000  0.95495000  0.02998000  1.0
  O  O123  1  0.13484000  0.54519000  0.96991000  1.0
  O  O124  1  0.83539000  0.04505000  0.97002000  1.0
  O  O125  1  0.86516000  0.45481000  0.03010000  1.0
