# generated using pymatgen
data_CuH11C9N2ClO2
_symmetry_space_group_name_H-M   'P 1'
_cell_length_a   4.86860000
_cell_length_b   5.68941000
_cell_length_c   19.40140000
_cell_angle_alpha   89.99910000
_cell_angle_beta   89.99950000
_cell_angle_gamma   76.91700000
_symmetry_Int_Tables_number   1
_chemical_formula_structural   CuH11C9N2ClO2
_chemical_formula_sum   'Cu2 H22 C18 N4 Cl2 O4'
_cell_volume   523.45891776
_cell_formula_units_Z   2
loop_
 _symmetry_equiv_pos_site_id
 _symmetry_equiv_pos_as_xyz
  1  'x, y, z'
loop_
 _atom_site_type_symbol
 _atom_site_label
 _atom_site_symmetry_multiplicity
 _atom_site_fract_x
 _atom_site_fract_y
 _atom_site_fract_z
 _atom_site_occupancy
  Cu  Cu0  1  0.29905000  0.46065000  0.19344000  1.0
  Cu  Cu1  1  0.70096000  0.53934000  0.69344000  1.0
  H  H2  1  0.15363000  0.75720000  0.08405000  1.0
  H  H3  1  0.84638000  0.24280000  0.58405000  1.0
  H  H4  1  0.48020000  0.48166000  0.34322000  1.0
  H  H5  1  0.51978000  0.51835000  0.84322000  1.0
  H  H6  1  0.38899000  0.26792000  0.45256000  1.0
  H  H7  1  0.61099000  0.73210000  0.95256000  1.0
  H  H8  1  0.08610000  0.97083000  0.44608000  1.0
  H  H9  1  0.91388000  0.02918000  0.94608000  1.0
  H  H10  1  0.90371000  0.87522000  0.32889000  1.0
  H  H11  1  0.09629000  0.12477000  0.82889000  1.0
  H  H12  1  0.76870000  0.11650000  0.20459000  1.0
  H  H13  1  0.23131000  0.88349000  0.70459000  1.0
  H  H14  1  0.07656000  0.88914000  0.19461000  1.0
  H  H15  1  0.92344000  0.11084000  0.69461000  1.0
  H  H16  1  0.90625000  0.52947000  0.03625000  1.0
  H  H17  1  0.09374000  0.47054000  0.53624000  1.0
  H  H18  1  0.28622000  0.52421000  0.95260000  1.0
  H  H19  1  0.71374000  0.47583000  0.45261000  1.0
  H  H20  1  0.51461000  0.28025000  0.99743000  1.0
  H  H21  1  0.48540000  0.71978000  0.49745000  1.0
  H  H22  1  0.21171000  0.23299000  0.95309000  1.0
  H  H23  1  0.78828000  0.76705000  0.45309000  1.0
  C  C24  1  0.35453000  0.34566000  0.34398000  1.0
  C  C25  1  0.64545000  0.65434000  0.84399000  1.0
  C  C26  1  0.30114000  0.22836000  0.40344000  1.0
  C  C27  1  0.69883000  0.77165000  0.90344000  1.0
  C  C28  1  0.13470000  0.05844000  0.39905000  1.0
  C  C29  1  0.86528000  0.94156000  0.89905000  1.0
  C  C30  1  0.03224000  0.00801000  0.33517000  1.0
  C  C31  1  0.96776000  0.99199000  0.83518000  1.0
  C  C32  1  0.09636000  0.12987000  0.27692000  1.0
  C  C33  1  0.90364000  0.87012000  0.77693000  1.0
  C  C34  1  0.00120000  0.08255000  0.20606000  1.0
  C  C35  1  0.99882000  0.91743000  0.70606000  1.0
  C  C36  1  0.07919000  0.21001000  0.09035000  1.0
  C  C37  1  0.92084000  0.78996000  0.59036000  1.0
  C  C38  1  0.12186000  0.42836000  0.04897000  1.0
  C  C39  1  0.87815000  0.57164000  0.54897000  1.0
  C  C40  1  0.29489000  0.36246000  0.98394000  1.0
  C  C41  1  0.70510000  0.63756000  0.48395000  1.0
  N  N42  1  0.25239000  0.29736000  0.28238000  1.0
  N  N43  1  0.74761000  0.70262000  0.78238000  1.0
  N  N44  1  0.10273000  0.23434000  0.15750000  1.0
  N  N45  1  0.89729000  0.76565000  0.65751000  1.0
  Cl  Cl46  1  0.60339000  0.67171000  0.22739000  1.0
  Cl  Cl47  1  0.39663000  0.32827000  0.72738000  1.0
  O  O48  1  0.01096000  0.03363000  0.05963000  1.0
  O  O49  1  0.98907000  0.96635000  0.55963000  1.0
  O  O50  1  0.25102000  0.58104000  0.09227000  1.0
  O  O51  1  0.74900000  0.41895000  0.59228000  1.0
