# generated using pymatgen
data_CdH21C27(NO)5
_symmetry_space_group_name_H-M   'P 1'
_cell_length_a   10.98430000
_cell_length_b   20.84446506
_cell_length_c   20.84430000
_cell_angle_alpha   59.99878586
_cell_angle_beta   89.99990000
_cell_angle_gamma   90.00010000
_symmetry_Int_Tables_number   1
_chemical_formula_structural   CdH21C27(NO)5
_chemical_formula_sum   'Cd6 H126 C162 N30 O30'
_cell_volume   4133.09866781
_cell_formula_units_Z   6
loop_
 _symmetry_equiv_pos_site_id
 _symmetry_equiv_pos_as_xyz
  1  'x, y, z'
loop_
 _atom_site_type_symbol
 _atom_site_label
 _atom_site_symmetry_multiplicity
 _atom_site_fract_x
 _atom_site_fract_y
 _atom_site_fract_z
 _atom_site_occupancy
  Cd  Cd0  1  0.05996000  0.45092000  0.57001000  1.0
  Cd  Cd1  1  0.22657000  0.42999000  0.02093000  1.0
  Cd  Cd2  1  0.39328000  0.97906000  0.45092000  1.0
  Cd  Cd3  1  0.55995000  0.54909000  0.42998000  1.0
  Cd  Cd4  1  0.72657000  0.57001000  0.97907000  1.0
  Cd  Cd5  1  0.89329000  0.02094000  0.54908000  1.0
  H  H6  1  0.15433000  0.77207000  0.13695000  1.0
  H  H7  1  0.32097000  0.86304000  0.90904000  1.0
  H  H8  1  0.48764000  0.09097000  0.77207000  1.0
  H  H9  1  0.65433000  0.22793000  0.86305000  1.0
  H  H10  1  0.82098000  0.13695000  0.09097000  1.0
  H  H11  1  0.98764000  0.90903000  0.22793000  1.0
  H  H12  1  0.94405000  0.73775000  0.19252000  1.0
  H  H13  1  0.11069000  0.80748000  0.93027000  1.0
  H  H14  1  0.27738000  0.06971000  0.73775000  1.0
  H  H15  1  0.44405000  0.26226000  0.80747000  1.0
  H  H16  1  0.61070000  0.19251000  0.06974000  1.0
  H  H17  1  0.77737000  0.93029000  0.26225000  1.0
  H  H18  1  0.92048000  0.63953000  0.32386000  1.0
  H  H19  1  0.08709000  0.67615000  0.96336000  1.0
  H  H20  1  0.25382000  0.03660000  0.63952000  1.0
  H  H21  1  0.42048000  0.36047000  0.67614000  1.0
  H  H22  1  0.58711000  0.32385000  0.03663000  1.0
  H  H23  1  0.75381000  0.96340000  0.36048000  1.0
  H  H24  1  0.37752000  0.80303000  0.22237000  1.0
  H  H25  1  0.54412000  0.77761000  0.02542000  1.0
  H  H26  1  0.71086000  0.97458000  0.80304000  1.0
  H  H27  1  0.87752000  0.19697000  0.77763000  1.0
  H  H28  1  0.04416000  0.22239000  0.97459000  1.0
  H  H29  1  0.21084000  0.02541000  0.19696000  1.0
  H  H30  1  0.59426000  0.82769000  0.18570000  1.0
  H  H31  1  0.76085000  0.81429000  0.01341000  1.0
  H  H32  1  0.92759000  0.98661000  0.82769000  1.0
  H  H33  1  0.09426000  0.17231000  0.81430000  1.0
  H  H34  1  0.26089000  0.18571000  0.98660000  1.0
  H  H35  1  0.42757000  0.01339000  0.17230000  1.0
  H  H36  1  0.58318000  0.63764000  0.15087000  1.0
  H  H37  1  0.74984000  0.84913000  0.78853000  1.0
  H  H38  1  0.91650000  0.21149000  0.63764000  1.0
  H  H39  1  0.08317000  0.36236000  0.84913000  1.0
  H  H40  1  0.24983000  0.15086000  0.21149000  1.0
  H  H41  1  0.41649000  0.78851000  0.36235000  1.0
  H  H42  1  0.36659000  0.62067000  0.19126000  1.0
  H  H43  1  0.53325000  0.80873000  0.81194000  1.0
  H  H44  1  0.69992000  0.18806000  0.62067000  1.0
  H  H45  1  0.86659000  0.37933000  0.80873000  1.0
  H  H46  1  0.03325000  0.19126000  0.18807000  1.0
  H  H47  1  0.19992000  0.81194000  0.37933000  1.0
  H  H48  1  0.34217000  0.48880000  0.60485000  1.0
  H  H49  1  0.50880000  0.39516000  0.09363000  1.0
  H  H50  1  0.67550000  0.90634000  0.48881000  1.0
  H  H51  1  0.84216000  0.51121000  0.39514000  1.0
  H  H52  1  0.00879000  0.60484000  0.90637000  1.0
  H  H53  1  0.17550000  0.09366000  0.51120000  1.0
  H  H54  1  0.39628000  0.52186000  0.71541000  1.0
  H  H55  1  0.56296000  0.28461000  0.23724000  1.0
  H  H56  1  0.72963000  0.76273000  0.52186000  1.0
  H  H57  1  0.89628000  0.47814000  0.28459000  1.0
  H  H58  1  0.06295000  0.71540000  0.76275000  1.0
  H  H59  1  0.22963000  0.23727000  0.47814000  1.0
  H  H60  1  0.01435000  0.50067000  0.70474000  1.0
  H  H61  1  0.18102000  0.29525000  0.20542000  1.0
  H  H62  1  0.34769000  0.79459000  0.50066000  1.0
  H  H63  1  0.51435000  0.49932000  0.29527000  1.0
  H  H64  1  0.68101000  0.70475000  0.79458000  1.0
  H  H65  1  0.84769000  0.20542000  0.49933000  1.0
  H  H66  1  0.23902000  0.50159000  0.83203000  1.0
  H  H67  1  0.40574000  0.16797000  0.33361000  1.0
  H  H68  1  0.57238000  0.66638000  0.50159000  1.0
  H  H69  1  0.73902000  0.49841000  0.16797000  1.0
  H  H70  1  0.90573000  0.83203000  0.66640000  1.0
  H  H71  1  0.07239000  0.33363000  0.49840000  1.0
  H  H72  1  0.09061000  0.53311000  0.79826000  1.0
  H  H73  1  0.25732000  0.20172000  0.33136000  1.0
  H  H74  1  0.42396000  0.66863000  0.53309000  1.0
  H  H75  1  0.59061000  0.46689000  0.20174000  1.0
  H  H76  1  0.75731000  0.79829000  0.66863000  1.0
  H  H77  1  0.92397000  0.33138000  0.46690000  1.0
  H  H78  1  0.31666000  0.59503000  0.85407000  1.0
  H  H79  1  0.48335000  0.14592000  0.44911000  1.0
  H  H80  1  0.65000000  0.55088000  0.59504000  1.0
  H  H81  1  0.81666000  0.40497000  0.14593000  1.0
  H  H82  1  0.98336000  0.85408000  0.55089000  1.0
  H  H83  1  0.15000000  0.44912000  0.40495000  1.0
  H  H84  1  0.37272000  0.72478000  0.81012000  1.0
  H  H85  1  0.53939000  0.18988000  0.53489000  1.0
  H  H86  1  0.70604000  0.46509000  0.72480000  1.0
  H  H87  1  0.87272000  0.27522000  0.18989000  1.0
  H  H88  1  0.03940000  0.81012000  0.46511000  1.0
  H  H89  1  0.20603000  0.53491000  0.27520000  1.0
  H  H90  1  0.21054000  0.78944000  0.59779000  1.0
  H  H91  1  0.37721000  0.40220000  0.38722000  1.0
  H  H92  1  0.54384000  0.61277000  0.78943000  1.0
  H  H93  1  0.71054000  0.21056000  0.40221000  1.0
  H  H94  1  0.87721000  0.59780000  0.61278000  1.0
  H  H95  1  0.04384000  0.38723000  0.21057000  1.0
  H  H96  1  0.15353000  0.65898000  0.64243000  1.0
  H  H97  1  0.32021000  0.35756000  0.30140000  1.0
  H  H98  1  0.48686000  0.69860000  0.65896000  1.0
  H  H99  1  0.65353000  0.34102000  0.35758000  1.0
  H  H100  1  0.82021000  0.64244000  0.69860000  1.0
  H  H101  1  0.98687000  0.30140000  0.34104000  1.0
  H  H102  1  0.38051000  0.85362000  0.71235000  1.0
  H  H103  1  0.54717000  0.28765000  0.56596000  1.0
  H  H104  1  0.71381000  0.43403000  0.85363000  1.0
  H  H105  1  0.88051000  0.14638000  0.28765000  1.0
  H  H106  1  0.04717000  0.71235000  0.43404000  1.0
  H  H107  1  0.21380000  0.56598000  0.14636000  1.0
  H  H108  1  0.35328000  0.87628000  0.61953000  1.0
  H  H109  1  0.51994000  0.38047000  0.49580000  1.0
  H  H110  1  0.68657000  0.50419000  0.87629000  1.0
  H  H111  1  0.85328000  0.12372000  0.38047000  1.0
  H  H112  1  0.01994000  0.61953000  0.50420000  1.0
  H  H113  1  0.18657000  0.49582000  0.12370000  1.0
  H  H114  1  0.17905000  0.84615000  0.79188000  1.0
  H  H115  1  0.34572000  0.20812000  0.63804000  1.0
  H  H116  1  0.51237000  0.36195000  0.84618000  1.0
  H  H117  1  0.67905000  0.15384000  0.20813000  1.0
  H  H118  1  0.84572000  0.79188000  0.36197000  1.0
  H  H119  1  0.01235000  0.63805000  0.15382000  1.0
  H  H120  1  0.96201000  0.92335000  0.74128000  1.0
  H  H121  1  0.12868000  0.25872000  0.66463000  1.0
  H  H122  1  0.29532000  0.33537000  0.92336000  1.0
  H  H123  1  0.46201000  0.07664000  0.25873000  1.0
  H  H124  1  0.62868000  0.74128000  0.33536000  1.0
  H  H125  1  0.79530000  0.66463000  0.07663000  1.0
  H  H126  1  0.15477000  0.93616000  0.55930000  1.0
  H  H127  1  0.32144000  0.44070000  0.49545000  1.0
  H  H128  1  0.48806000  0.50455000  0.93615000  1.0
  H  H129  1  0.65476000  0.06384000  0.44070000  1.0
  H  H130  1  0.82144000  0.55930000  0.50455000  1.0
  H  H131  1  0.98805000  0.49545000  0.06385000  1.0
  C  C132  1  0.09989000  0.56207000  0.42444000  1.0
  C  C133  1  0.26649000  0.57558000  0.98647000  1.0
  C  C134  1  0.43324000  0.01349000  0.56207000  1.0
  C  C135  1  0.59989000  0.43793000  0.57556000  1.0
  C  C136  1  0.76650000  0.42442000  0.01352000  1.0
  C  C137  1  0.93323000  0.98650000  0.43794000  1.0
  C  C138  1  0.34328000  0.60238000  0.35756000  1.0
  C  C139  1  0.50989000  0.64243000  0.95995000  1.0
  C  C140  1  0.67662000  0.04004000  0.60240000  1.0
  C  C141  1  0.84328000  0.39762000  0.64244000  1.0
  C  C142  1  0.00991000  0.35757000  0.04004000  1.0
  C  C143  1  0.17662000  0.95994000  0.39761000  1.0
  C  C144  1  0.11284000  0.62016000  0.34418000  1.0
  C  C145  1  0.27945000  0.65582000  0.96432000  1.0
  C  C146  1  0.44618000  0.03564000  0.62016000  1.0
  C  C147  1  0.61284000  0.37985000  0.65581000  1.0
  C  C148  1  0.77947000  0.34418000  0.03567000  1.0
  C  C149  1  0.94618000  0.96435000  0.37985000  1.0
  C  C150  1  0.23044000  0.63974000  0.31349000  1.0
  C  C151  1  0.39706000  0.68651000  0.95322000  1.0
  C  C152  1  0.56378000  0.04677000  0.63974000  1.0
  C  C153  1  0.73044000  0.36026000  0.68652000  1.0
  C  C154  1  0.89707000  0.31349000  0.04678000  1.0
  C  C155  1  0.06377000  0.95323000  0.36026000  1.0
  C  C156  1  0.24307000  0.69402000  0.23868000  1.0
  C  C157  1  0.40971000  0.76131000  0.93270000  1.0
  C  C158  1  0.57642000  0.06729000  0.69402000  1.0
  C  C159  1  0.74308000  0.30598000  0.76132000  1.0
  C  C160  1  0.90972000  0.23868000  0.06730000  1.0
  C  C161  1  0.07641000  0.93271000  0.30598000  1.0
  C  C162  1  0.14151000  0.73004000  0.19498000  1.0
  C  C163  1  0.30814000  0.80501000  0.92503000  1.0
  C  C164  1  0.47484000  0.07496000  0.73004000  1.0
  C  C165  1  0.64151000  0.26996000  0.80502000  1.0
  C  C166  1  0.80815000  0.19499000  0.07497000  1.0
  C  C167  1  0.97483000  0.92504000  0.26996000  1.0
  C  C168  1  0.02481000  0.71095000  0.22591000  1.0
  C  C169  1  0.19143000  0.77408000  0.93687000  1.0
  C  C170  1  0.35814000  0.06312000  0.71095000  1.0
  C  C171  1  0.52481000  0.28905000  0.77409000  1.0
  C  C172  1  0.69145000  0.22591000  0.06314000  1.0
  C  C173  1  0.85813000  0.93688000  0.28905000  1.0
  C  C174  1  0.01117000  0.65564000  0.29992000  1.0
  C  C175  1  0.17779000  0.70009000  0.95554000  1.0
  C  C176  1  0.34451000  0.04443000  0.65564000  1.0
  C  C177  1  0.51117000  0.34436000  0.70008000  1.0
  C  C178  1  0.67780000  0.29991000  0.04445000  1.0
  C  C179  1  0.84450000  0.95557000  0.34436000  1.0
  C  C180  1  0.42858000  0.76924000  0.20542000  1.0
  C  C181  1  0.59520000  0.79457000  0.97467000  1.0
  C  C182  1  0.76192000  0.02533000  0.76925000  1.0
  C  C183  1  0.92858000  0.23076000  0.79458000  1.0
  C  C184  1  0.09523000  0.20543000  0.02534000  1.0
  C  C185  1  0.26190000  0.97466000  0.23076000  1.0
  C  C186  1  0.54828000  0.78152000  0.18533000  1.0
  C  C187  1  0.71489000  0.81467000  0.96687000  1.0
  C  C188  1  0.88161000  0.03315000  0.78153000  1.0
  C  C189  1  0.04828000  0.21847000  0.81468000  1.0
  C  C190  1  0.21492000  0.18533000  0.03314000  1.0
  C  C191  1  0.38160000  0.96685000  0.21847000  1.0
  C  C192  1  0.61573000  0.73330000  0.16627000  1.0
  C  C193  1  0.78236000  0.83373000  0.89959000  1.0
  C  C194  1  0.94906000  0.10043000  0.73330000  1.0
  C  C195  1  0.11573000  0.26670000  0.83373000  1.0
  C  C196  1  0.28237000  0.16626000  0.10043000  1.0
  C  C197  1  0.44905000  0.89958000  0.26669000  1.0
  C  C198  1  0.54180000  0.67470000  0.16736000  1.0
  C  C199  1  0.70844000  0.83264000  0.84208000  1.0
  C  C200  1  0.87512000  0.15794000  0.67471000  1.0
  C  C201  1  0.04179000  0.32530000  0.83264000  1.0
  C  C202  1  0.20844000  0.16735000  0.15794000  1.0
  C  C203  1  0.37511000  0.84206000  0.32529000  1.0
  C  C204  1  0.42249000  0.66527000  0.18821000  1.0
  C  C205  1  0.58913000  0.81178000  0.85349000  1.0
  C  C206  1  0.75582000  0.14652000  0.66526000  1.0
  C  C207  1  0.92249000  0.33474000  0.81178000  1.0
  C  C208  1  0.08914000  0.18822000  0.14652000  1.0
  C  C209  1  0.25581000  0.85348000  0.33473000  1.0
  C  C210  1  0.28158000  0.49597000  0.64201000  1.0
  C  C211  1  0.44822000  0.35801000  0.13796000  1.0
  C  C212  1  0.61491000  0.86202000  0.49597000  1.0
  C  C213  1  0.78157000  0.50404000  0.35799000  1.0
  C  C214  1  0.94822000  0.64200000  0.86203000  1.0
  C  C215  1  0.11492000  0.13798000  0.50404000  1.0
  C  C216  1  0.31021000  0.51222000  0.69640000  1.0
  C  C217  1  0.47686000  0.30362000  0.20859000  1.0
  C  C218  1  0.64354000  0.79138000  0.51222000  1.0
  C  C219  1  0.81020000  0.48778000  0.30361000  1.0
  C  C220  1  0.97686000  0.69639000  0.79140000  1.0
  C  C221  1  0.14355000  0.20862000  0.48778000  1.0
  C  C222  1  0.11021000  0.50177000  0.69197000  1.0
  C  C223  1  0.27687000  0.30803000  0.19373000  1.0
  C  C224  1  0.44354000  0.80626000  0.50176000  1.0
  C  C225  1  0.61020000  0.49823000  0.30803000  1.0
  C  C226  1  0.77686000  0.69197000  0.80627000  1.0
  C  C227  1  0.94355000  0.19374000  0.49824000  1.0
  C  C228  1  0.18718000  0.53923000  0.78218000  1.0
  C  C229  1  0.35388000  0.21782000  0.32140000  1.0
  C  C230  1  0.52053000  0.67859000  0.53922000  1.0
  C  C231  1  0.68718000  0.46077000  0.21782000  1.0
  C  C232  1  0.85387000  0.78219000  0.67859000  1.0
  C  C233  1  0.02053000  0.32141000  0.46078000  1.0
  C  C234  1  0.22836000  0.61829000  0.75223000  1.0
  C  C235  1  0.39506000  0.24776000  0.37052000  1.0
  C  C236  1  0.56170000  0.62947000  0.61828000  1.0
  C  C237  1  0.72836000  0.38171000  0.24777000  1.0
  C  C238  1  0.89505000  0.75224000  0.62948000  1.0
  C  C239  1  0.06170000  0.37053000  0.38172000  1.0
  C  C240  1  0.29198000  0.63750000  0.79814000  1.0
  C  C241  1  0.45867000  0.20186000  0.43563000  1.0
  C  C242  1  0.62531000  0.56435000  0.63751000  1.0
  C  C243  1  0.79198000  0.36250000  0.20186000  1.0
  C  C244  1  0.95866000  0.79815000  0.56436000  1.0
  C  C245  1  0.12531000  0.43565000  0.36249000  1.0
  C  C246  1  0.32406000  0.71105000  0.77299000  1.0
  C  C247  1  0.49074000  0.22700000  0.48404000  1.0
  C  C248  1  0.65739000  0.51596000  0.71106000  1.0
  C  C249  1  0.82406000  0.28895000  0.22701000  1.0
  C  C250  1  0.99074000  0.77300000  0.51596000  1.0
  C  C251  1  0.15738000  0.48405000  0.28894000  1.0
  C  C252  1  0.29394000  0.76623000  0.70127000  1.0
  C  C253  1  0.46061000  0.29872000  0.46750000  1.0
  C  C254  1  0.62725000  0.53250000  0.76623000  1.0
  C  C255  1  0.79394000  0.23377000  0.29874000  1.0
  C  C256  1  0.96061000  0.70128000  0.53251000  1.0
  C  C257  1  0.12725000  0.46750000  0.23377000  1.0
  C  C258  1  0.23419000  0.74665000  0.65403000  1.0
  C  C259  1  0.40086000  0.34595000  0.40068000  1.0
  C  C260  1  0.56751000  0.59932000  0.74664000  1.0
  C  C261  1  0.73419000  0.25336000  0.34596000  1.0
  C  C262  1  0.90086000  0.65404000  0.59933000  1.0
  C  C263  1  0.06751000  0.40068000  0.25336000  1.0
  C  C264  1  0.20169000  0.67329000  0.67934000  1.0
  C  C265  1  0.36837000  0.32065000  0.35263000  1.0
  C  C266  1  0.53502000  0.64737000  0.67328000  1.0
  C  C267  1  0.70169000  0.32671000  0.32066000  1.0
  C  C268  1  0.86837000  0.67935000  0.64737000  1.0
  C  C269  1  0.03502000  0.35264000  0.32671000  1.0
  C  C270  1  0.31617000  0.84676000  0.67590000  1.0
  C  C271  1  0.48284000  0.32409000  0.52266000  1.0
  C  C272  1  0.64947000  0.47734000  0.84676000  1.0
  C  C273  1  0.81617000  0.15324000  0.32410000  1.0
  C  C274  1  0.98284000  0.67591000  0.47735000  1.0
  C  C275  1  0.14946000  0.52267000  0.15323000  1.0
  C  C276  1  0.14141000  0.87688000  0.73655000  1.0
  C  C277  1  0.30808000  0.26345000  0.61342000  1.0
  C  C278  1  0.47472000  0.38657000  0.87689000  1.0
  C  C279  1  0.64141000  0.12312000  0.26346000  1.0
  C  C280  1  0.80808000  0.73655000  0.38658000  1.0
  C  C281  1  0.97471000  0.61343000  0.12311000  1.0
  C  C282  1  0.03392000  0.91487000  0.71061000  1.0
  C  C283  1  0.20059000  0.28938000  0.62549000  1.0
  C  C284  1  0.36723000  0.37451000  0.91487000  1.0
  C  C285  1  0.53392000  0.08513000  0.28939000  1.0
  C  C286  1  0.70060000  0.71062000  0.37452000  1.0
  C  C287  1  0.86721000  0.62549000  0.08512000  1.0
  C  C288  1  0.13059000  0.92284000  0.61510000  1.0
  C  C289  1  0.29725000  0.38490000  0.53793000  1.0
  C  C290  1  0.46387000  0.46207000  0.92283000  1.0
  C  C291  1  0.63058000  0.07716000  0.38491000  1.0
  C  C292  1  0.79725000  0.61510000  0.46207000  1.0
  C  C293  1  0.96386000  0.53793000  0.07716000  1.0
  N  N294  1  0.15649000  0.48932000  0.64020000  1.0
  N  N295  1  0.32313000  0.35980000  0.12952000  1.0
  N  N296  1  0.48982000  0.87047000  0.48933000  1.0
  N  N297  1  0.65648000  0.51068000  0.35980000  1.0
  N  N298  1  0.82312000  0.64020000  0.87048000  1.0
  N  N299  1  0.98983000  0.12953000  0.51068000  1.0
  N  N300  1  0.20086000  0.51583000  0.72737000  1.0
  N  N301  1  0.36753000  0.27262000  0.24320000  1.0
  N  N302  1  0.53420000  0.75679000  0.51582000  1.0
  N  N303  1  0.70085000  0.48418000  0.27262000  1.0
  N  N304  1  0.86753000  0.72739000  0.75680000  1.0
  N  N305  1  0.03421000  0.24321000  0.48418000  1.0
  N  N306  1  0.20177000  0.88312000  0.67535000  1.0
  N  N307  1  0.36844000  0.32465000  0.55846000  1.0
  N  N308  1  0.53507000  0.44153000  0.88313000  1.0
  N  N309  1  0.70177000  0.11688000  0.32465000  1.0
  N  N310  1  0.86844000  0.67535000  0.44154000  1.0
  N  N311  1  0.03506000  0.55847000  0.11687000  1.0
  N  N312  1  0.02853000  0.94307000  0.63475000  1.0
  N  N313  1  0.19520000  0.36525000  0.57782000  1.0
  N  N314  1  0.36182000  0.42218000  0.94307000  1.0
  N  N315  1  0.52853000  0.05693000  0.36525000  1.0
  N  N316  1  0.69520000  0.63476000  0.42217000  1.0
  N  N317  1  0.86181000  0.57782000  0.05693000  1.0
  N  N318  1  0.36432000  0.71155000  0.20750000  1.0
  N  N319  1  0.53095000  0.79249000  0.91906000  1.0
  N  N320  1  0.69765000  0.08094000  0.71156000  1.0
  N  N321  1  0.86432000  0.28845000  0.79250000  1.0
  N  N322  1  0.03096000  0.20750000  0.08095000  1.0
  N  N323  1  0.19764000  0.91906000  0.28844000  1.0
  O  O324  1  0.99763000  0.52799000  0.44729000  1.0
  O  O325  1  0.16423000  0.55272000  0.97525000  1.0
  O  O326  1  0.33099000  0.02473000  0.52798000  1.0
  O  O327  1  0.49764000  0.47202000  0.55271000  1.0
  O  O328  1  0.66425000  0.44728000  0.02473000  1.0
  O  O329  1  0.83098000  0.97527000  0.47203000  1.0
  O  O330  1  0.19011000  0.54891000  0.46691000  1.0
  O  O331  1  0.35671000  0.53309000  0.01577000  1.0
  O  O332  1  0.52346000  0.98417000  0.54891000  1.0
  O  O333  1  0.69011000  0.45110000  0.53308000  1.0
  O  O334  1  0.85672000  0.46691000  0.98421000  1.0
  O  O335  1  0.02345000  0.01583000  0.45109000  1.0
  O  O336  1  0.36985000  0.53846000  0.36799000  1.0
  O  O337  1  0.53651000  0.63202000  0.90645000  1.0
  O  O338  1  0.70320000  0.09353000  0.53847000  1.0
  O  O339  1  0.86985000  0.46154000  0.63202000  1.0
  O  O340  1  0.03652000  0.36797000  0.09355000  1.0
  O  O341  1  0.20319000  0.90645000  0.46154000  1.0
  O  O342  1  0.40996000  0.63957000  0.37710000  1.0
  O  O343  1  0.57656000  0.62287000  0.01670000  1.0
  O  O344  1  0.74331000  0.98332000  0.63959000  1.0
  O  O345  1  0.90997000  0.36044000  0.62290000  1.0
  O  O346  1  0.07657000  0.37712000  0.98330000  1.0
  O  O347  1  0.24331000  0.01667000  0.36043000  1.0
  O  O348  1  0.72700000  0.74137000  0.14957000  1.0
  O  O349  1  0.89362000  0.85043000  0.89098000  1.0
  O  O350  1  0.06032000  0.10906000  0.74138000  1.0
  O  O351  1  0.22699000  0.25862000  0.85044000  1.0
  O  O352  1  0.39363000  0.14955000  0.10906000  1.0
  O  O353  1  0.56031000  0.89094000  0.25862000  1.0
