# generated using pymatgen
data_ZnH15C17(NO3)2
_symmetry_space_group_name_H-M   'P 1'
_cell_length_a   10.84280000
_cell_length_b   11.80880000
_cell_length_c   13.14640000
_cell_angle_alpha   85.62410000
_cell_angle_beta   88.85030000
_cell_angle_gamma   85.65960000
_symmetry_Int_Tables_number   1
_chemical_formula_structural   ZnH15C17(NO3)2
_chemical_formula_sum   'Zn2 H30 C34 N4 O12'
_cell_volume   1673.37781543
_cell_formula_units_Z   2
loop_
 _symmetry_equiv_pos_site_id
 _symmetry_equiv_pos_as_xyz
  1  'x, y, z'
loop_
 _atom_site_type_symbol
 _atom_site_label
 _atom_site_symmetry_multiplicity
 _atom_site_fract_x
 _atom_site_fract_y
 _atom_site_fract_z
 _atom_site_occupancy
  Zn  Zn0  1  0.48960000  0.62067000  0.50581000  1.0
  Zn  Zn1  1  0.51303000  0.38307000  0.50279000  1.0
  H  H2  1  0.09846000  0.62306000  0.62489000  1.0
  H  H3  1  0.07781000  0.48200000  0.67501000  1.0
  H  H4  1  0.09879000  0.66209000  0.43230000  1.0
  H  H5  1  0.11796000  0.34403000  0.43311000  1.0
  H  H6  1  0.11620000  0.31882000  0.56692000  1.0
  H  H7  1  0.89977000  0.33855000  0.57272000  1.0
  H  H8  1  0.90197000  0.34411000  0.43974000  1.0
  H  H9  1  0.13923000  0.55128000  0.35242000  1.0
  H  H10  1  0.94055000  0.49682000  0.34276000  1.0
  H  H11  1  0.53693000  0.36090000  0.18428000  1.0
  H  H12  1  0.58306000  0.26895000  0.02098000  1.0
  H  H13  1  0.41837000  0.72944000  0.98793000  1.0
  H  H14  1  0.58756000  0.28345000  0.83017000  1.0
  H  H15  1  0.46761000  0.63833000  0.82353000  1.0
  H  H16  1  0.62450000  0.81307000  0.41889000  1.0
  H  H17  1  0.32049000  0.78215000  0.61172000  1.0
  H  H18  1  0.70420000  0.01097000  0.36831000  1.0
  H  H19  1  0.29671000  0.99271000  0.63379000  1.0
  H  H20  1  0.68032000  0.22187000  0.39013000  1.0
  H  H21  1  0.37847000  0.19059000  0.58507000  1.0
  H  H22  1  0.97832000  0.51770000  0.81259000  1.0
  H  H23  1  0.87260000  0.64069000  0.79976000  1.0
  H  H24  1  0.82255000  0.50982000  0.85380000  1.0
  H  H25  1  0.74578000  0.54223000  0.67869000  1.0
  H  H26  1  0.85278000  0.42206000  0.68916000  1.0
  H  H27  1  0.71586000  0.60425000  0.28900000  1.0
  H  H28  1  0.75553000  0.72948000  0.21764000  1.0
  H  H29  1  0.84150000  0.59833000  0.20001000  1.0
  H  H30  1  0.83687000  0.72851000  0.39478000  1.0
  H  H31  1  0.95903000  0.72102000  0.30550000  1.0
  C  C32  1  0.52575000  0.47067000  0.70250000  1.0
  C  C33  1  0.26256000  0.49652000  0.52337000  1.0
  C  C34  1  0.47252000  0.52347000  0.30639000  1.0
  C  C35  1  0.74024000  0.51257000  0.48598000  1.0
  C  C36  1  0.05886000  0.54366000  0.60917000  1.0
  C  C37  1  0.91682000  0.56365000  0.59730000  1.0
  C  C38  1  0.08225000  0.57416000  0.41901000  1.0
  C  C39  1  0.07945000  0.37723000  0.50385000  1.0
  C  C40  1  0.12251000  0.49635000  0.51382000  1.0
  C  C41  1  0.88124000  0.51013000  0.49575000  1.0
  C  C42  1  0.94432000  0.56375000  0.39658000  1.0
  C  C43  1  0.93678000  0.38461000  0.50465000  1.0
  C  C44  1  0.46853000  0.53334000  0.19202000  1.0
  C  C45  1  0.52648000  0.46230000  0.81693000  1.0
  C  C46  1  0.55726000  0.34958000  0.97775000  1.0
  C  C47  1  0.56005000  0.35718000  0.87264000  1.0
  C  C48  1  0.49171000  0.55821000  0.86791000  1.0
  C  C49  1  0.48553000  0.55236000  0.97560000  1.0
  C  C50  1  0.51838000  0.44581000  0.03197000  1.0
  C  C51  1  0.50994000  0.44028000  0.13969000  1.0
  C  C52  1  0.43488000  0.63726000  0.13418000  1.0
  C  C53  1  0.44485000  0.64813000  0.02959000  1.0
  C  C54  1  0.63135000  0.04739000  0.41695000  1.0
  C  C55  1  0.61900000  0.16251000  0.42820000  1.0
  C  C56  1  0.44909000  0.14651000  0.53897000  1.0
  C  C57  1  0.45374000  0.02713000  0.53282000  1.0
  C  C58  1  0.54806000  0.97657000  0.46998000  1.0
  C  C59  1  0.55343000  0.85702000  0.46458000  1.0
  C  C60  1  0.38247000  0.84140000  0.57445000  1.0
  C  C61  1  0.37001000  0.95647000  0.58552000  1.0
  C  C62  1  0.84375000  0.51523000  0.69001000  1.0
  C  C63  1  0.88243000  0.54814000  0.79435000  1.0
  C  C64  1  0.88385000  0.67303000  0.34055000  1.0
  C  C65  1  0.79422000  0.64982000  0.25753000  1.0
  N  N66  1  0.47371000  0.79333000  0.51491000  1.0
  N  N67  1  0.52889000  0.21045000  0.48895000  1.0
  N  N68  1  0.37766000  0.73670000  0.18395000  1.0
  N  N69  1  0.88410000  0.69658000  0.59047000  1.0
  O  O70  1  0.50569000  0.57007000  0.65877000  1.0
  O  O71  1  0.54452000  0.37854000  0.65813000  1.0
  O  O72  1  0.30599000  0.59394000  0.51957000  1.0
  O  O73  1  0.32609000  0.40114000  0.53224000  1.0
  O  O74  1  0.48038000  0.61532000  0.34945000  1.0
  O  O75  1  0.47271000  0.42361000  0.34985000  1.0
  O  O76  1  0.67940000  0.60809000  0.49137000  1.0
  O  O77  1  0.69327000  0.41882000  0.47410000  1.0
  O  O78  1  0.42973000  0.82676000  0.17200000  1.0
  O  O79  1  0.27824000  0.72396000  0.22959000  1.0
  O  O80  1  0.95783000  0.75807000  0.54431000  1.0
  O  O81  1  0.78881000  0.73373000  0.63325000  1.0
