# generated using pymatgen
data_Zr3H19C25(NO3)6
_symmetry_space_group_name_H-M   'P 1'
_cell_length_a   14.76320000
_cell_length_b   14.77000000
_cell_length_c   14.77267474
_cell_angle_alpha   60.18310372
_cell_angle_beta   89.78193855
_cell_angle_gamma   60.21890000
_symmetry_Int_Tables_number   1
_chemical_formula_structural   Zr3H19C25(NO3)6
_chemical_formula_sum   'Zr6 H38 C50 N12 O36'
_cell_volume   2295.73484751
_cell_formula_units_Z   2
loop_
 _symmetry_equiv_pos_site_id
 _symmetry_equiv_pos_as_xyz
  1  'x, y, z'
loop_
 _atom_site_type_symbol
 _atom_site_label
 _atom_site_symmetry_multiplicity
 _atom_site_fract_x
 _atom_site_fract_y
 _atom_site_fract_z
 _atom_site_occupancy
  Zr  Zr0  1  0.88672000  0.49087000  0.38676000  1.0
  Zr  Zr1  1  0.11787000  0.50313000  0.61784000  1.0
  Zr  Zr2  1  0.88273000  0.73449000  0.38247000  1.0
  Zr  Zr3  1  0.12330000  0.25829000  0.62325000  1.0
  Zr  Zr4  1  0.88269000  0.49622000  0.62187000  1.0
  Zr  Zr5  1  0.12218000  0.49599000  0.38303000  1.0
  H  H6  1  0.72125000  0.67962000  0.41142000  1.0
  H  H7  1  0.09261000  0.31510000  0.78392000  1.0
  H  H8  1  0.09364000  0.68777000  0.40507000  1.0
  H  H9  1  0.09973000  0.30584000  0.41029000  1.0
  H  H10  1  0.57561000  0.53201000  0.62153000  1.0
  H  H11  1  0.41462000  0.49045000  0.36364000  1.0
  H  H12  1  0.12557000  0.52705000  0.07787000  1.0
  H  H13  1  0.86030000  0.49867000  0.91048000  1.0
  H  H14  1  0.14122000  0.94954000  0.90838000  1.0
  H  H15  1  0.86064000  0.04152000  0.09210000  1.0
  H  H16  1  0.41137000  0.94887000  0.64443000  1.0
  H  H17  1  0.59508000  0.04207000  0.36382000  1.0
  H  H18  1  0.62403000  0.70950000  0.03585000  1.0
  H  H19  1  0.54022000  0.70898000  0.12366000  1.0
  H  H20  1  0.36872000  0.88453000  0.95540000  1.0
  H  H21  1  0.45242000  0.88291000  0.86784000  1.0
  H  H22  1  0.86611000  0.22647000  0.36444000  1.0
  H  H23  1  0.13599000  0.76707000  0.64310000  1.0
  H  H24  1  0.33520000  0.53172000  0.65664000  1.0
  H  H25  1  0.43660000  0.53872000  0.70178000  1.0
  H  H26  1  0.66876000  0.46435000  0.34439000  1.0
  H  H27  1  0.57008000  0.45082000  0.30288000  1.0
  H  H28  1  0.15900000  0.52709000  0.83654000  1.0
  H  H29  1  0.21716000  0.50989000  0.94783000  1.0
  H  H30  1  0.82544000  0.49724000  0.15381000  1.0
  H  H31  1  0.77600000  0.49559000  0.04734000  1.0
  H  H32  1  0.16477000  0.67456000  0.13863000  1.0
  H  H33  1  0.20624000  0.73092000  0.02576000  1.0
  H  H34  1  0.81517000  0.31636000  0.84235000  1.0
  H  H35  1  0.76195000  0.25671000  0.94320000  1.0
  H  H36  1  0.65830000  0.67390000  0.68485000  1.0
  H  H37  1  0.55648000  0.73037000  0.73855000  1.0
  H  H38  1  0.36284000  0.31875000  0.33609000  1.0
  H  H39  1  0.46935000  0.26008000  0.28555000  1.0
  H  H40  1  0.82078000  0.02361000  0.33180000  1.0
  H  H41  1  0.77275000  0.17815000  0.28461000  1.0
  H  H42  1  0.16610000  0.97016000  0.68904000  1.0
  H  H43  1  0.20794000  0.81666000  0.74033000  1.0
  C  C44  1  0.69932000  0.49246000  0.50148000  1.0
  C  C45  1  0.99491000  0.51302000  0.79880000  1.0
  C  C46  1  0.30399000  0.50304000  0.49961000  1.0
  C  C47  1  0.99766000  0.50096000  0.19536000  1.0
  C  C48  1  0.70387000  0.79589000  0.19716000  1.0
  C  C49  1  0.00427000  0.18700000  0.51027000  1.0
  C  C50  1  0.30809000  0.20080000  0.80104000  1.0
  C  C51  1  0.99483000  0.80657000  0.50024000  1.0
  C  C52  1  0.69873000  0.79799000  0.50670000  1.0
  C  C53  1  0.00197000  0.79748000  0.19369000  1.0
  C  C54  1  0.31179000  0.19371000  0.50482000  1.0
  C  C55  1  0.99821000  0.19389000  0.80543000  1.0
  C  C56  1  0.39923000  0.51245000  0.49620000  1.0
  C  C57  1  0.59336000  0.50498000  0.49188000  1.0
  C  C58  1  0.44087000  0.53039000  0.56869000  1.0
  C  C59  1  0.54655000  0.49779000  0.41315000  1.0
  C  C60  1  0.53891000  0.52318000  0.56504000  1.0
  C  C61  1  0.45119000  0.49988000  0.41970000  1.0
  C  C62  1  0.99401000  0.51883000  0.89607000  1.0
  C  C63  1  0.99124000  0.50825000  0.09186000  1.0
  C  C64  1  0.07128000  0.52858000  0.94177000  1.0
  C  C65  1  0.91209000  0.50178000  0.04454000  1.0
  C  C66  1  0.06712000  0.52175000  0.03942000  1.0
  C  C67  1  0.91690000  0.50722000  0.94744000  1.0
  C  C68  1  0.00504000  0.89570000  0.09462000  1.0
  C  C69  1  0.99620000  0.09568000  0.90516000  1.0
  C  C70  1  0.08738000  0.86593000  0.04308000  1.0
  C  C71  1  0.91367000  0.12518000  0.95644000  1.0
  C  C72  1  0.07979000  0.96816000  0.94987000  1.0
  C  C73  1  0.92202000  0.02272000  0.05067000  1.0
  C  C74  1  0.59829000  0.89592000  0.50857000  1.0
  C  C75  1  0.40992000  0.09536000  0.50148000  1.0
  C  C76  1  0.54620000  0.86579000  0.59034000  1.0
  C  C77  1  0.46041000  0.12527000  0.41815000  1.0
  C  C78  1  0.45364000  0.96773000  0.58379000  1.0
  C  C79  1  0.55414000  0.02310000  0.42566000  1.0
  C  C80  1  0.60337000  0.89961000  0.09745000  1.0
  C  C81  1  0.40884000  0.10040000  0.90088000  1.0
  C  C82  1  0.54954000  0.87544000  0.04446000  1.0
  C  C83  1  0.46272000  0.12606000  0.95408000  1.0
  C  C84  1  0.45586000  0.97165000  0.95082000  1.0
  C  C85  1  0.55512000  0.03002000  0.04903000  1.0
  C  C86  1  0.55115000  0.76996000  0.04894000  1.0
  C  C87  1  0.44434000  0.87898000  0.94344000  1.0
  C  C88  1  0.99482000  0.90742000  0.49840000  1.0
  C  C89  1  0.00637000  0.08606000  0.51006000  1.0
  C  C90  1  0.91580000  0.03970000  0.41562000  1.0
  C  C91  1  0.08665000  0.95386000  0.59128000  1.0
  C  C92  1  0.92468000  0.12463000  0.42542000  1.0
  C  C93  1  0.07707000  0.86887000  0.58233000  1.0
  N  N94  1  0.38833000  0.55764000  0.63771000  1.0
  N  N95  1  0.58919000  0.49161000  0.33073000  1.0
  N  N96  1  0.14640000  0.54754000  0.89362000  1.0
  N  N97  1  0.83625000  0.48550000  0.09175000  1.0
  N  N98  1  0.17448000  0.74287000  0.08290000  1.0
  N  N99  1  0.82918000  0.24746000  0.92025000  1.0
  N  N100  1  0.58061000  0.74274000  0.67144000  1.0
  N  N101  1  0.42017000  0.24725000  0.33103000  1.0
  N  N102  1  0.83599000  0.08537000  0.32713000  1.0
  N  N103  1  0.17332000  0.90703000  0.67436000  1.0
  N  N104  1  0.42329000  0.25834000  0.91146000  1.0
  N  N105  1  0.59926000  0.07292000  0.09808000  1.0
  O  O106  1  0.74561000  0.48553000  0.42875000  1.0
  O  O107  1  0.07251000  0.51091000  0.75754000  1.0
  O  O108  1  0.26277000  0.50129000  0.57718000  1.0
  O  O109  1  0.92320000  0.49683000  0.24015000  1.0
  O  O110  1  0.74479000  0.83203000  0.23665000  1.0
  O  O111  1  0.07945000  0.15387000  0.58660000  1.0
  O  O112  1  0.27061000  0.15961000  0.76480000  1.0
  O  O113  1  0.91864000  0.83968000  0.42489000  1.0
  O  O114  1  0.74055000  0.68023000  0.58312000  1.0
  O  O115  1  0.07769000  0.67974000  0.23476000  1.0
  O  O116  1  0.27028000  0.31140000  0.42832000  1.0
  O  O117  1  0.92089000  0.31160000  0.76264000  1.0
  O  O118  1  0.92552000  0.83365000  0.23444000  1.0
  O  O119  1  0.27174000  0.15802000  0.58246000  1.0
  O  O120  1  0.07714000  0.15774000  0.76687000  1.0
  O  O121  1  0.73876000  0.83417000  0.42945000  1.0
  O  O122  1  0.73875000  0.68227000  0.23399000  1.0
  O  O123  1  0.07116000  0.69069000  0.57598000  1.0
  O  O124  1  0.26805000  0.31625000  0.76263000  1.0
  O  O125  1  0.92827000  0.30292000  0.43388000  1.0
  O  O126  1  0.07606000  0.49818000  0.23614000  1.0
  O  O127  1  0.73963000  0.49013000  0.57975000  1.0
  O  O128  1  0.92119000  0.50671000  0.76218000  1.0
  O  O129  1  0.26711000  0.49658000  0.42615000  1.0
  O  O130  1  0.07249000  0.35920000  0.43736000  1.0
  O  O131  1  0.06753000  0.63340000  0.43254000  1.0
  O  O132  1  0.06912000  0.36500000  0.70406000  1.0
  O  O133  1  0.80117000  0.62818000  0.43532000  1.0
  O  O134  1  0.95087000  0.59721000  0.55042000  1.0
  O  O135  1  0.95504000  0.39556000  0.55385000  1.0
  O  O136  1  0.15058000  0.39966000  0.55166000  1.0
  O  O137  1  0.95362000  0.59322000  0.35434000  1.0
  O  O138  1  0.45983000  0.30714000  0.84134000  1.0
  O  O139  1  0.36141000  0.30675000  0.95396000  1.0
  O  O140  1  0.56522000  0.08233000  0.17143000  1.0
  O  O141  1  0.66133000  0.10252000  0.05709000  1.0
