# generated using pymatgen
data_CdH20C26Br2(NO2)2
_symmetry_space_group_name_H-M   'P 1'
_cell_length_a   8.71452000
_cell_length_b   10.37490000
_cell_length_c   14.75650000
_cell_angle_alpha   80.01390000
_cell_angle_beta   73.62750000
_cell_angle_gamma   65.21750000
_symmetry_Int_Tables_number   1
_chemical_formula_structural   CdH20C26Br2(NO2)2
_chemical_formula_sum   'Cd2 H40 C52 Br4 N4 O8'
_cell_volume   1159.84006689
_cell_formula_units_Z   2
loop_
 _symmetry_equiv_pos_site_id
 _symmetry_equiv_pos_as_xyz
  1  'x, y, z'
loop_
 _atom_site_type_symbol
 _atom_site_label
 _atom_site_symmetry_multiplicity
 _atom_site_fract_x
 _atom_site_fract_y
 _atom_site_fract_z
 _atom_site_occupancy
  Cd  Cd0  1  0.63967000  0.25041000  0.74787000  1.0
  Cd  Cd1  1  0.36032000  0.74959000  0.25213000  1.0
  H  H2  1  0.07701000  0.10138000  0.94368000  1.0
  H  H3  1  0.12016000  0.40042000  0.55866000  1.0
  H  H4  1  0.92299000  0.89862000  0.05631000  1.0
  H  H5  1  0.87983000  0.59959000  0.44135000  1.0
  H  H6  1  0.58051000  0.43440000  0.05150000  1.0
  H  H7  1  0.06733000  0.06586000  0.44752000  1.0
  H  H8  1  0.41948000  0.56560000  0.94851000  1.0
  H  H9  1  0.93267000  0.93414000  0.55248000  1.0
  H  H10  1  0.13586000  0.06394000  0.10632000  1.0
  H  H11  1  0.30588000  0.43498000  0.39859000  1.0
  H  H12  1  0.86414000  0.93607000  0.89368000  1.0
  H  H13  1  0.69411000  0.56502000  0.60141000  1.0
  H  H14  1  0.66418000  0.39023000  0.20732000  1.0
  H  H15  1  0.26334000  0.10821000  0.29405000  1.0
  H  H16  1  0.33582000  0.60977000  0.79268000  1.0
  H  H17  1  0.73666000  0.89178000  0.70596000  1.0
  H  H18  1  0.91540000  0.28101000  0.28330000  1.0
  H  H19  1  0.47999000  0.21541000  0.22183000  1.0
  H  H20  1  0.08461000  0.71898000  0.71670000  1.0
  H  H21  1  0.52000000  0.78459000  0.77817000  1.0
  H  H22  1  0.05052000  0.10073000  0.25414000  1.0
  H  H23  1  0.40824000  0.39543000  0.25126000  1.0
  H  H24  1  0.94950000  0.89927000  0.74585000  1.0
  H  H25  1  0.59176000  0.60457000  0.74874000  1.0
  H  H26  1  0.72754000  0.28107000  0.43188000  1.0
  H  H27  1  0.44089000  0.21877000  0.07044000  1.0
  H  H28  1  0.27247000  0.71893000  0.56812000  1.0
  H  H29  1  0.55911000  0.78123000  0.92957000  1.0
  H  H30  1  0.81153000  0.97767000  0.23819000  1.0
  H  H31  1  0.03135000  0.51891000  0.26406000  1.0
  H  H32  1  0.18848000  0.02233000  0.76180000  1.0
  H  H33  1  0.96865000  0.48110000  0.73594000  1.0
  H  H34  1  0.53598000  0.18914000  0.55012000  1.0
  H  H35  1  0.27425000  0.31210000  0.95035000  1.0
  H  H36  1  0.46403000  0.81085000  0.44988000  1.0
  H  H37  1  0.72576000  0.68790000  0.04965000  1.0
  H  H38  1  0.60985000  0.89122000  0.35301000  1.0
  H  H39  1  0.85657000  0.60657000  0.14736000  1.0
  H  H40  1  0.39016000  0.10878000  0.64698000  1.0
  H  H41  1  0.14343000  0.39343000  0.85264000  1.0
  C  C42  1  0.76711000  0.26518000  0.89697000  1.0
  C  C43  1  0.92839000  0.23716000  0.60140000  1.0
  C  C44  1  0.23289000  0.73482000  0.10303000  1.0
  C  C45  1  0.07161000  0.76285000  0.39860000  1.0
  C  C46  1  0.81876000  0.26219000  0.98703000  1.0
  C  C47  1  0.06736000  0.23898000  0.51324000  1.0
  C  C48  1  0.18124000  0.73781000  0.01298000  1.0
  C  C49  1  0.93262000  0.76102000  0.48677000  1.0
  C  C50  1  0.98041000  0.16411000  0.00117000  1.0
  C  C51  1  0.14456000  0.33678000  0.50095000  1.0
  C  C52  1  0.01959000  0.83589000  0.99883000  1.0
  C  C53  1  0.85543000  0.66323000  0.49905000  1.0
  C  C54  1  0.70327000  0.34947000  0.06027000  1.0
  C  C55  1  0.11359000  0.15066000  0.43986000  1.0
  C  C56  1  0.29673000  0.65053000  0.93973000  1.0
  C  C57  1  0.88641000  0.84934000  0.56015000  1.0
  C  C58  1  0.01586000  0.14313000  0.08959000  1.0
  C  C59  1  0.24860000  0.35616000  0.41397000  1.0
  C  C60  1  0.98415000  0.85687000  0.91040000  1.0
  C  C61  1  0.75139000  0.64384000  0.58603000  1.0
  C  C62  1  0.74506000  0.32640000  0.14682000  1.0
  C  C63  1  0.21954000  0.17250000  0.35471000  1.0
  C  C64  1  0.25494000  0.67360000  0.85318000  1.0
  C  C65  1  0.78045000  0.82751000  0.64529000  1.0
  C  C66  1  0.92000000  0.18482000  0.25923000  1.0
  C  C67  1  0.36587000  0.31233000  0.24486000  1.0
  C  C68  1  0.08001000  0.81518000  0.74076000  1.0
  C  C69  1  0.63413000  0.68767000  0.75515000  1.0
  C  C70  1  0.78616000  0.13563000  0.32656000  1.0
  C  C71  1  0.25039000  0.36252000  0.17583000  1.0
  C  C72  1  0.21385000  0.86436000  0.67343000  1.0
  C  C73  1  0.74960000  0.63749000  0.82417000  1.0
  C  C74  1  0.70483000  0.19341000  0.41492000  1.0
  C  C75  1  0.31401000  0.30601000  0.08695000  1.0
  C  C76  1  0.29518000  0.80658000  0.58508000  1.0
  C  C77  1  0.68599000  0.69399000  0.91305000  1.0
  C  C78  1  0.74878000  0.02646000  0.30597000  1.0
  C  C79  1  0.08389000  0.47103000  0.19591000  1.0
  C  C80  1  0.25122000  0.97354000  0.69402000  1.0
  C  C81  1  0.91612000  0.52897000  0.80409000  1.0
  C  C82  1  0.59364000  0.14075000  0.48224000  1.0
  C  C83  1  0.21672000  0.35935000  0.01863000  1.0
  C  C84  1  0.40637000  0.85924000  0.51775000  1.0
  C  C85  1  0.78328000  0.64065000  0.98137000  1.0
  C  C86  1  0.63502000  0.97564000  0.37278000  1.0
  C  C87  1  0.98541000  0.52260000  0.12809000  1.0
  C  C88  1  0.36499000  0.02436000  0.62721000  1.0
  C  C89  1  0.01460000  0.47740000  0.87191000  1.0
  C  C90  1  0.55703000  0.02950000  0.46347000  1.0
  C  C91  1  0.05057000  0.47006000  0.03695000  1.0
  C  C92  1  0.44298000  0.97049000  0.53652000  1.0
  C  C93  1  0.94944000  0.52994000  0.96305000  1.0
  Br  Br94  1  0.51013000  0.06306000  0.83894000  1.0
  Br  Br95  1  0.40679000  0.43782000  0.65903000  1.0
  Br  Br96  1  0.48986000  0.93694000  0.16106000  1.0
  Br  Br97  1  0.59321000  0.56218000  0.34097000  1.0
  N  N98  1  0.89434000  0.21914000  0.16153000  1.0
  N  N99  1  0.27627000  0.27922000  0.34157000  1.0
  N  N100  1  0.10567000  0.78087000  0.83847000  1.0
  N  N101  1  0.72372000  0.72078000  0.65843000  1.0
  O  O102  1  0.62581000  0.36359000  0.88242000  1.0
  O  O103  1  0.87258000  0.13813000  0.61509000  1.0
  O  O104  1  0.37417000  0.63641000  0.11759000  1.0
  O  O105  1  0.12742000  0.86187000  0.38491000  1.0
  O  O106  1  0.86370000  0.16316000  0.84413000  1.0
  O  O107  1  0.86851000  0.34050000  0.65357000  1.0
  O  O108  1  0.13629000  0.83685000  0.15587000  1.0
  O  O109  1  0.13148000  0.65951000  0.34643000  1.0
