# generated using pymatgen
data_CuH5C4S3N2
_symmetry_space_group_name_H-M   'P 1'
_cell_length_a   5.80281000
_cell_length_b   6.75795000
_cell_length_c   19.66310000
_cell_angle_alpha   89.99960000
_cell_angle_beta   89.99980000
_cell_angle_gamma   106.70900000
_symmetry_Int_Tables_number   1
_chemical_formula_structural   CuH5C4S3N2
_chemical_formula_sum   'Cu4 H20 C16 S12 N8'
_cell_volume   738.53294409
_cell_formula_units_Z   4
loop_
 _symmetry_equiv_pos_site_id
 _symmetry_equiv_pos_as_xyz
  1  'x, y, z'
loop_
 _atom_site_type_symbol
 _atom_site_label
 _atom_site_symmetry_multiplicity
 _atom_site_fract_x
 _atom_site_fract_y
 _atom_site_fract_z
 _atom_site_occupancy
  Cu  Cu0  1  0.81589000  0.79923000  0.69820000  1.0
  Cu  Cu1  1  0.18410000  0.70077000  0.19820000  1.0
  Cu  Cu2  1  0.18410000  0.20076000  0.30180000  1.0
  Cu  Cu3  1  0.81589000  0.29923000  0.80180000  1.0
  H  H4  1  0.51919000  0.30577000  0.70125000  1.0
  H  H5  1  0.48081000  0.19424000  0.20125000  1.0
  H  H6  1  0.48081000  0.69422000  0.29875000  1.0
  H  H7  1  0.51919000  0.80576000  0.79875000  1.0
  H  H8  1  0.35238000  0.41660000  0.59650000  1.0
  H  H9  1  0.64763000  0.08341000  0.09650000  1.0
  H  H10  1  0.64762000  0.58340000  0.40351000  1.0
  H  H11  1  0.35237000  0.91658000  0.90350000  1.0
  H  H12  1  0.27877000  0.14172000  0.59166000  1.0
  H  H13  1  0.72124000  0.35828000  0.09166000  1.0
  H  H14  1  0.72124000  0.85828000  0.40834000  1.0
  H  H15  1  0.27876000  0.64172000  0.90834000  1.0
  H  H16  1  0.69739000  0.46173000  0.52085000  1.0
  H  H17  1  0.30263000  0.03828000  0.02085000  1.0
  H  H18  1  0.30262000  0.53828000  0.47916000  1.0
  H  H19  1  0.69737000  0.96171000  0.97915000  1.0
  H  H20  1  0.49988000  0.22602000  0.48729000  1.0
  H  H21  1  0.50013000  0.27399000  0.98729000  1.0
  H  H22  1  0.50013000  0.77399000  0.51271000  1.0
  H  H23  1  0.49987000  0.72600000  0.01271000  1.0
  C  C24  1  0.76623000  0.21514000  0.64463000  1.0
  C  C25  1  0.23377000  0.28486000  0.14463000  1.0
  C  C26  1  0.23377000  0.78485000  0.35537000  1.0
  C  C27  1  0.76623000  0.71514000  0.85537000  1.0
  C  C28  1  0.42787000  0.28580000  0.59342000  1.0
  C  C29  1  0.57213000  0.21421000  0.09342000  1.0
  C  C30  1  0.57213000  0.71421000  0.40658000  1.0
  C  C31  1  0.42787000  0.78578000  0.90658000  1.0
  C  C32  1  0.59537000  0.30177000  0.53263000  1.0
  C  C33  1  0.40464000  0.19824000  0.03263000  1.0
  C  C34  1  0.40463000  0.69824000  0.46737000  1.0
  C  C35  1  0.59536000  0.80176000  0.96737000  1.0
  C  C36  1  0.29828000  0.74483000  0.64892000  1.0
  C  C37  1  0.70169000  0.75517000  0.14892000  1.0
  C  C38  1  0.70170000  0.25517000  0.35108000  1.0
  C  C39  1  0.29831000  0.24483000  0.85108000  1.0
  S  S40  1  0.94669000  0.17516000  0.70764000  1.0
  S  S41  1  0.05330000  0.32483000  0.20764000  1.0
  S  S42  1  0.05330000  0.82484000  0.29236000  1.0
  S  S43  1  0.94670000  0.67516000  0.79236000  1.0
  S  S44  1  0.81303000  0.16838000  0.55918000  1.0
  S  S45  1  0.18697000  0.33162000  0.05918000  1.0
  S  S46  1  0.18697000  0.83162000  0.44082000  1.0
  S  S47  1  0.81303000  0.66838000  0.94082000  1.0
  S  S48  1  0.04912000  0.74042000  0.60932000  1.0
  S  S49  1  0.95088000  0.75959000  0.10932000  1.0
  S  S50  1  0.95086000  0.25958000  0.39068000  1.0
  S  S51  1  0.04912000  0.24042000  0.89068000  1.0
  N  N52  1  0.57467000  0.28247000  0.65330000  1.0
  N  N53  1  0.42534000  0.21753000  0.15329000  1.0
  N  N54  1  0.42533000  0.71752000  0.34671000  1.0
  N  N55  1  0.57467000  0.78247000  0.84671000  1.0
  N  N56  1  0.48199000  0.74645000  0.67567000  1.0
  N  N57  1  0.51800000  0.75355000  0.17567000  1.0
  N  N58  1  0.51799000  0.25355000  0.32433000  1.0
  N  N59  1  0.48199000  0.24646000  0.82433000  1.0
