# generated using pymatgen
data_SnH15C12O2F
_symmetry_space_group_name_H-M   'P 1'
_cell_length_a   9.81763000
_cell_length_b   11.62800000
_cell_length_c   12.29230000
_cell_angle_alpha   96.93670000
_cell_angle_beta   90.00000000
_cell_angle_gamma   90.00000000
_symmetry_Int_Tables_number   1
_chemical_formula_structural   SnH15C12O2F
_chemical_formula_sum   'Sn4 H60 C48 O8 F4'
_cell_volume   1393.00985284
_cell_formula_units_Z   4
loop_
 _symmetry_equiv_pos_site_id
 _symmetry_equiv_pos_as_xyz
  1  'x, y, z'
loop_
 _atom_site_type_symbol
 _atom_site_label
 _atom_site_symmetry_multiplicity
 _atom_site_fract_x
 _atom_site_fract_y
 _atom_site_fract_z
 _atom_site_occupancy
  Sn  Sn0  1  0.57435000  0.56465000  0.73725000  1.0
  Sn  Sn1  1  0.07435000  0.43535000  0.76275000  1.0
  Sn  Sn2  1  0.42565000  0.43535000  0.26275000  1.0
  Sn  Sn3  1  0.92565000  0.56465000  0.23725000  1.0
  H  H4  1  0.07284000  0.65956000  0.63566000  1.0
  H  H5  1  0.57284000  0.34044000  0.86434000  1.0
  H  H6  1  0.92716000  0.34044000  0.36434000  1.0
  H  H7  1  0.42715000  0.65956000  0.13565000  1.0
  H  H8  1  0.86697000  0.86025000  0.66768000  1.0
  H  H9  1  0.36697000  0.13975000  0.83232000  1.0
  H  H10  1  0.13303000  0.13975000  0.33232000  1.0
  H  H11  1  0.63303000  0.86024000  0.16768000  1.0
  H  H12  1  0.19319000  0.76155000  0.52055000  1.0
  H  H13  1  0.69320000  0.23845000  0.97946000  1.0
  H  H14  1  0.80681000  0.23845000  0.47946000  1.0
  H  H15  1  0.30680000  0.76155000  0.02054000  1.0
  H  H16  1  0.37578000  0.89686000  0.47497000  1.0
  H  H17  1  0.87578000  0.10314000  0.02504000  1.0
  H  H18  1  0.62422000  0.10314000  0.52503000  1.0
  H  H19  1  0.12422000  0.89686000  0.97496000  1.0
  H  H20  1  0.16435000  0.18198000  0.65718000  1.0
  H  H21  1  0.66436000  0.81802000  0.84282000  1.0
  H  H22  1  0.83564000  0.81802000  0.34281000  1.0
  H  H23  1  0.33565000  0.18198000  0.15718000  1.0
  H  H24  1  0.97745000  0.04795000  0.69941000  1.0
  H  H25  1  0.47746000  0.95205000  0.80059000  1.0
  H  H26  1  0.02254000  0.95206000  0.30059000  1.0
  H  H27  1  0.52254000  0.04794000  0.19941000  1.0
  H  H28  1  0.57498000  0.56124000  0.95800000  1.0
  H  H29  1  0.07497000  0.43875000  0.54199000  1.0
  H  H30  1  0.42502000  0.43875000  0.04200000  1.0
  H  H31  1  0.92502000  0.56125000  0.45800000  1.0
  H  H32  1  0.71379000  0.64903000  0.92257000  1.0
  H  H33  1  0.21379000  0.35096000  0.57743000  1.0
  H  H34  1  0.28621000  0.35096000  0.07743000  1.0
  H  H35  1  0.78621000  0.64904000  0.42257000  1.0
  H  H36  1  0.72871000  0.49572000  0.90123000  1.0
  H  H37  1  0.22871000  0.50428000  0.59877000  1.0
  H  H38  1  0.27129000  0.50428000  0.09877000  1.0
  H  H39  1  0.77128000  0.49572000  0.40122000  1.0
  H  H40  1  0.47960000  0.75522000  0.65330000  1.0
  H  H41  1  0.97960000  0.24478000  0.84670000  1.0
  H  H42  1  0.52041000  0.24478000  0.34670000  1.0
  H  H43  1  0.02041000  0.75522000  0.15330000  1.0
  H  H44  1  0.40658000  0.75049000  0.78653000  1.0
  H  H45  1  0.90658000  0.24951000  0.71347000  1.0
  H  H46  1  0.59343000  0.24951000  0.21347000  1.0
  H  H47  1  0.09343000  0.75049000  0.28653000  1.0
  H  H48  1  0.33999000  0.66003000  0.67164000  1.0
  H  H49  1  0.83999000  0.33997000  0.82837000  1.0
  H  H50  1  0.66002000  0.33997000  0.32837000  1.0
  H  H51  1  0.16001000  0.66003000  0.17163000  1.0
  H  H52  1  0.50945000  0.39419000  0.57283000  1.0
  H  H53  1  0.00945000  0.60580000  0.92716000  1.0
  H  H54  1  0.49055000  0.60580000  0.42716000  1.0
  H  H55  1  0.99055000  0.39420000  0.07284000  1.0
  H  H56  1  0.65338000  0.35052000  0.64778000  1.0
  H  H57  1  0.15339000  0.64948000  0.85221000  1.0
  H  H58  1  0.34661000  0.64948000  0.35221000  1.0
  H  H59  1  0.84661000  0.35052000  0.14779000  1.0
  H  H60  1  0.67630000  0.45071000  0.54996000  1.0
  H  H61  1  0.17630000  0.54929000  0.95004000  1.0
  H  H62  1  0.32370000  0.54929000  0.45004000  1.0
  H  H63  1  0.82370000  0.45071000  0.04996000  1.0
  C  C64  1  0.86146000  0.63430000  0.68297000  1.0
  C  C65  1  0.36146000  0.36570000  0.81703000  1.0
  C  C66  1  0.13854000  0.36570000  0.31703000  1.0
  C  C67  1  0.63854000  0.63430000  0.18297000  1.0
  C  C68  1  0.97630000  0.70482000  0.65149000  1.0
  C  C69  1  0.47631000  0.29518000  0.84852000  1.0
  C  C70  1  0.02370000  0.29518000  0.34851000  1.0
  C  C71  1  0.52369000  0.70482000  0.15148000  1.0
  C  C72  1  0.96509000  0.81942000  0.64537000  1.0
  C  C73  1  0.46509000  0.18058000  0.85463000  1.0
  C  C74  1  0.03491000  0.18058000  0.35463000  1.0
  C  C75  1  0.53491000  0.81941000  0.14537000  1.0
  C  C76  1  0.07310000  0.89513000  0.61487000  1.0
  C  C77  1  0.57310000  0.10487000  0.88514000  1.0
  C  C78  1  0.92690000  0.10487000  0.38513000  1.0
  C  C79  1  0.42690000  0.89513000  0.11486000  1.0
  C  C80  1  0.18601000  0.85338000  0.55114000  1.0
  C  C81  1  0.68602000  0.14662000  0.94888000  1.0
  C  C82  1  0.81398000  0.14662000  0.44886000  1.0
  C  C83  1  0.31398000  0.85338000  0.05113000  1.0
  C  C84  1  0.28832000  0.92800000  0.52453000  1.0
  C  C85  1  0.78832000  0.07200000  0.97547000  1.0
  C  C86  1  0.71168000  0.07200000  0.47547000  1.0
  C  C87  1  0.21168000  0.92800000  0.02453000  1.0
  C  C88  1  0.27687000  0.04508000  0.56378000  1.0
  C  C89  1  0.77688000  0.95492000  0.93623000  1.0
  C  C90  1  0.72313000  0.95492000  0.43622000  1.0
  C  C91  1  0.22313000  0.04508000  0.06378000  1.0
  C  C92  1  0.16740000  0.09023000  0.62667000  1.0
  C  C93  1  0.66739000  0.90977000  0.87334000  1.0
  C  C94  1  0.83260000  0.90977000  0.37333000  1.0
  C  C95  1  0.33260000  0.09023000  0.12667000  1.0
  C  C96  1  0.06487000  0.01458000  0.65063000  1.0
  C  C97  1  0.56487000  0.98543000  0.84938000  1.0
  C  C98  1  0.93513000  0.98542000  0.34937000  1.0
  C  C99  1  0.43513000  0.01458000  0.15063000  1.0
  C  C100  1  0.65784000  0.56819000  0.89957000  1.0
  C  C101  1  0.15784000  0.43181000  0.60043000  1.0
  C  C102  1  0.34216000  0.43181000  0.10043000  1.0
  C  C103  1  0.84216000  0.56819000  0.39957000  1.0
  C  C104  1  0.43309000  0.69918000  0.70854000  1.0
  C  C105  1  0.93308000  0.30082000  0.79146000  1.0
  C  C106  1  0.56692000  0.30082000  0.29146000  1.0
  C  C107  1  0.06692000  0.69918000  0.20854000  1.0
  C  C108  1  0.60669000  0.42227000  0.61098000  1.0
  C  C109  1  0.10669000  0.57773000  0.88901000  1.0
  C  C110  1  0.39331000  0.57773000  0.38901000  1.0
  C  C111  1  0.89331000  0.42227000  0.11099000  1.0
  O  O112  1  0.74108000  0.67814000  0.68409000  1.0
  O  O113  1  0.24108000  0.32186000  0.81592000  1.0
  O  O114  1  0.25892000  0.32186000  0.31591000  1.0
  O  O115  1  0.75892000  0.67814000  0.18408000  1.0
  O  O116  1  0.88217000  0.53209000  0.70733000  1.0
  O  O117  1  0.38217000  0.46790000  0.79266000  1.0
  O  O118  1  0.11783000  0.46790000  0.29266000  1.0
  O  O119  1  0.61783000  0.53210000  0.20733000  1.0
  F  F120  1  0.37726000  0.11937000  0.53901000  1.0
  F  F121  1  0.87727000  0.88062000  0.96100000  1.0
  F  F122  1  0.62274000  0.88062000  0.46099000  1.0
  F  F123  1  0.12274000  0.11938000  0.03900000  1.0
