# generated using pymatgen
data_UZnH10(C2O3)6
_symmetry_space_group_name_H-M   'P 1'
_cell_length_a   6.44287000
_cell_length_b   8.39308000
_cell_length_c   8.60220000
_cell_angle_alpha   95.36170000
_cell_angle_beta   93.35580000
_cell_angle_gamma   104.03000000
_symmetry_Int_Tables_number   1
_chemical_formula_structural   UZnH10(C2O3)6
_chemical_formula_sum   'U1 Zn1 H10 C12 O18'
_cell_volume   447.72739305
_cell_formula_units_Z   1
loop_
 _symmetry_equiv_pos_site_id
 _symmetry_equiv_pos_as_xyz
  1  'x, y, z'
loop_
 _atom_site_type_symbol
 _atom_site_label
 _atom_site_symmetry_multiplicity
 _atom_site_fract_x
 _atom_site_fract_y
 _atom_site_fract_z
 _atom_site_occupancy
  U  U0  1  0.49998000  0.49999000  0.99998000  1.0
  Zn  Zn1  1  0.00002000  0.50003000  0.49996000  1.0
  H  H2  1  0.39621000  0.54718000  0.42744000  1.0
  H  H3  1  0.60419000  0.45276000  0.57289000  1.0
  H  H4  1  0.41692000  0.68886000  0.56774000  1.0
  H  H5  1  0.58307000  0.31122000  0.43239000  1.0
  H  H6  1  0.08952000  0.65195000  0.24507000  1.0
  H  H7  1  0.91049000  0.34808000  0.75490000  1.0
  H  H8  1  0.87512000  0.67999000  0.29693000  1.0
  H  H9  1  0.12485000  0.32003000  0.70297000  1.0
  H  H10  1  0.42083000  0.05296000  0.68851000  1.0
  H  H11  1  0.57913000  0.94700000  0.31149000  1.0
  C  C12  1  0.87376000  0.71121000  0.77027000  1.0
  C  C13  1  0.12624000  0.28879000  0.22970000  1.0
  C  C14  1  0.94227000  0.86468000  0.88585000  1.0
  C  C15  1  0.05770000  0.13530000  0.11415000  1.0
  C  C16  1  0.23754000  0.74176000  0.98614000  1.0
  C  C17  1  0.76244000  0.25822000  0.01383000  1.0
  C  C18  1  0.65699000  0.97156000  0.75505000  1.0
  C  C19  1  0.34300000  0.02843000  0.24495000  1.0
  C  C20  1  0.82643000  0.98733000  0.88696000  1.0
  C  C21  1  0.17354000  0.01265000  0.11303000  1.0
  C  C22  1  0.11818000  0.87744000  0.99531000  1.0
  C  C23  1  0.88180000  0.12254000  0.00468000  1.0
  O  O24  1  0.64536000  0.88147000  0.63182000  1.0
  O  O25  1  0.35463000  0.11852000  0.36816000  1.0
  O  O26  1  0.33920000  0.57533000  0.52691000  1.0
  O  O27  1  0.66074000  0.42478000  0.47318000  1.0
  O  O28  1  0.99981000  0.69555000  0.66773000  1.0
  O  O29  1  0.00019000  0.30448000  0.33224000  1.0
  O  O30  1  0.52320000  0.06897000  0.78120000  1.0
  O  O31  1  0.47677000  0.93100000  0.21879000  1.0
  O  O32  1  0.69991000  0.60424000  0.78952000  1.0
  O  O33  1  0.30009000  0.39573000  0.21042000  1.0
  O  O34  1  0.38260000  0.74061000  0.89349000  1.0
  O  O35  1  0.61738000  0.25938000  0.10649000  1.0
  O  O36  1  0.18878000  0.62406000  0.07186000  1.0
  O  O37  1  0.81119000  0.37590000  0.92811000  1.0
  O  O38  1  0.01875000  0.67779000  0.34105000  1.0
  O  O39  1  0.98121000  0.32225000  0.65889000  1.0
  O  O40  1  0.32781000  0.34533000  0.85568000  1.0
  O  O41  1  0.67214000  0.65464000  0.14426000  1.0
