# generated using pymatgen
data_GdH6C9NO7
_symmetry_space_group_name_H-M   'P 1'
_cell_length_a   7.54400000
_cell_length_b   8.48761000
_cell_length_c   17.09520000
_cell_angle_alpha   90.00060000
_cell_angle_beta   90.00050000
_cell_angle_gamma   74.95700000
_symmetry_Int_Tables_number   1
_chemical_formula_structural   GdH6C9NO7
_chemical_formula_sum   'Gd4 H24 C36 N4 O28'
_cell_volume   1057.10370438
_cell_formula_units_Z   4
loop_
 _symmetry_equiv_pos_site_id
 _symmetry_equiv_pos_as_xyz
  1  'x, y, z'
loop_
 _atom_site_type_symbol
 _atom_site_label
 _atom_site_symmetry_multiplicity
 _atom_site_fract_x
 _atom_site_fract_y
 _atom_site_fract_z
 _atom_site_occupancy
  Gd  Gd0  1  0.28181000  0.42835000  0.71554000  1.0
  Gd  Gd1  1  0.71819000  0.07164000  0.21554000  1.0
  Gd  Gd2  1  0.71819000  0.57165000  0.28446000  1.0
  Gd  Gd3  1  0.28181000  0.92835000  0.78446000  1.0
  H  H4  1  0.07618000  0.79489000  0.02539000  1.0
  H  H5  1  0.92382000  0.70512000  0.52539000  1.0
  H  H6  1  0.92381000  0.20512000  0.97461000  1.0
  H  H7  1  0.07619000  0.29488000  0.47461000  1.0
  H  H8  1  0.18054000  0.39160000  0.18699000  1.0
  H  H9  1  0.81946000  0.10841000  0.68699000  1.0
  H  H10  1  0.81946000  0.60841000  0.81301000  1.0
  H  H11  1  0.18054000  0.89159000  0.31301000  1.0
  H  H12  1  0.37015000  0.30656000  0.95918000  1.0
  H  H13  1  0.62985000  0.19344000  0.45918000  1.0
  H  H14  1  0.62985000  0.69344000  0.04082000  1.0
  H  H15  1  0.37015000  0.80656000  0.54083000  1.0
  H  H16  1  0.76953000  0.97793000  0.83190000  1.0
  H  H17  1  0.23047000  0.52206000  0.33190000  1.0
  H  H18  1  0.23047000  0.02207000  0.16810000  1.0
  H  H19  1  0.76953000  0.47794000  0.66810000  1.0
  H  H20  1  0.67595000  0.10211000  0.91364000  1.0
  H  H21  1  0.32405000  0.39789000  0.41364000  1.0
  H  H22  1  0.32405000  0.89789000  0.08636000  1.0
  H  H23  1  0.67595000  0.60211000  0.58636000  1.0
  H  H24  1  0.60065000  0.83285000  0.89879000  1.0
  H  H25  1  0.39935000  0.66714000  0.39879000  1.0
  H  H26  1  0.39935000  0.16715000  0.10121000  1.0
  H  H27  1  0.60065000  0.33286000  0.60121000  1.0
  C  C28  1  0.22508000  0.55811000  0.98163000  1.0
  C  C29  1  0.77493000  0.94190000  0.48163000  1.0
  C  C30  1  0.77491000  0.44189000  0.01837000  1.0
  C  C31  1  0.22508000  0.05811000  0.51837000  1.0
  C  C32  1  0.24289000  0.61261000  0.89919000  1.0
  C  C33  1  0.75712000  0.88738000  0.39919000  1.0
  C  C34  1  0.75710000  0.38738000  0.10081000  1.0
  C  C35  1  0.24288000  0.11262000  0.60081000  1.0
  C  C36  1  0.13420000  0.66633000  0.03907000  1.0
  C  C37  1  0.86581000  0.83367000  0.53907000  1.0
  C  C38  1  0.86579000  0.33367000  0.96093000  1.0
  C  C39  1  0.13420000  0.16633000  0.46093000  1.0
  C  C40  1  0.11433000  0.60732000  0.11384000  1.0
  C  C41  1  0.88566000  0.89268000  0.61385000  1.0
  C  C42  1  0.88566000  0.39268000  0.88615000  1.0
  C  C43  1  0.11433000  0.10732000  0.38616000  1.0
  C  C44  1  0.19271000  0.44225000  0.12925000  1.0
  C  C45  1  0.80729000  0.05775000  0.62925000  1.0
  C  C46  1  0.80729000  0.55775000  0.87075000  1.0
  C  C47  1  0.19271000  0.94225000  0.37075000  1.0
  C  C48  1  0.00880000  0.71587000  0.17644000  1.0
  C  C49  1  0.99120000  0.78413000  0.67644000  1.0
  C  C50  1  0.99120000  0.28413000  0.82356000  1.0
  C  C51  1  0.00880000  0.21588000  0.32356000  1.0
  C  C52  1  0.29802000  0.39485000  0.00228000  1.0
  C  C53  1  0.70198000  0.10515000  0.50228000  1.0
  C  C54  1  0.70197000  0.60515000  0.99772000  1.0
  C  C55  1  0.29802000  0.89485000  0.49772000  1.0
  C  C56  1  0.64017000  0.04613000  0.85972000  1.0
  C  C57  1  0.35984000  0.45387000  0.35972000  1.0
  C  C58  1  0.35983000  0.95388000  0.14028000  1.0
  C  C59  1  0.64017000  0.54613000  0.64028000  1.0
  C  C60  1  0.54347000  0.17913000  0.80405000  1.0
  C  C61  1  0.45653000  0.32087000  0.30406000  1.0
  C  C62  1  0.45652000  0.82087000  0.19595000  1.0
  C  C63  1  0.54347000  0.67913000  0.69595000  1.0
  N  N64  1  0.28495000  0.33908000  0.07488000  1.0
  N  N65  1  0.71505000  0.16093000  0.57488000  1.0
  N  N66  1  0.71504000  0.66093000  0.92512000  1.0
  N  N67  1  0.28495000  0.83907000  0.42512000  1.0
  O  O68  1  0.24882000  0.50634000  0.84649000  1.0
  O  O69  1  0.75120000  0.99367000  0.34649000  1.0
  O  O70  1  0.75118000  0.49366000  0.15351000  1.0
  O  O71  1  0.24881000  0.00634000  0.65351000  1.0
  O  O72  1  0.94972000  0.86694000  0.16003000  1.0
  O  O73  1  0.05028000  0.63306000  0.66003000  1.0
  O  O74  1  0.05028000  0.13306000  0.83997000  1.0
  O  O75  1  0.94972000  0.36694000  0.33996000  1.0
  O  O76  1  0.98129000  0.65114000  0.24078000  1.0
  O  O77  1  0.01871000  0.84887000  0.74078000  1.0
  O  O78  1  0.01871000  0.34887000  0.75922000  1.0
  O  O79  1  0.98129000  0.15112000  0.25921000  1.0
  O  O80  1  0.60160000  0.30048000  0.78744000  1.0
  O  O81  1  0.39841000  0.19950000  0.28745000  1.0
  O  O82  1  0.39840000  0.69952000  0.21256000  1.0
  O  O83  1  0.60160000  0.80050000  0.71256000  1.0
  O  O84  1  0.24934000  0.75938000  0.88917000  1.0
  O  O85  1  0.75068000  0.74063000  0.38916000  1.0
  O  O86  1  0.75066000  0.24062000  0.11083000  1.0
  O  O87  1  0.24933000  0.25938000  0.61084000  1.0
  O  O88  1  0.39223000  0.16162000  0.77359000  1.0
  O  O89  1  0.60776000  0.33837000  0.27359000  1.0
  O  O90  1  0.60777000  0.83838000  0.22641000  1.0
  O  O91  1  0.39224000  0.66162000  0.72641000  1.0
  O  O92  1  0.52182000  0.94346000  0.87624000  1.0
  O  O93  1  0.47818000  0.55654000  0.37624000  1.0
  O  O94  1  0.47818000  0.05654000  0.12376000  1.0
  O  O95  1  0.52182000  0.44346000  0.62376000  1.0
