# generated using pymatgen
data_LiH7(C7O2)2
_symmetry_space_group_name_H-M   'P 1'
_cell_length_a   3.57463000
_cell_length_b   15.73920000
_cell_length_c   18.06230000
_cell_angle_alpha   89.99920000
_cell_angle_beta   90.00010000
_cell_angle_gamma   89.99990000
_symmetry_Int_Tables_number   1
_chemical_formula_structural   LiH7(C7O2)2
_chemical_formula_sum   'Li4 H28 C56 O16'
_cell_volume   1016.21780799
_cell_formula_units_Z   4
loop_
 _symmetry_equiv_pos_site_id
 _symmetry_equiv_pos_as_xyz
  1  'x, y, z'
loop_
 _atom_site_type_symbol
 _atom_site_label
 _atom_site_symmetry_multiplicity
 _atom_site_fract_x
 _atom_site_fract_y
 _atom_site_fract_z
 _atom_site_occupancy
  Li  Li0  1  0.02977000  0.30003000  0.53458000  1.0
  Li  Li1  1  0.47023000  0.69997000  0.03458000  1.0
  Li  Li2  1  0.52977000  0.19997000  0.46542000  1.0
  Li  Li3  1  0.97023000  0.80003000  0.96542000  1.0
  H  H4  1  0.23167000  0.48243000  0.17815000  1.0
  H  H5  1  0.26828000  0.51757000  0.67815000  1.0
  H  H6  1  0.73171000  0.01757000  0.82185000  1.0
  H  H7  1  0.76827000  0.98243000  0.32185000  1.0
  H  H8  1  0.64873000  0.66946000  0.30098000  1.0
  H  H9  1  0.85129000  0.33053000  0.80098000  1.0
  H  H10  1  0.14870000  0.83053000  0.69902000  1.0
  H  H11  1  0.35129000  0.16947000  0.19902000  1.0
  H  H12  1  0.80634000  0.19738000  0.30735000  1.0
  H  H13  1  0.69364000  0.80262000  0.80735000  1.0
  H  H14  1  0.30634000  0.30262000  0.69265000  1.0
  H  H15  1  0.19367000  0.69739000  0.19265000  1.0
  H  H16  1  0.85751000  0.74543000  0.41561000  1.0
  H  H17  1  0.64250000  0.25457000  0.91562000  1.0
  H  H18  1  0.35747000  0.75457000  0.58438000  1.0
  H  H19  1  0.14252000  0.24543000  0.08439000  1.0
  H  H20  1  0.83537000  0.27409000  0.18734000  1.0
  H  H21  1  0.66456000  0.72591000  0.68733000  1.0
  H  H22  1  0.33543000  0.22591000  0.81267000  1.0
  H  H23  1  0.16459000  0.77409000  0.31267000  1.0
  H  H24  1  0.54303000  0.52775000  0.54592000  1.0
  H  H25  1  0.95698000  0.47225000  0.04592000  1.0
  H  H26  1  0.04304000  0.97226000  0.45408000  1.0
  H  H27  1  0.45699000  0.02775000  0.95408000  1.0
  H  H28  1  0.82243000  0.67178000  0.53748000  1.0
  H  H29  1  0.67758000  0.32821000  0.03749000  1.0
  H  H30  1  0.32241000  0.82821000  0.46251000  1.0
  H  H31  1  0.17760000  0.17179000  0.96252000  1.0
  C  C32  1  0.47201000  0.55797000  0.35969000  1.0
  C  C33  1  0.02801000  0.44203000  0.85969000  1.0
  C  C34  1  0.97200000  0.94202000  0.64031000  1.0
  C  C35  1  0.52801000  0.05798000  0.14031000  1.0
  C  C36  1  0.20216000  0.42833000  0.29922000  1.0
  C  C37  1  0.29783000  0.57166000  0.79921000  1.0
  C  C38  1  0.70217000  0.07166000  0.70079000  1.0
  C  C39  1  0.79782000  0.92834000  0.20079000  1.0
  C  C40  1  0.43778000  0.51790000  0.42915000  1.0
  C  C41  1  0.06221000  0.48210000  0.92916000  1.0
  C  C42  1  0.93777000  0.98210000  0.57084000  1.0
  C  C43  1  0.56225000  0.01791000  0.07084000  1.0
  C  C44  1  0.16951000  0.38632000  0.36965000  1.0
  C  C45  1  0.33050000  0.61367000  0.86964000  1.0
  C  C46  1  0.66950000  0.11367000  0.63036000  1.0
  C  C47  1  0.83049000  0.88633000  0.13036000  1.0
  C  C48  1  0.26719000  0.43258000  0.43672000  1.0
  C  C49  1  0.23281000  0.56742000  0.93672000  1.0
  C  C50  1  0.76721000  0.06742000  0.56327000  1.0
  C  C51  1  0.73282000  0.93259000  0.06328000  1.0
  C  C52  1  0.35089000  0.51369000  0.29236000  1.0
  C  C53  1  0.14911000  0.48630000  0.79235000  1.0
  C  C54  1  0.85089000  0.98630000  0.70764000  1.0
  C  C55  1  0.64911000  0.01369000  0.20765000  1.0
  C  C56  1  0.03386000  0.30091000  0.37260000  1.0
  C  C57  1  0.46614000  0.69909000  0.87260000  1.0
  C  C58  1  0.53387000  0.19909000  0.62740000  1.0
  C  C59  1  0.96615000  0.80091000  0.12740000  1.0
  C  C60  1  0.62298000  0.63998000  0.35526000  1.0
  C  C61  1  0.87704000  0.36002000  0.85526000  1.0
  C  C62  1  0.12295000  0.86001000  0.64474000  1.0
  C  C63  1  0.37705000  0.13999000  0.14474000  1.0
  C  C64  1  0.91424000  0.26229000  0.30464000  1.0
  C  C65  1  0.58574000  0.73771000  0.80464000  1.0
  C  C66  1  0.41425000  0.23771000  0.69536000  1.0
  C  C67  1  0.08576000  0.76229000  0.19536000  1.0
  C  C68  1  0.74089000  0.68157000  0.41903000  1.0
  C  C69  1  0.75915000  0.31842000  0.91903000  1.0
  C  C70  1  0.24084000  0.81842000  0.58096000  1.0
  C  C71  1  0.25917000  0.18158000  0.08097000  1.0
  C  C72  1  0.93380000  0.30391000  0.23813000  1.0
  C  C73  1  0.56616000  0.69609000  0.73813000  1.0
  C  C74  1  0.43383000  0.19609000  0.76187000  1.0
  C  C75  1  0.06618000  0.80391000  0.26187000  1.0
  C  C76  1  0.56448000  0.55978000  0.49282000  1.0
  C  C77  1  0.93553000  0.44022000  0.99282000  1.0
  C  C78  1  0.06447000  0.94022000  0.50718000  1.0
  C  C79  1  0.43555000  0.05979000  0.00718000  1.0
  C  C80  1  0.08649000  0.38673000  0.23378000  1.0
  C  C81  1  0.41349000  0.61328000  0.73378000  1.0
  C  C82  1  0.58651000  0.11328000  0.76622000  1.0
  C  C83  1  0.91350000  0.88672000  0.26623000  1.0
  C  C84  1  0.71708000  0.64076000  0.48775000  1.0
  C  C85  1  0.78291000  0.35924000  0.98776000  1.0
  C  C86  1  0.21707000  0.85924000  0.51225000  1.0
  C  C87  1  0.28294000  0.14077000  0.01225000  1.0
  O  O88  1  0.20886000  0.40483000  0.50104000  1.0
  O  O89  1  0.29113000  0.59517000  0.00104000  1.0
  O  O90  1  0.70886000  0.09517000  0.49896000  1.0
  O  O91  1  0.79114000  0.90483000  0.99896000  1.0
  O  O92  1  0.01407000  0.25512000  0.43350000  1.0
  O  O93  1  0.48596000  0.74488000  0.93350000  1.0
  O  O94  1  0.51406000  0.24488000  0.56650000  1.0
  O  O95  1  0.98596000  0.75512000  0.06650000  1.0
  O  O96  1  0.37908000  0.54989000  0.22962000  1.0
  O  O97  1  0.12089000  0.45010000  0.72962000  1.0
  O  O98  1  0.87910000  0.95010000  0.77038000  1.0
  O  O99  1  0.62088000  0.04990000  0.27038000  1.0
  O  O100  1  0.11651000  0.42324000  0.16717000  1.0
  O  O101  1  0.38344000  0.57677000  0.66717000  1.0
  O  O102  1  0.61655000  0.07676000  0.83283000  1.0
  O  O103  1  0.88344000  0.92323000  0.33283000  1.0
