# generated using pymatgen
data_CuH12C10(NO3)2
_symmetry_space_group_name_H-M   'P 1'
_cell_length_a   8.21277000
_cell_length_b   15.17220000
_cell_length_c   27.16880000
_cell_angle_alpha   90.00090000
_cell_angle_beta   90.00120000
_cell_angle_gamma   89.99580000
_symmetry_Int_Tables_number   1
_chemical_formula_structural   CuH12C10(NO3)2
_chemical_formula_sum   'Cu8 H96 C80 N16 O48'
_cell_volume   3385.38974976
_cell_formula_units_Z   8
loop_
 _symmetry_equiv_pos_site_id
 _symmetry_equiv_pos_as_xyz
  1  'x, y, z'
loop_
 _atom_site_type_symbol
 _atom_site_label
 _atom_site_symmetry_multiplicity
 _atom_site_fract_x
 _atom_site_fract_y
 _atom_site_fract_z
 _atom_site_occupancy
  Cu  Cu0  1  0.65729000  0.01409000  0.38024000  1.0
  Cu  Cu1  1  0.34273000  0.48591000  0.88024000  1.0
  Cu  Cu2  1  0.65722000  0.98593000  0.61976000  1.0
  Cu  Cu3  1  0.34275000  0.51408000  0.11977000  1.0
  Cu  Cu4  1  0.50074000  0.14251000  0.33939000  1.0
  Cu  Cu5  1  0.49926000  0.35749000  0.83939000  1.0
  Cu  Cu6  1  0.50071000  0.85751000  0.66061000  1.0
  Cu  Cu7  1  0.49925000  0.64250000  0.16061000  1.0
  H  H8  1  0.12012000  0.36518000  0.43700000  1.0
  H  H9  1  0.87985000  0.13483000  0.93700000  1.0
  H  H10  1  0.12021000  0.63480000  0.56301000  1.0
  H  H11  1  0.87975000  0.86515000  0.06299000  1.0
  H  H12  1  0.90976000  0.34052000  0.43666000  1.0
  H  H13  1  0.09023000  0.15949000  0.93667000  1.0
  H  H14  1  0.90982000  0.65946000  0.56333000  1.0
  H  H15  1  0.09014000  0.84048000  0.06332000  1.0
  H  H16  1  0.00291000  0.18707000  0.43400000  1.0
  H  H17  1  0.99709000  0.31294000  0.93400000  1.0
  H  H18  1  0.00290000  0.81291000  0.56599000  1.0
  H  H19  1  0.99705000  0.68704000  0.06600000  1.0
  H  H20  1  0.19461000  0.21993000  0.41034000  1.0
  H  H21  1  0.80539000  0.28007000  0.91033000  1.0
  H  H22  1  0.19460000  0.78006000  0.58967000  1.0
  H  H23  1  0.80536000  0.71991000  0.08967000  1.0
  H  H24  1  0.09758000  0.17399000  0.33469000  1.0
  H  H25  1  0.90243000  0.32601000  0.83470000  1.0
  H  H26  1  0.09751000  0.82600000  0.66530000  1.0
  H  H27  1  0.90244000  0.67400000  0.16532000  1.0
  H  H28  1  0.36433000  0.84526000  0.16624000  1.0
  H  H29  1  0.63567000  0.65475000  0.66624000  1.0
  H  H30  1  0.36434000  0.15476000  0.83377000  1.0
  H  H31  1  0.63569000  0.34526000  0.33376000  1.0
  H  H32  1  0.52554000  0.88895000  0.13043000  1.0
  H  H33  1  0.47449000  0.61107000  0.63043000  1.0
  H  H34  1  0.52556000  0.11105000  0.86958000  1.0
  H  H35  1  0.47452000  0.38896000  0.36958000  1.0
  H  H36  1  0.37381000  0.96597000  0.22369000  1.0
  H  H37  1  0.62621000  0.53403000  0.72369000  1.0
  H  H38  1  0.37377000  0.03405000  0.77632000  1.0
  H  H39  1  0.62622000  0.46597000  0.27632000  1.0
  H  H40  1  0.45616000  0.02582000  0.17382000  1.0
  H  H41  1  0.54387000  0.47420000  0.67381000  1.0
  H  H42  1  0.45613000  0.97420000  0.82619000  1.0
  H  H43  1  0.54388000  0.52582000  0.32618000  1.0
  H  H44  1  0.72988000  0.01055000  0.20430000  1.0
  H  H45  1  0.27017000  0.48944000  0.70430000  1.0
  H  H46  1  0.72981000  0.98942000  0.79570000  1.0
  H  H47  1  0.27016000  0.51058000  0.29570000  1.0
  H  H48  1  0.12004000  0.72188000  0.34640000  1.0
  H  H49  1  0.87989000  0.77810000  0.84639000  1.0
  H  H50  1  0.11993000  0.27816000  0.65360000  1.0
  H  H51  1  0.88002000  0.22186000  0.15359000  1.0
  H  H52  1  0.94534000  0.77360000  0.37213000  1.0
  H  H53  1  0.05463000  0.72643000  0.87213000  1.0
  H  H54  1  0.94525000  0.22644000  0.62786000  1.0
  H  H55  1  0.05473000  0.27355000  0.12786000  1.0
  H  H56  1  0.30113000  0.82472000  0.38622000  1.0
  H  H57  1  0.69888000  0.67526000  0.88623000  1.0
  H  H58  1  0.30107000  0.17531000  0.61379000  1.0
  H  H59  1  0.69894000  0.32471000  0.11377000  1.0
  H  H60  1  0.13735000  0.84095000  0.42798000  1.0
  H  H61  1  0.86270000  0.65904000  0.92798000  1.0
  H  H62  1  0.13730000  0.15910000  0.57202000  1.0
  H  H63  1  0.86272000  0.34093000  0.07201000  1.0
  H  H64  1  0.06380000  0.97714000  0.39036000  1.0
  H  H65  1  0.93620000  0.52285000  0.89036000  1.0
  H  H66  1  0.06372000  0.02291000  0.60964000  1.0
  H  H67  1  0.93624000  0.47712000  0.10964000  1.0
  H  H68  1  0.83590000  0.72405000  0.44896000  1.0
  H  H69  1  0.16415000  0.77597000  0.94895000  1.0
  H  H70  1  0.83583000  0.27595000  0.55106000  1.0
  H  H71  1  0.16420000  0.22402000  0.05105000  1.0
  H  H72  1  0.87063000  0.79591000  0.49943000  1.0
  H  H73  1  0.12934000  0.70412000  0.99942000  1.0
  H  H74  1  0.87063000  0.20410000  0.50058000  1.0
  H  H75  1  0.12939000  0.29587000  0.00058000  1.0
  H  H76  1  0.66355000  0.70296000  0.53897000  1.0
  H  H77  1  0.33647000  0.79705000  0.03897000  1.0
  H  H78  1  0.66349000  0.29706000  0.46104000  1.0
  H  H79  1  0.33652000  0.20292000  0.96102000  1.0
  H  H80  1  0.57759000  0.67557000  0.48099000  1.0
  H  H81  1  0.42244000  0.82443000  0.98100000  1.0
  H  H82  1  0.57752000  0.32443000  0.51902000  1.0
  H  H83  1  0.42251000  0.17555000  0.01899000  1.0
  H  H84  1  0.38194000  0.78275000  0.50478000  1.0
  H  H85  1  0.61804000  0.71723000  0.00479000  1.0
  H  H86  1  0.38193000  0.21725000  0.49522000  1.0
  H  H87  1  0.61808000  0.28275000  0.99521000  1.0
  H  H88  1  0.98451000  0.30996000  0.29595000  1.0
  H  H89  1  0.01551000  0.19004000  0.79595000  1.0
  H  H90  1  0.98447000  0.69003000  0.70405000  1.0
  H  H91  1  0.01555000  0.80999000  0.20404000  1.0
  H  H92  1  0.78692000  0.85784000  0.24649000  1.0
  H  H93  1  0.21310000  0.64215000  0.74649000  1.0
  H  H94  1  0.78689000  0.14214000  0.75352000  1.0
  H  H95  1  0.21313000  0.35784000  0.25352000  1.0
  H  H96  1  0.06826000  0.97425000  0.29564000  1.0
  H  H97  1  0.93180000  0.52573000  0.79565000  1.0
  H  H98  1  0.06822000  0.02579000  0.70436000  1.0
  H  H99  1  0.93179000  0.47422000  0.20436000  1.0
  H  H100  1  0.47673000  0.90700000  0.44914000  1.0
  H  H101  1  0.52325000  0.59298000  0.94914000  1.0
  H  H102  1  0.47672000  0.09300000  0.55087000  1.0
  H  H103  1  0.52327000  0.40700000  0.05085000  1.0
  C  C104  1  0.00621000  0.36886000  0.36516000  1.0
  C  C105  1  0.99381000  0.13114000  0.86517000  1.0
  C  C106  1  0.00622000  0.63113000  0.63484000  1.0
  C  C107  1  0.99378000  0.86886000  0.13482000  1.0
  C  C108  1  0.02479000  0.32970000  0.41682000  1.0
  C  C109  1  0.97522000  0.17031000  0.91683000  1.0
  C  C110  1  0.02484000  0.67028000  0.58318000  1.0
  C  C111  1  0.97513000  0.82968000  0.08316000  1.0
  C  C112  1  0.06327000  0.23212000  0.40819000  1.0
  C  C113  1  0.93674000  0.26789000  0.90819000  1.0
  C  C114  1  0.06326000  0.76787000  0.59181000  1.0
  C  C115  1  0.93668000  0.73209000  0.09182000  1.0
  C  C116  1  0.00681000  0.21381000  0.35439000  1.0
  C  C117  1  0.99320000  0.28620000  0.85440000  1.0
  C  C118  1  0.00677000  0.78619000  0.64560000  1.0
  C  C119  1  0.99319000  0.71381000  0.14561000  1.0
  C  C120  1  0.84660000  0.16146000  0.35466000  1.0
  C  C121  1  0.15339000  0.33855000  0.85466000  1.0
  C  C122  1  0.84655000  0.83854000  0.64533000  1.0
  C  C123  1  0.15339000  0.66146000  0.14534000  1.0
  C  C124  1  0.60687000  0.82625000  0.19591000  1.0
  C  C125  1  0.39314000  0.67375000  0.69591000  1.0
  C  C126  1  0.60687000  0.17373000  0.80410000  1.0
  C  C127  1  0.39315000  0.32627000  0.30410000  1.0
  C  C128  1  0.48063000  0.88039000  0.16837000  1.0
  C  C129  1  0.51939000  0.61962000  0.66836000  1.0
  C  C130  1  0.48063000  0.11961000  0.83165000  1.0
  C  C131  1  0.51940000  0.38040000  0.33164000  1.0
  C  C132  1  0.47404000  0.96752000  0.19691000  1.0
  C  C133  1  0.52598000  0.53248000  0.69690000  1.0
  C  C134  1  0.47403000  0.03248000  0.80310000  1.0
  C  C135  1  0.52598000  0.46753000  0.30310000  1.0
  C  C136  1  0.63929000  0.97097000  0.22468000  1.0
  C  C137  1  0.36074000  0.52903000  0.72468000  1.0
  C  C138  1  0.63925000  0.02902000  0.77532000  1.0
  C  C139  1  0.36074000  0.47098000  0.27532000  1.0
  C  C140  1  0.62202000  0.01216000  0.27576000  1.0
  C  C141  1  0.37801000  0.48785000  0.77575000  1.0
  C  C142  1  0.62197000  0.98785000  0.72424000  1.0
  C  C143  1  0.37801000  0.51215000  0.22425000  1.0
  C  C144  1  0.03756000  0.84054000  0.31027000  1.0
  C  C145  1  0.96246000  0.65945000  0.81028000  1.0
  C  C146  1  0.03748000  0.15951000  0.68972000  1.0
  C  C147  1  0.96253000  0.34051000  0.18972000  1.0
  C  C148  1  0.06608000  0.78569000  0.35601000  1.0
  C  C149  1  0.93388000  0.71430000  0.85601000  1.0
  C  C150  1  0.06601000  0.21435000  0.64398000  1.0
  C  C151  1  0.93399000  0.28567000  0.14398000  1.0
  C  C152  1  0.17273000  0.84389000  0.38911000  1.0
  C  C153  1  0.82729000  0.65611000  0.88911000  1.0
  C  C154  1  0.17266000  0.15615000  0.61089000  1.0
  C  C155  1  0.82733000  0.34387000  0.11088000  1.0
  C  C156  1  0.15177000  0.93828000  0.36864000  1.0
  C  C157  1  0.84824000  0.56170000  0.86865000  1.0
  C  C158  1  0.15171000  0.06175000  0.63135000  1.0
  C  C159  1  0.84827000  0.43826000  0.13135000  1.0
  C  C160  1  0.30847000  0.99324000  0.36598000  1.0
  C  C161  1  0.69154000  0.50676000  0.86598000  1.0
  C  C162  1  0.30840000  0.00679000  0.63401000  1.0
  C  C163  1  0.69157000  0.49321000  0.13401000  1.0
  C  C164  1  0.70207000  0.84709000  0.44689000  1.0
  C  C165  1  0.29794000  0.65291000  0.94689000  1.0
  C  C166  1  0.70206000  0.15291000  0.55312000  1.0
  C  C167  1  0.29798000  0.34709000  0.05311000  1.0
  C  C168  1  0.77663000  0.76976000  0.47461000  1.0
  C  C169  1  0.22338000  0.73025000  0.97461000  1.0
  C  C170  1  0.77661000  0.23024000  0.52540000  1.0
  C  C171  1  0.22341000  0.26974000  0.02539000  1.0
  C  C172  1  0.63253000  0.72910000  0.50254000  1.0
  C  C173  1  0.36749000  0.77090000  0.00255000  1.0
  C  C174  1  0.63248000  0.27090000  0.49747000  1.0
  C  C175  1  0.36754000  0.22909000  0.99745000  1.0
  C  C176  1  0.50844000  0.80608000  0.50615000  1.0
  C  C177  1  0.49154000  0.69391000  0.00616000  1.0
  C  C178  1  0.50843000  0.19393000  0.49386000  1.0
  C  C179  1  0.49158000  0.30607000  0.99384000  1.0
  C  C180  1  0.53229000  0.85489000  0.55540000  1.0
  C  C181  1  0.46766000  0.64511000  0.05541000  1.0
  C  C182  1  0.53233000  0.14512000  0.44460000  1.0
  C  C183  1  0.46767000  0.35487000  0.94459000  1.0
  N  N184  1  0.99282000  0.30046000  0.33322000  1.0
  N  N185  1  0.00721000  0.19955000  0.83323000  1.0
  N  N186  1  0.99277000  0.69954000  0.66677000  1.0
  N  N187  1  0.00719000  0.80047000  0.16676000  1.0
  N  N188  1  0.68832000  0.87964000  0.22656000  1.0
  N  N189  1  0.31169000  0.62035000  0.72656000  1.0
  N  N190  1  0.68831000  0.12033000  0.77345000  1.0
  N  N191  1  0.31170000  0.37966000  0.27345000  1.0
  N  N192  1  0.08674000  0.92366000  0.31946000  1.0
  N  N193  1  0.91327000  0.57632000  0.81947000  1.0
  N  N194  1  0.08671000  0.07638000  0.68054000  1.0
  N  N195  1  0.91331000  0.42363000  0.18053000  1.0
  N  N196  1  0.54907000  0.85867000  0.46372000  1.0
  N  N197  1  0.45091000  0.64130000  0.96372000  1.0
  N  N198  1  0.54906000  0.14133000  0.53629000  1.0
  N  N199  1  0.45095000  0.35867000  0.03627000  1.0
  O  O200  1  0.86075000  0.07981000  0.36497000  1.0
  O  O201  1  0.13924000  0.42020000  0.86497000  1.0
  O  O202  1  0.86071000  0.92019000  0.63502000  1.0
  O  O203  1  0.13925000  0.57981000  0.13504000  1.0
  O  O204  1  0.71560000  0.20310000  0.34650000  1.0
  O  O205  1  0.28439000  0.29692000  0.84648000  1.0
  O  O206  1  0.71557000  0.79691000  0.65350000  1.0
  O  O207  1  0.28438000  0.70309000  0.15351000  1.0
  O  O208  1  0.00325000  0.44807000  0.35440000  1.0
  O  O209  1  0.99679000  0.05193000  0.85440000  1.0
  O  O210  1  0.00326000  0.55192000  0.64561000  1.0
  O  O211  1  0.99677000  0.94808000  0.14558000  1.0
  O  O212  1  0.65572000  0.96391000  0.31269000  1.0
  O  O213  1  0.34428000  0.53610000  0.81268000  1.0
  O  O214  1  0.65571000  0.03611000  0.68731000  1.0
  O  O215  1  0.34430000  0.46389000  0.18732000  1.0
  O  O216  1  0.57313000  0.09157000  0.27594000  1.0
  O  O217  1  0.42692000  0.40844000  0.77595000  1.0
  O  O218  1  0.57305000  0.90844000  0.72405000  1.0
  O  O219  1  0.42691000  0.59156000  0.22405000  1.0
  O  O220  1  0.63814000  0.74613000  0.19102000  1.0
  O  O221  1  0.36185000  0.75387000  0.69102000  1.0
  O  O222  1  0.63813000  0.25385000  0.80898000  1.0
  O  O223  1  0.36185000  0.24615000  0.30898000  1.0
  O  O224  1  0.30645000  0.05932000  0.33760000  1.0
  O  O225  1  0.69356000  0.44067000  0.83760000  1.0
  O  O226  1  0.30639000  0.94070000  0.66239000  1.0
  O  O227  1  0.69357000  0.55930000  0.16239000  1.0
  O  O228  1  0.42775000  0.96869000  0.39269000  1.0
  O  O229  1  0.57225000  0.53132000  0.89268000  1.0
  O  O230  1  0.42770000  0.03136000  0.60732000  1.0
  O  O231  1  0.57228000  0.46865000  0.10731000  1.0
  O  O232  1  0.97575000  0.81392000  0.27114000  1.0
  O  O233  1  0.02428000  0.68607000  0.77115000  1.0
  O  O234  1  0.97566000  0.18612000  0.72885000  1.0
  O  O235  1  0.02435000  0.31390000  0.22885000  1.0
  O  O236  1  0.63478000  0.91738000  0.55656000  1.0
  O  O237  1  0.36516000  0.58263000  0.05657000  1.0
  O  O238  1  0.63486000  0.08265000  0.44344000  1.0
  O  O239  1  0.36514000  0.41735000  0.94343000  1.0
  O  O240  1  0.44976000  0.82366000  0.59091000  1.0
  O  O241  1  0.55018000  0.67634000  0.09092000  1.0
  O  O242  1  0.44978000  0.17636000  0.40909000  1.0
  O  O243  1  0.55020000  0.32365000  0.90907000  1.0
  O  O244  1  0.77049000  0.89196000  0.41448000  1.0
  O  O245  1  0.22953000  0.60805000  0.91447000  1.0
  O  O246  1  0.77046000  0.10804000  0.58554000  1.0
  O  O247  1  0.22959000  0.39196000  0.08553000  1.0
