# generated using pymatgen
data_ZnH14C34(NO8)2
_symmetry_space_group_name_H-M   'P 1'
_cell_length_a   14.73680000
_cell_length_b   16.12090000
_cell_length_c   28.08770000
_cell_angle_alpha   90.50660000
_cell_angle_beta   90.03920000
_cell_angle_gamma   90.56100000
_symmetry_Int_Tables_number   1
_chemical_formula_structural   ZnH14C34(NO8)2
_chemical_formula_sum   'Zn2 H28 C68 N4 O32'
_cell_volume   6672.22568788
_cell_formula_units_Z   2
loop_
 _symmetry_equiv_pos_site_id
 _symmetry_equiv_pos_as_xyz
  1  'x, y, z'
loop_
 _atom_site_type_symbol
 _atom_site_label
 _atom_site_symmetry_multiplicity
 _atom_site_fract_x
 _atom_site_fract_y
 _atom_site_fract_z
 _atom_site_occupancy
  Zn  Zn0  1  0.59416000  0.50005000  0.49994000  1.0
  Zn  Zn1  1  0.40346000  0.49749000  0.49977000  1.0
  H  H2  1  0.35558000  0.04701000  0.46776000  1.0
  H  H3  1  0.47686000  0.29071000  0.12199000  1.0
  H  H4  1  0.60832000  0.68434000  0.96535000  1.0
  H  H5  1  0.46110000  0.29017000  0.03422000  1.0
  H  H6  1  0.37708000  0.94817000  0.55083000  1.0
  H  H7  1  0.62281000  0.04996000  0.44935000  1.0
  H  H8  1  0.31049000  0.58219000  0.32645000  1.0
  H  H9  1  0.30382000  0.56399000  0.67286000  1.0
  H  H10  1  0.53266000  0.14457000  0.63819000  1.0
  H  H11  1  0.47130000  0.85429000  0.36144000  1.0
  H  H12  1  0.01844000  0.56821000  0.60827000  1.0
  H  H13  1  0.64429000  0.95127000  0.53235000  1.0
  H  H14  1  0.97505000  0.42600000  0.39268000  1.0
  H  H15  1  0.97667000  0.36521000  0.58460000  1.0
  H  H16  1  0.01947000  0.63565000  0.41654000  1.0
  H  H17  1  0.24117000  0.60975000  0.24595000  1.0
  H  H18  1  0.22694000  0.57530000  0.75279000  1.0
  H  H19  1  0.72785000  0.38847000  0.79176000  1.0
  H  H20  1  0.74989000  0.44392000  0.20697000  1.0
  H  H21  1  0.55045000  0.76400000  0.05389000  1.0
  H  H22  1  0.36164000  0.25851000  0.94566000  1.0
  H  H23  1  0.93746000  0.63951000  0.51642000  1.0
  H  H24  1  0.06022000  0.36031000  0.48383000  1.0
  H  H25  1  0.54168000  0.70301000  0.12262000  1.0
  H  H26  1  0.39542000  0.31200000  0.87694000  1.0
  H  H27  1  0.63687000  0.45513000  0.64886000  1.0
  H  H28  1  0.63614000  0.45811000  0.35074000  1.0
  H  H29  1  0.62142000  0.67497000  0.87763000  1.0
  C  C30  1  0.50060000  0.66039000  0.50099000  1.0
  C  C31  1  0.55058000  0.55896000  0.87281000  1.0
  C  C32  1  0.50040000  0.50206000  0.35337000  1.0
  C  C33  1  0.50171000  0.50048000  0.64635000  1.0
  C  C34  1  0.53956000  0.56681000  0.97369000  1.0
  C  C35  1  0.48514000  0.42130000  0.02589000  1.0
  C  C36  1  0.47345000  0.42333000  0.97431000  1.0
  C  C37  1  0.52886000  0.57163000  0.02528000  1.0
  C  C38  1  0.50725000  0.49399000  0.94900000  1.0
  C  C39  1  0.50829000  0.49693000  0.05060000  1.0
  C  C40  1  0.58105000  0.63012000  0.94708000  1.0
  C  C41  1  0.49108000  0.33741000  0.49887000  1.0
  C  C42  1  0.47561000  0.34827000  0.05251000  1.0
  C  C43  1  0.58824000  0.62564000  0.89763000  1.0
  C  C44  1  0.48382000  0.34805000  0.10199000  1.0
  C  C45  1  0.50067000  0.49994000  0.40710000  1.0
  C  C46  1  0.50305000  0.50038000  0.59259000  1.0
  C  C47  1  0.53793000  0.64568000  0.05236000  1.0
  C  C48  1  0.43104000  0.35954000  0.94717000  1.0
  C  C49  1  0.51132000  0.02900000  0.54532000  1.0
  C  C50  1  0.48837000  0.96918000  0.45481000  1.0
  C  C51  1  0.43130000  0.97112000  0.52780000  1.0
  C  C52  1  0.50994000  0.49662000  0.10152000  1.0
  C  C53  1  0.56852000  0.02706000  0.47235000  1.0
  C  C54  1  0.50033000  0.75005000  0.50200000  1.0
  C  C55  1  0.49470000  0.24787000  0.49794000  1.0
  C  C56  1  0.58025000  0.97281000  0.51750000  1.0
  C  C57  1  0.41953000  0.02527000  0.48262000  1.0
  C  C58  1  0.50050000  0.91321000  0.50075000  1.0
  C  C59  1  0.49919000  0.08487000  0.49939000  1.0
  C  C60  1  0.50052000  0.82554000  0.50161000  1.0
  C  C61  1  0.49773000  0.17248000  0.49848000  1.0
  C  C62  1  0.96577000  0.57824000  0.50926000  1.0
  C  C63  1  0.50907000  0.49329000  0.89807000  1.0
  C  C64  1  0.03172000  0.42149000  0.49099000  1.0
  C  C65  1  0.02835000  0.52757000  0.54358000  1.0
  C  C66  1  0.96898000  0.47208000  0.45668000  1.0
  C  C67  1  0.02851000  0.55384000  0.46617000  1.0
  C  C68  1  0.96892000  0.44591000  0.53408000  1.0
  C  C69  1  0.52270000  0.57502000  0.17925000  1.0
  C  C70  1  0.46635000  0.42449000  0.82021000  1.0
  C  C71  1  0.09118000  0.50209000  0.50037000  1.0
  C  C72  1  0.90633000  0.49773000  0.49993000  1.0
  C  C73  1  0.18691000  0.50349000  0.50056000  1.0
  C  C74  1  0.52304000  0.57214000  0.12675000  1.0
  C  C75  1  0.81064000  0.49571000  0.49962000  1.0
  C  C76  1  0.50078000  0.42099000  0.17927000  1.0
  C  C77  1  0.55442000  0.55776000  0.82042000  1.0
  C  C78  1  0.58579000  0.47655000  0.27980000  1.0
  C  C79  1  0.58289000  0.46627000  0.71971000  1.0
  C  C80  1  0.57804000  0.47718000  0.32966000  1.0
  C  C81  1  0.57814000  0.47306000  0.66993000  1.0
  C  C82  1  0.42545000  0.52976000  0.32629000  1.0
  C  C83  1  0.42526000  0.52522000  0.67347000  1.0
  C  C84  1  0.42955000  0.52607000  0.27545000  1.0
  C  C85  1  0.46867000  0.42624000  0.87276000  1.0
  C  C86  1  0.42910000  0.52205000  0.72434000  1.0
  C  C87  1  0.51010000  0.49962000  0.25306000  1.0
  C  C88  1  0.50813000  0.49202000  0.74653000  1.0
  C  C89  1  0.52413000  0.05274000  0.59611000  1.0
  C  C90  1  0.47563000  0.94569000  0.40398000  1.0
  C  C91  1  0.35068000  0.54772000  0.24545000  1.0
  C  C92  1  0.35330000  0.55154000  0.75446000  1.0
  C  C93  1  0.66919000  0.43293000  0.73870000  1.0
  C  C94  1  0.67566000  0.45138000  0.26086000  1.0
  C  C95  1  0.53427000  0.64533000  0.10218000  1.0
  C  C96  1  0.42837000  0.36190000  0.89735000  1.0
  C  C97  1  0.49826000  0.42179000  0.12683000  1.0
  N  N98  1  0.51311000  0.49863000  0.20199000  1.0
  N  N99  1  0.51109000  0.49002000  0.79760000  1.0
  N  N100  1  0.26561000  0.50310000  0.50060000  1.0
  N  N101  1  0.73193000  0.49512000  0.49935000  1.0
  O  O102  1  0.57826000  0.62640000  0.49979000  1.0
  O  O103  1  0.42750000  0.36950000  0.79689000  1.0
  O  O104  1  0.59220000  0.61180000  0.79670000  1.0
  O  O105  1  0.49243000  0.35771000  0.20307000  1.0
  O  O106  1  0.35305000  0.55874000  0.34974000  1.0
  O  O107  1  0.35331000  0.55404000  0.64995000  1.0
  O  O108  1  0.53383000  0.00203000  0.62780000  1.0
  O  O109  1  0.52394000  0.13609000  0.60385000  1.0
  O  O110  1  0.46262000  0.99636000  0.37262000  1.0
  O  O111  1  0.48014000  0.86256000  0.39578000  1.0
  O  O112  1  0.06632000  0.55289000  0.58596000  1.0
  O  O113  1  0.41259000  0.36948000  0.49837000  1.0
  O  O114  1  0.92947000  0.44681000  0.41480000  1.0
  O  O115  1  0.92996000  0.39515000  0.56734000  1.0
  O  O116  1  0.06690000  0.60501000  0.43283000  1.0
  O  O117  1  0.33291000  0.52362000  0.20524000  1.0
  O  O118  1  0.29159000  0.60205000  0.26820000  1.0
  O  O119  1  0.35535000  0.57388000  0.79601000  1.0
  O  O120  1  0.27091000  0.55262000  0.73012000  1.0
  O  O121  1  0.73801000  0.42463000  0.71476000  1.0
  O  O122  1  0.66690000  0.40942000  0.78534000  1.0
  O  O123  1  0.73640000  0.42351000  0.28563000  1.0
  O  O124  1  0.42338000  0.62434000  0.50120000  1.0
  O  O125  1  0.68815000  0.46328000  0.21315000  1.0
  O  O126  1  0.54984000  0.72010000  0.02981000  1.0
  O  O127  1  0.39056000  0.29380000  0.96971000  1.0
  O  O128  1  0.56741000  0.37531000  0.50034000  1.0
  O  O129  1  0.57849000  0.50141000  0.42675000  1.0
  O  O130  1  0.42748000  0.49344000  0.57126000  1.0
  O  O131  1  0.42455000  0.49541000  0.42799000  1.0
  O  O132  1  0.58104000  0.50505000  0.57336000  1.0
  O  O133  1  0.52982000  0.64015000  0.20244000  1.0
