# generated using pymatgen
data_ZnH4C6(N3O2)2
_symmetry_space_group_name_H-M   'P 1'
_cell_length_a   11.17800000
_cell_length_b   17.61750000
_cell_length_c   17.61750000
_cell_angle_alpha   78.80080000
_cell_angle_beta   71.51590000
_cell_angle_gamma   71.51580000
_symmetry_Int_Tables_number   1
_chemical_formula_structural   ZnH4C6(N3O2)2
_chemical_formula_sum   'Zn10 H40 C60 N60 O40'
_cell_volume   3103.67818244
_cell_formula_units_Z   10
loop_
 _symmetry_equiv_pos_site_id
 _symmetry_equiv_pos_as_xyz
  1  'x, y, z'
loop_
 _atom_site_type_symbol
 _atom_site_label
 _atom_site_symmetry_multiplicity
 _atom_site_fract_x
 _atom_site_fract_y
 _atom_site_fract_z
 _atom_site_occupancy
  Zn  Zn0  1  0.65461000  0.32274000  0.92824000  1.0
  Zn  Zn1  1  0.09449000  0.92822000  0.32268000  1.0
  Zn  Zn2  1  0.84539000  0.57176000  0.17726000  1.0
  Zn  Zn3  1  0.40551000  0.17732000  0.57178000  1.0
  Zn  Zn4  1  0.34539000  0.67727000  0.07176000  1.0
  Zn  Zn5  1  0.90550000  0.07179000  0.67732000  1.0
  Zn  Zn6  1  0.15461000  0.42824000  0.82274000  1.0
  Zn  Zn7  1  0.59450000  0.82268000  0.42822000  1.0
  Zn  Zn8  1  0.75000000  0.24999000  0.25001000  1.0
  Zn  Zn9  1  0.25000000  0.75001000  0.74999000  1.0
  H  H10  1  0.74443000  0.10311000  0.16337000  1.0
  H  H11  1  0.68708000  0.13716000  0.01552000  1.0
  H  H12  1  0.87548000  0.34277000  0.76836000  1.0
  H  H13  1  0.88124000  0.55290000  0.83099000  1.0
  H  H14  1  0.64951000  0.50568000  0.88335000  1.0
  H  H15  1  0.98885000  0.16338000  0.10311000  1.0
  H  H16  1  0.16004000  0.01555000  0.13713000  1.0
  H  H17  1  0.01346000  0.76822000  0.34266000  1.0
  H  H18  1  0.73513000  0.83097000  0.55300000  1.0
  H  H19  1  0.96173000  0.88333000  0.50567000  1.0
  H  H20  1  0.75557000  0.33664000  0.39689000  1.0
  H  H21  1  0.81292000  0.48449000  0.36284000  1.0
  H  H22  1  0.62453000  0.73165000  0.15722000  1.0
  H  H23  1  0.61876000  0.66901000  0.94710000  1.0
  H  H24  1  0.85049000  0.61665000  0.99432000  1.0
  H  H25  1  0.51115000  0.39689000  0.33662000  1.0
  H  H26  1  0.33996000  0.36288000  0.48445000  1.0
  H  H27  1  0.48654000  0.15734000  0.73179000  1.0
  H  H28  1  0.76488000  0.94700000  0.66903000  1.0
  H  H29  1  0.53827000  0.99433000  0.61667000  1.0
  H  H30  1  0.25557000  0.89689000  0.83663000  1.0
  H  H31  1  0.31292000  0.86284000  0.98448000  1.0
  H  H32  1  0.12453000  0.65722000  0.23165000  1.0
  H  H33  1  0.11876000  0.44710000  0.16901000  1.0
  H  H34  1  0.35049000  0.49432000  0.11665000  1.0
  H  H35  1  0.01115000  0.83662000  0.89689000  1.0
  H  H36  1  0.83996000  0.98445000  0.86287000  1.0
  H  H37  1  0.98655000  0.23178000  0.65735000  1.0
  H  H38  1  0.26487000  0.16903000  0.44700000  1.0
  H  H39  1  0.03827000  0.11667000  0.49433000  1.0
  H  H40  1  0.24443000  0.66336000  0.60312000  1.0
  H  H41  1  0.18708000  0.51551000  0.63716000  1.0
  H  H42  1  0.37547000  0.26835000  0.84278000  1.0
  H  H43  1  0.38124000  0.33099000  0.05291000  1.0
  H  H44  1  0.14951000  0.38334000  0.00568000  1.0
  H  H45  1  0.48885000  0.60311000  0.66338000  1.0
  H  H46  1  0.66004000  0.63713000  0.51555000  1.0
  H  H47  1  0.51346000  0.84266000  0.26821000  1.0
  H  H48  1  0.23512000  0.05300000  0.33097000  1.0
  H  H49  1  0.46173000  0.00567000  0.38333000  1.0
  C  C50  1  0.71034000  0.16075000  0.13042000  1.0
  C  C51  1  0.68170000  0.17776000  0.05621000  1.0
  C  C52  1  0.64683000  0.28862000  0.10295000  1.0
  C  C53  1  0.85343000  0.28692000  0.76931000  1.0
  C  C54  1  0.90805000  0.37042000  0.90431000  1.0
  C  C55  1  0.86442000  0.49519000  0.85829000  1.0
  C  C56  1  0.74904000  0.47163000  0.88351000  1.0
  C  C57  1  0.99830000  0.13044000  0.16075000  1.0
  C  C58  1  0.08422000  0.05626000  0.17774000  1.0
  C  C59  1  0.96154000  0.10293000  0.28861000  1.0
  C  C60  1  0.09041000  0.76921000  0.28683000  1.0
  C  C61  1  0.81732000  0.90422000  0.37048000  1.0
  C  C62  1  0.78233000  0.85823000  0.49525000  1.0
  C  C63  1  0.89607000  0.88344000  0.47163000  1.0
  C  C64  1  0.78965000  0.36958000  0.33925000  1.0
  C  C65  1  0.81830000  0.44379000  0.32225000  1.0
  C  C66  1  0.85317000  0.39705000  0.21138000  1.0
  C  C67  1  0.64658000  0.73070000  0.21308000  1.0
  C  C68  1  0.59195000  0.59569000  0.12957000  1.0
  C  C69  1  0.63558000  0.64171000  0.00481000  1.0
  C  C70  1  0.75096000  0.61649000  0.02837000  1.0
  C  C71  1  0.50170000  0.33926000  0.36956000  1.0
  C  C72  1  0.41578000  0.32226000  0.44374000  1.0
  C  C73  1  0.53846000  0.21139000  0.39707000  1.0
  C  C74  1  0.40959000  0.21317000  0.73079000  1.0
  C  C75  1  0.68268000  0.12952000  0.59578000  1.0
  C  C76  1  0.71767000  0.00475000  0.64177000  1.0
  C  C77  1  0.60393000  0.02836000  0.61656000  1.0
  C  C78  1  0.28965000  0.83925000  0.86958000  1.0
  C  C79  1  0.31829000  0.82225000  0.94379000  1.0
  C  C80  1  0.35317000  0.71138000  0.89705000  1.0
  C  C81  1  0.14658000  0.71308000  0.23070000  1.0
  C  C82  1  0.09195000  0.62958000  0.09569000  1.0
  C  C83  1  0.13558000  0.50481000  0.14171000  1.0
  C  C84  1  0.25096000  0.52837000  0.11649000  1.0
  C  C85  1  0.00170000  0.86956000  0.83925000  1.0
  C  C86  1  0.91578000  0.94374000  0.82226000  1.0
  C  C87  1  0.03846000  0.89707000  0.71139000  1.0
  C  C88  1  0.90960000  0.23079000  0.71318000  1.0
  C  C89  1  0.18269000  0.09578000  0.62952000  1.0
  C  C90  1  0.21767000  0.14177000  0.50475000  1.0
  C  C91  1  0.10392000  0.11657000  0.52837000  1.0
  C  C92  1  0.21034000  0.63042000  0.66075000  1.0
  C  C93  1  0.18170000  0.55621000  0.67776000  1.0
  C  C94  1  0.14683000  0.60295000  0.78862000  1.0
  C  C95  1  0.35342000  0.26930000  0.78692000  1.0
  C  C96  1  0.40805000  0.40431000  0.87043000  1.0
  C  C97  1  0.36442000  0.35829000  0.99519000  1.0
  C  C98  1  0.24904000  0.38350000  0.97163000  1.0
  C  C99  1  0.49830000  0.66074000  0.63044000  1.0
  C  C100  1  0.58422000  0.67774000  0.55626000  1.0
  C  C101  1  0.46154000  0.78861000  0.60293000  1.0
  C  C102  1  0.59041000  0.78683000  0.26921000  1.0
  C  C103  1  0.31732000  0.87048000  0.40422000  1.0
  C  C104  1  0.28232000  0.99525000  0.35823000  1.0
  C  C105  1  0.39608000  0.97163000  0.38343000  1.0
  C  C106  1  0.75636000  0.19335000  0.80669000  1.0
  C  C107  1  0.24364000  0.80665000  0.19332000  1.0
  C  C108  1  0.74364000  0.69332000  0.30665000  1.0
  C  C109  1  0.25636000  0.30668000  0.69335000  1.0
  N  N110  1  0.68862000  0.23170000  0.15909000  1.0
  N  N111  1  0.64191000  0.25903000  0.03906000  1.0
  N  N112  1  0.60335000  0.37166000  0.11321000  1.0
  N  N113  1  0.75686000  0.26249000  0.82881000  1.0
  N  N114  1  0.77774000  0.39214000  0.91194000  1.0
  N  N115  1  0.96456000  0.43077000  0.87176000  1.0
  N  N116  1  0.97993000  0.29213000  0.92947000  1.0
  N  N117  1  0.92046000  0.15907000  0.23171000  1.0
  N  N118  1  0.05995000  0.03907000  0.25900000  1.0
  N  N119  1  0.91179000  0.11317000  0.37166000  1.0
  N  N120  1  0.15187000  0.82874000  0.26244000  1.0
  N  N121  1  0.91835000  0.91184000  0.39214000  1.0
  N  N122  1  0.73305000  0.87167000  0.43085000  1.0
  N  N123  1  0.79855000  0.92941000  0.29219000  1.0
  N  N124  1  0.81137000  0.34091000  0.26830000  1.0
  N  N125  1  0.85809000  0.46095000  0.24098000  1.0
  N  N126  1  0.89665000  0.38680000  0.12834000  1.0
  N  N127  1  0.74314000  0.67119000  0.23751000  1.0
  N  N128  1  0.72225000  0.58806000  0.10786000  1.0
  N  N129  1  0.53544000  0.62825000  0.06923000  1.0
  N  N130  1  0.52007000  0.57053000  0.20787000  1.0
  N  N131  1  0.57954000  0.26829000  0.34093000  1.0
  N  N132  1  0.44005000  0.24100000  0.46093000  1.0
  N  N133  1  0.58821000  0.12834000  0.38683000  1.0
  N  N134  1  0.34813000  0.23755000  0.67126000  1.0
  N  N135  1  0.58165000  0.10786000  0.58816000  1.0
  N  N136  1  0.76695000  0.06915000  0.62833000  1.0
  N  N137  1  0.70145000  0.20781000  0.57060000  1.0
  N  N138  1  0.31138000  0.76830000  0.84090000  1.0
  N  N139  1  0.35809000  0.74097000  0.96094000  1.0
  N  N140  1  0.39665000  0.62834000  0.88679000  1.0
  N  N141  1  0.24314000  0.73751000  0.17119000  1.0
  N  N142  1  0.22225000  0.60786000  0.08806000  1.0
  N  N143  1  0.03544000  0.56923000  0.12825000  1.0
  N  N144  1  0.02007000  0.70787000  0.07053000  1.0
  N  N145  1  0.07954000  0.84093000  0.76829000  1.0
  N  N146  1  0.94005000  0.96093000  0.74100000  1.0
  N  N147  1  0.08821000  0.88683000  0.62834000  1.0
  N  N148  1  0.84814000  0.17126000  0.73756000  1.0
  N  N149  1  0.08165000  0.08816000  0.60786000  1.0
  N  N150  1  0.26695000  0.12833000  0.56915000  1.0
  N  N151  1  0.20145000  0.07059000  0.70781000  1.0
  N  N152  1  0.18862000  0.65909000  0.73170000  1.0
  N  N153  1  0.14191000  0.53905000  0.75903000  1.0
  N  N154  1  0.10335000  0.61320000  0.87166000  1.0
  N  N155  1  0.25686000  0.32881000  0.76249000  1.0
  N  N156  1  0.27774000  0.41194000  0.89214000  1.0
  N  N157  1  0.46456000  0.37175000  0.93077000  1.0
  N  N158  1  0.47993000  0.42947000  0.79213000  1.0
  N  N159  1  0.42046000  0.73171000  0.65907000  1.0
  N  N160  1  0.55995000  0.75900000  0.53907000  1.0
  N  N161  1  0.41179000  0.87166000  0.61317000  1.0
  N  N162  1  0.65187000  0.76245000  0.32874000  1.0
  N  N163  1  0.41835000  0.89214000  0.41184000  1.0
  N  N164  1  0.23305000  0.93085000  0.37167000  1.0
  N  N165  1  0.29855000  0.79219000  0.42940000  1.0
  N  N166  1  0.66100000  0.15164000  0.84835000  1.0
  N  N167  1  0.33900000  0.84836000  0.15165000  1.0
  N  N168  1  0.83900000  0.65166000  0.34836000  1.0
  N  N169  1  0.16100000  0.34834000  0.65165000  1.0
  O  O170  1  0.60853000  0.39234000  0.17600000  1.0
  O  O171  1  0.55961000  0.42013000  0.05996000  1.0
  O  O172  1  0.92197000  0.23832000  0.95273000  1.0
  O  O173  1  0.57626000  0.17928000  0.90978000  1.0
  O  O174  1  0.09659000  0.28216000  0.92702000  1.0
  O  O175  1  0.82316000  0.17595000  0.39235000  1.0
  O  O176  1  0.96031000  0.05991000  0.42012000  1.0
  O  O177  1  0.88702000  0.95271000  0.23841000  1.0
  O  O178  1  0.33468000  0.90973000  0.17941000  1.0
  O  O179  1  0.69434000  0.92694000  0.28218000  1.0
  O  O180  1  0.89147000  0.32400000  0.10766000  1.0
  O  O181  1  0.94039000  0.44005000  0.07987000  1.0
  O  O182  1  0.57803000  0.54727000  0.26169000  1.0
  O  O183  1  0.92374000  0.59022000  0.32072000  1.0
  O  O184  1  0.40341000  0.57299000  0.21784000  1.0
  O  O185  1  0.67684000  0.10765000  0.32405000  1.0
  O  O186  1  0.53969000  0.07988000  0.44010000  1.0
  O  O187  1  0.61299000  0.26159000  0.54729000  1.0
  O  O188  1  0.16533000  0.32059000  0.59027000  1.0
  O  O189  1  0.80567000  0.21782000  0.57306000  1.0
  O  O190  1  0.39146000  0.60766000  0.82400000  1.0
  O  O191  1  0.44039000  0.57987000  0.94004000  1.0
  O  O192  1  0.07803000  0.76169000  0.04727000  1.0
  O  O193  1  0.42374000  0.82072000  0.09022000  1.0
  O  O194  1  0.90341000  0.71784000  0.07298000  1.0
  O  O195  1  0.17684000  0.82405000  0.60765000  1.0
  O  O196  1  0.03969000  0.94010000  0.57988000  1.0
  O  O197  1  0.11299000  0.04728000  0.76159000  1.0
  O  O198  1  0.66532000  0.09027000  0.82059000  1.0
  O  O199  1  0.30567000  0.07306000  0.71782000  1.0
  O  O200  1  0.10854000  0.67600000  0.89234000  1.0
  O  O201  1  0.05961000  0.55996000  0.92014000  1.0
  O  O202  1  0.42197000  0.45273000  0.73832000  1.0
  O  O203  1  0.07627000  0.40978000  0.67928000  1.0
  O  O204  1  0.59659000  0.42701000  0.78216000  1.0
  O  O205  1  0.32316000  0.89235000  0.67595000  1.0
  O  O206  1  0.46031000  0.92012000  0.55990000  1.0
  O  O207  1  0.38702000  0.73841000  0.45271000  1.0
  O  O208  1  0.83467000  0.67941000  0.40974000  1.0
  O  O209  1  0.19433000  0.78218000  0.42694000  1.0
