# generated using pymatgen
data_CuH10(C4O5)2
_symmetry_space_group_name_H-M   'P 1'
_cell_length_a   7.63181000
_cell_length_b   7.65158000
_cell_length_c   10.22900000
_cell_angle_alpha   89.99870000
_cell_angle_beta   89.99790000
_cell_angle_gamma   91.08030000
_symmetry_Int_Tables_number   1
_chemical_formula_structural   CuH10(C4O5)2
_chemical_formula_sum   'Cu2 H20 C16 O20'
_cell_volume   597.22042212
_cell_formula_units_Z   2
loop_
 _symmetry_equiv_pos_site_id
 _symmetry_equiv_pos_as_xyz
  1  'x, y, z'
loop_
 _atom_site_type_symbol
 _atom_site_label
 _atom_site_symmetry_multiplicity
 _atom_site_fract_x
 _atom_site_fract_y
 _atom_site_fract_z
 _atom_site_occupancy
  Cu  Cu0  1  0.24863000  0.75117000  0.26209000  1.0
  Cu  Cu1  1  0.75137000  0.24885000  0.76210000  1.0
  H  H2  1  0.43308000  0.53973000  0.18837000  1.0
  H  H3  1  0.56691000  0.46026000  0.68838000  1.0
  H  H4  1  0.89446000  0.71660000  0.92731000  1.0
  H  H5  1  0.10555000  0.28341000  0.42731000  1.0
  H  H6  1  0.93835000  0.74348000  0.39072000  1.0
  H  H7  1  0.06167000  0.25654000  0.89075000  1.0
  H  H8  1  0.57608000  0.91031000  0.63533000  1.0
  H  H9  1  0.42391000  0.08967000  0.13533000  1.0
  H  H10  1  0.38820000  0.49788000  0.97816000  1.0
  H  H11  1  0.61181000  0.50213000  0.47816000  1.0
  H  H12  1  0.39026000  0.76882000  0.82671000  1.0
  H  H13  1  0.60976000  0.23120000  0.32671000  1.0
  H  H14  1  0.47280000  0.89148000  0.96210000  1.0
  H  H15  1  0.52722000  0.10852000  0.46210000  1.0
  H  H16  1  0.10962000  0.64134000  0.55238000  1.0
  H  H17  1  0.89037000  0.35866000  0.05241000  1.0
  H  H18  1  0.04137000  0.86319000  0.71506000  1.0
  H  H19  1  0.95861000  0.13678000  0.21506000  1.0
  H  H20  1  0.03754000  0.03163000  0.59719000  1.0
  H  H21  1  0.96244000  0.96835000  0.09720000  1.0
  C  C22  1  0.17105000  0.66323000  0.00885000  1.0
  C  C23  1  0.82897000  0.33676000  0.50885000  1.0
  C  C24  1  0.36946000  0.63381000  0.00957000  1.0
  C  C25  1  0.63054000  0.36619000  0.50957000  1.0
  C  C26  1  0.46511000  0.76121000  0.91808000  1.0
  C  C27  1  0.53488000  0.23879000  0.41807000  1.0
  C  C28  1  0.64532000  0.69756000  0.88512000  1.0
  C  C29  1  0.35470000  0.30244000  0.38512000  1.0
  C  C30  1  0.31584000  0.82775000  0.51945000  1.0
  C  C31  1  0.68417000  0.17227000  0.01946000  1.0
  C  C32  1  0.12114000  0.77997000  0.52238000  1.0
  C  C33  1  0.87883000  0.22002000  0.02243000  1.0
  C  C34  1  0.01029000  0.89153000  0.61228000  1.0
  C  C35  1  0.98968000  0.10848000  0.11229000  1.0
  C  C36  1  0.81839000  0.85234000  0.58800000  1.0
  C  C37  1  0.18159000  0.14766000  0.08799000  1.0
  O  O38  1  0.09665000  0.69360000  0.11956000  1.0
  O  O39  1  0.90333000  0.30638000  0.61955000  1.0
  O  O40  1  0.08731000  0.65569000  0.90327000  1.0
  O  O41  1  0.91269000  0.34432000  0.40326000  1.0
  O  O42  1  0.43814000  0.65495000  0.14122000  1.0
  O  O43  1  0.56185000  0.34505000  0.64123000  1.0
  O  O44  1  0.66951000  0.58097000  0.80253000  1.0
  O  O45  1  0.33052000  0.41900000  0.30251000  1.0
  O  O46  1  0.77495000  0.77086000  0.95136000  1.0
  O  O47  1  0.22507000  0.22912000  0.45136000  1.0
  O  O48  1  0.39448000  0.81672000  0.40890000  1.0
  O  O49  1  0.60551000  0.18329000  0.90893000  1.0
  O  O50  1  0.38952000  0.87064000  0.62501000  1.0
  O  O51  1  0.61047000  0.12936000  0.12501000  1.0
  O  O52  1  0.05923000  0.79557000  0.38892000  1.0
  O  O53  1  0.94076000  0.20445000  0.88891000  1.0
  O  O54  1  0.76764000  0.74186000  0.50691000  1.0
  O  O55  1  0.23237000  0.25816000  0.00692000  1.0
  O  O56  1  0.70832000  0.94599000  0.65788000  1.0
  O  O57  1  0.29167000  0.05400000  0.15788000  1.0
