# generated using pymatgen
data_CoH3C7NO4
_symmetry_space_group_name_H-M   'P 1'
_cell_length_a   6.66836000
_cell_length_b   8.34789000
_cell_length_c   12.81320000
_cell_angle_alpha   90.00010000
_cell_angle_beta   90.00090000
_cell_angle_gamma   89.99990000
_symmetry_Int_Tables_number   1
_chemical_formula_structural   CoH3C7NO4
_chemical_formula_sum   'Co4 H12 C28 N4 O16'
_cell_volume   713.26901855
_cell_formula_units_Z   4
loop_
 _symmetry_equiv_pos_site_id
 _symmetry_equiv_pos_as_xyz
  1  'x, y, z'
loop_
 _atom_site_type_symbol
 _atom_site_label
 _atom_site_symmetry_multiplicity
 _atom_site_fract_x
 _atom_site_fract_y
 _atom_site_fract_z
 _atom_site_occupancy
  Co  Co0  1  0.94412000  0.68010000  0.48003000  1.0
  Co  Co1  1  0.05588000  0.31990000  0.98003000  1.0
  Co  Co2  1  0.55588000  0.18011000  0.48002000  1.0
  Co  Co3  1  0.44411000  0.81989000  0.98003000  1.0
  H  H4  1  0.14413000  0.72482000  0.27676000  1.0
  H  H5  1  0.85587000  0.27518000  0.77675000  1.0
  H  H6  1  0.35589000  0.22484000  0.27675000  1.0
  H  H7  1  0.64412000  0.77517000  0.77675000  1.0
  H  H8  1  0.47497000  0.52274000  0.18573000  1.0
  H  H9  1  0.52504000  0.47727000  0.68574000  1.0
  H  H10  1  0.02503000  0.02273000  0.18573000  1.0
  H  H11  1  0.97497000  0.97726000  0.68573000  1.0
  H  H12  1  0.57672000  0.57700000  0.36983000  1.0
  H  H13  1  0.42328000  0.42299000  0.86983000  1.0
  H  H14  1  0.92328000  0.07700000  0.36983000  1.0
  H  H15  1  0.07672000  0.92300000  0.86982000  1.0
  C  C16  1  0.99809000  0.67786000  0.25371000  1.0
  C  C17  1  0.00191000  0.32214000  0.75371000  1.0
  C  C18  1  0.50192000  0.17787000  0.25370000  1.0
  C  C19  1  0.49809000  0.82213000  0.75371000  1.0
  C  C20  1  0.95722000  0.64518000  0.14899000  1.0
  C  C21  1  0.04278000  0.35482000  0.64898000  1.0
  C  C22  1  0.54279000  0.14518000  0.14898000  1.0
  C  C23  1  0.45721000  0.85482000  0.64898000  1.0
  C  C24  1  0.76608000  0.58540000  0.12314000  1.0
  C  C25  1  0.23392000  0.41461000  0.62314000  1.0
  C  C26  1  0.73393000  0.08540000  0.12313000  1.0
  C  C27  1  0.26608000  0.91459000  0.62314000  1.0
  C  C28  1  0.62497000  0.56720000  0.20310000  1.0
  C  C29  1  0.37502000  0.43281000  0.70309000  1.0
  C  C30  1  0.87504000  0.06719000  0.20309000  1.0
  C  C31  1  0.12497000  0.93280000  0.70309000  1.0
  C  C32  1  0.67978000  0.59877000  0.30553000  1.0
  C  C33  1  0.32021000  0.40123000  0.80554000  1.0
  C  C34  1  0.82022000  0.09877000  0.30553000  1.0
  C  C35  1  0.17979000  0.90122000  0.80553000  1.0
  C  C36  1  0.11505000  0.67773000  0.06841000  1.0
  C  C37  1  0.88496000  0.32228000  0.56841000  1.0
  C  C38  1  0.38496000  0.17773000  0.06841000  1.0
  C  C39  1  0.61504000  0.82227000  0.56841000  1.0
  C  C40  1  0.70465000  0.53096000  0.01594000  1.0
  C  C41  1  0.29535000  0.46905000  0.51594000  1.0
  C  C42  1  0.79535000  0.03095000  0.01594000  1.0
  C  C43  1  0.20465000  0.96903000  0.51594000  1.0
  N  N44  1  0.86491000  0.65109000  0.33060000  1.0
  N  N45  1  0.13508000  0.34890000  0.83060000  1.0
  N  N46  1  0.63509000  0.15110000  0.33060000  1.0
  N  N47  1  0.36491000  0.84890000  0.83059000  1.0
  O  O48  1  0.12714000  0.59236000  0.98769000  1.0
  O  O49  1  0.87286000  0.40766000  0.48768000  1.0
  O  O50  1  0.37285000  0.09235000  0.98768000  1.0
  O  O51  1  0.62715000  0.90764000  0.48769000  1.0
  O  O52  1  0.23196000  0.79798000  0.08716000  1.0
  O  O53  1  0.76805000  0.20202000  0.58715000  1.0
  O  O54  1  0.26804000  0.29798000  0.08715000  1.0
  O  O55  1  0.73196000  0.70202000  0.58715000  1.0
  O  O56  1  0.78225000  0.40171000  0.98192000  1.0
  O  O57  1  0.21775000  0.59830000  0.48192000  1.0
  O  O58  1  0.71775000  0.90171000  0.98191000  1.0
  O  O59  1  0.28225000  0.09829000  0.48191000  1.0
  O  O60  1  0.56555000  0.60082000  0.96705000  1.0
  O  O61  1  0.43444000  0.39918000  0.46705000  1.0
  O  O62  1  0.93445000  0.10082000  0.96705000  1.0
  O  O63  1  0.06554000  0.89919000  0.46705000  1.0
