# generated using pymatgen
data_AgH28C20N5O3
_symmetry_space_group_name_H-M   'P 1'
_cell_length_a   9.30565000
_cell_length_b   10.10520000
_cell_length_c   11.36780000
_cell_angle_alpha   90.00000000
_cell_angle_beta   90.00000000
_cell_angle_gamma   94.53810000
_symmetry_Int_Tables_number   1
_chemical_formula_structural   AgH28C20N5O3
_chemical_formula_sum   'Ag2 H56 C40 N10 O6'
_cell_volume   1065.62493403
_cell_formula_units_Z   2
loop_
 _symmetry_equiv_pos_site_id
 _symmetry_equiv_pos_as_xyz
  1  'x, y, z'
loop_
 _atom_site_type_symbol
 _atom_site_label
 _atom_site_symmetry_multiplicity
 _atom_site_fract_x
 _atom_site_fract_y
 _atom_site_fract_z
 _atom_site_occupancy
  Ag  Ag0  1  0.25605000  0.15462000  0.71989000  1.0
  Ag  Ag1  1  0.74395000  0.84538000  0.21989000  1.0
  H  H2  1  0.97087000  0.29283000  0.66682000  1.0
  H  H3  1  0.02913000  0.70717000  0.16682000  1.0
  H  H4  1  0.77959000  0.39902000  0.60022000  1.0
  H  H5  1  0.22041000  0.60098000  0.10022000  1.0
  H  H6  1  0.73661000  0.31789000  0.40954000  1.0
  H  H7  1  0.26340000  0.68212000  0.90954000  1.0
  H  H8  1  0.85076000  0.44458000  0.34196000  1.0
  H  H9  1  0.14924000  0.55542000  0.84196000  1.0
  H  H10  1  0.65636000  0.57262000  0.31518000  1.0
  H  H11  1  0.34364000  0.42738000  0.81518000  1.0
  H  H12  1  0.53883000  0.45296000  0.38774000  1.0
  H  H13  1  0.46117000  0.54704000  0.88774000  1.0
  H  H14  1  0.62030000  0.70294000  0.48535000  1.0
  H  H15  1  0.37970000  0.29706000  0.98535000  1.0
  H  H16  1  0.57113000  0.55950000  0.57272000  1.0
  H  H17  1  0.42887000  0.44050000  0.07272000  1.0
  H  H18  1  0.92441000  0.64721000  0.69656000  1.0
  H  H19  1  0.07559000  0.35278000  0.19656000  1.0
  H  H20  1  0.74286000  0.58852000  0.73014000  1.0
  H  H21  1  0.25714000  0.41148000  0.23014000  1.0
  H  H22  1  0.78311000  0.75254000  0.67271000  1.0
  H  H23  1  0.21690000  0.24746000  0.17271000  1.0
  H  H24  1  0.05698000  0.60729000  0.41640000  1.0
  H  H25  1  0.94302000  0.39271000  0.91640000  1.0
  H  H26  1  0.31940000  0.57376000  0.43458000  1.0
  H  H27  1  0.68060000  0.42624000  0.93458000  1.0
  H  H28  1  0.39509000  0.39261000  0.56913000  1.0
  H  H29  1  0.60491000  0.60739000  0.06913000  1.0
  H  H30  1  0.96274000  0.17269000  0.86067000  1.0
  H  H31  1  0.03725000  0.82731000  0.36067000  1.0
  H  H32  1  0.77241000  0.17920000  0.98263000  1.0
  H  H33  1  0.22759000  0.82080000  0.48263000  1.0
  H  H34  1  0.82908000  0.29908000  0.16161000  1.0
  H  H35  1  0.17092000  0.70091000  0.66160000  1.0
  H  H36  1  0.85505000  0.15249000  0.24181000  1.0
  H  H37  1  0.14495000  0.84751000  0.74181000  1.0
  H  H38  1  0.60997000  0.13837000  0.29077000  1.0
  H  H39  1  0.39003000  0.86163000  0.79077000  1.0
  H  H40  1  0.57458000  0.26713000  0.19228000  1.0
  H  H41  1  0.42542000  0.73287000  0.69228000  1.0
  H  H42  1  0.48591000  0.99849000  0.14558000  1.0
  H  H43  1  0.51409000  0.00151000  0.64558000  1.0
  H  H44  1  0.52164000  0.12170000  0.03414000  1.0
  H  H45  1  0.47836000  0.87830000  0.53414000  1.0
  H  H46  1  0.58314000  0.85067000  0.97482000  1.0
  H  H47  1  0.41686000  0.14932000  0.47482000  1.0
  H  H48  1  0.76567000  0.88739000  0.93118000  1.0
  H  H49  1  0.23432000  0.11261000  0.43118000  1.0
  H  H50  1  0.63205000  0.99762000  0.88984000  1.0
  H  H51  1  0.36795000  0.00238000  0.38984000  1.0
  H  H52  1  0.98508000  0.97100000  0.19216000  1.0
  H  H53  1  0.01492000  0.02900000  0.69217000  1.0
  H  H54  1  0.22918000  0.90541000  0.13277000  1.0
  H  H55  1  0.77082000  0.09460000  0.63277000  1.0
  H  H56  1  0.33157000  0.98525000  0.93939000  1.0
  H  H57  1  0.66843000  0.01476000  0.43939000  1.0
  C  C58  1  0.04629000  0.35546000  0.61340000  1.0
  C  C59  1  0.95371000  0.64454000  0.11340000  1.0
  C  C60  1  0.99348000  0.45137000  0.54032000  1.0
  C  C61  1  0.00652000  0.54863000  0.04032000  1.0
  C  C62  1  0.83387000  0.46404000  0.53244000  1.0
  C  C63  1  0.16613000  0.53596000  0.03244000  1.0
  C  C64  1  0.76964000  0.42444000  0.41126000  1.0
  C  C65  1  0.23036000  0.57556000  0.91126000  1.0
  C  C66  1  0.64247000  0.51231000  0.39520000  1.0
  C  C67  1  0.35753000  0.48769000  0.89520000  1.0
  C  C68  1  0.64767000  0.60152000  0.50464000  1.0
  C  C69  1  0.35234000  0.39848000  0.00464000  1.0
  C  C70  1  0.81202000  0.64942000  0.66756000  1.0
  C  C71  1  0.18798000  0.35058000  0.16756000  1.0
  C  C72  1  0.09366000  0.53072000  0.47420000  1.0
  C  C73  1  0.90635000  0.46928000  0.97420000  1.0
  C  C74  1  0.23973000  0.51176000  0.48422000  1.0
  C  C75  1  0.76027000  0.48824000  0.98422000  1.0
  C  C76  1  0.28229000  0.41243000  0.55861000  1.0
  C  C77  1  0.71771000  0.58757000  0.05861000  1.0
  C  C78  1  0.02006000  0.11439000  0.92359000  1.0
  C  C79  1  0.97994000  0.88562000  0.42359000  1.0
  C  C80  1  0.95419000  0.07676000  0.03013000  1.0
  C  C81  1  0.04581000  0.92325000  0.53013000  1.0
  C  C82  1  0.80598000  0.11793000  0.05699000  1.0
  C  C83  1  0.19402000  0.88207000  0.55699000  1.0
  C  C84  1  0.79068000  0.19454000  0.17215000  1.0
  C  C85  1  0.20931000  0.80546000  0.67215000  1.0
  C  C86  1  0.62779000  0.17446000  0.20051000  1.0
  C  C87  1  0.37221000  0.82555000  0.70051000  1.0
  C  C88  1  0.56758000  0.07166000  0.11017000  1.0
  C  C89  1  0.43242000  0.92834000  0.61017000  1.0
  C  C90  1  0.66712000  0.93123000  0.95962000  1.0
  C  C91  1  0.33287000  0.06877000  0.45962000  1.0
  C  C92  1  0.03193000  0.00201000  0.10755000  1.0
  C  C93  1  0.96807000  0.99800000  0.60755000  1.0
  C  C94  1  0.16808000  0.96654000  0.07549000  1.0
  C  C95  1  0.83192000  0.03346000  0.57549000  1.0
  C  C96  1  0.22471000  0.00917000  0.96741000  1.0
  C  C97  1  0.77529000  0.99083000  0.46741000  1.0
  N  N98  1  0.18713000  0.33473000  0.62223000  1.0
  N  N99  1  0.81288000  0.66527000  0.12223000  1.0
  N  N100  1  0.79620000  0.60192000  0.54722000  1.0
  N  N101  1  0.20380000  0.39808000  0.04722000  1.0
  N  N102  1  0.15244000  0.08240000  0.89215000  1.0
  N  N103  1  0.84756000  0.91761000  0.39215000  1.0
  N  N104  1  0.69480000  0.00407000  0.07030000  1.0
  N  N105  1  0.30519000  0.99593000  0.57030000  1.0
  N  N106  1  0.59618000  0.23115000  0.74637000  1.0
  N  N107  1  0.40382000  0.76885000  0.24637000  1.0
  O  O108  1  0.72534000  0.25321000  0.78100000  1.0
  O  O109  1  0.27466000  0.74679000  0.28100000  1.0
  O  O110  1  0.49930000  0.18760000  0.81960000  1.0
  O  O111  1  0.50070000  0.81240000  0.31960000  1.0
  O  O112  1  0.56290000  0.24995000  0.63996000  1.0
  O  O113  1  0.43710000  0.75005000  0.13996000  1.0
