# generated using pymatgen
data_ZnH12C18(NO2)2
_symmetry_space_group_name_H-M   'P 1'
_cell_length_a   10.45760000
_cell_length_b   11.44280000
_cell_length_c   14.81720000
_cell_angle_alpha   109.99000000
_cell_angle_beta   100.81000000
_cell_angle_gamma   96.45950000
_symmetry_Int_Tables_number   1
_chemical_formula_structural   ZnH12C18(NO2)2
_chemical_formula_sum   'Zn4 H48 C72 N8 O16'
_cell_volume   1606.45724269
_cell_formula_units_Z   4
loop_
 _symmetry_equiv_pos_site_id
 _symmetry_equiv_pos_as_xyz
  1  'x, y, z'
loop_
 _atom_site_type_symbol
 _atom_site_label
 _atom_site_symmetry_multiplicity
 _atom_site_fract_x
 _atom_site_fract_y
 _atom_site_fract_z
 _atom_site_occupancy
  Zn  Zn0  1  0.22530000  0.20397000  0.12194000  1.0
  Zn  Zn1  1  0.77469000  0.79603000  0.87806000  1.0
  Zn  Zn2  1  0.27465000  0.21656000  0.38519000  1.0
  Zn  Zn3  1  0.72535000  0.78344000  0.61481000  1.0
  H  H4  1  0.57811000  0.21561000  0.11426000  1.0
  H  H5  1  0.42189000  0.78439000  0.88573000  1.0
  H  H6  1  0.92214000  0.20519000  0.39347000  1.0
  H  H7  1  0.07786000  0.79482000  0.60653000  1.0
  H  H8  1  0.15588000  0.40671000  0.74595000  1.0
  H  H9  1  0.84413000  0.59329000  0.25405000  1.0
  H  H10  1  0.68955000  0.22250000  0.41074000  1.0
  H  H11  1  0.31045000  0.77750000  0.58926000  1.0
  H  H12  1  0.81062000  0.19834000  0.09692000  1.0
  H  H13  1  0.18938000  0.80166000  0.90308000  1.0
  H  H14  1  0.32477000  0.08311000  0.61434000  1.0
  H  H15  1  0.67523000  0.91689000  0.38565000  1.0
  H  H16  1  0.18543000  0.36288000  0.90306000  1.0
  H  H17  1  0.81458000  0.63712000  0.09694000  1.0
  H  H18  1  0.35475000  0.04010000  0.77130000  1.0
  H  H19  1  0.64525000  0.95989000  0.22869000  1.0
  H  H20  1  0.06080000  0.98532000  0.36100000  1.0
  H  H21  1  0.93920000  0.01468000  0.63900000  1.0
  H  H22  1  0.44238000  0.44597000  0.16179000  1.0
  H  H23  1  0.55762000  0.55404000  0.83821000  1.0
  H  H24  1  0.03603000  0.38965000  0.12467000  1.0
  H  H25  1  0.96397000  0.61035000  0.87532000  1.0
  H  H26  1  0.46356000  0.02967000  0.37924000  1.0
  H  H27  1  0.53644000  0.97033000  0.62076000  1.0
  H  H28  1  0.02696000  0.97656000  0.10485000  1.0
  H  H29  1  0.97304000  0.02344000  0.89515000  1.0
  H  H30  1  0.46991000  0.44273000  0.39791000  1.0
  H  H31  1  0.53009000  0.55727000  0.60209000  1.0
  H  H32  1  0.05933000  0.61196000  0.40447000  1.0
  H  H33  1  0.94067000  0.38804000  0.59554000  1.0
  H  H34  1  0.43724000  0.80876000  0.09576000  1.0
  H  H35  1  0.56276000  0.19124000  0.90425000  1.0
  H  H36  1  0.42137000  0.01785000  0.09104000  1.0
  H  H37  1  0.57863000  0.98215000  0.90897000  1.0
  H  H38  1  0.47587000  0.65642000  0.39728000  1.0
  H  H39  1  0.52413000  0.34357000  0.60272000  1.0
  H  H40  1  0.07589000  0.39977000  0.40893000  1.0
  H  H41  1  0.92412000  0.60023000  0.59107000  1.0
  H  H42  1  0.45085000  0.65456000  0.14352000  1.0
  H  H43  1  0.54915000  0.34544000  0.85649000  1.0
  H  H44  1  0.02389000  0.76901000  0.11322000  1.0
  H  H45  1  0.97611000  0.23100000  0.88678000  1.0
  H  H46  1  0.05238000  0.77807000  0.38112000  1.0
  H  H47  1  0.94762000  0.22193000  0.61888000  1.0
  H  H48  1  0.02418000  0.59393000  0.10333000  1.0
  H  H49  1  0.97582000  0.40607000  0.89667000  1.0
  H  H50  1  0.47489000  0.82394000  0.39798000  1.0
  H  H51  1  0.52511000  0.17606000  0.60202000  1.0
  C  C52  1  0.65465000  0.21515000  0.17530000  1.0
  C  C53  1  0.34535000  0.78485000  0.82469000  1.0
  C  C54  1  0.87865000  0.20047000  0.24381000  1.0
  C  C55  1  0.12135000  0.79953000  0.75619000  1.0
  C  C56  1  0.84596000  0.20707000  0.33285000  1.0
  C  C57  1  0.15404000  0.79293000  0.66716000  1.0
  C  C58  1  0.62199000  0.22163000  0.26434000  1.0
  C  C59  1  0.37800000  0.77837000  0.73565000  1.0
  C  C60  1  0.48380000  0.23093000  0.27474000  1.0
  C  C61  1  0.51619000  0.76907000  0.72526000  1.0
  C  C62  1  0.01665000  0.18990000  0.23346000  1.0
  C  C63  1  0.98335000  0.81010000  0.76655000  1.0
  C  C64  1  0.19918000  0.32649000  0.75214000  1.0
  C  C65  1  0.80082000  0.67351000  0.24785000  1.0
  C  C66  1  0.21773000  0.26926000  0.57532000  1.0
  C  C67  1  0.78226000  0.73074000  0.42468000  1.0
  C  C68  1  0.23919000  0.24774000  0.67105000  1.0
  C  C69  1  0.76080000  0.75226000  0.32895000  1.0
  C  C70  1  0.28743000  0.17186000  0.93962000  1.0
  C  C71  1  0.71257000  0.82814000  0.06038000  1.0
  C  C72  1  0.71776000  0.21752000  0.34267000  1.0
  C  C73  1  0.28224000  0.78248000  0.65733000  1.0
  C  C74  1  0.78295000  0.20474000  0.16551000  1.0
  C  C75  1  0.21705000  0.79526000  0.83449000  1.0
  C  C76  1  0.29584000  0.14488000  0.67843000  1.0
  C  C77  1  0.70415000  0.85511000  0.32156000  1.0
  C  C78  1  0.21496000  0.30175000  0.83891000  1.0
  C  C79  1  0.78505000  0.69825000  0.16108000  1.0
  C  C80  1  0.31201000  0.12049000  0.76530000  1.0
  C  C81  1  0.68799000  0.87950000  0.23470000  1.0
  C  C82  1  0.15031000  0.94552000  0.36970000  1.0
  C  C83  1  0.84969000  0.05448000  0.63030000  1.0
  C  C84  1  0.27068000  0.19825000  0.84592000  1.0
  C  C85  1  0.72932000  0.80175000  0.15408000  1.0
  C  C86  1  0.35195000  0.48302000  0.14842000  1.0
  C  C87  1  0.64805000  0.51698000  0.85158000  1.0
  C  C88  1  0.12534000  0.45167000  0.12798000  1.0
  C  C89  1  0.87466000  0.54833000  0.87202000  1.0
  C  C90  1  0.37483000  0.96992000  0.37934000  1.0
  C  C91  1  0.62517000  0.03008000  0.62066000  1.0
  C  C92  1  0.11738000  0.93805000  0.10602000  1.0
  C  C93  1  0.88262000  0.06195000  0.89398000  1.0
  C  C94  1  0.23690000  0.64431000  0.12077000  1.0
  C  C95  1  0.76310000  0.35569000  0.87923000  1.0
  C  C96  1  0.26329000  0.77937000  0.38889000  1.0
  C  C97  1  0.73671000  0.22063000  0.61111000  1.0
  C  C98  1  0.38053000  0.48306000  0.39816000  1.0
  C  C99  1  0.61947000  0.51694000  0.60184000  1.0
  C  C100  1  0.15267000  0.57841000  0.40046000  1.0
  C  C101  1  0.84733000  0.42159000  0.59954000  1.0
  C  C102  1  0.26533000  0.65337000  0.39540000  1.0
  C  C103  1  0.73467000  0.34663000  0.60460000  1.0
  C  C104  1  0.34422000  0.84144000  0.10219000  1.0
  C  C105  1  0.65578000  0.15856000  0.89781000  1.0
  C  C106  1  0.33684000  0.96057000  0.09902000  1.0
  C  C107  1  0.66316000  0.03943000  0.90098000  1.0
  C  C108  1  0.38215000  0.60363000  0.39671000  1.0
  C  C109  1  0.61785000  0.39637000  0.60330000  1.0
  C  C110  1  0.16053000  0.45898000  0.40295000  1.0
  C  C111  1  0.83948000  0.54102000  0.59705000  1.0
  C  C112  1  0.35543000  0.59942000  0.13743000  1.0
  C  C113  1  0.64457000  0.40058000  0.86257000  1.0
  C  C114  1  0.11681000  0.81872000  0.11006000  1.0
  C  C115  1  0.88319000  0.18128000  0.88994000  1.0
  C  C116  1  0.14640000  0.82872000  0.37988000  1.0
  C  C117  1  0.85360000  0.17128000  0.62012000  1.0
  C  C118  1  0.23317000  0.76839000  0.11091000  1.0
  C  C119  1  0.76683000  0.23161000  0.88909000  1.0
  C  C120  1  0.12010000  0.56637000  0.11621000  1.0
  C  C121  1  0.87989000  0.43363000  0.88378000  1.0
  C  C122  1  0.37972000  0.85416000  0.38933000  1.0
  C  C123  1  0.62028000  0.14584000  0.61067000  1.0
  N  N124  1  0.26228000  0.01561000  0.36901000  1.0
  N  N125  1  0.73772000  0.98439000  0.63099000  1.0
  N  N126  1  0.23920000  0.40962000  0.14390000  1.0
  N  N127  1  0.76079000  0.59038000  0.85609000  1.0
  N  N128  1  0.27153000  0.40990000  0.39943000  1.0
  N  N129  1  0.72848000  0.59009000  0.60057000  1.0
  N  N130  1  0.22626000  0.01037000  0.10363000  1.0
  N  N131  1  0.77374000  0.98963000  0.89637000  1.0
  O  O132  1  0.09018000  0.15926000  0.29690000  1.0
  O  O133  1  0.90982000  0.84074000  0.70310000  1.0
  O  O134  1  0.05003000  0.21085000  0.16098000  1.0
  O  O135  1  0.94997000  0.78915000  0.83902000  1.0
  O  O136  1  0.40925000  0.26052000  0.21126000  1.0
  O  O137  1  0.59075000  0.73948000  0.78874000  1.0
  O  O138  1  0.45136000  0.21083000  0.34792000  1.0
  O  O139  1  0.54864000  0.78917000  0.65208000  1.0
  O  O140  1  0.31289000  0.24778000  0.53052000  1.0
  O  O141  1  0.68711000  0.75222000  0.46948000  1.0
  O  O142  1  0.18713000  0.18491000  0.97949000  1.0
  O  O143  1  0.81287000  0.81509000  0.02051000  1.0
  O  O144  1  0.11295000  0.30180000  0.54436000  1.0
  O  O145  1  0.88704000  0.69820000  0.45564000  1.0
  O  O146  1  0.39270000  0.14236000  0.97307000  1.0
  O  O147  1  0.60730000  0.85764000  0.02693000  1.0
