# generated using pymatgen
data_Zn4H11C26O16F3
_symmetry_space_group_name_H-M   'P 1'
_cell_length_a   18.66630000
_cell_length_b   18.66540000
_cell_length_c   22.33220000
_cell_angle_alpha   114.35400000
_cell_angle_beta   114.54700000
_cell_angle_gamma   90.09540000
_symmetry_Int_Tables_number   1
_chemical_formula_structural   Zn4H11C26O16F3
_chemical_formula_sum   'Zn8 H22 C52 O32 F6'
_cell_volume   6305.77826516
_cell_formula_units_Z   2
loop_
 _symmetry_equiv_pos_site_id
 _symmetry_equiv_pos_as_xyz
  1  'x, y, z'
loop_
 _atom_site_type_symbol
 _atom_site_label
 _atom_site_symmetry_multiplicity
 _atom_site_fract_x
 _atom_site_fract_y
 _atom_site_fract_z
 _atom_site_occupancy
  Zn  Zn0  1  0.11561000  0.53381000  0.56276000  1.0
  Zn  Zn1  1  0.53172000  0.94312000  0.56185000  1.0
  Zn  Zn2  1  0.94539000  0.53382000  0.56417000  1.0
  Zn  Zn3  1  0.96905000  0.38079000  0.44259000  1.0
  Zn  Zn4  1  0.38158000  0.96997000  0.44066000  1.0
  Zn  Zn5  1  0.53358000  0.11559000  0.56291000  1.0
  Zn  Zn6  1  0.96667000  0.54931000  0.43393000  1.0
  Zn  Zn7  1  0.55498000  0.97083000  0.43780000  1.0
  H  H8  1  0.69403000  0.16939000  0.44127000  1.0
  H  H9  1  0.79545000  0.70147000  0.58280000  1.0
  H  H10  1  0.68316000  0.77540000  0.56700000  1.0
  H  H11  1  0.25181000  0.17278000  0.45070000  1.0
  H  H12  1  0.16828000  0.24760000  0.48053000  1.0
  H  H13  1  0.33287000  0.66355000  0.04785000  1.0
  H  H14  1  0.66493000  0.32780000  0.04802000  1.0
  H  H15  1  0.15693000  0.71144000  0.44946000  1.0
  H  H16  1  0.14742000  0.77275000  0.04499000  1.0
  H  H17  1  0.77409000  0.14181000  0.04169000  1.0
  H  H18  1  0.16856000  0.83556000  0.95572000  1.0
  H  H19  1  0.83530000  0.16557000  0.95235000  1.0
  H  H20  1  0.68843000  0.29184000  0.58232000  1.0
  H  H21  1  0.28706000  0.68474000  0.57468000  1.0
  H  H22  1  0.71759000  0.41165000  0.59793000  1.0
  H  H23  1  0.40449000  0.72040000  0.59500000  1.0
  H  H24  1  0.73460000  0.87765000  0.46258000  1.0
  H  H25  1  0.79412000  0.65063000  0.39276000  1.0
  H  H26  1  0.41667000  0.74385000  0.98733000  1.0
  H  H27  1  0.74326000  0.41403000  0.98819000  1.0
  H  H28  1  0.80796000  0.24989000  0.47960000  1.0
  H  H29  1  0.24362000  0.81205000  0.47638000  1.0
  C  C30  1  0.90284000  0.39230000  0.30151000  1.0
  C  C31  1  0.64239000  0.13766000  0.77855000  1.0
  C  C32  1  0.19571000  0.31121000  0.50856000  1.0
  C  C33  1  0.29684000  0.70175000  0.02696000  1.0
  C  C34  1  0.70282000  0.29219000  0.02646000  1.0
  C  C35  1  0.14111000  0.64127000  0.77995000  1.0
  C  C36  1  0.36099000  0.85521000  0.22354000  1.0
  C  C37  1  0.86194000  0.35099000  0.22191000  1.0
  C  C38  1  0.30866000  0.73690000  0.97766000  1.0
  C  C39  1  0.73689000  0.30542000  0.97703000  1.0
  C  C40  1  0.40121000  0.89435000  0.30320000  1.0
  C  C41  1  0.21460000  0.71312000  0.92515000  1.0
  C  C42  1  0.71290000  0.21176000  0.92367000  1.0
  C  C43  1  0.29762000  0.82101000  0.02729000  1.0
  C  C44  1  0.82147000  0.29374000  0.02566000  1.0
  C  C45  1  0.28731000  0.78660000  0.07826000  1.0
  C  C46  1  0.78822000  0.28182000  0.07663000  1.0
  C  C47  1  0.20516000  0.79796000  0.97698000  1.0
  C  C48  1  0.79816000  0.20168000  0.97452000  1.0
  C  C49  1  0.19315000  0.76280000  0.02560000  1.0
  C  C50  1  0.76385000  0.18816000  0.02300000  1.0
  C  C51  1  0.17560000  0.67515000  0.84723000  1.0
  C  C52  1  0.67502000  0.17305000  0.84579000  1.0
  C  C53  1  0.10073000  0.60140000  0.70040000  1.0
  C  C54  1  0.60324000  0.09798000  0.69904000  1.0
  C  C55  1  0.32659000  0.82360000  0.15628000  1.0
  C  C56  1  0.20434000  0.67986000  0.97682000  1.0
  C  C57  1  0.82717000  0.31900000  0.15464000  1.0
  C  C58  1  0.70755000  0.27204000  0.53873000  1.0
  C  C59  1  0.26515000  0.71085000  0.53602000  1.0
  C  C60  1  0.68039000  0.19432000  0.48790000  1.0
  C  C61  1  0.18540000  0.69042000  0.49095000  1.0
  C  C62  1  0.68050000  0.20009000  0.97528000  1.0
  C  C63  1  0.75919000  0.33294000  0.54095000  1.0
  C  C64  1  0.32596000  0.76331000  0.53895000  1.0
  C  C65  1  0.80794000  0.31329000  0.50755000  1.0
  C  C66  1  0.30701000  0.81277000  0.50608000  1.0
  C  C67  1  0.71869000  0.77219000  0.53796000  1.0
  C  C68  1  0.77253000  0.71777000  0.53761000  1.0
  C  C69  1  0.70933000  0.82511000  0.50885000  1.0
  C  C70  1  0.79616000  0.67957000  0.48415000  1.0
  C  C71  1  0.13093000  0.63692000  0.49521000  1.0
  C  C72  1  0.62992000  0.13745000  0.49252000  1.0
  C  C73  1  0.86189000  0.36794000  0.50547000  1.0
  C  C74  1  0.36297000  0.86695000  0.50545000  1.0
  C  C75  1  0.85781000  0.62946000  0.49302000  1.0
  C  C76  1  0.64665000  0.87419000  0.50749000  1.0
  C  C77  1  0.13935000  0.36657000  0.50535000  1.0
  C  C78  1  0.36734000  0.14014000  0.49773000  1.0
  C  C79  1  0.33215000  0.27621000  0.54330000  1.0
  C  C80  1  0.27681000  0.33218000  0.54233000  1.0
  C  C81  1  0.31303000  0.19746000  0.49518000  1.0
  O  O82  1  0.99904000  0.49900000  0.50008000  1.0
  O  O83  1  0.33005000  0.89967000  0.46258000  1.0
  O  O84  1  0.89927000  0.33333333  0.46762000  1.0
  O  O85  1  0.92424000  0.46855000  0.32995000  1.0
  O  O86  1  0.47785000  0.90282000  0.33373000  1.0
  O  O87  1  0.02410000  0.58121000  0.66963000  1.0
  O  O88  1  0.59195000  0.02142000  0.66750000  1.0
  O  O89  1  0.49974000  0.99927000  0.49975000  1.0
  O  O90  1  0.91350000  0.34925000  0.33524000  1.0
  O  O91  1  0.35630000  0.91663000  0.33478000  1.0
  O  O92  1  0.14593000  0.59027000  0.66867000  1.0
  O  O93  1  0.58379000  0.14419000  0.66823000  1.0
  O  O94  1  0.05576000  0.62511000  0.45263000  1.0
  O  O95  1  0.60920000  0.06479000  0.44193000  1.0
  O  O96  1  0.86841000  0.44384000  0.54011000  1.0
  O  O97  1  0.43841000  0.87831000  0.54646000  1.0
  O  O98  1  0.87571000  0.60087000  0.43878000  1.0
  O  O99  1  0.64253000  0.91713000  0.47370000  1.0
  O  O100  1  0.06521000  0.33225000  0.46159000  1.0
  O  O101  1  0.33299000  0.06611000  0.45406000  1.0
  O  O102  1  0.88815000  0.61884000  0.55058000  1.0
  O  O103  1  0.60287000  0.87079000  0.53763000  1.0
  O  O104  1  0.16823000  0.44179000  0.54559000  1.0
  O  O105  1  0.16292000  0.60736000  0.54017000  1.0
  O  O106  1  0.44212000  0.16841000  0.54182000  1.0
  O  O107  1  0.75702000  0.41067000  0.57966000  1.0
  O  O108  1  0.40373000  0.76043000  0.57738000  1.0
  O  O109  1  0.75666000  0.83855000  0.48060000  1.0
  O  O110  1  0.76458000  0.68223000  0.41862000  1.0
  O  O111  1  0.61162000  0.16494000  0.54580000  1.0
  O  O112  1  0.36157000  0.72177000  0.94778000  1.0
  O  O113  1  0.72102000  0.35933000  0.94816000  1.0
  F  F114  1  0.40686000  0.31256000  0.59920000  1.0
  F  F115  1  0.89343000  0.34179000  0.05186000  1.0
  F  F116  1  0.34527000  0.89316000  0.05349000  1.0
  F  F117  1  0.31635000  0.40952000  0.57997000  1.0
  F  F118  1  0.15653000  0.60776000  0.95050000  1.0
  F  F119  1  0.60841000  0.15223000  0.94900000  1.0
