# generated using pymatgen
data_AlH5C11SO7
_symmetry_space_group_name_H-M   'P 1'
_cell_length_a   6.59274000
_cell_length_b   11.08155932
_cell_length_c   12.64260000
_cell_angle_alpha   88.14041369
_cell_angle_beta   76.25950000
_cell_angle_gamma   72.99012113
_symmetry_Int_Tables_number   1
_chemical_formula_structural   AlH5C11SO7
_chemical_formula_sum   'Al2 H10 C22 S2 O14'
_cell_volume   857.27665900
_cell_formula_units_Z   2
loop_
 _symmetry_equiv_pos_site_id
 _symmetry_equiv_pos_as_xyz
  1  'x, y, z'
loop_
 _atom_site_type_symbol
 _atom_site_label
 _atom_site_symmetry_multiplicity
 _atom_site_fract_x
 _atom_site_fract_y
 _atom_site_fract_z
 _atom_site_occupancy
  Al  Al0  1  0.00777000  0.50814000  0.49876000  1.0
  Al  Al1  1  0.50698000  0.50744000  0.49812000  1.0
  H  H2  1  0.36390000  0.35968000  0.42611000  1.0
  H  H3  1  0.65369000  0.66391000  0.54679000  1.0
  H  H4  1  0.26017000  0.43967000  0.15367000  1.0
  H  H5  1  0.75942000  0.56228000  0.84419000  1.0
  H  H6  1  0.54591000  0.24404000  0.65744000  1.0
  H  H7  1  0.31795000  0.12594000  0.77099000  1.0
  H  H8  1  0.79277000  0.77325000  0.64420000  1.0
  H  H9  1  0.44250000  0.88979000  0.76514000  1.0
  H  H10  1  0.20560000  0.79885000  0.29002000  1.0
  H  H11  1  0.11240000  0.14027000  0.26338000  1.0
  C  C12  1  0.86963000  0.28415000  0.51625000  1.0
  C  C13  1  0.84194000  0.50084000  0.30276000  1.0
  C  C14  1  0.13911000  0.73529000  0.48896000  1.0
  C  C15  1  0.17527000  0.51102000  0.69475000  1.0
  C  C16  1  0.11777000  0.46853000  0.11922000  1.0
  C  C17  1  0.90253000  0.53320000  0.87810000  1.0
  C  C18  1  0.90642000  0.49981000  0.18342000  1.0
  C  C19  1  0.11309000  0.50457000  0.81352000  1.0
  C  C20  1  0.90402000  0.51946000  0.98921000  1.0
  C  C21  1  0.11675000  0.47994000  0.00791000  1.0
  C  C22  1  0.93947000  0.14246000  0.51405000  1.0
  C  C23  1  0.80120000  0.07694000  0.58000000  1.0
  C  C24  1  0.13402000  0.07719000  0.44267000  1.0
  C  C25  1  0.60070000  0.14128000  0.65307000  1.0
  C  C26  1  0.47313000  0.07487000  0.71680000  1.0
  C  C27  1  0.06520000  0.87710000  0.49679000  1.0
  C  C28  1  0.19321000  0.94331000  0.43099000  1.0
  C  C29  1  0.86911000  0.94130000  0.57386000  1.0
  C  C30  1  0.73813000  0.87598000  0.64438000  1.0
  C  C31  1  0.54299000  0.94142000  0.71307000  1.0
  C  C32  1  0.39166000  0.87673000  0.34434000  1.0
  C  C33  1  0.27494000  0.14771000  0.37031000  1.0
  S  S34  1  0.70646000  0.54211000  0.10954000  1.0
  S  S35  1  0.31396000  0.46036000  0.88719000  1.0
  O  O36  1  0.99915000  0.33995000  0.53717000  1.0
  O  O37  1  0.63839000  0.52415000  0.34701000  1.0
  O  O38  1  0.32538000  0.68176000  0.50735000  1.0
  O  O39  1  0.02010000  0.54151000  0.64559000  1.0
  O  O40  1  0.01035000  0.68022000  0.46574000  1.0
  O  O41  1  0.37872000  0.48794000  0.64996000  1.0
  O  O42  1  0.68777000  0.33698000  0.49332000  1.0
  O  O43  1  0.99600000  0.47651000  0.35245000  1.0
  O  O44  1  0.30689000  0.44742000  0.45445000  1.0
  O  O45  1  0.70526000  0.57221000  0.54242000  1.0
  O  O46  1  0.35847000  0.79876000  0.27312000  1.0
  O  O47  1  0.57012000  0.89277000  0.33326000  1.0
  O  O48  1  0.23533000  0.16995000  0.26935000  1.0
  O  O49  1  0.41335000  0.18465000  0.39606000  1.0
