# generated using pymatgen
data_ZnH16C24I9NO4
_symmetry_space_group_name_H-M   'P 1'
_cell_length_a   14.54980000
_cell_length_b   15.96250000
_cell_length_c   16.07470000
_cell_angle_alpha   90.91750000
_cell_angle_beta   90.78530000
_cell_angle_gamma   93.28030000
_symmetry_Int_Tables_number   1
_chemical_formula_structural   ZnH16C24I9NO4
_chemical_formula_sum   'Zn2 H32 C48 I18 N2 O8'
_cell_volume   3726.37344392
_cell_formula_units_Z   2
loop_
 _symmetry_equiv_pos_site_id
 _symmetry_equiv_pos_as_xyz
  1  'x, y, z'
loop_
 _atom_site_type_symbol
 _atom_site_label
 _atom_site_symmetry_multiplicity
 _atom_site_fract_x
 _atom_site_fract_y
 _atom_site_fract_z
 _atom_site_occupancy
  Zn  Zn0  1  0.40394000  0.49473000  0.49463000  1.0
  Zn  Zn1  1  0.59696000  0.50790000  0.49988000  1.0
  H  H2  1  0.05537000  0.54219000  0.61864000  1.0
  H  H3  1  0.35085000  0.15880000  0.44297000  1.0
  H  H4  1  0.30556000  0.07600000  0.37665000  1.0
  H  H5  1  0.33953000  0.64731000  0.00955000  1.0
  H  H6  1  0.32371000  0.58548000  0.10029000  1.0
  H  H7  1  0.41335000  0.66615000  0.09815000  1.0
  H  H8  1  0.95435000  0.71752000  0.52290000  1.0
  H  H9  1  0.95933000  0.66333000  0.42686000  1.0
  H  H10  1  0.85307000  0.66494000  0.48014000  1.0
  H  H11  1  0.93807000  0.40409000  0.29490000  1.0
  H  H12  1  0.95889000  0.35306000  0.38957000  1.0
  H  H13  1  0.46077000  0.92915000  0.38397000  1.0
  H  H14  1  0.84731000  0.38874000  0.36662000  1.0
  H  H15  1  0.94947000  0.47311000  0.67595000  1.0
  H  H16  1  0.83818000  0.43094000  0.64512000  1.0
  H  H17  1  0.92669000  0.36335000  0.67116000  1.0
  H  H18  1  0.72863000  0.55535000  0.00181000  1.0
  H  H19  1  0.68330000  0.60270000  0.09265000  1.0
  H  H20  1  0.70879000  0.49476000  0.09286000  1.0
  H  H21  1  0.42975000  0.29072000  0.00711000  1.0
  H  H22  1  0.50313000  0.31202000  0.09560000  1.0
  H  H23  1  0.38597000  0.33851000  0.09841000  1.0
  H  H24  1  0.64900000  0.03922000  0.62946000  1.0
  H  H25  1  0.74585000  0.93187000  0.48708000  1.0
  H  H26  1  0.69306000  0.92273000  0.58560000  1.0
  H  H27  1  0.67248000  0.84239000  0.50923000  1.0
  H  H28  1  0.74014000  0.05950000  0.55982000  1.0
  H  H29  1  0.66886000  0.14141000  0.58836000  1.0
  H  H30  1  0.31498000  0.02996000  0.57777000  1.0
  H  H31  1  0.34641000  0.06356000  0.67884000  1.0
  H  H32  1  0.35472000  0.13738000  0.59728000  1.0
  H  H33  1  0.29172000  0.06792000  0.48386000  1.0
  C  C34  1  0.50313000  0.66349000  0.50031000  1.0
  C  C35  1  0.60139000  0.95475000  0.48226000  1.0
  C  C36  1  0.60638000  0.05151000  0.49896000  1.0
  C  C37  1  0.49812000  0.50114000  0.65835000  1.0
  C  C38  1  0.50185000  0.24931000  0.50675000  1.0
  C  C39  1  0.49948000  0.91970000  0.51054000  1.0
  C  C40  1  0.43276000  0.04932000  0.43945000  1.0
  C  C41  1  0.50471000  0.08379000  0.51033000  1.0
  C  C42  1  0.46323000  0.04932000  0.59926000  1.0
  C  C43  1  0.47534000  0.95222000  0.60147000  1.0
  C  C44  1  0.50647000  0.17400000  0.51160000  1.0
  C  C45  1  0.49545000  0.49744000  0.91096000  1.0
  C  C46  1  0.49673000  0.82930000  0.50745000  1.0
  C  C47  1  0.50046000  0.75372000  0.50367000  1.0
  C  C48  1  0.95014000  0.58416000  0.53688000  1.0
  C  C49  1  0.49912000  0.33920000  0.50080000  1.0
  C  C50  1  0.94823000  0.48892000  0.40035000  1.0
  C  C51  1  0.05501000  0.50783000  0.40305000  1.0
  C  C52  1  0.91202000  0.49630000  0.49539000  1.0
  C  C53  1  0.05098000  0.56907000  0.55658000  1.0
  C  C54  1  0.08780000  0.49719000  0.49688000  1.0
  C  C55  1  0.04896000  0.41256000  0.54097000  1.0
  C  C56  1  0.47311000  0.42010000  0.02571000  1.0
  C  C57  1  0.94199000  0.41751000  0.55024000  1.0
  C  C58  1  0.18741000  0.49885000  0.49862000  1.0
  C  C59  1  0.81289000  0.49683000  0.49436000  1.0
  C  C60  1  0.50152000  0.49943000  0.33598000  1.0
  C  C61  1  0.43945000  0.55565000  0.02714000  1.0
  C  C62  1  0.52403000  0.57546000  0.96981000  1.0
  C  C63  1  0.49638000  0.49932000  0.74803000  1.0
  C  C64  1  0.50269000  0.49904000  0.24616000  1.0
  C  C65  1  0.41244000  0.47657000  0.97100000  1.0
  C  C66  1  0.66953000  0.07421000  0.57408000  1.0
  C  C67  1  0.50216000  0.49982000  0.08267000  1.0
  C  C68  1  0.36340000  0.07181000  0.61333000  1.0
  C  C69  1  0.33952000  0.09047000  0.43663000  1.0
  C  C70  1  0.37546000  0.61708000  0.06059000  1.0
  C  C71  1  0.92770000  0.66157000  0.48802000  1.0
  C  C72  1  0.92136000  0.40308000  0.36100000  1.0
  C  C73  1  0.91211000  0.42225000  0.64091000  1.0
  C  C74  1  0.68235000  0.54481000  0.05459000  1.0
  C  C75  1  0.44641000  0.33559000  0.05843000  1.0
  C  C76  1  0.68290000  0.91034000  0.51906000  1.0
  C  C77  1  0.55680000  0.44273000  0.96837000  1.0
  C  C78  1  0.58711000  0.52102000  0.02444000  1.0
  C  C79  1  0.49453000  0.49760000  0.82358000  1.0
  C  C80  1  0.50348000  0.49965000  0.17044000  1.0
  C  C81  1  0.43230000  0.95324000  0.44161000  1.0
  I  I82  1  0.56234000  0.69629000  0.92471000  1.0
  I  I83  1  0.11267000  0.63080000  0.35828000  1.0
  I  I84  1  0.12885000  0.42946000  0.31218000  1.0
  I  I85  1  0.85038000  0.29818000  0.51653000  1.0
  I  I86  1  0.12763000  0.41277000  0.66505000  1.0
  I  I87  1  0.88161000  0.62070000  0.65651000  1.0
  I  I88  1  0.09682000  0.29530000  0.48987000  1.0
  I  I89  1  0.64718000  0.35437000  0.92126000  1.0
  I  I90  1  0.27623000  0.44232000  0.92905000  1.0
  I  I91  1  0.47488000  0.09088000  0.30926000  1.0
  I  I92  1  0.61863000  0.90890000  0.34899000  1.0
  I  I93  1  0.69165000  0.12742000  0.40703000  1.0
  I  I94  1  0.34789000  0.87899000  0.64642000  1.0
  I  I95  1  0.56782000  0.90540000  0.69976000  1.0
  I  I96  1  0.29680000  0.88745000  0.42288000  1.0
  I  I97  1  0.52301000  0.12675000  0.70883000  1.0
  I  I98  1  0.14179000  0.67931000  0.58226000  1.0
  I  I99  1  0.87101000  0.56648000  0.31167000  1.0
  N  N100  1  0.26653000  0.49685000  0.49529000  1.0
  N  N101  1  0.73441000  0.50395000  0.49801000  1.0
  O  O102  1  0.42570000  0.62297000  0.50385000  1.0
  O  O103  1  0.58251000  0.63456000  0.49431000  1.0
  O  O104  1  0.42072000  0.48877000  0.62112000  1.0
  O  O105  1  0.57671000  0.51477000  0.62582000  1.0
  O  O106  1  0.42012000  0.36762000  0.48934000  1.0
  O  O107  1  0.57645000  0.37998000  0.50759000  1.0
  O  O108  1  0.42258000  0.50049000  0.36911000  1.0
  O  O109  1  0.57936000  0.49885000  0.37298000  1.0
