# generated using pymatgen
data_BiH9C14N2O9
_symmetry_space_group_name_H-M   'P 1'
_cell_length_a   7.71678000
_cell_length_b   12.69150000
_cell_length_c   15.35770000
_cell_angle_alpha   108.71900000
_cell_angle_beta   90.00000000
_cell_angle_gamma   89.99990000
_symmetry_Int_Tables_number   1
_chemical_formula_structural   BiH9C14N2O9
_chemical_formula_sum   'Bi4 H36 C56 N8 O36'
_cell_volume   1424.53420183
_cell_formula_units_Z   4
loop_
 _symmetry_equiv_pos_site_id
 _symmetry_equiv_pos_as_xyz
  1  'x, y, z'
loop_
 _atom_site_type_symbol
 _atom_site_label
 _atom_site_symmetry_multiplicity
 _atom_site_fract_x
 _atom_site_fract_y
 _atom_site_fract_z
 _atom_site_occupancy
  Bi  Bi0  1  0.71327000  0.42017000  0.24556000  1.0
  Bi  Bi1  1  0.21327000  0.07983000  0.75444000  1.0
  Bi  Bi2  1  0.28674000  0.57983000  0.75444000  1.0
  Bi  Bi3  1  0.78673000  0.92017000  0.24556000  1.0
  H  H4  1  0.33621000  0.67765000  0.53474000  1.0
  H  H5  1  0.83621000  0.82235000  0.46526000  1.0
  H  H6  1  0.66379000  0.32235000  0.46526000  1.0
  H  H7  1  0.16379000  0.17765000  0.53474000  1.0
  H  H8  1  0.56947000  0.74317000  0.65573000  1.0
  H  H9  1  0.06947000  0.75684000  0.34427000  1.0
  H  H10  1  0.43053000  0.25683000  0.34427000  1.0
  H  H11  1  0.93053000  0.24316000  0.65573000  1.0
  H  H12  1  0.93995000  0.56100000  0.45322000  1.0
  H  H13  1  0.43995000  0.93900000  0.54678000  1.0
  H  H14  1  0.06005000  0.43900000  0.54678000  1.0
  H  H15  1  0.56005000  0.06100000  0.45321000  1.0
  H  H16  1  0.64703000  0.60509000  0.97177000  1.0
  H  H17  1  0.14703000  0.89491000  0.02823000  1.0
  H  H18  1  0.35297000  0.39491000  0.02823000  1.0
  H  H19  1  0.85297000  0.10509000  0.97177000  1.0
  H  H20  1  0.80070000  0.46175000  0.84501000  1.0
  H  H21  1  0.30070000  0.03825000  0.15499000  1.0
  H  H22  1  0.19929000  0.53825000  0.15499000  1.0
  H  H23  1  0.69930000  0.96175000  0.84501000  1.0
  H  H24  1  0.92814000  0.29176000  0.03974000  1.0
  H  H25  1  0.42814000  0.20823000  0.96026000  1.0
  H  H26  1  0.07186000  0.70823000  0.96026000  1.0
  H  H27  1  0.57186000  0.79177000  0.03974000  1.0
  H  H28  1  0.94436000  0.75752000  0.76724000  1.0
  H  H29  1  0.44436000  0.74248000  0.23276000  1.0
  H  H30  1  0.05564000  0.24248000  0.23276000  1.0
  H  H31  1  0.55564000  0.25752000  0.76724000  1.0
  H  H32  1  0.97674000  0.58790000  0.24060000  1.0
  H  H33  1  0.47674000  0.91210000  0.75940000  1.0
  H  H34  1  0.02325000  0.41210000  0.75940000  1.0
  H  H35  1  0.52325000  0.08790000  0.24060000  1.0
  H  H36  1  0.07996000  0.53165000  0.30738000  1.0
  H  H37  1  0.57996000  0.96835000  0.69262000  1.0
  H  H38  1  0.92004000  0.46835000  0.69262000  1.0
  H  H39  1  0.42004000  0.03165000  0.30738000  1.0
  C  C40  1  0.51761000  0.58494000  0.43318000  1.0
  C  C41  1  0.01761000  0.91506000  0.56682000  1.0
  C  C42  1  0.48239000  0.41506000  0.56682000  1.0
  C  C43  1  0.98239000  0.08494000  0.43317000  1.0
  C  C44  1  0.47213000  0.65637000  0.51975000  1.0
  C  C45  1  0.97213000  0.84363000  0.48025000  1.0
  C  C46  1  0.52787000  0.34363000  0.48025000  1.0
  C  C47  1  0.02787000  0.15637000  0.51975000  1.0
  C  C48  1  0.60095000  0.69204000  0.58603000  1.0
  C  C49  1  0.10095000  0.80796000  0.41397000  1.0
  C  C50  1  0.39905000  0.30796000  0.41397000  1.0
  C  C51  1  0.89905000  0.19204000  0.58603000  1.0
  C  C52  1  0.77140000  0.65586000  0.56377000  1.0
  C  C53  1  0.27140000  0.84414000  0.43623000  1.0
  C  C54  1  0.22860000  0.34414000  0.43623000  1.0
  C  C55  1  0.72860000  0.15586000  0.56377000  1.0
  C  C56  1  0.80812000  0.58857000  0.47371000  1.0
  C  C57  1  0.30812000  0.91144000  0.52628000  1.0
  C  C58  1  0.19188000  0.41143000  0.52629000  1.0
  C  C59  1  0.69188000  0.08857000  0.47371000  1.0
  C  C60  1  0.37934000  0.53243000  0.36335000  1.0
  C  C61  1  0.87933000  0.96757000  0.63665000  1.0
  C  C62  1  0.62067000  0.46757000  0.63665000  1.0
  C  C63  1  0.12066000  0.03243000  0.36335000  1.0
  C  C64  1  0.90873000  0.68108000  0.63640000  1.0
  C  C65  1  0.40873000  0.81892000  0.36360000  1.0
  C  C66  1  0.09127000  0.31892000  0.36360000  1.0
  C  C67  1  0.59127000  0.18108000  0.63640000  1.0
  C  C68  1  0.71253000  0.52466000  0.07209000  1.0
  C  C69  1  0.21253000  0.97534000  0.92791000  1.0
  C  C70  1  0.28747000  0.47534000  0.92791000  1.0
  C  C71  1  0.78747000  0.02466000  0.07209000  1.0
  C  C72  1  0.71292000  0.53556000  0.98463000  1.0
  C  C73  1  0.21292000  0.96444000  0.01537000  1.0
  C  C74  1  0.28708000  0.46444000  0.01537000  1.0
  C  C75  1  0.78708000  0.03556000  0.98462000  1.0
  C  C76  1  0.79766000  0.45470000  0.91380000  1.0
  C  C77  1  0.29766000  0.04530000  0.08620000  1.0
  C  C78  1  0.20234000  0.54530000  0.08620000  1.0
  C  C79  1  0.70235000  0.95470000  0.91380000  1.0
  C  C80  1  0.87963000  0.36610000  0.93264000  1.0
  C  C81  1  0.37963000  0.13390000  0.06736000  1.0
  C  C82  1  0.12037000  0.63390000  0.06736000  1.0
  C  C83  1  0.62037000  0.86610000  0.93264000  1.0
  C  C84  1  0.86854000  0.36011000  0.02201000  1.0
  C  C85  1  0.36854000  0.13989000  0.97799000  1.0
  C  C86  1  0.13146000  0.63989000  0.97799000  1.0
  C  C87  1  0.63146000  0.86011000  0.02201000  1.0
  C  C88  1  0.63069000  0.60824000  0.15405000  1.0
  C  C89  1  0.13069000  0.89176000  0.84595000  1.0
  C  C90  1  0.36931000  0.39175000  0.84595000  1.0
  C  C91  1  0.86931000  0.10825000  0.15405000  1.0
  C  C92  1  0.98466000  0.27952000  0.86272000  1.0
  C  C93  1  0.48466000  0.22048000  0.13728000  1.0
  C  C94  1  0.01534000  0.72048000  0.13728000  1.0
  C  C95  1  0.51534000  0.77952000  0.86272000  1.0
  N  N96  1  0.68296000  0.55362000  0.41049000  1.0
  N  N97  1  0.18296000  0.94638000  0.58951000  1.0
  N  N98  1  0.31704000  0.44638000  0.58951000  1.0
  N  N99  1  0.81704000  0.05362000  0.41049000  1.0
  N  N100  1  0.78685000  0.43746000  0.08921000  1.0
  N  N101  1  0.28685000  0.06254000  0.91079000  1.0
  N  N102  1  0.21315000  0.56254000  0.91079000  1.0
  N  N103  1  0.71315000  0.93746000  0.08921000  1.0
  O  O104  1  0.42397000  0.45326000  0.29118000  1.0
  O  O105  1  0.92397000  0.04673000  0.70882000  1.0
  O  O106  1  0.57603000  0.54673000  0.70882000  1.0
  O  O107  1  0.07603000  0.95327000  0.29118000  1.0
  O  O108  1  0.22631000  0.56593000  0.38250000  1.0
  O  O109  1  0.72631000  0.93407000  0.61750000  1.0
  O  O110  1  0.77369000  0.43407000  0.61750000  1.0
  O  O111  1  0.27369000  0.06593000  0.38250000  1.0
  O  O112  1  0.05990000  0.64694000  0.62115000  1.0
  O  O113  1  0.55991000  0.85306000  0.37885000  1.0
  O  O114  1  0.94010000  0.35306000  0.37885000  1.0
  O  O115  1  0.44009000  0.14694000  0.62115000  1.0
  O  O116  1  0.84870000  0.74010000  0.71816000  1.0
  O  O117  1  0.34870000  0.75990000  0.28184000  1.0
  O  O118  1  0.15130000  0.25990000  0.28184000  1.0
  O  O119  1  0.65130000  0.24010000  0.71816000  1.0
  O  O120  1  0.62468000  0.58424000  0.22901000  1.0
  O  O121  1  0.12468000  0.91576000  0.77099000  1.0
  O  O122  1  0.37532000  0.41576000  0.77099000  1.0
  O  O123  1  0.87532000  0.08424000  0.22901000  1.0
  O  O124  1  0.56956000  0.69762000  0.14719000  1.0
  O  O125  1  0.06956000  0.80238000  0.85281000  1.0
  O  O126  1  0.43045000  0.30238000  0.85281000  1.0
  O  O127  1  0.93045000  0.19762000  0.14719000  1.0
  O  O128  1  0.03950000  0.29860000  0.79127000  1.0
  O  O129  1  0.53949000  0.20140000  0.20873000  1.0
  O  O130  1  0.96050000  0.70140000  0.20873000  1.0
  O  O131  1  0.46051000  0.79860000  0.79127000  1.0
  O  O132  1  0.02098000  0.19134000  0.88182000  1.0
  O  O133  1  0.52098000  0.30866000  0.11818000  1.0
  O  O134  1  0.97902000  0.80866000  0.11818000  1.0
  O  O135  1  0.47902000  0.69134000  0.88182000  1.0
  O  O136  1  0.98401000  0.51964000  0.25976000  1.0
  O  O137  1  0.48400000  0.98035000  0.74024000  1.0
  O  O138  1  0.01599000  0.48036000  0.74024000  1.0
  O  O139  1  0.51600000  0.01965000  0.25976000  1.0
