# generated using pymatgen
data_MnH13C19NCl2O5
_symmetry_space_group_name_H-M   'P 1'
_cell_length_a   7.32916000
_cell_length_b   9.52994000
_cell_length_c   14.31512915
_cell_angle_alpha   70.55146468
_cell_angle_beta   89.99866963
_cell_angle_gamma   89.99680000
_symmetry_Int_Tables_number   1
_chemical_formula_structural   MnH13C19NCl2O5
_chemical_formula_sum   'Mn2 H26 C38 N2 Cl4 O10'
_cell_volume   942.80989864
_cell_formula_units_Z   2
loop_
 _symmetry_equiv_pos_site_id
 _symmetry_equiv_pos_as_xyz
  1  'x, y, z'
loop_
 _atom_site_type_symbol
 _atom_site_label
 _atom_site_symmetry_multiplicity
 _atom_site_fract_x
 _atom_site_fract_y
 _atom_site_fract_z
 _atom_site_occupancy
  Mn  Mn0  1  0.00000000  0.49999000  0.00001000  1.0
  Mn  Mn1  1  0.50000000  0.50000000  0.00000000  1.0
  H  H2  1  0.04191000  0.86268000  0.73355000  1.0
  H  H3  1  0.54191000  0.13731000  0.26646000  1.0
  H  H4  1  0.45807000  0.59660000  0.26679000  1.0
  H  H5  1  0.95809000  0.40341000  0.73321000  1.0
  H  H6  1  0.95810000  0.13732000  0.26645000  1.0
  H  H7  1  0.45810000  0.86268000  0.73354000  1.0
  H  H8  1  0.54193000  0.40341000  0.73320000  1.0
  H  H9  1  0.04191000  0.59659000  0.26679000  1.0
  H  H10  1  0.04382000  0.06909000  0.56981000  1.0
  H  H11  1  0.54381000  0.93089000  0.43021000  1.0
  H  H12  1  0.45621000  0.63949000  0.43044000  1.0
  H  H13  1  0.95623000  0.36051000  0.56957000  1.0
  H  H14  1  0.95619000  0.93090000  0.43020000  1.0
  H  H15  1  0.45620000  0.06910000  0.56979000  1.0
  H  H16  1  0.54379000  0.36051000  0.56956000  1.0
  H  H17  1  0.04377000  0.63949000  0.43043000  1.0
  H  H18  1  0.74999000  0.16294000  0.15247000  1.0
  H  H19  1  0.25000000  0.83706000  0.84753000  1.0
  H  H20  1  0.74999000  0.31524000  0.84810000  1.0
  H  H21  1  0.25001000  0.68476000  0.15190000  1.0
  H  H22  1  0.75000000  0.83712000  0.00025000  1.0
  H  H23  1  0.25000000  0.16288000  0.99976000  1.0
  H  H24  1  0.75000000  0.89257000  0.16042000  1.0
  H  H25  1  0.24999000  0.10743000  0.83958000  1.0
  H  H26  1  0.75000000  0.05285000  0.84012000  1.0
  H  H27  1  0.25001000  0.94715000  0.15988000  1.0
  C  C28  1  0.75001000  0.73585000  0.84569000  1.0
  C  C29  1  0.24999000  0.26415000  0.15431000  1.0
  C  C30  1  0.75000000  0.58120000  0.15474000  1.0
  C  C31  1  0.25000000  0.41880000  0.84526000  1.0
  C  C32  1  0.75000000  0.85341000  0.74488000  1.0
  C  C33  1  0.25000000  0.14658000  0.25512000  1.0
  C  C34  1  0.74999000  0.59849000  0.25544000  1.0
  C  C35  1  0.25001000  0.40151000  0.74456000  1.0
  C  C36  1  0.75001000  0.08183000  0.56233000  1.0
  C  C37  1  0.25000000  0.91816000  0.43767000  1.0
  C  C38  1  0.74998000  0.64490000  0.43787000  1.0
  C  C39  1  0.25001000  0.35511000  0.56212000  1.0
  C  C40  1  0.91472000  0.91055000  0.69776000  1.0
  C  C41  1  0.41471000  0.08944000  0.30224000  1.0
  C  C42  1  0.58533000  0.60868000  0.30251000  1.0
  C  C43  1  0.08535000  0.39133000  0.69749000  1.0
  C  C44  1  0.08529000  0.08944000  0.30224000  1.0
  C  C45  1  0.58529000  0.91056000  0.69776000  1.0
  C  C46  1  0.41467000  0.39133000  0.69748000  1.0
  C  C47  1  0.91465000  0.60867000  0.30251000  1.0
  C  C48  1  0.91622000  0.02473000  0.60677000  1.0
  C  C49  1  0.41621000  0.97526000  0.39324000  1.0
  C  C50  1  0.58381000  0.63219000  0.39342000  1.0
  C  C51  1  0.08383000  0.36783000  0.60658000  1.0
  C  C52  1  0.08379000  0.97527000  0.39323000  1.0
  C  C53  1  0.58380000  0.02473000  0.60676000  1.0
  C  C54  1  0.41618000  0.36782000  0.60658000  1.0
  C  C55  1  0.91616000  0.63218000  0.39342000  1.0
  C  C56  1  0.74999000  0.12749000  0.08801000  1.0
  C  C57  1  0.25000000  0.87252000  0.91199000  1.0
  C  C58  1  0.75000000  0.21529000  0.91254000  1.0
  C  C59  1  0.25000000  0.78472000  0.08745000  1.0
  C  C60  1  0.75000000  0.95129000  0.00025000  1.0
  C  C61  1  0.25000000  0.04871000  0.99975000  1.0
  C  C62  1  0.75000000  0.98179000  0.08921000  1.0
  C  C63  1  0.25000000  0.01821000  0.91079000  1.0
  C  C64  1  0.74999000  0.07083000  0.91134000  1.0
  C  C65  1  0.25000000  0.92917000  0.08866000  1.0
  N  N66  1  0.75000000  0.24116000  0.00028000  1.0
  N  N67  1  0.25000000  0.75885000  0.99972000  1.0
  Cl  Cl68  1  0.75002000  0.22612000  0.44987000  1.0
  Cl  Cl69  1  0.25000000  0.77388000  0.55013000  1.0
  Cl  Cl70  1  0.74998000  0.67674000  0.55031000  1.0
  Cl  Cl71  1  0.25001000  0.32326000  0.44969000  1.0
  O  O72  1  0.90473000  0.69237000  0.88514000  1.0
  O  O73  1  0.40474000  0.30763000  0.11487000  1.0
  O  O74  1  0.59522000  0.57695000  0.11540000  1.0
  O  O75  1  0.09523000  0.42303000  0.88461000  1.0
  O  O76  1  0.09527000  0.30763000  0.11486000  1.0
  O  O77  1  0.59526000  0.69237000  0.88513000  1.0
  O  O78  1  0.40478000  0.42305000  0.88460000  1.0
  O  O79  1  0.90477000  0.57695000  0.11540000  1.0
  O  O80  1  0.75000000  0.38109000  0.00023000  1.0
  O  O81  1  0.24999000  0.61892000  0.99976000  1.0
