# generated using pymatgen
data_Cu2H12C10S(N2O3)2
_symmetry_space_group_name_H-M   'P 1'
_cell_length_a   9.20672000
_cell_length_b   9.29645000
_cell_length_c   10.77420000
_cell_angle_alpha   84.14180000
_cell_angle_beta   84.56620000
_cell_angle_gamma   83.85310000
_symmetry_Int_Tables_number   1
_chemical_formula_structural   Cu2H12C10S(N2O3)2
_chemical_formula_sum   'Cu4 H24 C20 S2 N8 O12'
_cell_volume   908.79463969
_cell_formula_units_Z   2
loop_
 _symmetry_equiv_pos_site_id
 _symmetry_equiv_pos_as_xyz
  1  'x, y, z'
loop_
 _atom_site_type_symbol
 _atom_site_label
 _atom_site_symmetry_multiplicity
 _atom_site_fract_x
 _atom_site_fract_y
 _atom_site_fract_z
 _atom_site_occupancy
  Cu  Cu0  1  0.34482000  0.14555000  0.94276000  1.0
  Cu  Cu1  1  0.64167000  0.87164000  0.07236000  1.0
  Cu  Cu2  1  0.06992000  0.92837000  0.66169000  1.0
  Cu  Cu3  1  0.91807000  0.07453000  0.34933000  1.0
  H  H4  1  0.57472000  0.27476000  0.04490000  1.0
  H  H5  1  0.51320000  0.68836000  0.94873000  1.0
  H  H6  1  0.51885000  0.43106000  0.99538000  1.0
  H  H7  1  0.67965000  0.64064000  0.95874000  1.0
  H  H8  1  0.81262000  0.08346000  0.64328000  1.0
  H  H9  1  0.16532000  0.91173000  0.36170000  1.0
  H  H10  1  0.53739000  0.22022000  0.68970000  1.0
  H  H11  1  0.44284000  0.77893000  0.31648000  1.0
  H  H12  1  0.17466000  0.44743000  0.54690000  1.0
  H  H13  1  0.82573000  0.55117000  0.45762000  1.0
  H  H14  1  0.03031000  0.38005000  0.34877000  1.0
  H  H15  1  0.97216000  0.61766000  0.65476000  1.0
  H  H16  1  0.53378000  0.90020000  0.63665000  1.0
  H  H17  1  0.45457000  0.10252000  0.35292000  1.0
  H  H18  1  0.56322000  0.74424000  0.54722000  1.0
  H  H19  1  0.41069000  0.26549000  0.43188000  1.0
  H  H20  1  0.63345000  0.73623000  0.69858000  1.0
  H  H21  1  0.37044000  0.26309000  0.27112000  1.0
  H  H22  1  0.32606000  0.47365000  0.74327000  1.0
  H  H23  1  0.67851000  0.52104000  0.25785000  1.0
  H  H24  1  0.51407000  0.49354000  0.76083000  1.0
  H  H25  1  0.49628000  0.50256000  0.22095000  1.0
  H  H26  1  0.44893000  0.51023000  0.60588000  1.0
  H  H27  1  0.53769000  0.49233000  0.38297000  1.0
  C  C28  1  0.86399000  0.84744000  0.87580000  1.0
  C  C29  1  0.11506000  0.15118000  0.13048000  1.0
  C  C30  1  0.75485000  0.96614000  0.83211000  1.0
  C  C31  1  0.22603000  0.03539000  0.17634000  1.0
  C  C32  1  0.73767000  0.06539000  0.72572000  1.0
  C  C33  1  0.24197000  0.93322000  0.28111000  1.0
  C  C34  1  0.59761000  0.13635000  0.74733000  1.0
  C  C35  1  0.38275000  0.86421000  0.26014000  1.0
  C  C36  1  0.20707000  0.16019000  0.72860000  1.0
  C  C37  1  0.78071000  0.84203000  0.28268000  1.0
  C  C38  1  0.14666000  0.21349000  0.60940000  1.0
  C  C39  1  0.84484000  0.78773000  0.39970000  1.0
  C  C40  1  0.13605000  0.34482000  0.53209000  1.0
  C  C41  1  0.86135000  0.65461000  0.47398000  1.0
  C  C42  1  0.06275000  0.31334000  0.43202000  1.0
  C  C43  1  0.93524000  0.68582000  0.57375000  1.0
  C  C44  1  0.54413000  0.78134000  0.64131000  1.0
  C  C45  1  0.44610000  0.22147000  0.34208000  1.0
  C  C46  1  0.42144000  0.52967000  0.70460000  1.0
  C  C47  1  0.57888000  0.46780000  0.28765000  1.0
  S  S48  1  0.37496000  0.72087000  0.71436000  1.0
  S  S49  1  0.62430000  0.27520000  0.28723000  1.0
  N  N50  1  0.63026000  0.98158000  0.91036000  1.0
  N  N51  1  0.35191000  0.02411000  0.10006000  1.0
  N  N52  1  0.53588000  0.08248000  0.86012000  1.0
  N  N53  1  0.44614000  0.92217000  0.14927000  1.0
  N  N54  1  0.08262000  0.11280000  0.55626000  1.0
  N  N55  1  0.90612000  0.88928000  0.45419000  1.0
  N  N56  1  0.03270000  0.17201000  0.45056000  1.0
  N  N57  1  0.95987000  0.82880000  0.55791000  1.0
  O  O58  1  0.82391000  0.77435000  0.98000000  1.0
  O  O59  1  0.15059000  0.21792000  0.02345000  1.0
  O  O60  1  0.98603000  0.81397000  0.81638000  1.0
  O  O61  1  0.99385000  0.18668000  0.19172000  1.0
  O  O62  1  0.48483000  0.33569000  0.02709000  1.0
  O  O63  1  0.58641000  0.60471000  0.94378000  1.0
  O  O64  1  0.27866000  0.24263000  0.78266000  1.0
  O  O65  1  0.70749000  0.76134000  0.22849000  1.0
  O  O66  1  0.18621000  0.02968000  0.77176000  1.0
  O  O67  1  0.79947000  0.97322000  0.23980000  1.0
  O  O68  1  0.26270000  0.76561000  0.61912000  1.0
  O  O69  1  0.72037000  0.23262000  0.39533000  1.0
