# generated using pymatgen
data_ZnH20C21O4
_symmetry_space_group_name_H-M   'P 1'
_cell_length_a   11.58080000
_cell_length_b   16.45500000
_cell_length_c   21.10570000
_cell_angle_alpha   90.00000000
_cell_angle_beta   89.99990000
_cell_angle_gamma   90.00000000
_symmetry_Int_Tables_number   1
_chemical_formula_structural   ZnH20C21O4
_chemical_formula_sum   'Zn8 H160 C168 O32'
_cell_volume   4021.94575416
_cell_formula_units_Z   8
loop_
 _symmetry_equiv_pos_site_id
 _symmetry_equiv_pos_as_xyz
  1  'x, y, z'
loop_
 _atom_site_type_symbol
 _atom_site_label
 _atom_site_symmetry_multiplicity
 _atom_site_fract_x
 _atom_site_fract_y
 _atom_site_fract_z
 _atom_site_occupancy
  Zn  Zn0  1  0.50000000  0.75000000  0.32567000  1.0
  Zn  Zn1  1  0.00000000  0.75000000  0.17433000  1.0
  Zn  Zn2  1  0.50000000  0.25000000  0.67433000  1.0
  Zn  Zn3  1  0.00000000  0.25000000  0.82567000  1.0
  Zn  Zn4  1  0.75000000  0.75176000  0.25000000  1.0
  Zn  Zn5  1  0.25000000  0.74823000  0.25000000  1.0
  Zn  Zn6  1  0.25000000  0.24824000  0.75000000  1.0
  Zn  Zn7  1  0.75000000  0.25177000  0.75000000  1.0
  H  H8  1  0.61523000  0.89532000  0.47437000  1.0
  H  H9  1  0.38477000  0.60468000  0.47437000  1.0
  H  H10  1  0.88477000  0.89532000  0.02563000  1.0
  H  H11  1  0.11523000  0.60468000  0.02563000  1.0
  H  H12  1  0.38477000  0.10468000  0.52563000  1.0
  H  H13  1  0.61523000  0.39532000  0.52563000  1.0
  H  H14  1  0.11523000  0.10468000  0.97437000  1.0
  H  H15  1  0.88477000  0.39532000  0.97437000  1.0
  H  H16  1  0.93922000  0.79428000  0.41482000  1.0
  H  H17  1  0.06078000  0.70572000  0.41482000  1.0
  H  H18  1  0.56079000  0.79428000  0.08518000  1.0
  H  H19  1  0.43922000  0.70572000  0.08518000  1.0
  H  H20  1  0.06078000  0.20572000  0.58518000  1.0
  H  H21  1  0.93921000  0.29428000  0.58518000  1.0
  H  H22  1  0.43922000  0.20572000  0.91482000  1.0
  H  H23  1  0.56078000  0.29428000  0.91482000  1.0
  H  H24  1  0.04014000  0.85752000  0.50751000  1.0
  H  H25  1  0.95986000  0.64248000  0.50751000  1.0
  H  H26  1  0.45986000  0.85752000  0.99250000  1.0
  H  H27  1  0.54014000  0.64248000  0.99249000  1.0
  H  H28  1  0.95986000  0.14248000  0.49249000  1.0
  H  H29  1  0.04014000  0.35752000  0.49250000  1.0
  H  H30  1  0.54014000  0.14248000  0.00751000  1.0
  H  H31  1  0.45986000  0.35752000  0.00750000  1.0
  H  H32  1  0.10520000  0.94183000  0.60148000  1.0
  H  H33  1  0.89479000  0.55817000  0.60148000  1.0
  H  H34  1  0.39480000  0.94183000  0.89852000  1.0
  H  H35  1  0.60521000  0.55817000  0.89852000  1.0
  H  H36  1  0.89479000  0.05817000  0.39852000  1.0
  H  H37  1  0.10521000  0.44183000  0.39852000  1.0
  H  H38  1  0.60520000  0.05817000  0.10148000  1.0
  H  H39  1  0.39479000  0.44183000  0.10148000  1.0
  H  H40  1  0.13080000  0.04264000  0.68932000  1.0
  H  H41  1  0.86920000  0.45736000  0.68932000  1.0
  H  H42  1  0.36921000  0.04264000  0.81068000  1.0
  H  H43  1  0.63080000  0.45736000  0.81068000  1.0
  H  H44  1  0.86920000  0.95736000  0.31068000  1.0
  H  H45  1  0.13080000  0.54264000  0.31068000  1.0
  H  H46  1  0.63079000  0.95736000  0.18932000  1.0
  H  H47  1  0.36920000  0.54264000  0.18932000  1.0
  H  H48  1  0.76745000  0.09956000  0.68478000  1.0
  H  H49  1  0.23254000  0.40044000  0.68478000  1.0
  H  H50  1  0.73255000  0.09957000  0.81522000  1.0
  H  H51  1  0.26745000  0.40043000  0.81522000  1.0
  H  H52  1  0.23255000  0.90043000  0.31522000  1.0
  H  H53  1  0.76746000  0.59957000  0.31522000  1.0
  H  H54  1  0.26745000  0.90043000  0.18478000  1.0
  H  H55  1  0.73255000  0.59956000  0.18478000  1.0
  H  H56  1  0.57960000  0.03585000  0.52323000  1.0
  H  H57  1  0.42040000  0.46415000  0.52323000  1.0
  H  H58  1  0.92040000  0.03585000  0.97677000  1.0
  H  H59  1  0.07960000  0.46415000  0.97677000  1.0
  H  H60  1  0.42040000  0.96415000  0.47677000  1.0
  H  H61  1  0.57960000  0.53585000  0.47677000  1.0
  H  H62  1  0.07960000  0.96415000  0.02323000  1.0
  H  H63  1  0.92040000  0.53585000  0.02323000  1.0
  H  H64  1  0.61601000  0.09875000  0.58767000  1.0
  H  H65  1  0.38399000  0.40125000  0.58767000  1.0
  H  H66  1  0.88399000  0.09875000  0.91233000  1.0
  H  H67  1  0.11601000  0.40125000  0.91233000  1.0
  H  H68  1  0.38399000  0.90125000  0.41233000  1.0
  H  H69  1  0.61601000  0.59875000  0.41233000  1.0
  H  H70  1  0.11601000  0.90125000  0.08767000  1.0
  H  H71  1  0.88399000  0.59875000  0.08767000  1.0
  H  H72  1  0.77591000  0.07484000  0.47386000  1.0
  H  H73  1  0.22409000  0.42516000  0.47386000  1.0
  H  H74  1  0.72409000  0.07484000  0.02614000  1.0
  H  H75  1  0.27591000  0.42516000  0.02614000  1.0
  H  H76  1  0.22409000  0.92516000  0.52614000  1.0
  H  H77  1  0.77591000  0.57484000  0.52614000  1.0
  H  H78  1  0.27591000  0.92516000  0.97386000  1.0
  H  H79  1  0.72409000  0.57484000  0.97386000  1.0
  H  H80  1  0.78908000  0.14831000  0.53445000  1.0
  H  H81  1  0.21092000  0.35169000  0.53445000  1.0
  H  H82  1  0.71092000  0.14831000  0.96555000  1.0
  H  H83  1  0.28908000  0.35169000  0.96555000  1.0
  H  H84  1  0.21092000  0.85169000  0.46555000  1.0
  H  H85  1  0.78908000  0.64831000  0.46555000  1.0
  H  H86  1  0.28908000  0.85169000  0.03445000  1.0
  H  H87  1  0.71092000  0.64831000  0.03445000  1.0
  H  H88  1  0.70559000  0.21294000  0.43780000  1.0
  H  H89  1  0.29441000  0.28706000  0.43780000  1.0
  H  H90  1  0.79441000  0.21293000  0.06220000  1.0
  H  H91  1  0.20559000  0.28707000  0.06220000  1.0
  H  H92  1  0.29441000  0.78707000  0.56220000  1.0
  H  H93  1  0.70559000  0.71293000  0.56220000  1.0
  H  H94  1  0.20559000  0.78707000  0.93780000  1.0
  H  H95  1  0.79441000  0.71293000  0.93780000  1.0
  H  H96  1  0.59980000  0.21215000  0.49864000  1.0
  H  H97  1  0.40020000  0.28785000  0.49864000  1.0
  H  H98  1  0.90019000  0.21215000  0.00136000  1.0
  H  H99  1  0.09980000  0.28785000  0.00136000  1.0
  H  H100  1  0.40020000  0.78785000  0.50136000  1.0
  H  H101  1  0.59981000  0.71215000  0.50136000  1.0
  H  H102  1  0.09980000  0.78785000  0.99864000  1.0
  H  H103  1  0.90019000  0.71215000  0.99864000  1.0
  H  H104  1  0.59264000  0.13998000  0.43604000  1.0
  H  H105  1  0.40736000  0.36002000  0.43604000  1.0
  H  H106  1  0.90736000  0.13998000  0.06396000  1.0
  H  H107  1  0.09264000  0.36002000  0.06396000  1.0
  H  H108  1  0.40736000  0.86002000  0.56396000  1.0
  H  H109  1  0.59264000  0.63998000  0.56396000  1.0
  H  H110  1  0.09264000  0.86002000  0.93604000  1.0
  H  H111  1  0.90736000  0.63998000  0.93604000  1.0
  H  H112  1  0.60049000  0.99608000  0.66045000  1.0
  H  H113  1  0.39952000  0.50393000  0.66045000  1.0
  H  H114  1  0.89952000  0.99607000  0.83955000  1.0
  H  H115  1  0.10048000  0.50393000  0.83955000  1.0
  H  H116  1  0.39951000  0.00393000  0.33955000  1.0
  H  H117  1  0.60049000  0.49607000  0.33955000  1.0
  H  H118  1  0.10049000  0.00393000  0.16045000  1.0
  H  H119  1  0.89951000  0.49608000  0.16045000  1.0
  H  H120  1  0.55159000  0.93092000  0.59994000  1.0
  H  H121  1  0.44840000  0.56908000  0.59994000  1.0
  H  H122  1  0.94840000  0.93092000  0.90006000  1.0
  H  H123  1  0.05160000  0.56908000  0.90006000  1.0
  H  H124  1  0.44840000  0.06908000  0.40006000  1.0
  H  H125  1  0.55160000  0.43092000  0.40006000  1.0
  H  H126  1  0.05160000  0.06908000  0.09994000  1.0
  H  H127  1  0.94840000  0.43092000  0.09994000  1.0
  H  H128  1  0.75135000  0.89198000  0.69071000  1.0
  H  H129  1  0.24865000  0.60802000  0.69071000  1.0
  H  H130  1  0.74865000  0.89198000  0.80929000  1.0
  H  H131  1  0.25135000  0.60802000  0.80929000  1.0
  H  H132  1  0.24865000  0.10802000  0.30929000  1.0
  H  H133  1  0.75135000  0.39198000  0.30929000  1.0
  H  H134  1  0.25135000  0.10802000  0.19071000  1.0
  H  H135  1  0.74865000  0.39198000  0.19071000  1.0
  H  H136  1  0.69500000  0.82544000  0.63298000  1.0
  H  H137  1  0.30499000  0.67456000  0.63298000  1.0
  H  H138  1  0.80500000  0.82544000  0.86702000  1.0
  H  H139  1  0.19501000  0.67456000  0.86702000  1.0
  H  H140  1  0.30499000  0.17456000  0.36702000  1.0
  H  H141  1  0.69501000  0.32544000  0.36702000  1.0
  H  H142  1  0.19501000  0.17456000  0.13298000  1.0
  H  H143  1  0.80499000  0.32544000  0.13298000  1.0
  H  H144  1  0.61097000  0.79408000  0.74024000  1.0
  H  H145  1  0.38903000  0.70592000  0.74024000  1.0
  H  H146  1  0.88903000  0.79408000  0.75976000  1.0
  H  H147  1  0.11097000  0.70592000  0.75976000  1.0
  H  H148  1  0.38903000  0.20592000  0.25976000  1.0
  H  H149  1  0.61097000  0.29408000  0.25976000  1.0
  H  H150  1  0.11097000  0.20592000  0.24024000  1.0
  H  H151  1  0.88903000  0.29408000  0.24024000  1.0
  H  H152  1  0.50066000  0.82855000  0.68851000  1.0
  H  H153  1  0.49933000  0.67145000  0.68851000  1.0
  H  H154  1  0.99934000  0.82855000  0.81149000  1.0
  H  H155  1  0.00066000  0.67145000  0.81149000  1.0
  H  H156  1  0.49933000  0.17145000  0.31149000  1.0
  H  H157  1  0.50067000  0.32855000  0.31149000  1.0
  H  H158  1  0.00067000  0.17145000  0.18851000  1.0
  H  H159  1  0.99933000  0.32855000  0.18851000  1.0
  H  H160  1  0.55859000  0.89525000  0.74651000  1.0
  H  H161  1  0.44141000  0.60475000  0.74651000  1.0
  H  H162  1  0.94141000  0.89525000  0.75349000  1.0
  H  H163  1  0.05859000  0.60475000  0.75349000  1.0
  H  H164  1  0.44141000  0.10475000  0.25349000  1.0
  H  H165  1  0.55859000  0.39525000  0.25349000  1.0
  H  H166  1  0.05859000  0.10475000  0.24651000  1.0
  H  H167  1  0.94141000  0.39525000  0.24651000  1.0
  C  C168  1  0.70781000  0.88917000  0.48245000  1.0
  C  C169  1  0.29219000  0.61083000  0.48245000  1.0
  C  C170  1  0.79220000  0.88917000  0.01755000  1.0
  C  C171  1  0.20781000  0.61083000  0.01755000  1.0
  C  C172  1  0.29219000  0.11083000  0.51755000  1.0
  C  C173  1  0.70781000  0.38917000  0.51755000  1.0
  C  C174  1  0.20781000  0.11083000  0.98245000  1.0
  C  C175  1  0.79219000  0.38917000  0.98245000  1.0
  C  C176  1  0.77319000  0.84126000  0.44031000  1.0
  C  C177  1  0.22681000  0.65874000  0.44031000  1.0
  C  C178  1  0.72681000  0.84126000  0.05969000  1.0
  C  C179  1  0.27319000  0.65874000  0.05969000  1.0
  C  C180  1  0.22681000  0.15874000  0.55969000  1.0
  C  C181  1  0.77319000  0.34126000  0.55969000  1.0
  C  C182  1  0.27319000  0.15874000  0.94031000  1.0
  C  C183  1  0.72681000  0.34126000  0.94031000  1.0
  C  C184  1  0.89211000  0.83063000  0.44921000  1.0
  C  C185  1  0.10789000  0.66937000  0.44921000  1.0
  C  C186  1  0.60789000  0.83063000  0.05079000  1.0
  C  C187  1  0.39211000  0.66937000  0.05079000  1.0
  C  C188  1  0.10789000  0.16937000  0.55079000  1.0
  C  C189  1  0.89211000  0.33063000  0.55079000  1.0
  C  C190  1  0.39211000  0.16937000  0.94921000  1.0
  C  C191  1  0.60789000  0.33063000  0.94921000  1.0
  C  C192  1  0.94796000  0.86663000  0.50024000  1.0
  C  C193  1  0.05204000  0.63337000  0.50024000  1.0
  C  C194  1  0.55204000  0.86663000  0.99976000  1.0
  C  C195  1  0.44796000  0.63337000  0.99976000  1.0
  C  C196  1  0.05204000  0.13337000  0.49976000  1.0
  C  C197  1  0.94796000  0.36663000  0.49976000  1.0
  C  C198  1  0.44796000  0.13337000  0.00024000  1.0
  C  C199  1  0.55204000  0.36663000  0.00024000  1.0
  C  C200  1  0.03194000  0.97639000  0.61947000  1.0
  C  C201  1  0.96805000  0.52361000  0.61947000  1.0
  C  C202  1  0.46806000  0.97639000  0.88053000  1.0
  C  C203  1  0.53194000  0.52361000  0.88053000  1.0
  C  C204  1  0.96805000  0.02361000  0.38054000  1.0
  C  C205  1  0.03195000  0.47639000  0.38054000  1.0
  C  C206  1  0.53194000  0.02361000  0.11947000  1.0
  C  C207  1  0.46805000  0.47639000  0.11947000  1.0
  C  C208  1  0.04635000  0.03183000  0.66831000  1.0
  C  C209  1  0.95365000  0.46817000  0.66831000  1.0
  C  C210  1  0.45366000  0.03183000  0.83169000  1.0
  C  C211  1  0.54635000  0.46817000  0.83169000  1.0
  C  C212  1  0.95365000  0.96817000  0.33169000  1.0
  C  C213  1  0.04635000  0.53183000  0.33169000  1.0
  C  C214  1  0.54634000  0.96817000  0.16831000  1.0
  C  C215  1  0.45365000  0.53183000  0.16831000  1.0
  C  C216  1  0.95161000  0.07649000  0.69146000  1.0
  C  C217  1  0.04839000  0.42351000  0.69146000  1.0
  C  C218  1  0.54839000  0.07649000  0.80854000  1.0
  C  C219  1  0.45161000  0.42351000  0.80854000  1.0
  C  C220  1  0.04839000  0.92351000  0.30854000  1.0
  C  C221  1  0.95162000  0.57649000  0.30854000  1.0
  C  C222  1  0.45161000  0.92351000  0.19146000  1.0
  C  C223  1  0.54839000  0.57649000  0.19146000  1.0
  C  C224  1  0.84045000  0.06557000  0.66585000  1.0
  C  C225  1  0.15955000  0.43443000  0.66585000  1.0
  C  C226  1  0.65955000  0.06557000  0.83415000  1.0
  C  C227  1  0.34045000  0.43443000  0.83415000  1.0
  C  C228  1  0.15955000  0.93443000  0.33415000  1.0
  C  C229  1  0.84045000  0.56557000  0.33415000  1.0
  C  C230  1  0.34045000  0.93443000  0.16585000  1.0
  C  C231  1  0.65955000  0.56557000  0.16585000  1.0
  C  C232  1  0.71631000  0.98796000  0.58105000  1.0
  C  C233  1  0.28369000  0.51204000  0.58105000  1.0
  C  C234  1  0.78369000  0.98796000  0.91895000  1.0
  C  C235  1  0.21631000  0.51204000  0.91895000  1.0
  C  C236  1  0.28369000  0.01204000  0.41895000  1.0
  C  C237  1  0.71631000  0.48796000  0.41895000  1.0
  C  C238  1  0.21631000  0.01204000  0.08105000  1.0
  C  C239  1  0.78369000  0.48796000  0.08105000  1.0
  C  C240  1  0.76378000  0.92840000  0.53189000  1.0
  C  C241  1  0.23621000  0.57160000  0.53189000  1.0
  C  C242  1  0.73622000  0.92840000  0.96811000  1.0
  C  C243  1  0.26379000  0.57160000  0.96811000  1.0
  C  C244  1  0.23621000  0.07160000  0.46811000  1.0
  C  C245  1  0.76378000  0.42840000  0.46811000  1.0
  C  C246  1  0.26379000  0.07160000  0.03189000  1.0
  C  C247  1  0.73621000  0.42840000  0.03189000  1.0
  C  C248  1  0.88382000  0.91679000  0.54044000  1.0
  C  C249  1  0.11617000  0.58321000  0.54044000  1.0
  C  C250  1  0.61618000  0.91679000  0.95956000  1.0
  C  C251  1  0.38383000  0.58321000  0.95956000  1.0
  C  C252  1  0.11618000  0.08321000  0.45956000  1.0
  C  C253  1  0.88382000  0.41679000  0.45956000  1.0
  C  C254  1  0.38382000  0.08321000  0.04044000  1.0
  C  C255  1  0.61618000  0.41679000  0.04044000  1.0
  C  C256  1  0.92204000  0.96710000  0.59306000  1.0
  C  C257  1  0.07795000  0.53290000  0.59306000  1.0
  C  C258  1  0.57796000  0.96710000  0.90694000  1.0
  C  C259  1  0.42205000  0.53290000  0.90694000  1.0
  C  C260  1  0.07795000  0.03290000  0.40694000  1.0
  C  C261  1  0.92205000  0.46710000  0.40694000  1.0
  C  C262  1  0.42204000  0.03290000  0.09306000  1.0
  C  C263  1  0.57795000  0.46710000  0.09306000  1.0
  C  C264  1  0.82637000  0.01134000  0.61624000  1.0
  C  C265  1  0.17363000  0.48866000  0.61624000  1.0
  C  C266  1  0.67363000  0.01134000  0.88376000  1.0
  C  C267  1  0.32637000  0.48866000  0.88376000  1.0
  C  C268  1  0.17362000  0.98866000  0.38376000  1.0
  C  C269  1  0.82637000  0.51134000  0.38376000  1.0
  C  C270  1  0.32637000  0.98866000  0.11624000  1.0
  C  C271  1  0.67363000  0.51134000  0.11624000  1.0
  C  C272  1  0.71555000  0.80143000  0.38543000  1.0
  C  C273  1  0.28445000  0.69857000  0.38543000  1.0
  C  C274  1  0.78445000  0.80143000  0.11457000  1.0
  C  C275  1  0.21555000  0.69857000  0.11457000  1.0
  C  C276  1  0.28445000  0.19857000  0.61457000  1.0
  C  C277  1  0.71555000  0.30143000  0.61457000  1.0
  C  C278  1  0.21555000  0.19857000  0.88543000  1.0
  C  C279  1  0.78445000  0.30143000  0.88543000  1.0
  C  C280  1  0.97407000  0.13534000  0.74252000  1.0
  C  C281  1  0.02593000  0.36466000  0.74252000  1.0
  C  C282  1  0.52593000  0.13534000  0.75748000  1.0
  C  C283  1  0.47407000  0.36466000  0.75749000  1.0
  C  C284  1  0.02593000  0.86466000  0.25748000  1.0
  C  C285  1  0.97408000  0.63534000  0.25749000  1.0
  C  C286  1  0.47407000  0.86466000  0.24252000  1.0
  C  C287  1  0.52593000  0.63534000  0.24252000  1.0
  C  C288  1  0.65355000  0.06086000  0.54986000  1.0
  C  C289  1  0.34645000  0.43914000  0.54986000  1.0
  C  C290  1  0.84645000  0.06085000  0.95014000  1.0
  C  C291  1  0.15355000  0.43915000  0.95014000  1.0
  C  C292  1  0.34645000  0.93915000  0.45014000  1.0
  C  C293  1  0.65356000  0.56085000  0.45014000  1.0
  C  C294  1  0.15355000  0.93915000  0.04986000  1.0
  C  C295  1  0.84645000  0.56086000  0.04986000  1.0
  C  C296  1  0.72587000  0.11412000  0.50600000  1.0
  C  C297  1  0.27413000  0.38588000  0.50600000  1.0
  C  C298  1  0.77413000  0.11412000  0.99400000  1.0
  C  C299  1  0.22587000  0.38588000  0.99400000  1.0
  C  C300  1  0.27413000  0.88588000  0.49400000  1.0
  C  C301  1  0.72587000  0.61412000  0.49400000  1.0
  C  C302  1  0.22587000  0.88588000  0.00600000  1.0
  C  C303  1  0.77413000  0.61412000  0.00600000  1.0
  C  C304  1  0.65197000  0.17314000  0.46752000  1.0
  C  C305  1  0.34803000  0.32686000  0.46752000  1.0
  C  C306  1  0.84803000  0.17314000  0.03248000  1.0
  C  C307  1  0.15197000  0.32686000  0.03248000  1.0
  C  C308  1  0.34803000  0.82686000  0.53248000  1.0
  C  C309  1  0.65197000  0.67314000  0.53248000  1.0
  C  C310  1  0.15197000  0.82686000  0.96752000  1.0
  C  C311  1  0.84803000  0.67314000  0.96752000  1.0
  C  C312  1  0.62885000  0.94818000  0.62735000  1.0
  C  C313  1  0.37114000  0.55182000  0.62735000  1.0
  C  C314  1  0.87115000  0.94818000  0.87265000  1.0
  C  C315  1  0.12886000  0.55182000  0.87265000  1.0
  C  C316  1  0.37114000  0.05182000  0.37265000  1.0
  C  C317  1  0.62886000  0.44818000  0.37265000  1.0
  C  C318  1  0.12886000  0.05182000  0.12735000  1.0
  C  C319  1  0.87114000  0.44818000  0.12735000  1.0
  C  C320  1  0.67173000  0.87537000  0.66535000  1.0
  C  C321  1  0.32827000  0.62463000  0.66535000  1.0
  C  C322  1  0.82827000  0.87537000  0.83465000  1.0
  C  C323  1  0.17173000  0.62463000  0.83465000  1.0
  C  C324  1  0.32827000  0.12463000  0.33465000  1.0
  C  C325  1  0.67173000  0.37537000  0.33465000  1.0
  C  C326  1  0.17173000  0.12463000  0.16535000  1.0
  C  C327  1  0.82827000  0.37537000  0.16535000  1.0
  C  C328  1  0.58072000  0.84665000  0.71276000  1.0
  C  C329  1  0.41927000  0.65335000  0.71276000  1.0
  C  C330  1  0.91927000  0.84665000  0.78724000  1.0
  C  C331  1  0.08072000  0.65335000  0.78724000  1.0
  C  C332  1  0.41927000  0.15335000  0.28724000  1.0
  C  C333  1  0.58072000  0.34665000  0.28724000  1.0
  C  C334  1  0.08073000  0.15335000  0.21276000  1.0
  C  C335  1  0.91927000  0.34665000  0.21276000  1.0
  O  O336  1  0.60763000  0.78940000  0.39104000  1.0
  O  O337  1  0.39236000  0.71060000  0.39104000  1.0
  O  O338  1  0.89237000  0.78940000  0.10896000  1.0
  O  O339  1  0.10764000  0.71060000  0.10896000  1.0
  O  O340  1  0.39237000  0.21060000  0.60896000  1.0
  O  O341  1  0.60763000  0.28940000  0.60896000  1.0
  O  O342  1  0.10764000  0.21060000  0.89105000  1.0
  O  O343  1  0.89237000  0.28940000  0.89104000  1.0
  O  O344  1  0.77930000  0.78209000  0.33807000  1.0
  O  O345  1  0.22070000  0.71791000  0.33807000  1.0
  O  O346  1  0.72071000  0.78209000  0.16193000  1.0
  O  O347  1  0.27930000  0.71791000  0.16193000  1.0
  O  O348  1  0.22070000  0.21791000  0.66193000  1.0
  O  O349  1  0.77929000  0.28209000  0.66193000  1.0
  O  O350  1  0.27930000  0.21791000  0.83807000  1.0
  O  O351  1  0.72070000  0.28209000  0.83807000  1.0
  O  O352  1  0.88863000  0.17515000  0.76938000  1.0
  O  O353  1  0.11136000  0.32485000  0.76938000  1.0
  O  O354  1  0.61137000  0.17515000  0.73062000  1.0
  O  O355  1  0.38864000  0.32485000  0.73062000  1.0
  O  O356  1  0.11136000  0.82485000  0.23062000  1.0
  O  O357  1  0.88864000  0.67515000  0.23062000  1.0
  O  O358  1  0.38863000  0.82485000  0.26938000  1.0
  O  O359  1  0.61137000  0.67515000  0.26938000  1.0
  O  O360  1  0.07516000  0.14787000  0.76233000  1.0
  O  O361  1  0.92484000  0.35213000  0.76233000  1.0
  O  O362  1  0.42484000  0.14787000  0.73767000  1.0
  O  O363  1  0.57516000  0.35213000  0.73767000  1.0
  O  O364  1  0.92484000  0.85213000  0.23767000  1.0
  O  O365  1  0.07517000  0.64787000  0.23767000  1.0
  O  O366  1  0.57516000  0.85213000  0.26233000  1.0
  O  O367  1  0.42484000  0.64787000  0.26233000  1.0
