# generated using pymatgen
data_CdH20C27(N2O5)2
_symmetry_space_group_name_H-M   'P 1'
_cell_length_a   10.34330000
_cell_length_b   10.71410000
_cell_length_c   13.69180000
_cell_angle_alpha   70.33850000
_cell_angle_beta   83.58100000
_cell_angle_gamma   83.34460000
_symmetry_Int_Tables_number   1
_chemical_formula_structural   CdH20C27(N2O5)2
_chemical_formula_sum   'Cd2 H40 C54 N8 O20'
_cell_volume   1414.91511164
_cell_formula_units_Z   2
loop_
 _symmetry_equiv_pos_site_id
 _symmetry_equiv_pos_as_xyz
  1  'x, y, z'
loop_
 _atom_site_type_symbol
 _atom_site_label
 _atom_site_symmetry_multiplicity
 _atom_site_fract_x
 _atom_site_fract_y
 _atom_site_fract_z
 _atom_site_occupancy
  Cd  Cd0  1  0.53690000  0.28902000  0.65561000  1.0
  Cd  Cd1  1  0.46310000  0.71098000  0.34439000  1.0
  H  H2  1  0.42515000  0.39541000  0.45840000  1.0
  H  H3  1  0.57485000  0.60459000  0.54160000  1.0
  H  H4  1  0.57225000  0.40653000  0.43146000  1.0
  H  H5  1  0.42775000  0.59346000  0.56854000  1.0
  H  H6  1  0.69135000  0.45356000  0.96101000  1.0
  H  H7  1  0.30865000  0.54644000  0.03899000  1.0
  H  H8  1  0.80408000  0.65563000  0.56372000  1.0
  H  H9  1  0.19592000  0.34437000  0.43628000  1.0
  H  H10  1  0.10497000  0.16332000  0.26342000  1.0
  H  H11  1  0.89503000  0.83667000  0.73658000  1.0
  H  H12  1  0.90193000  0.97991000  0.47556000  1.0
  H  H13  1  0.09807000  0.02009000  0.52444000  1.0
  H  H14  1  0.21153000  0.65122000  0.60330000  1.0
  H  H15  1  0.78847000  0.34879000  0.39670000  1.0
  H  H16  1  0.95941000  0.78255000  0.07635000  1.0
  H  H17  1  0.04058000  0.21745000  0.92365000  1.0
  H  H18  1  0.03605000  0.28270000  0.67443000  1.0
  H  H19  1  0.96395000  0.71730000  0.32557000  1.0
  H  H20  1  0.37227000  0.11716000  0.86517000  1.0
  H  H21  1  0.62773000  0.88284000  0.13483000  1.0
  H  H22  1  0.34834000  0.07487000  0.05805000  1.0
  H  H23  1  0.65166000  0.92513000  0.94196000  1.0
  H  H24  1  0.48518000  0.19339000  0.13353000  1.0
  H  H25  1  0.51482000  0.80660000  0.86648000  1.0
  H  H26  1  0.64588000  0.38864000  0.82183000  1.0
  H  H27  1  0.35412000  0.61136000  0.17817000  1.0
  H  H28  1  0.71301000  0.59118000  0.05701000  1.0
  H  H29  1  0.28699000  0.40882000  0.94299000  1.0
  H  H30  1  0.10558000  0.60058000  0.12949000  1.0
  H  H31  1  0.89442000  0.39942000  0.87051000  1.0
  H  H32  1  0.94850000  0.22431000  0.18084000  1.0
  H  H33  1  0.05150000  0.77569000  0.81916000  1.0
  H  H34  1  0.38396000  0.30045000  0.31949000  1.0
  H  H35  1  0.61604000  0.69954000  0.68051000  1.0
  H  H36  1  0.58459000  0.15966000  0.38582000  1.0
  H  H37  1  0.41541000  0.84034000  0.61418000  1.0
  H  H38  1  0.61199000  0.92132000  0.38810000  1.0
  H  H39  1  0.38801000  0.07867000  0.61190000  1.0
  H  H40  1  0.24860000  0.95486000  0.27766000  1.0
  H  H41  1  0.75140000  0.04514000  0.72234000  1.0
  C  C42  1  0.78661000  0.38760000  0.63899000  1.0
  C  C43  1  0.21339000  0.61241000  0.36101000  1.0
  C  C44  1  0.90590000  0.46125000  0.62511000  1.0
  C  C45  1  0.09410000  0.53875000  0.37489000  1.0
  C  C46  1  0.89692000  0.60034000  0.58703000  1.0
  C  C47  1  0.10308000  0.39966000  0.41296000  1.0
  C  C48  1  0.00729000  0.66805000  0.57988000  1.0
  C  C49  1  0.99271000  0.33195000  0.42012000  1.0
  C  C50  1  0.00181000  0.81473000  0.54381000  1.0
  C  C51  1  0.99819000  0.18527000  0.45619000  1.0
  C  C52  1  0.12697000  0.59717000  0.60827000  1.0
  C  C53  1  0.87303000  0.40283000  0.39173000  1.0
  C  C54  1  0.13835000  0.45862000  0.63994000  1.0
  C  C55  1  0.86165000  0.54138000  0.36006000  1.0
  C  C56  1  0.27054000  0.38481000  0.65735000  1.0
  C  C57  1  0.72946000  0.61519000  0.34265000  1.0
  C  C58  1  0.02733000  0.39099000  0.64939000  1.0
  C  C59  1  0.97267000  0.60902000  0.35061000  1.0
  C  C60  1  0.42914000  0.16667000  0.90142000  1.0
  C  C61  1  0.57086000  0.83333000  0.09858000  1.0
  C  C62  1  0.41673000  0.14393000  0.00830000  1.0
  C  C63  1  0.58327000  0.85606000  0.99170000  1.0
  C  C64  1  0.49182000  0.20959000  0.05061000  1.0
  C  C65  1  0.50818000  0.79040000  0.94939000  1.0
  C  C66  1  0.57668000  0.29967000  0.98341000  1.0
  C  C67  1  0.42332000  0.70033000  0.01660000  1.0
  C  C68  1  0.58236000  0.31820000  0.87677000  1.0
  C  C69  1  0.41764000  0.68179000  0.12323000  1.0
  C  C70  1  0.72397000  0.31507000  0.10611000  1.0
  C  C71  1  0.27602000  0.68493000  0.89390000  1.0
  C  C72  1  0.82306000  0.39946000  0.11780000  1.0
  C  C73  1  0.17694000  0.60054000  0.88220000  1.0
  C  C74  1  0.80476000  0.53823000  0.08599000  1.0
  C  C75  1  0.19524000  0.46177000  0.91401000  1.0
  C  C76  1  0.90620000  0.61054000  0.09188000  1.0
  C  C77  1  0.09380000  0.38946000  0.90812000  1.0
  C  C78  1  0.02529000  0.54465000  0.12653000  1.0
  C  C79  1  0.97471000  0.45535000  0.87347000  1.0
  C  C80  1  0.04300000  0.40562000  0.15917000  1.0
  C  C81  1  0.95700000  0.59438000  0.84083000  1.0
  C  C82  1  0.94033000  0.33260000  0.15714000  1.0
  C  C83  1  0.05967000  0.66740000  0.84287000  1.0
  C  C84  1  0.17580000  0.34491000  0.19011000  1.0
  C  C85  1  0.82420000  0.65509000  0.80989000  1.0
  C  C86  1  0.30184000  0.14040000  0.28975000  1.0
  C  C87  1  0.69816000  0.85959000  0.71025000  1.0
  C  C88  1  0.39701000  0.19700000  0.32294000  1.0
  C  C89  1  0.60299000  0.80300000  0.67706000  1.0
  C  C90  1  0.50927000  0.11810000  0.35974000  1.0
  C  C91  1  0.49073000  0.88190000  0.64026000  1.0
  C  C92  1  0.52414000  0.98598000  0.36297000  1.0
  C  C93  1  0.47586000  0.01402000  0.63703000  1.0
  C  C94  1  0.32133000  0.00582000  0.29861000  1.0
  C  C95  1  0.67867000  0.99418000  0.70139000  1.0
  N  N96  1  0.51149000  0.25206000  0.83745000  1.0
  N  N97  1  0.48851000  0.74793000  0.16255000  1.0
  N  N98  1  0.65695000  0.37079000  0.01776000  1.0
  N  N99  1  0.34305000  0.62921000  0.98225000  1.0
  N  N100  1  0.18622000  0.21351000  0.24935000  1.0
  N  N101  1  0.81378000  0.78649000  0.75065000  1.0
  N  N102  1  0.43045000  0.93128000  0.33415000  1.0
  N  N103  1  0.56955000  0.06872000  0.66585000  1.0
  O  O104  1  0.50918000  0.34211000  0.47515000  1.0
  O  O105  1  0.49082000  0.65789000  0.52485000  1.0
  O  O106  1  0.67833000  0.45749000  0.61182000  1.0
  O  O107  1  0.32167000  0.54252000  0.38818000  1.0
  O  O108  1  0.79467000  0.26245000  0.67804000  1.0
  O  O109  1  0.20532000  0.73756000  0.32196000  1.0
  O  O110  1  0.28467000  0.26119000  0.67356000  1.0
  O  O111  1  0.71533000  0.73881000  0.32644000  1.0
  O  O112  1  0.36639000  0.45474000  0.65141000  1.0
  O  O113  1  0.63361000  0.54526000  0.34859000  1.0
  O  O114  1  0.09277000  0.87226000  0.55896000  1.0
  O  O115  1  0.90723000  0.12774000  0.44103000  1.0
  O  O116  1  0.89630000  0.87747000  0.49784000  1.0
  O  O117  1  0.10370000  0.12253000  0.50216000  1.0
  O  O118  1  0.71054000  0.20196000  0.16785000  1.0
  O  O119  1  0.28946000  0.79804000  0.83215000  1.0
  O  O120  1  0.88533000  0.74635000  0.06031000  1.0
  O  O121  1  0.11467000  0.25365000  0.93969000  1.0
  O  O122  1  0.27259000  0.41152000  0.16319000  1.0
  O  O123  1  0.72741000  0.58847000  0.83680000  1.0
