# generated using pymatgen
data_LiH6C3BrN2
_symmetry_space_group_name_H-M   'P 1'
_cell_length_a   4.23087000
_cell_length_b   8.55554000
_cell_length_c   17.23730000
_cell_angle_alpha   90.00010000
_cell_angle_beta   90.00040000
_cell_angle_gamma   80.49610000
_symmetry_Int_Tables_number   1
_chemical_formula_structural   LiH6C3BrN2
_chemical_formula_sum   'Li4 H24 C12 Br4 N8'
_cell_volume   615.38101330
_cell_formula_units_Z   4
loop_
 _symmetry_equiv_pos_site_id
 _symmetry_equiv_pos_as_xyz
  1  'x, y, z'
loop_
 _atom_site_type_symbol
 _atom_site_label
 _atom_site_symmetry_multiplicity
 _atom_site_fract_x
 _atom_site_fract_y
 _atom_site_fract_z
 _atom_site_occupancy
  Li  Li0  1  0.26284000  0.93579000  0.43754000  1.0
  Li  Li1  1  0.73716000  0.56421000  0.93755000  1.0
  Li  Li2  1  0.73716000  0.06420000  0.56245000  1.0
  Li  Li3  1  0.26284000  0.43579000  0.06246000  1.0
  H  H4  1  0.21439000  0.11943000  0.15006000  1.0
  H  H5  1  0.78562000  0.38057000  0.65006000  1.0
  H  H6  1  0.78563000  0.88057000  0.84994000  1.0
  H  H7  1  0.21438000  0.61943000  0.34995000  1.0
  H  H8  1  0.27639000  0.95677000  0.08304000  1.0
  H  H9  1  0.72360000  0.54323000  0.58304000  1.0
  H  H10  1  0.72360000  0.04324000  0.91696000  1.0
  H  H11  1  0.27639000  0.45677000  0.41696000  1.0
  H  H12  1  0.58706000  0.07084000  0.10069000  1.0
  H  H13  1  0.41292000  0.42916000  0.60069000  1.0
  H  H14  1  0.41292000  0.92917000  0.89931000  1.0
  H  H15  1  0.58707000  0.57084000  0.39931000  1.0
  H  H16  1  0.82906000  0.70985000  0.22543000  1.0
  H  H17  1  0.17094000  0.79015000  0.72544000  1.0
  H  H18  1  0.17093000  0.29015000  0.77456000  1.0
  H  H19  1  0.82906000  0.20986000  0.27457000  1.0
  H  H20  1  0.93407000  0.79917000  0.13725000  1.0
  H  H21  1  0.06593000  0.70083000  0.63725000  1.0
  H  H22  1  0.06593000  0.20083000  0.86275000  1.0
  H  H23  1  0.93407000  0.29917000  0.36275000  1.0
  H  H24  1  0.61464000  0.68732000  0.13758000  1.0
  H  H25  1  0.38536000  0.81268000  0.63758000  1.0
  H  H26  1  0.38536000  0.31268000  0.86242000  1.0
  H  H27  1  0.61464000  0.18732000  0.36242000  1.0
  C  C28  1  0.38810000  0.92929000  0.26025000  1.0
  C  C29  1  0.61192000  0.57071000  0.76026000  1.0
  C  C30  1  0.61192000  0.07071000  0.73975000  1.0
  C  C31  1  0.38807000  0.42930000  0.23975000  1.0
  C  C32  1  0.38954000  0.02140000  0.12750000  1.0
  C  C33  1  0.61046000  0.47860000  0.62750000  1.0
  C  C34  1  0.61046000  0.97860000  0.87250000  1.0
  C  C35  1  0.38954000  0.52140000  0.37250000  1.0
  C  C36  1  0.73549000  0.76848000  0.17178000  1.0
  C  C37  1  0.26450000  0.73152000  0.67178000  1.0
  C  C38  1  0.26451000  0.23152000  0.82822000  1.0
  C  C39  1  0.73550000  0.26848000  0.32822000  1.0
  Br  Br40  1  0.81025000  0.80549000  0.48779000  1.0
  Br  Br41  1  0.18976000  0.69451000  0.98779000  1.0
  Br  Br42  1  0.18975000  0.19450000  0.51221000  1.0
  Br  Br43  1  0.81024000  0.30549000  0.01221000  1.0
  N  N44  1  0.28371000  0.94099000  0.32367000  1.0
  N  N45  1  0.71630000  0.55901000  0.82367000  1.0
  N  N46  1  0.71630000  0.05900000  0.67633000  1.0
  N  N47  1  0.28370000  0.44099000  0.17633000  1.0
  N  N48  1  0.51284000  0.91366000  0.19087000  1.0
  N  N49  1  0.48717000  0.58634000  0.69087000  1.0
  N  N50  1  0.48717000  0.08634000  0.80913000  1.0
  N  N51  1  0.51283000  0.41366000  0.30913000  1.0
