# generated using pymatgen
data_UH16C26S(NO4)2
_symmetry_space_group_name_H-M   'P 1'
_cell_length_a   8.70242000
_cell_length_b   14.35530000
_cell_length_c   20.26280000
_cell_angle_alpha   94.76690000
_cell_angle_beta   89.99990000
_cell_angle_gamma   90.00000000
_symmetry_Int_Tables_number   1
_chemical_formula_structural   UH16C26S(NO4)2
_chemical_formula_sum   'U4 H64 C104 S4 N8 O32'
_cell_volume   2522.59166484
_cell_formula_units_Z   4
loop_
 _symmetry_equiv_pos_site_id
 _symmetry_equiv_pos_as_xyz
  1  'x, y, z'
loop_
 _atom_site_type_symbol
 _atom_site_label
 _atom_site_symmetry_multiplicity
 _atom_site_fract_x
 _atom_site_fract_y
 _atom_site_fract_z
 _atom_site_occupancy
  U  U0  1  0.26671000  0.72416000  0.91038000  1.0
  U  U1  1  0.76671000  0.27585000  0.58961000  1.0
  U  U2  1  0.73328000  0.27584000  0.08962000  1.0
  U  U3  1  0.23330000  0.72415000  0.41039000  1.0
  H  H4  1  0.79806000  0.61200000  0.95492000  1.0
  H  H5  1  0.29806000  0.38800000  0.54508000  1.0
  H  H6  1  0.20194000  0.38800000  0.04508000  1.0
  H  H7  1  0.70195000  0.61200000  0.45492000  1.0
  H  H8  1  0.17575000  0.46286000  0.82195000  1.0
  H  H9  1  0.67574000  0.53713000  0.67805000  1.0
  H  H10  1  0.82426000  0.53713000  0.17805000  1.0
  H  H11  1  0.32425000  0.46286000  0.32195000  1.0
  H  H12  1  0.00874000  0.49324000  0.94424000  1.0
  H  H13  1  0.50874000  0.50676000  0.55576000  1.0
  H  H14  1  0.99126000  0.50676000  0.05576000  1.0
  H  H15  1  0.49126000  0.49324000  0.44424000  1.0
  H  H16  1  0.48694000  0.68158000  0.04461000  1.0
  H  H17  1  0.98694000  0.31842000  0.45539000  1.0
  H  H18  1  0.51306000  0.31842000  0.95539000  1.0
  H  H19  1  0.01306000  0.68158000  0.54461000  1.0
  H  H20  1  0.46961000  0.07649000  0.15520000  1.0
  H  H21  1  0.96961000  0.92351000  0.34480000  1.0
  H  H22  1  0.53039000  0.92351000  0.84480000  1.0
  H  H23  1  0.03038000  0.07649000  0.65520000  1.0
  H  H24  1  0.59778000  0.74720000  0.15165000  1.0
  H  H25  1  0.09778000  0.25280000  0.34835000  1.0
  H  H26  1  0.40222000  0.25280000  0.84835000  1.0
  H  H27  1  0.90222000  0.74720000  0.65165000  1.0
  H  H28  1  0.72937000  0.31659000  0.80946000  1.0
  H  H29  1  0.22936000  0.68342000  0.69054000  1.0
  H  H30  1  0.27064000  0.68341000  0.19054000  1.0
  H  H31  1  0.77063000  0.31659000  0.30946000  1.0
  H  H32  1  0.30056000  0.16520000  0.68798000  1.0
  H  H33  1  0.80057000  0.83480000  0.81202000  1.0
  H  H34  1  0.69944000  0.83480000  0.31202000  1.0
  H  H35  1  0.19943000  0.16520000  0.18798000  1.0
  H  H36  1  0.09264000  0.16782000  0.77463000  1.0
  H  H37  1  0.59264000  0.83218000  0.72537000  1.0
  H  H38  1  0.90736000  0.83218000  0.22537000  1.0
  H  H39  1  0.40736000  0.16782000  0.27463000  1.0
  H  H40  1  0.51901000  0.43594000  0.82047000  1.0
  H  H41  1  0.01901000  0.56407000  0.67953000  1.0
  H  H42  1  0.48099000  0.56406000  0.17953000  1.0
  H  H43  1  0.98099000  0.43593000  0.32047000  1.0
  H  H44  1  0.37606000  0.45951000  0.73491000  1.0
  H  H45  1  0.87605000  0.54048000  0.76509000  1.0
  H  H46  1  0.62395000  0.54049000  0.26509000  1.0
  H  H47  1  0.12395000  0.45951000  0.23491000  1.0
  H  H48  1  0.06179000  0.91104000  0.86469000  1.0
  H  H49  1  0.56179000  0.08896000  0.63531000  1.0
  H  H50  1  0.93821000  0.08896000  0.13531000  1.0
  H  H51  1  0.43821000  0.91104000  0.36469000  1.0
  H  H52  1  0.14008000  0.17153000  0.98204000  1.0
  H  H53  1  0.64008000  0.82847000  0.51795000  1.0
  H  H54  1  0.85992000  0.82847000  0.01796000  1.0
  H  H55  1  0.35992000  0.17153000  0.48205000  1.0
  H  H56  1  0.31588000  0.16785000  0.08053000  1.0
  H  H57  1  0.81588000  0.83215000  0.41947000  1.0
  H  H58  1  0.68412000  0.83214000  0.91947000  1.0
  H  H59  1  0.18412000  0.16785000  0.58053000  1.0
  H  H60  1  0.56725000  0.91868000  0.18526000  1.0
  H  H61  1  0.06725000  0.08132000  0.31474000  1.0
  H  H62  1  0.43275000  0.08132000  0.81474000  1.0
  H  H63  1  0.93275000  0.91868000  0.68526000  1.0
  H  H64  1  0.01591000  0.08384000  0.88501000  1.0
  H  H65  1  0.51590000  0.91616000  0.61498000  1.0
  H  H66  1  0.98409000  0.91616000  0.11498000  1.0
  H  H67  1  0.48410000  0.08384000  0.38502000  1.0
  C  C68  1  0.87800000  0.39899000  0.87720000  1.0
  C  C69  1  0.37800000  0.60101000  0.62280000  1.0
  C  C70  1  0.12200000  0.60101000  0.12280000  1.0
  C  C71  1  0.62200000  0.39899000  0.37720000  1.0
  C  C72  1  0.78370000  0.54771000  0.92296000  1.0
  C  C73  1  0.28370000  0.45229000  0.57704000  1.0
  C  C74  1  0.21630000  0.45229000  0.07704000  1.0
  C  C75  1  0.71630000  0.54771000  0.42296000  1.0
  C  C76  1  0.20146000  0.39756000  0.79263000  1.0
  C  C77  1  0.70146000  0.60244000  0.70737000  1.0
  C  C78  1  0.79854000  0.60244000  0.20737000  1.0
  C  C79  1  0.29854000  0.39756000  0.29263000  1.0
  C  C80  1  0.27078000  0.94978000  0.99861000  1.0
  C  C81  1  0.77078000  0.05022000  0.50139000  1.0
  C  C82  1  0.72921000  0.05022000  0.00139000  1.0
  C  C83  1  0.22922000  0.94978000  0.49861000  1.0
  C  C84  1  0.64589000  0.52990000  0.88836000  1.0
  C  C85  1  0.14589000  0.47011000  0.61164000  1.0
  C  C86  1  0.35411000  0.47010000  0.11164000  1.0
  C  C87  1  0.85411000  0.52990000  0.38836000  1.0
  C  C88  1  0.12691000  0.31400000  0.80389000  1.0
  C  C89  1  0.62691000  0.68600000  0.69611000  1.0
  C  C90  1  0.87309000  0.68600000  0.19611000  1.0
  C  C91  1  0.37309000  0.31400000  0.30389000  1.0
  C  C92  1  0.25212000  0.04760000  0.01405000  1.0
  C  C93  1  0.75212000  0.95240000  0.48595000  1.0
  C  C94  1  0.74788000  0.95240000  0.98595000  1.0
  C  C95  1  0.24788000  0.04760000  0.51405000  1.0
  C  C96  1  0.90136000  0.48170000  0.91724000  1.0
  C  C97  1  0.40136000  0.51830000  0.58276000  1.0
  C  C98  1  0.09864000  0.51830000  0.08276000  1.0
  C  C99  1  0.59864000  0.48170000  0.41724000  1.0
  C  C100  1  0.51727000  0.59804000  0.89448000  1.0
  C  C101  1  0.01727000  0.40196000  0.60552000  1.0
  C  C102  1  0.48273000  0.40196000  0.10553000  1.0
  C  C103  1  0.98273000  0.59803000  0.39447000  1.0
  C  C104  1  0.46944000  0.75482000  0.06138000  1.0
  C  C105  1  0.96944000  0.24518000  0.43862000  1.0
  C  C106  1  0.53056000  0.24518000  0.93862000  1.0
  C  C107  1  0.03056000  0.75481000  0.56138000  1.0
  C  C108  1  0.43057000  0.94263000  0.09874000  1.0
  C  C109  1  0.93057000  0.05737000  0.40126000  1.0
  C  C110  1  0.56943000  0.05737000  0.90126000  1.0
  C  C111  1  0.06943000  0.94263000  0.59874000  1.0
  C  C112  1  0.48931000  0.30555000  0.66323000  1.0
  C  C113  1  0.98931000  0.69445000  0.83677000  1.0
  C  C114  1  0.51069000  0.69445000  0.33677000  1.0
  C  C115  1  0.01069000  0.30554000  0.16323000  1.0
  C  C116  1  0.41122000  0.04146000  0.11240000  1.0
  C  C117  1  0.91121000  0.95854000  0.38760000  1.0
  C  C118  1  0.58878000  0.95854000  0.88760000  1.0
  C  C119  1  0.08878000  0.04145000  0.61240000  1.0
  C  C120  1  0.53290000  0.79254000  0.12150000  1.0
  C  C121  1  0.03291000  0.20746000  0.37850000  1.0
  C  C122  1  0.46710000  0.20746000  0.87850000  1.0
  C  C123  1  0.96710000  0.79254000  0.62150000  1.0
  C  C124  1  0.36491000  0.89728000  0.04033000  1.0
  C  C125  1  0.86491000  0.10272000  0.45967000  1.0
  C  C126  1  0.63509000  0.10272000  0.95967000  1.0
  C  C127  1  0.13509000  0.89728000  0.54033000  1.0
  C  C128  1  0.74305000  0.38141000  0.84085000  1.0
  C  C129  1  0.24304000  0.61859000  0.65915000  1.0
  C  C130  1  0.25696000  0.61859000  0.15915000  1.0
  C  C131  1  0.75696000  0.38141000  0.34085000  1.0
  C  C132  1  0.27124000  0.22960000  0.71751000  1.0
  C  C133  1  0.77124000  0.77040000  0.78249000  1.0
  C  C134  1  0.72876000  0.77040000  0.28249000  1.0
  C  C135  1  0.22876000  0.22959000  0.21751000  1.0
  C  C136  1  0.15637000  0.23070000  0.76533000  1.0
  C  C137  1  0.65637000  0.76929000  0.73467000  1.0
  C  C138  1  0.84363000  0.76930000  0.23467000  1.0
  C  C139  1  0.34363000  0.23070000  0.26533000  1.0
  C  C140  1  0.62658000  0.44751000  0.84707000  1.0
  C  C141  1  0.12658000  0.55249000  0.65293000  1.0
  C  C142  1  0.37342000  0.55249000  0.15293000  1.0
  C  C143  1  0.87342000  0.44751000  0.34707000  1.0
  C  C144  1  0.35385000  0.31123000  0.70818000  1.0
  C  C145  1  0.85385000  0.68877000  0.79182000  1.0
  C  C146  1  0.64615000  0.68877000  0.29182000  1.0
  C  C147  1  0.14615000  0.31123000  0.20818000  1.0
  C  C148  1  0.31499000  0.39564000  0.74414000  1.0
  C  C149  1  0.81499000  0.60436000  0.75586000  1.0
  C  C150  1  0.68501000  0.60436000  0.25586000  1.0
  C  C151  1  0.18500000  0.39564000  0.24414000  1.0
  C  C152  1  0.11542000  0.95136000  0.90639000  1.0
  C  C153  1  0.61542000  0.04864000  0.59361000  1.0
  C  C154  1  0.88458000  0.04864000  0.09361000  1.0
  C  C155  1  0.38458000  0.95136000  0.40639000  1.0
  C  C156  1  0.15826000  0.09651000  0.97185000  1.0
  C  C157  1  0.65825000  0.90349000  0.52815000  1.0
  C  C158  1  0.84174000  0.90349000  0.02815000  1.0
  C  C159  1  0.34175000  0.09651000  0.47185000  1.0
  C  C160  1  0.32705000  0.09223000  0.07112000  1.0
  C  C161  1  0.82705000  0.90777000  0.42888000  1.0
  C  C162  1  0.67295000  0.90777000  0.92888000  1.0
  C  C163  1  0.17295000  0.09223000  0.57112000  1.0
  C  C164  1  0.51544000  0.88674000  0.13981000  1.0
  C  C165  1  0.01544000  0.11326000  0.36018000  1.0
  C  C166  1  0.48456000  0.11326000  0.86018000  1.0
  C  C167  1  0.98456000  0.88674000  0.63982000  1.0
  C  C168  1  0.08990000  0.04778000  0.91789000  1.0
  C  C169  1  0.58990000  0.95222000  0.58211000  1.0
  C  C170  1  0.91010000  0.95222000  0.08211000  1.0
  C  C171  1  0.41010000  0.04778000  0.41789000  1.0
  S  S172  1  0.01406000  0.30735000  0.87666000  1.0
  S  S173  1  0.51406000  0.69265000  0.62334000  1.0
  S  S174  1  0.98595000  0.69265000  0.12334000  1.0
  S  S175  1  0.48594000  0.30735000  0.37666000  1.0
  N  N176  1  0.20212000  0.90278000  0.94557000  1.0
  N  N177  1  0.70212000  0.09722000  0.55443000  1.0
  N  N178  1  0.79788000  0.09721000  0.05443000  1.0
  N  N179  1  0.29788000  0.90278000  0.44557000  1.0
  N  N180  1  0.38868000  0.80544000  0.02149000  1.0
  N  N181  1  0.88868000  0.19456000  0.47851000  1.0
  N  N182  1  0.61132000  0.19456000  0.97851000  1.0
  N  N183  1  0.11132000  0.80544000  0.52149000  1.0
  O  O184  1  0.59661000  0.36612000  0.67047000  1.0
  O  O185  1  0.09662000  0.63388000  0.82953000  1.0
  O  O186  1  0.40339000  0.63388000  0.32953000  1.0
  O  O187  1  0.90338000  0.36612000  0.17047000  1.0
  O  O188  1  0.92893000  0.21995000  0.86939000  1.0
  O  O189  1  0.42893000  0.78005000  0.63061000  1.0
  O  O190  1  0.07107000  0.78005000  0.13061000  1.0
  O  O191  1  0.57107000  0.21996000  0.36939000  1.0
  O  O192  1  0.11886000  0.32579000  0.93202000  1.0
  O  O193  1  0.61886000  0.67421000  0.56798000  1.0
  O  O194  1  0.88114000  0.67421000  0.06798000  1.0
  O  O195  1  0.38114000  0.32580000  0.43202000  1.0
  O  O196  1  0.50221000  0.23618000  0.61934000  1.0
  O  O197  1  0.00221000  0.76382000  0.88065000  1.0
  O  O198  1  0.49779000  0.76382000  0.38065000  1.0
  O  O199  1  0.99779000  0.23618000  0.11935000  1.0
  O  O200  1  0.38969000  0.57949000  0.86482000  1.0
  O  O201  1  0.88969000  0.42052000  0.63518000  1.0
  O  O202  1  0.61031000  0.42051000  0.13518000  1.0
  O  O203  1  0.11031000  0.57948000  0.36482000  1.0
  O  O204  1  0.34550000  0.78452000  0.84301000  1.0
  O  O205  1  0.84550000  0.21549000  0.65699000  1.0
  O  O206  1  0.65450000  0.21548000  0.15699000  1.0
  O  O207  1  0.15448000  0.78452000  0.34301000  1.0
  O  O208  1  0.53237000  0.67561000  0.93013000  1.0
  O  O209  1  0.03237000  0.32440000  0.56987000  1.0
  O  O210  1  0.46763000  0.32439000  0.06987000  1.0
  O  O211  1  0.96764000  0.67560000  0.43013000  1.0
  O  O212  1  0.18436000  0.65960000  0.97441000  1.0
  O  O213  1  0.68436000  0.34040000  0.52558000  1.0
  O  O214  1  0.81564000  0.34040000  0.02559000  1.0
  O  O215  1  0.31564000  0.65960000  0.47442000  1.0
