# generated using pymatgen
data_AgH11C17N3ClO6
_symmetry_space_group_name_H-M   'P 1'
_cell_length_a   7.48084000
_cell_length_b   8.39179000
_cell_length_c   14.21320000
_cell_angle_alpha   106.61900000
_cell_angle_beta   92.46820000
_cell_angle_gamma   103.72000000
_symmetry_Int_Tables_number   1
_chemical_formula_structural   AgH11C17N3ClO6
_chemical_formula_sum   'Ag2 H22 C34 N6 Cl2 O12'
_cell_volume   824.68749954
_cell_formula_units_Z   2
loop_
 _symmetry_equiv_pos_site_id
 _symmetry_equiv_pos_as_xyz
  1  'x, y, z'
loop_
 _atom_site_type_symbol
 _atom_site_label
 _atom_site_symmetry_multiplicity
 _atom_site_fract_x
 _atom_site_fract_y
 _atom_site_fract_z
 _atom_site_occupancy
  Ag  Ag0  1  0.63698000  0.37578000  0.00978000  1.0
  Ag  Ag1  1  0.36302000  0.62423000  0.99022000  1.0
  H  H2  1  0.83012000  0.45597000  0.22271000  1.0
  H  H3  1  0.16988000  0.54402000  0.77729000  1.0
  H  H4  1  0.24252000  0.93944000  0.28645000  1.0
  H  H5  1  0.75746000  0.06057000  0.71355000  1.0
  H  H6  1  0.14988000  0.94704000  0.11839000  1.0
  H  H7  1  0.85011000  0.05296000  0.88162000  1.0
  H  H8  1  0.90021000  0.70004000  0.00546000  1.0
  H  H9  1  0.09980000  0.29996000  0.99454000  1.0
  H  H10  1  0.20986000  0.59420000  0.52490000  1.0
  H  H11  1  0.79014000  0.40579000  0.47510000  1.0
  H  H12  1  0.53954000  0.67576000  0.60298000  1.0
  H  H13  1  0.46047000  0.32424000  0.39702000  1.0
  H  H14  1  0.78886000  0.84684000  0.52874000  1.0
  H  H15  1  0.21114000  0.15316000  0.47125000  1.0
  H  H16  1  0.90961000  0.19760000  0.29644000  1.0
  H  H17  1  0.09040000  0.80240000  0.70356000  1.0
  H  H18  1  0.87956000  0.19910000  0.11991000  1.0
  H  H19  1  0.12045000  0.80091000  0.88009000  1.0
  H  H20  1  0.65124000  0.95209000  0.99504000  1.0
  H  H21  1  0.34877000  0.04792000  0.00496000  1.0
  H  H22  1  0.48850000  0.71516000  0.20756000  1.0
  H  H23  1  0.51150000  0.28485000  0.79244000  1.0
  C  C24  1  0.90641000  0.56332000  0.19990000  1.0
  C  C25  1  0.09358000  0.43668000  0.80010000  1.0
  C  C26  1  0.04782000  0.69198000  0.26597000  1.0
  C  C27  1  0.95217000  0.30802000  0.73403000  1.0
  C  C28  1  0.13614000  0.83371000  0.23669000  1.0
  C  C29  1  0.86385000  0.16629000  0.76332000  1.0
  C  C30  1  0.08385000  0.83721000  0.14208000  1.0
  C  C31  1  0.91614000  0.16279000  0.85793000  1.0
  C  C32  1  0.94605000  0.70226000  0.07977000  1.0
  C  C33  1  0.05395000  0.29774000  0.92023000  1.0
  C  C34  1  0.08822000  0.66334000  0.36331000  1.0
  C  C35  1  0.91177000  0.33665000  0.63669000  1.0
  C  C36  1  0.28356000  0.71754000  0.41251000  1.0
  C  C37  1  0.71643000  0.28246000  0.58749000  1.0
  C  C38  1  0.32210000  0.66868000  0.49623000  1.0
  C  C39  1  0.67790000  0.33132000  0.50377000  1.0
  C  C40  1  0.50524000  0.71450000  0.53904000  1.0
  C  C41  1  0.49476000  0.28550000  0.46096000  1.0
  C  C42  1  0.64336000  0.80802000  0.49828000  1.0
  C  C43  1  0.35665000  0.19197000  0.50172000  1.0
  C  C44  1  0.59136000  0.85018000  0.41419000  1.0
  C  C45  1  0.40864000  0.14981000  0.58581000  1.0
  C  C46  1  0.73616000  0.95151000  0.36934000  1.0
  C  C47  1  0.26384000  0.04848000  0.63066000  1.0
  C  C48  1  0.69981000  0.95737000  0.26588000  1.0
  C  C49  1  0.30019000  0.04263000  0.73412000  1.0
  C  C50  1  0.80978000  0.09526000  0.24021000  1.0
  C  C51  1  0.19023000  0.90474000  0.75980000  1.0
  C  C52  1  0.79312000  0.09569000  0.14252000  1.0
  C  C53  1  0.20688000  0.90432000  0.85748000  1.0
  C  C54  1  0.66714000  0.96010000  0.07294000  1.0
  C  C55  1  0.33286000  0.03991000  0.92706000  1.0
  C  C56  1  0.57484000  0.82610000  0.19193000  1.0
  C  C57  1  0.42516000  0.17391000  0.80806000  1.0
  N  N58  1  0.85617000  0.56731000  0.10878000  1.0
  N  N59  1  0.14383000  0.43269000  0.89122000  1.0
  N  N60  1  0.41549000  0.80521000  0.37196000  1.0
  N  N61  1  0.58451000  0.19479000  0.62804000  1.0
  N  N62  1  0.55907000  0.82780000  0.09734000  1.0
  N  N63  1  0.44093000  0.17220000  0.90266000  1.0
  Cl  Cl64  1  0.64302000  0.65032000  0.79388000  1.0
  Cl  Cl65  1  0.35698000  0.34969000  0.20612000  1.0
  O  O66  1  0.96114000  0.58582000  0.39881000  1.0
  O  O67  1  0.03886000  0.41418000  0.60119000  1.0
  O  O68  1  0.88857000  0.03180000  0.41704000  1.0
  O  O69  1  0.11143000  0.96818000  0.58295000  1.0
  O  O70  1  0.60696000  0.81909000  0.83601000  1.0
  O  O71  1  0.39304000  0.18092000  0.16398000  1.0
  O  O72  1  0.68878000  0.58454000  0.87534000  1.0
  O  O73  1  0.31122000  0.41546000  0.12466000  1.0
  O  O74  1  0.79897000  0.66708000  0.73636000  1.0
  O  O75  1  0.20103000  0.33293000  0.26364000  1.0
  O  O76  1  0.47816000  0.53162000  0.73158000  1.0
  O  O77  1  0.52184000  0.46838000  0.26841000  1.0
