# generated using pymatgen
data_CuH4C7N4O
_symmetry_space_group_name_H-M   'P 1'
_cell_length_a   7.79299000
_cell_length_b   9.11868000
_cell_length_c   11.80320000
_cell_angle_alpha   77.90500000
_cell_angle_beta   89.99930000
_cell_angle_gamma   89.99960000
_symmetry_Int_Tables_number   1
_chemical_formula_structural   CuH4C7N4O
_chemical_formula_sum   'Cu4 H16 C28 N16 O4'
_cell_volume   820.13731290
_cell_formula_units_Z   4
loop_
 _symmetry_equiv_pos_site_id
 _symmetry_equiv_pos_as_xyz
  1  'x, y, z'
loop_
 _atom_site_type_symbol
 _atom_site_label
 _atom_site_symmetry_multiplicity
 _atom_site_fract_x
 _atom_site_fract_y
 _atom_site_fract_z
 _atom_site_occupancy
  Cu  Cu0  1  0.52018000  0.74390000  0.55239000  1.0
  Cu  Cu1  1  0.02014000  0.75610000  0.94761000  1.0
  Cu  Cu2  1  0.47986000  0.25610000  0.44761000  1.0
  Cu  Cu3  1  0.97983000  0.24390000  0.05239000  1.0
  H  H4  1  0.47750000  0.09007000  0.26391000  1.0
  H  H5  1  0.97747000  0.40993000  0.23609000  1.0
  H  H6  1  0.52253000  0.90992000  0.73610000  1.0
  H  H7  1  0.02250000  0.59007000  0.76390000  1.0
  H  H8  1  0.37475000  0.01009000  0.06002000  1.0
  H  H9  1  0.87476000  0.48991000  0.43998000  1.0
  H  H10  1  0.62524000  0.98991000  0.93999000  1.0
  H  H11  1  0.12524000  0.51009000  0.56001000  1.0
  H  H12  1  0.36747000  0.70289000  0.11333000  1.0
  H  H13  1  0.86748000  0.79711000  0.38667000  1.0
  H  H14  1  0.63252000  0.29711000  0.88667000  1.0
  H  H15  1  0.13252000  0.20289000  0.61333000  1.0
  H  H16  1  0.44328000  0.49376000  0.32129000  1.0
  H  H17  1  0.94327000  0.00624000  0.17871000  1.0
  H  H18  1  0.55673000  0.50623000  0.67871000  1.0
  H  H19  1  0.05671000  0.99376000  0.82128000  1.0
  C  C20  1  0.45619000  0.98240000  0.24113000  1.0
  C  C21  1  0.95616000  0.51759000  0.25887000  1.0
  C  C22  1  0.54384000  0.01759000  0.75887000  1.0
  C  C23  1  0.04382000  0.48241000  0.74113000  1.0
  C  C24  1  0.40678000  0.93711000  0.14217000  1.0
  C  C25  1  0.90677000  0.56289000  0.35783000  1.0
  C  C26  1  0.59322000  0.06288000  0.85784000  1.0
  C  C27  1  0.09322000  0.43711000  0.64216000  1.0
  C  C28  1  0.40237000  0.77787000  0.16979000  1.0
  C  C29  1  0.90237000  0.72213000  0.33021000  1.0
  C  C30  1  0.59763000  0.22213000  0.83021000  1.0
  C  C31  1  0.09762000  0.27787000  0.66979000  1.0
  C  C32  1  0.44797000  0.73467000  0.28541000  1.0
  C  C33  1  0.94795000  0.76532000  0.21459000  1.0
  C  C34  1  0.55205000  0.26532000  0.71459000  1.0
  C  C35  1  0.05202000  0.23468000  0.78541000  1.0
  C  C36  1  0.46125000  0.59204000  0.36019000  1.0
  C  C37  1  0.96122000  0.90795000  0.13981000  1.0
  C  C38  1  0.53877000  0.40795000  0.63981000  1.0
  C  C39  1  0.03875000  0.09205000  0.86019000  1.0
  C  C40  1  0.87419000  0.84705000  0.61258000  1.0
  C  C41  1  0.37416000  0.65295000  0.88742000  1.0
  C  C42  1  0.12585000  0.15295000  0.38742000  1.0
  C  C43  1  0.62580000  0.34704000  0.11258000  1.0
  C  C44  1  0.16780000  0.84957000  0.61484000  1.0
  C  C45  1  0.66777000  0.65044000  0.88516000  1.0
  C  C46  1  0.83224000  0.15043000  0.38516000  1.0
  C  C47  1  0.33219000  0.34956000  0.11484000  1.0
  N  N48  1  0.49495000  0.57471000  0.47114000  1.0
  N  N49  1  0.99492000  0.92529000  0.02885000  1.0
  N  N50  1  0.50508000  0.42529000  0.52885000  1.0
  N  N51  1  0.00505000  0.07471000  0.97114000  1.0
  N  N52  1  0.73556000  0.80965000  0.59049000  1.0
  N  N53  1  0.23552000  0.69036000  0.90951000  1.0
  N  N54  1  0.26449000  0.19036000  0.40951000  1.0
  N  N55  1  0.76444000  0.30964000  0.09049000  1.0
  N  N56  1  0.30909000  0.81521000  0.59642000  1.0
  N  N57  1  0.80906000  0.68479000  0.90358000  1.0
  N  N58  1  0.69096000  0.18479000  0.40358000  1.0
  N  N59  1  0.19091000  0.31521000  0.09642000  1.0
  N  N60  1  0.01959000  0.89715000  0.64188000  1.0
  N  N61  1  0.51956000  0.60286000  0.85811000  1.0
  N  N62  1  0.98046000  0.10286000  0.35812000  1.0
  N  N63  1  0.48041000  0.39714000  0.14189000  1.0
  O  O64  1  0.48167000  0.86117000  0.32917000  1.0
  O  O65  1  0.98163000  0.63883000  0.17082000  1.0
  O  O66  1  0.51836000  0.13882000  0.67083000  1.0
  O  O67  1  0.01833000  0.36118000  0.82917000  1.0
