# generated using pymatgen
data_Zn2H32C45N8
_symmetry_space_group_name_H-M   'P 1'
_cell_length_a   18.86840000
_cell_length_b   18.93740000
_cell_length_c   20.36850000
_cell_angle_alpha   105.69300000
_cell_angle_beta   107.13400000
_cell_angle_gamma   111.70100000
_symmetry_Int_Tables_number   1
_chemical_formula_structural   Zn2H32C45N8
_chemical_formula_sum   'Zn4 H64 C90 N16'
_cell_volume   5842.37100412
_cell_formula_units_Z   2
loop_
 _symmetry_equiv_pos_site_id
 _symmetry_equiv_pos_as_xyz
  1  'x, y, z'
loop_
 _atom_site_type_symbol
 _atom_site_label
 _atom_site_symmetry_multiplicity
 _atom_site_fract_x
 _atom_site_fract_y
 _atom_site_fract_z
 _atom_site_occupancy
  Zn  Zn0  1  0.89293000  0.89460000  0.49478000  1.0
  Zn  Zn1  1  0.11690000  0.11232000  0.50512000  1.0
  Zn  Zn2  1  0.09821000  0.99637000  0.60027000  1.0
  Zn  Zn3  1  0.91119000  0.01388000  0.40457000  1.0
  H  H4  1  0.83282000  0.80011000  0.60367000  1.0
  H  H5  1  0.78015000  0.05088000  0.67722000  1.0
  H  H6  1  0.78190000  0.19169000  0.54229000  1.0
  H  H7  1  0.69566000  0.26311000  0.53453000  1.0
  H  H8  1  0.57393000  0.27426000  0.54869000  1.0
  H  H9  1  0.15928000  0.75277000  0.45003000  1.0
  H  H10  1  0.88526000  0.61090000  0.33246000  1.0
  H  H11  1  0.81195000  0.45572000  0.27385000  1.0
  H  H12  1  0.89822000  0.25988000  0.31934000  1.0
  H  H13  1  0.07743000  0.10954000  0.73496000  1.0
  H  H14  1  0.17120000  0.39963000  0.43518000  1.0
  H  H15  1  0.88949000  0.86583000  0.26739000  1.0
  H  H16  1  0.24297000  0.67828000  0.46080000  1.0
  H  H17  1  0.61233000  0.76315000  0.13438000  1.0
  H  H18  1  0.12966000  0.22941000  0.84375000  1.0
  H  H19  1  0.12080000  0.37288000  0.71232000  1.0
  H  H20  1  0.31050000  0.57606000  0.95861000  1.0
  H  H21  1  0.40946000  0.54565000  0.17500000  1.0
  H  H22  1  0.21634000  0.35907000  0.96083000  1.0
  H  H23  1  0.54833000  0.65362000  0.28238000  1.0
  H  H24  1  0.86270000  0.14648000  0.49684000  1.0
  H  H25  1  0.32777000  0.46766000  0.04395000  1.0
  H  H26  1  0.16470000  0.99844000  0.38825000  1.0
  H  H27  1  0.20958000  0.50379000  0.83046000  1.0
  H  H28  1  0.07503000  0.81108000  0.77534000  1.0
  H  H29  1  0.90008000  0.76933000  0.17111000  1.0
  H  H30  1  0.16346000  0.95556000  0.26464000  1.0
  H  H31  1  0.08674000  0.83344000  0.00863000  1.0
  H  H32  1  0.89593000  0.71944000  0.04498000  1.0
  H  H33  1  0.83108000  0.79562000  0.72902000  1.0
  H  H34  1  0.09930000  0.26093000  0.60811000  1.0
  H  H35  1  0.89283000  0.72816000  0.93860000  1.0
  H  H36  1  0.15968000  0.90445000  0.13837000  1.0
  H  H37  1  0.72161000  0.88935000  0.24759000  1.0
  H  H38  1  0.84157000  0.98710000  0.61612000  1.0
  H  H39  1  0.89448000  0.15187000  0.33679000  1.0
  H  H40  1  0.10553000  0.92861000  0.73761000  1.0
  H  H41  1  0.70043000  0.72891000  0.36515000  1.0
  H  H42  1  0.32220000  0.19424000  0.55476000  1.0
  H  H43  1  0.15156000  0.87141000  0.50809000  1.0
  H  H44  1  0.87798000  0.73355000  0.37268000  1.0
  H  H45  1  0.22466000  0.31376000  0.45235000  1.0
  H  H46  1  0.20739000  0.36292000  0.52899000  1.0
  H  H47  1  0.22329000  0.27509000  0.52250000  1.0
  H  H48  1  0.30291000  0.04147000  0.67965000  1.0
  H  H49  1  0.79374000  0.25462000  0.21373000  1.0
  H  H50  1  0.77987000  0.27607000  0.29775000  1.0
  H  H51  1  0.73749000  0.30972000  0.23002000  1.0
  H  H52  1  0.32526000  0.61410000  0.48552000  1.0
  H  H53  1  0.28161000  0.53577000  0.51577000  1.0
  H  H54  1  0.27967000  0.50599000  0.42487000  1.0
  H  H55  1  0.53130000  0.69928000  0.00723000  1.0
  H  H56  1  0.43922000  0.59786000  0.96067000  1.0
  H  H57  1  0.43029000  0.68922000  0.99364000  1.0
  H  H58  1  0.75417000  0.74725000  0.78985000  1.0
  H  H59  1  0.45440000  0.22242000  0.58080000  1.0
  H  H60  1  0.77637000  0.68482000  0.83495000  1.0
  H  H61  1  0.81771000  0.79331000  0.88956000  1.0
  H  H62  1  0.11869000  0.74485000  0.84863000  1.0
  H  H63  1  0.14881000  0.82540000  0.93628000  1.0
  H  H64  1  0.07628000  0.72038000  0.91207000  1.0
  H  H65  1  0.44829000  0.07854000  0.71310000  1.0
  H  H66  1  0.56770000  0.04957000  0.75905000  1.0
  H  H67  1  0.68982000  0.03928000  0.74569000  1.0
  C  C68  1  0.90151000  0.83809000  0.62845000  1.0
  C  C69  1  0.94419000  0.77820000  0.41194000  1.0
  C  C70  1  0.72982000  0.85976000  0.28600000  1.0
  C  C71  1  0.10001000  0.24289000  0.44421000  1.0
  C  C72  1  0.29403000  0.07591000  0.64597000  1.0
  C  C73  1  0.67438000  0.78105000  0.27886000  1.0
  C  C74  1  0.35266000  0.12914000  0.62823000  1.0
  C  C75  1  0.01723000  0.76916000  0.42389000  1.0
  C  C76  1  0.02876000  0.91035000  0.29802000  1.0
  C  C77  1  0.48284000  0.19333000  0.61151000  1.0
  C  C78  1  0.43977000  0.14693000  0.64399000  1.0
  C  C79  1  0.03346000  0.25046000  0.39734000  1.0
  C  C80  1  0.47937000  0.11269000  0.68541000  1.0
  C  C81  1  0.55628000  0.11699000  0.68866000  1.0
  C  C82  1  0.59521000  0.15741000  0.64905000  1.0
  C  C83  1  0.08093000  0.13632000  0.69438000  1.0
  C  C84  1  0.55933000  0.19902000  0.61275000  1.0
  C  C85  1  0.59504000  0.07738000  0.72598000  1.0
  C  C86  1  0.66270000  0.07171000  0.71859000  1.0
  C  C87  1  0.69778000  0.10493000  0.67307000  1.0
  C  C88  1  0.66523000  0.15132000  0.64123000  1.0
  C  C89  1  0.69976000  0.18633000  0.59668000  1.0
  C  C90  1  0.09402000  0.21642000  0.70007000  1.0
  C  C91  1  0.66707000  0.23387000  0.56625000  1.0
  C  C92  1  0.59986000  0.24004000  0.57401000  1.0
  C  C93  1  0.75809000  0.08900000  0.65478000  1.0
  C  C94  1  0.78638000  0.11631000  0.60501000  1.0
  C  C95  1  0.86281000  0.10112000  0.51994000  1.0
  C  C96  1  0.75955000  0.16821000  0.57972000  1.0
  C  C97  1  0.10018000  0.69286000  0.41860000  1.0
  C  C98  1  0.02170000  0.69181000  0.39561000  1.0
  C  C99  1  0.94694000  0.61347000  0.35244000  1.0
  C  C100  1  0.94859000  0.53762000  0.33896000  1.0
  C  C101  1  0.83474000  0.08446000  0.57371000  1.0
  C  C102  1  0.02832000  0.54000000  0.36942000  1.0
  C  C103  1  0.10505000  0.61857000  0.40674000  1.0
  C  C104  1  0.87256000  0.45750000  0.30004000  1.0
  C  C105  1  0.87326000  0.38455000  0.29681000  1.0
  C  C106  1  0.95350000  0.38769000  0.33390000  1.0
  C  C107  1  0.09166000  0.21329000  0.62951000  1.0
  C  C108  1  0.03090000  0.46552000  0.36707000  1.0
  C  C109  1  0.11050000  0.46857000  0.40171000  1.0
  C  C110  1  0.18843000  0.54728000  0.43337000  1.0
  C  C111  1  0.18415000  0.61847000  0.43508000  1.0
  C  C112  1  0.71860000  0.77855000  0.34638000  1.0
  C  C113  1  0.95749000  0.31796000  0.34188000  1.0
  C  C114  1  0.03482000  0.32172000  0.38131000  1.0
  C  C115  1  0.11057000  0.39636000  0.40748000  1.0
  C  C116  1  0.59083000  0.71788000  0.21680000  1.0
  C  C117  1  0.56648000  0.71697000  0.14432000  1.0
  C  C118  1  0.48735000  0.65778000  0.08299000  1.0
  C  C119  1  0.85230000  0.02011000  0.58095000  1.0
  C  C120  1  0.42843000  0.59457000  0.09398000  1.0
  C  C121  1  0.45392000  0.59477000  0.16660000  1.0
  C  C122  1  0.53223000  0.65494000  0.22687000  1.0
  C  C123  1  0.30393000  0.15366000  0.58242000  1.0
  C  C124  1  0.19605000  0.36308000  0.90661000  1.0
  C  C125  1  0.14652000  0.28944000  0.84018000  1.0
  C  C126  1  0.14178000  0.36935000  0.76672000  1.0
  C  C127  1  0.19156000  0.44329000  0.83341000  1.0
  C  C128  1  0.22511000  0.44234000  0.90464000  1.0
  C  C129  1  0.34696000  0.52450000  0.03421000  1.0
  C  C130  1  0.29550000  0.51973000  0.96870000  1.0
  C  C131  1  0.96042000  0.17394000  0.37348000  1.0
  C  C132  1  0.12322000  0.29082000  0.76821000  1.0
  C  C133  1  0.95609000  0.81205000  0.74775000  1.0
  C  C134  1  0.08365000  0.84864000  0.48066000  1.0
  C  C135  1  0.02185000  0.80139000  0.78978000  1.0
  C  C136  1  0.02180000  0.77827000  0.84919000  1.0
  C  C137  1  0.95309000  0.76544000  0.86876000  1.0
  C  C138  1  0.88144000  0.76640000  0.82073000  1.0
  C  C139  1  0.88453000  0.79037000  0.76224000  1.0
  C  C140  1  0.95494000  0.77164000  0.09277000  1.0
  C  C141  1  0.95725000  0.79993000  0.16417000  1.0
  C  C142  1  0.10476000  0.90291000  0.21691000  1.0
  C  C143  1  0.04054000  0.90237000  0.69577000  1.0
  C  C144  1  0.10252000  0.87431000  0.14555000  1.0
  C  C145  1  0.95628000  0.90562000  0.30711000  1.0
  C  C146  1  0.02657000  0.81114000  0.08079000  1.0
  C  C147  1  0.95467000  0.75872000  0.93885000  1.0
  C  C148  1  0.02473000  0.79821000  0.00645000  1.0
  C  C149  1  0.03104000  0.86913000  0.22737000  1.0
  C  C150  1  0.96431000  0.84711000  0.69309000  1.0
  C  C151  1  0.19340000  0.30180000  0.48903000  1.0
  C  C152  1  0.79192000  0.30213000  0.25748000  1.0
  C  C153  1  0.27302000  0.55101000  0.46646000  1.0
  C  C154  1  0.47107000  0.66100000  0.00716000  1.0
  C  C155  1  0.80358000  0.74706000  0.83464000  1.0
  C  C156  1  0.09664000  0.97403000  0.36835000  1.0
  C  C157  1  0.09490000  0.76640000  0.88878000  1.0
  N  N158  1  0.93768000  0.88377000  0.59532000  1.0
  N  N159  1  0.07316000  0.09091000  0.62662000  1.0
  N  N160  1  0.89320000  0.04993000  0.49704000  1.0
  N  N161  1  0.07973000  0.13814000  0.58678000  1.0
  N  N162  1  0.88673000  0.00012000  0.53449000  1.0
  N  N163  1  0.98079000  0.12487000  0.40293000  1.0
  N  N164  1  0.02429000  0.92410000  0.63764000  1.0
  N  N165  1  0.79372000  0.84978000  0.38982000  1.0
  N  N166  1  0.22361000  0.11804000  0.57374000  1.0
  N  N167  1  0.05187000  0.89940000  0.50108000  1.0
  N  N168  1  0.97983000  0.96280000  0.37641000  1.0
  N  N169  1  0.06602000  0.00467000  0.41414000  1.0
  N  N170  1  0.96615000  0.85608000  0.45890000  1.0
  N  N171  1  0.80047000  0.90046000  0.35228000  1.0
  N  N172  1  0.21721000  0.06948000  0.61331000  1.0
  N  N173  1  0.06713000  0.16747000  0.44648000  1.0
