# generated using pymatgen
data_CuH18C14(NO)4
_symmetry_space_group_name_H-M   'P 1'
_cell_length_a   8.24861000
_cell_length_b   8.57620000
_cell_length_c   23.99660000
_cell_angle_alpha   89.01760000
_cell_angle_beta   89.99960000
_cell_angle_gamma   89.99940000
_symmetry_Int_Tables_number   1
_chemical_formula_structural   CuH18C14(NO)4
_chemical_formula_sum   'Cu4 H72 C56 N16 O16'
_cell_volume   1697.31144974
_cell_formula_units_Z   4
loop_
 _symmetry_equiv_pos_site_id
 _symmetry_equiv_pos_as_xyz
  1  'x, y, z'
loop_
 _atom_site_type_symbol
 _atom_site_label
 _atom_site_symmetry_multiplicity
 _atom_site_fract_x
 _atom_site_fract_y
 _atom_site_fract_z
 _atom_site_occupancy
  Cu  Cu0  1  0.31278000  0.25000000  0.75000000  1.0
  Cu  Cu1  1  0.68723000  0.75001000  0.25000000  1.0
  Cu  Cu2  1  0.00000000  0.50000000  0.50000000  1.0
  Cu  Cu3  1  0.99999000  0.99999000  1.00000000  1.0
  H  H4  1  0.99479000  0.41369000  0.63467000  1.0
  H  H5  1  0.99479000  0.08631000  0.86533000  1.0
  H  H6  1  0.00520000  0.58631000  0.36533000  1.0
  H  H7  1  0.00521000  0.91368000  0.13467000  1.0
  H  H8  1  0.78447000  0.77985000  0.53894000  1.0
  H  H9  1  0.78446000  0.72016000  0.96105000  1.0
  H  H10  1  0.21554000  0.22015000  0.46105000  1.0
  H  H11  1  0.21553000  0.27985000  0.03895000  1.0
  H  H12  1  0.69471000  0.81104000  0.65030000  1.0
  H  H13  1  0.69470000  0.68897000  0.84970000  1.0
  H  H14  1  0.30530000  0.18897000  0.34970000  1.0
  H  H15  1  0.30530000  0.31103000  0.15030000  1.0
  H  H16  1  0.84340000  0.44907000  0.72680000  1.0
  H  H17  1  0.84340000  0.05094000  0.77320000  1.0
  H  H18  1  0.15659000  0.55094000  0.27320000  1.0
  H  H19  1  0.15659000  0.94906000  0.22680000  1.0
  H  H20  1  0.70680000  0.60848000  0.73184000  1.0
  H  H21  1  0.70681000  0.89152000  0.76816000  1.0
  H  H22  1  0.29319000  0.39153000  0.26815000  1.0
  H  H23  1  0.29320000  0.10847000  0.23184000  1.0
  H  H24  1  0.94999000  0.62236000  0.79612000  1.0
  H  H25  1  0.95000000  0.87764000  0.70387000  1.0
  H  H26  1  0.05000000  0.37764000  0.20387000  1.0
  H  H27  1  0.05001000  0.12236000  0.29613000  1.0
  H  H28  1  0.07861000  0.61766000  0.73822000  1.0
  H  H29  1  0.07861000  0.88233000  0.76178000  1.0
  H  H30  1  0.92139000  0.38233000  0.26178000  1.0
  H  H31  1  0.92139000  0.11766000  0.23822000  1.0
  H  H32  1  0.36917000  0.31608000  0.61921000  1.0
  H  H33  1  0.36917000  0.18391000  0.88079000  1.0
  H  H34  1  0.63083000  0.68392000  0.38079000  1.0
  H  H35  1  0.63083000  0.81609000  0.11921000  1.0
  H  H36  1  0.35443000  0.61523000  0.75584000  1.0
  H  H37  1  0.35443000  0.88475000  0.74416000  1.0
  H  H38  1  0.64558000  0.38477000  0.24416000  1.0
  H  H39  1  0.64557000  0.11525000  0.25584000  1.0
  H  H40  1  0.39340000  0.79508000  0.65762000  1.0
  H  H41  1  0.39340000  0.70491000  0.84239000  1.0
  H  H42  1  0.60661000  0.20492000  0.34239000  1.0
  H  H43  1  0.60659000  0.29509000  0.15761000  1.0
  H  H44  1  0.48719000  0.70944000  0.56021000  1.0
  H  H45  1  0.48719000  0.79055000  0.93979000  1.0
  H  H46  1  0.51281000  0.29056000  0.43979000  1.0
  H  H47  1  0.51281000  0.20944000  0.06021000  1.0
  H  H48  1  0.28982000  0.64167000  0.54494000  1.0
  H  H49  1  0.28983000  0.85832000  0.95506000  1.0
  H  H50  1  0.71017000  0.35833000  0.45506000  1.0
  H  H51  1  0.71017000  0.14167000  0.04494000  1.0
  H  H52  1  0.39466000  0.37581000  0.52892000  1.0
  H  H53  1  0.39465000  0.12419000  0.97108000  1.0
  H  H54  1  0.60534000  0.62419000  0.47108000  1.0
  H  H55  1  0.60534000  0.87581000  0.02892000  1.0
  H  H56  1  0.59241000  0.43067000  0.55016000  1.0
  H  H57  1  0.59241000  0.06933000  0.94984000  1.0
  H  H58  1  0.40758000  0.56934000  0.44983000  1.0
  H  H59  1  0.40758000  0.93067000  0.05017000  1.0
  H  H60  1  0.96550000  0.97016000  0.54463000  1.0
  H  H61  1  0.96550000  0.52984000  0.95537000  1.0
  H  H62  1  0.03450000  0.02984000  0.45537000  1.0
  H  H63  1  0.03450000  0.47016000  0.04463000  1.0
  H  H64  1  0.87741000  0.04860000  0.60449000  1.0
  H  H65  1  0.87742000  0.45141000  0.89551000  1.0
  H  H66  1  0.12259000  0.95139000  0.39552000  1.0
  H  H67  1  0.12259000  0.54860000  0.10448000  1.0
  H  H68  1  0.14506000  0.90291000  0.61881000  1.0
  H  H69  1  0.14506000  0.59709000  0.88119000  1.0
  H  H70  1  0.85495000  0.09710000  0.38119000  1.0
  H  H71  1  0.85495000  0.40290000  0.11882000  1.0
  H  H72  1  0.24489000  0.05146000  0.58107000  1.0
  H  H73  1  0.24489000  0.44855000  0.91894000  1.0
  H  H74  1  0.75511000  0.94856000  0.41893000  1.0
  H  H75  1  0.75511000  0.55144000  0.08107000  1.0
  C  C76  1  0.92921000  0.51906000  0.62260000  1.0
  C  C77  1  0.92920000  0.98094000  0.87740000  1.0
  C  C78  1  0.07079000  0.48094000  0.37740000  1.0
  C  C79  1  0.07080000  0.01905000  0.12260000  1.0
  C  C80  1  0.81578000  0.71020000  0.57538000  1.0
  C  C81  1  0.81578000  0.78981000  0.92462000  1.0
  C  C82  1  0.18423000  0.28980000  0.42462000  1.0
  C  C83  1  0.18422000  0.21019000  0.07538000  1.0
  C  C84  1  0.77080000  0.72631000  0.63001000  1.0
  C  C85  1  0.77079000  0.77370000  0.86999000  1.0
  C  C86  1  0.22921000  0.27370000  0.36999000  1.0
  C  C87  1  0.22920000  0.22629000  0.13001000  1.0
  C  C88  1  0.83021000  0.57511000  0.71948000  1.0
  C  C89  1  0.83021000  0.92489000  0.78052000  1.0
  C  C90  1  0.16979000  0.42489000  0.28052000  1.0
  C  C91  1  0.16979000  0.07510000  0.21948000  1.0
  C  C92  1  0.96055000  0.66094000  0.75233000  1.0
  C  C93  1  0.96056000  0.83906000  0.74767000  1.0
  C  C94  1  0.03945000  0.33906000  0.24767000  1.0
  C  C95  1  0.03945000  0.16094000  0.25233000  1.0
  C  C96  1  0.37124000  0.42093000  0.64351000  1.0
  C  C97  1  0.37125000  0.07906000  0.85649000  1.0
  C  C98  1  0.62877000  0.57907000  0.35649000  1.0
  C  C99  1  0.62876000  0.92093000  0.14351000  1.0
  C  C100  1  0.36402000  0.58182000  0.71279000  1.0
  C  C101  1  0.36402000  0.91817000  0.78721000  1.0
  C  C102  1  0.63600000  0.41818000  0.28721000  1.0
  C  C103  1  0.63598000  0.08183000  0.21279000  1.0
  C  C104  1  0.38383000  0.67020000  0.66490000  1.0
  C  C105  1  0.38384000  0.82979000  0.83510000  1.0
  C  C106  1  0.61617000  0.32980000  0.33510000  1.0
  C  C107  1  0.61616000  0.17021000  0.16490000  1.0
  C  C108  1  0.40776000  0.60683000  0.56244000  1.0
  C  C109  1  0.40776000  0.89317000  0.93756000  1.0
  C  C110  1  0.59224000  0.39318000  0.43756000  1.0
  C  C111  1  0.59223000  0.10683000  0.06244000  1.0
  C  C112  1  0.48107000  0.47357000  0.52981000  1.0
  C  C113  1  0.48106000  0.02642000  0.97019000  1.0
  C  C114  1  0.51893000  0.52643000  0.47019000  1.0
  C  C115  1  0.51893000  0.97357000  0.02981000  1.0
  C  C116  1  0.96162000  0.21538000  0.54583000  1.0
  C  C117  1  0.96162000  0.28463000  0.95417000  1.0
  C  C118  1  0.03836000  0.78462000  0.45417000  1.0
  C  C119  1  0.03837000  0.71538000  0.04583000  1.0
  C  C120  1  0.98180000  0.05968000  0.57630000  1.0
  C  C121  1  0.98180000  0.44032000  0.92370000  1.0
  C  C122  1  0.01820000  0.94032000  0.42370000  1.0
  C  C123  1  0.01820000  0.55968000  0.07630000  1.0
  C  C124  1  0.13864000  0.02802000  0.60760000  1.0
  C  C125  1  0.13864000  0.47198000  0.89240000  1.0
  C  C126  1  0.86137000  0.97199000  0.39240000  1.0
  C  C127  1  0.86137000  0.52801000  0.10760000  1.0
  C  C128  1  0.15651000  0.11952000  0.66123000  1.0
  C  C129  1  0.15652000  0.38047000  0.83877000  1.0
  C  C130  1  0.84350000  0.88048000  0.33877000  1.0
  C  C131  1  0.84349000  0.61953000  0.16123000  1.0
  N  N132  1  0.91486000  0.58120000  0.57125000  1.0
  N  N133  1  0.91486000  0.91880000  0.92875000  1.0
  N  N134  1  0.08514000  0.41880000  0.42875000  1.0
  N  N135  1  0.08514000  0.08119000  0.07125000  1.0
  N  N136  1  0.84224000  0.60422000  0.65923000  1.0
  N  N137  1  0.84225000  0.89578000  0.84077000  1.0
  N  N138  1  0.15776000  0.39578000  0.34077000  1.0
  N  N139  1  0.15775000  0.10421000  0.15923000  1.0
  N  N140  1  0.35534000  0.42681000  0.69885000  1.0
  N  N141  1  0.35535000  0.07318000  0.80116000  1.0
  N  N142  1  0.64466000  0.57319000  0.30116000  1.0
  N  N143  1  0.64465000  0.92682000  0.19885000  1.0
  N  N144  1  0.38870000  0.56614000  0.62162000  1.0
  N  N145  1  0.38870000  0.93385000  0.87838000  1.0
  N  N146  1  0.61131000  0.43386000  0.37838000  1.0
  N  N147  1  0.61130000  0.06615000  0.12162000  1.0
  O  O148  1  0.04381000  0.20135000  0.67943000  1.0
  O  O149  1  0.04383000  0.29864000  0.82057000  1.0
  O  O150  1  0.95619000  0.79865000  0.32057000  1.0
  O  O151  1  0.95618000  0.70135000  0.17943000  1.0
  O  O152  1  0.29766000  0.10418000  0.68533000  1.0
  O  O153  1  0.29768000  0.39582000  0.81468000  1.0
  O  O154  1  0.70234000  0.89582000  0.31467000  1.0
  O  O155  1  0.70233000  0.60419000  0.18532000  1.0
  O  O156  1  0.08575000  0.30845000  0.54245000  1.0
  O  O157  1  0.08574000  0.19155000  0.95755000  1.0
  O  O158  1  0.91424000  0.69155000  0.45755000  1.0
  O  O159  1  0.91424000  0.80845000  0.04245000  1.0
  O  O160  1  0.82660000  0.24566000  0.52431000  1.0
  O  O161  1  0.82660000  0.25434000  0.97569000  1.0
  O  O162  1  0.17338000  0.75433000  0.47570000  1.0
  O  O163  1  0.17339000  0.74566000  0.02431000  1.0
