# generated using pymatgen
data_CuH6C7NO6
_symmetry_space_group_name_H-M   'P 1'
_cell_length_a   6.43418000
_cell_length_b   7.11261000
_cell_length_c   18.09550000
_cell_angle_alpha   90.00110000
_cell_angle_beta   90.00100000
_cell_angle_gamma   74.50300000
_symmetry_Int_Tables_number   1
_chemical_formula_structural   CuH6C7NO6
_chemical_formula_sum   'Cu4 H24 C28 N4 O24'
_cell_volume   798.01234896
_cell_formula_units_Z   4
loop_
 _symmetry_equiv_pos_site_id
 _symmetry_equiv_pos_as_xyz
  1  'x, y, z'
loop_
 _atom_site_type_symbol
 _atom_site_label
 _atom_site_symmetry_multiplicity
 _atom_site_fract_x
 _atom_site_fract_y
 _atom_site_fract_z
 _atom_site_occupancy
  Cu  Cu0  1  0.27583000  0.10275000  0.68874000  1.0
  Cu  Cu1  1  0.22402000  0.89724000  0.18889000  1.0
  Cu  Cu2  1  0.72400000  0.89724000  0.31110000  1.0
  Cu  Cu3  1  0.77586000  0.10273000  0.81126000  1.0
  H  H4  1  0.14007000  0.28161000  0.80144000  1.0
  H  H5  1  0.35976000  0.71839000  0.30159000  1.0
  H  H6  1  0.85976000  0.71840000  0.19840000  1.0
  H  H7  1  0.64009000  0.28159000  0.69857000  1.0
  H  H8  1  0.11730000  0.44761000  0.73722000  1.0
  H  H9  1  0.38267000  0.55234000  0.23738000  1.0
  H  H10  1  0.88265000  0.55234000  0.26261000  1.0
  H  H11  1  0.61723000  0.44764000  0.76279000  1.0
  H  H12  1  0.92400000  0.38696000  0.63355000  1.0
  H  H13  1  0.57572000  0.61345000  0.13368000  1.0
  H  H14  1  0.07571000  0.61347000  0.36631000  1.0
  H  H15  1  0.42397000  0.38695000  0.86646000  1.0
  H  H16  1  0.93801000  0.19976000  0.58450000  1.0
  H  H17  1  0.56160000  0.80056000  0.08459000  1.0
  H  H18  1  0.06160000  0.80055000  0.41541000  1.0
  H  H19  1  0.43797000  0.19979000  0.91551000  1.0
  H  H20  1  0.74193000  0.70494000  0.49888000  1.0
  H  H21  1  0.75825000  0.29507000  0.99894000  1.0
  H  H22  1  0.25827000  0.29505000  0.50106000  1.0
  H  H23  1  0.24189000  0.70496000  0.00112000  1.0
  H  H24  1  0.20820000  0.48928000  0.57918000  1.0
  H  H25  1  0.29213000  0.51054000  0.07923000  1.0
  H  H26  1  0.79213000  0.51051000  0.42076000  1.0
  H  H27  1  0.70817000  0.48932000  0.92080000  1.0
  C  C28  1  0.53984000  0.86470000  0.58383000  1.0
  C  C29  1  0.96020000  0.13530000  0.08392000  1.0
  C  C30  1  0.46019000  0.13530000  0.41608000  1.0
  C  C31  1  0.03984000  0.86467000  0.91617000  1.0
  C  C32  1  0.60207000  0.71178000  0.53381000  1.0
  C  C33  1  0.89808000  0.28819000  0.03390000  1.0
  C  C34  1  0.39809000  0.28821000  0.46610000  1.0
  C  C35  1  0.10205000  0.71175000  0.96618000  1.0
  C  C36  1  0.47692000  0.57722000  0.52843000  1.0
  C  C37  1  0.02331000  0.42268000  0.02850000  1.0
  C  C38  1  0.52333000  0.42269000  0.47150000  1.0
  C  C39  1  0.97689000  0.57723000  0.97158000  1.0
  C  C40  1  0.30579000  0.59295000  0.57863000  1.0
  C  C41  1  0.19449000  0.40689000  0.07869000  1.0
  C  C42  1  0.69449000  0.40690000  0.42130000  1.0
  C  C43  1  0.80575000  0.59296000  0.92137000  1.0
  C  C44  1  0.25794000  0.74625000  0.62874000  1.0
  C  C45  1  0.24224000  0.25362000  0.12881000  1.0
  C  C46  1  0.74224000  0.25361000  0.37119000  1.0
  C  C47  1  0.75793000  0.74627000  0.87127000  1.0
  C  C48  1  0.64441000  0.02886000  0.59383000  1.0
  C  C49  1  0.85554000  0.97117000  0.09387000  1.0
  C  C50  1  0.35554000  0.97118000  0.40613000  1.0
  C  C51  1  0.14443000  0.02880000  0.90618000  1.0
  C  C52  1  0.08407000  0.78628000  0.68719000  1.0
  C  C53  1  0.41614000  0.21360000  0.18726000  1.0
  C  C54  1  0.91611000  0.21359000  0.31274000  1.0
  C  C55  1  0.58409000  0.78630000  0.81282000  1.0
  N  N56  1  0.36954000  0.87985000  0.62786000  1.0
  N  N57  1  0.13052000  0.12008000  0.12796000  1.0
  N  N58  1  0.63052000  0.12009000  0.37205000  1.0
  N  N59  1  0.86950000  0.87985000  0.87215000  1.0
  O  O60  1  0.21299000  0.32365000  0.75768000  1.0
  O  O61  1  0.28689000  0.67625000  0.25782000  1.0
  O  O62  1  0.78689000  0.67626000  0.24217000  1.0
  O  O63  1  0.71295000  0.32367000  0.74234000  1.0
  O  O64  1  0.98267000  0.66271000  0.70181000  1.0
  O  O65  1  0.51751000  0.33715000  0.20186000  1.0
  O  O66  1  0.01748000  0.33715000  0.29812000  1.0
  O  O67  1  0.48264000  0.66274000  0.79818000  1.0
  O  O68  1  0.05325000  0.95391000  0.71907000  1.0
  O  O69  1  0.44696000  0.04591000  0.21916000  1.0
  O  O70  1  0.94692000  0.04592000  0.28083000  1.0
  O  O71  1  0.55329000  0.95390000  0.78094000  1.0
  O  O72  1  0.01956000  0.29511000  0.60027000  1.0
  O  O73  1  0.48004000  0.70528000  0.10042000  1.0
  O  O74  1  0.98001000  0.70532000  0.39956000  1.0
  O  O75  1  0.51954000  0.29512000  0.89975000  1.0
  O  O76  1  0.81724000  0.02426000  0.56197000  1.0
  O  O77  1  0.68270000  0.97590000  0.06198000  1.0
  O  O78  1  0.18265000  0.97591000  0.43801000  1.0
  O  O79  1  0.31722000  0.02424000  0.93803000  1.0
  O  O80  1  0.53722000  0.16862000  0.63653000  1.0
  O  O81  1  0.96265000  0.83129000  0.13653000  1.0
  O  O82  1  0.46263000  0.83132000  0.36347000  1.0
  O  O83  1  0.03720000  0.16858000  0.86348000  1.0
