# generated using pymatgen
data_Zn4H6C25S4N2O19
_symmetry_space_group_name_H-M   'P 1'
_cell_length_a   19.62000000
_cell_length_b   19.62570000
_cell_length_c   33.29020000
_cell_angle_alpha   79.17350000
_cell_angle_beta   79.23120000
_cell_angle_gamma   63.86720000
_symmetry_Int_Tables_number   1
_chemical_formula_structural   Zn4H6C25S4N2O19
_chemical_formula_sum   'Zn16 H24 C100 S16 N8 O76'
_cell_volume   11224.32021679
_cell_formula_units_Z   4
loop_
 _symmetry_equiv_pos_site_id
 _symmetry_equiv_pos_as_xyz
  1  'x, y, z'
loop_
 _atom_site_type_symbol
 _atom_site_label
 _atom_site_symmetry_multiplicity
 _atom_site_fract_x
 _atom_site_fract_y
 _atom_site_fract_z
 _atom_site_occupancy
  Zn  Zn0  1  0.05791000  0.40198000  0.47773000  1.0
  Zn  Zn1  1  0.98381000  0.48162000  0.56050000  1.0
  Zn  Zn2  1  0.05937000  0.56412000  0.48520000  1.0
  Zn  Zn3  1  0.90342000  0.55695000  0.47730000  1.0
  Zn  Zn4  1  0.69601000  0.35107000  0.27048000  1.0
  Zn  Zn5  1  0.68776000  0.19207000  0.26725000  1.0
  Zn  Zn6  1  0.76847000  0.26136000  0.18912000  1.0
  Zn  Zn7  1  0.84850000  0.19784000  0.27218000  1.0
  Zn  Zn8  1  0.26759000  0.76410000  0.68819000  1.0
  Zn  Zn9  1  0.35275000  0.69436000  0.76874000  1.0
  Zn  Zn10  1  0.19518000  0.84753000  0.77053000  1.0
  Zn  Zn11  1  0.19198000  0.68779000  0.76607000  1.0
  Zn  Zn12  1  0.56093000  0.06063000  0.98245000  1.0
  Zn  Zn13  1  0.40137000  0.05584000  0.97637000  1.0
  Zn  Zn14  1  0.55571000  0.90114000  0.97656000  1.0
  Zn  Zn15  1  0.48438000  0.98102000  0.05891000  1.0
  H  H16  1  0.95710000  0.25727000  0.34507000  1.0
  H  H17  1  0.73428000  0.44000000  0.36618000  1.0
  H  H18  1  0.00635000  0.30646000  0.39252000  1.0
  H  H19  1  0.08539000  0.60585000  0.70362000  1.0
  H  H20  1  0.20682000  0.68729000  0.59936000  1.0
  H  H21  1  0.02803000  0.56589000  0.65579000  1.0
  H  H22  1  0.47456000  0.23805000  0.35249000  1.0
  H  H23  1  0.48073000  0.67910000  0.59711000  1.0
  H  H24  1  0.21679000  0.97749000  0.60107000  1.0
  H  H25  1  0.96216000  0.96056000  0.33394000  1.0
  H  H26  1  0.55378000  0.04083000  0.15243000  1.0
  H  H27  1  0.64311000  0.15995000  0.05060000  1.0
  H  H28  1  0.59892000  0.09064000  0.20159000  1.0
  H  H29  1  0.53793000  0.76583000  0.14584000  1.0
  H  H30  1  0.16272000  0.15782000  0.04068000  1.0
  H  H31  1  0.49094000  0.78573000  0.90893000  1.0
  H  H32  1  0.30631000  0.00787000  0.88908000  1.0
  H  H33  1  0.44409000  0.73767000  0.85982000  1.0
  H  H34  1  0.30116000  0.28249000  0.90110000  1.0
  H  H35  1  0.78169000  0.01588000  0.90069000  1.0
  H  H36  1  0.78119000  0.57324000  0.37758000  1.0
  H  H37  1  0.08285000  0.74528000  0.53423000  1.0
  H  H38  1  0.78780000  0.14612000  0.08095000  1.0
  H  H39  1  0.17734000  0.94707000  0.87533000  1.0
  C  C40  1  0.07002000  0.31560000  0.55945000  1.0
  C  C41  1  0.05233000  0.57881000  0.57326000  1.0
  C  C42  1  0.18676000  0.44243000  0.44330000  1.0
  C  C43  1  0.94757000  0.67939000  0.43286000  1.0
  C  C44  1  0.93015000  0.42873000  0.43288000  1.0
  C  C45  1  0.81900000  0.55761000  0.55811000  1.0
  C  C46  1  0.56761000  0.31543000  0.31258000  1.0
  C  C47  1  0.67679000  0.17786000  0.18324000  1.0
  C  C48  1  0.69256000  0.42863000  0.18573000  1.0
  C  C49  1  0.93419000  0.19460000  0.18957000  1.0
  C  C50  1  0.81469000  0.31897000  0.32313000  1.0
  C  C51  1  0.81758000  0.06317000  0.30521000  1.0
  C  C52  1  0.43428000  0.68517000  0.68441000  1.0
  C  C53  1  0.32320000  0.81562000  0.81779000  1.0
  C  C54  1  0.19012000  0.93193000  0.68738000  1.0
  C  C55  1  0.06773000  0.81062000  0.80882000  1.0
  C  C56  1  0.18177000  0.67538000  0.68177000  1.0
  C  C57  1  0.30935000  0.57260000  0.81421000  1.0
  C  C58  1  0.43659000  0.18745000  0.94005000  1.0
  C  C59  1  0.42899000  0.92917000  0.93057000  1.0
  C  C60  1  0.68251000  0.94155000  0.93517000  1.0
  C  C61  1  0.56189000  0.81391000  0.05949000  1.0
  C  C62  1  0.57132000  0.06615000  0.06924000  1.0
  C  C63  1  0.31636000  0.06414000  0.05998000  1.0
  C  C64  1  0.89814000  0.39992000  0.40593000  1.0
  C  C65  1  0.84321000  0.34670000  0.35248000  1.0
  C  C66  1  0.82054000  0.43796000  0.39913000  1.0
  C  C67  1  0.91975000  0.30788000  0.36019000  1.0
  C  C68  1  0.79393000  0.41132000  0.37200000  1.0
  C  C69  1  0.94684000  0.33490000  0.38651000  1.0
  C  C70  1  0.08567000  0.60403000  0.60116000  1.0
  C  C71  1  0.14853000  0.64963000  0.65397000  1.0
  C  C72  1  0.13668000  0.63788000  0.58466000  1.0
  C  C73  1  0.09883000  0.61480000  0.67034000  1.0
  C  C74  1  0.16720000  0.66111000  0.61134000  1.0
  C  C75  1  0.06730000  0.59256000  0.64392000  1.0
  C  C76  1  0.30290000  0.46374000  0.39907000  1.0
  C  C77  1  0.45400000  0.29787000  0.35653000  1.0
  C  C78  1  0.26087000  0.42171000  0.41676000  1.0
  C  C79  1  0.49398000  0.34128000  0.33894000  1.0
  C  C80  1  0.38500000  0.34255000  0.37916000  1.0
  C  C81  1  0.37431000  0.41870000  0.37823000  1.0
  C  C82  1  0.72660000  0.58352000  0.62651000  1.0
  C  C83  1  0.52505000  0.65868000  0.61735000  1.0
  C  C84  1  0.74420000  0.58408000  0.58396000  1.0
  C  C85  1  0.50949000  0.65839000  0.65966000  1.0
  C  C86  1  0.60474000  0.62992000  0.60544000  1.0
  C  C87  1  0.64731000  0.60846000  0.63905000  1.0
  C  C88  1  0.07439000  0.22428000  0.62793000  1.0
  C  C89  1  0.18339000  0.02234000  0.62073000  1.0
  C  C90  1  0.08977000  0.24131000  0.58559000  1.0
  C  C91  1  0.16689000  0.00752000  0.66284000  1.0
  C  C92  1  0.15059000  0.10180000  0.60826000  1.0
  C  C93  1  0.11007000  0.14514000  0.64123000  1.0
  C  C94  1  0.85069000  0.79970000  0.39393000  1.0
  C  C95  1  0.91589000  0.94233000  0.34130000  1.0
  C  C96  1  0.92156000  0.75470000  0.40769000  1.0
  C  C97  1  0.84430000  0.98650000  0.32864000  1.0
  C  C98  1  0.91837000  0.87330000  0.36447000  1.0
  C  C99  1  0.84842000  0.86686000  0.36870000  1.0
  C  C100  1  0.64666000  0.15231000  0.15367000  1.0
  C  C101  1  0.59717000  0.09648000  0.09871000  1.0
  C  C102  1  0.65890000  0.17301000  0.11090000  1.0
  C  C103  1  0.58351000  0.07753000  0.14125000  1.0
  C  C104  1  0.63443000  0.14445000  0.08373000  1.0
  C  C105  1  0.60827000  0.10531000  0.16843000  1.0
  C  C106  1  0.68455000  0.52077000  0.11686000  1.0
  C  C107  1  0.57157000  0.72179000  0.12572000  1.0
  C  C108  1  0.67079000  0.50273000  0.15922000  1.0
  C  C109  1  0.58670000  0.73792000  0.08362000  1.0
  C  C110  1  0.60604000  0.64217000  0.13755000  1.0
  C  C111  1  0.64656000  0.59995000  0.10416000  1.0
  C  C112  1  0.08314000  0.11982000  0.17758000  1.0
  C  C113  1  0.17079000  0.13584000  0.07276000  1.0
  C  C114  1  0.01068000  0.16523000  0.16540000  1.0
  C  C115  1  0.24190000  0.09051000  0.08573000  1.0
  C  C116  1  0.11311000  0.14780000  0.10663000  1.0
  C  C117  1  0.14196000  0.11097000  0.14441000  1.0
  C  C118  1  0.34935000  0.84560000  0.84714000  1.0
  C  C119  1  0.40078000  0.89950000  0.90200000  1.0
  C  C120  1  0.30949000  0.92235000  0.85528000  1.0
  C  C121  1  0.44023000  0.82322000  0.89386000  1.0
  C  C122  1  0.33566000  0.94856000  0.88278000  1.0
  C  C123  1  0.41443000  0.79669000  0.86661000  1.0
  C  C124  1  0.39887000  0.46066000  0.86273000  1.0
  C  C125  1  0.34352000  0.30485000  0.89940000  1.0
  C  C126  1  0.33290000  0.50143000  0.84325000  1.0
  C  C127  1  0.41072000  0.26461000  0.91722000  1.0
  C  C128  1  0.33987000  0.37617000  0.87924000  1.0
  C  C129  1  0.40416000  0.38843000  0.88251000  1.0
  C  C130  1  0.94965000  0.79154000  0.85141000  1.0
  C  C131  1  0.80070000  0.95692000  0.89539000  1.0
  C  C132  1  0.99408000  0.83189000  0.83576000  1.0
  C  C133  1  0.75772000  0.91549000  0.91020000  1.0
  C  C134  1  0.87020000  0.91170000  0.87327000  1.0
  C  C135  1  0.87829000  0.83705000  0.87205000  1.0
  C  C136  1  0.76208000  0.50315000  0.42214000  1.0
  C  C137  1  0.16569000  0.64528000  0.53944000  1.0
  C  C138  1  0.69142000  0.23064000  0.09297000  1.0
  C  C139  1  0.24205000  0.98086000  0.83389000  1.0
  S  S140  1  0.30828000  0.32754000  0.40670000  1.0
  S  S141  1  0.44921000  0.43551000  0.35023000  1.0
  S  S142  1  0.66341000  0.61708000  0.55933000  1.0
  S  S143  1  0.59055000  0.62224000  0.68520000  1.0
  S  S144  1  0.14616000  0.15958000  0.56201000  1.0
  S  S145  1  0.11331000  0.08902000  0.68761000  1.0
  S  S146  1  0.98587000  0.79538000  0.39024000  1.0
  S  S147  1  0.78011000  0.94468000  0.34392000  1.0
  S  S148  1  0.61315000  0.58334000  0.18348000  1.0
  S  S149  1  0.64125000  0.65736000  0.05814000  1.0
  S  S150  1  0.01479000  0.19491000  0.11303000  1.0
  S  S151  1  0.23963000  0.06313000  0.13872000  1.0
  S  S152  1  0.27574000  0.45258000  0.85093000  1.0
  S  S153  1  0.46966000  0.31244000  0.90968000  1.0
  S  S154  1  0.94920000  0.92490000  0.84773000  1.0
  S  S155  1  0.80038000  0.82247000  0.89711000  1.0
  N  N156  1  0.27821000  0.54598000  0.39714000  1.0
  N  N157  1  0.77886000  0.56773000  0.65625000  1.0
  N  N158  1  0.02331000  0.27732000  0.65717000  1.0
  N  N159  1  0.78225000  0.78481000  0.40529000  1.0
  N  N160  1  0.73648000  0.46932000  0.08713000  1.0
  N  N161  1  0.10112000  0.07865000  0.21815000  1.0
  N  N162  1  0.45589000  0.48714000  0.86619000  1.0
  N  N163  1  0.97191000  0.71040000  0.85098000  1.0
  O  O164  1  0.00186000  0.50059000  0.49976000  1.0
  O  O165  1  0.07707000  0.31309000  0.52061000  1.0
  O  O166  1  0.01804000  0.53654000  0.58947000  1.0
  O  O167  1  0.16332000  0.50024000  0.46237000  1.0
  O  O168  1  0.05028000  0.37430000  0.57727000  1.0
  O  O169  1  0.15467000  0.39726000  0.44503000  1.0
  O  O170  1  0.06116000  0.60231000  0.53503000  1.0
  O  O171  1  0.01071000  0.65706000  0.44751000  1.0
  O  O172  1  0.88571000  0.49328000  0.44531000  1.0
  O  O173  1  0.90551000  0.64372000  0.43710000  1.0
  O  O174  1  0.99875000  0.38769000  0.44064000  1.0
  O  O175  1  0.87532000  0.50285000  0.57397000  1.0
  O  O176  1  0.81868000  0.59153000  0.52130000  1.0
  O  O177  1  0.74975000  0.25083000  0.24973000  1.0
  O  O178  1  0.59457000  0.36531000  0.29933000  1.0
  O  O179  1  0.65022000  0.17317000  0.22116000  1.0
  O  O180  1  0.71382000  0.36898000  0.16847000  1.0
  O  O181  1  0.59759000  0.24597000  0.30514000  1.0
  O  O182  1  0.68534000  0.43310000  0.22433000  1.0
  O  O183  1  0.72857000  0.20102000  0.16779000  1.0
  O  O184  1  0.87802000  0.21676000  0.16868000  1.0
  O  O185  1  0.85756000  0.25212000  0.31309000  1.0
  O  O186  1  0.93082000  0.19738000  0.22768000  1.0
  O  O187  1  0.75047000  0.36425000  0.31041000  1.0
  O  O188  1  0.74883000  0.09208000  0.29636000  1.0
  O  O189  1  0.86493000  0.09366000  0.29628000  1.0
  O  O190  1  0.25185000  0.74873000  0.74867000  1.0
  O  O191  1  0.37521000  0.71359000  0.66531000  1.0
  O  O192  1  0.36664000  0.74882000  0.80803000  1.0
  O  O193  1  0.16702000  0.93186000  0.72600000  1.0
  O  O194  1  0.43527000  0.67796000  0.72338000  1.0
  O  O195  1  0.23044000  0.87381000  0.66808000  1.0
  O  O196  1  0.25875000  0.86006000  0.80513000  1.0
  O  O197  1  0.10346000  0.85175000  0.80878000  1.0
  O  O198  1  0.17673000  0.64974000  0.71990000  1.0
  O  O199  1  0.08745000  0.75652000  0.78735000  1.0
  O  O200  1  0.21207000  0.72110000  0.66506000  1.0
  O  O201  1  0.36122000  0.59284000  0.79550000  1.0
  O  O202  1  0.23817000  0.60498000  0.80949000  1.0
  O  O203  1  0.50038000  0.00016000  0.99858000  1.0
  O  O204  1  0.50190000  0.16087000  0.95317000  1.0
  O  O205  1  0.38622000  0.99639000  0.94026000  1.0
  O  O206  1  0.65207000  0.89397000  0.94359000  1.0
  O  O207  1  0.39205000  0.15414000  0.94467000  1.0
  O  O208  1  0.65499000  0.00828000  0.94635000  1.0
  O  O209  1  0.49385000  0.88474000  0.94274000  1.0
  O  O210  1  0.58134000  0.81494000  0.02058000  1.0
  O  O211  1  0.53313000  0.02721000  0.08503000  1.0
  O  O212  1  0.52386000  0.87161000  0.07942000  1.0
  O  O213  1  0.58969000  0.08159000  0.03092000  1.0
  O  O214  1  0.31572000  0.08131000  0.02110000  1.0
  O  O215  1  0.37491000  0.02576000  0.07942000  1.0
  O  O216  1  0.74507000  0.57509000  0.40235000  1.0
  O  O217  1  0.72660000  0.49295000  0.45491000  1.0
  O  O218  1  0.12919000  0.71469000  0.51747000  1.0
  O  O219  1  0.22231000  0.59590000  0.52378000  1.0
  O  O220  1  0.76515000  0.20172000  0.07471000  1.0
  O  O221  1  0.65340000  0.29908000  0.09164000  1.0
  O  O222  1  0.17148000  0.98896000  0.85317000  1.0
  O  O223  1  0.24833000  0.02383000  0.80359000  1.0
  O  O224  1  0.20931000  0.58863000  0.39860000  1.0
  O  O225  1  0.33086000  0.56710000  0.39191000  1.0
  O  O226  1  0.75581000  0.55167000  0.69271000  1.0
  O  O227  1  0.83960000  0.57423000  0.64444000  1.0
  O  O228  1  0.04001000  0.25888000  0.69313000  1.0
  O  O229  1  0.96668000  0.33333333  0.64534000  1.0
  O  O230  1  0.74831000  0.78946000  0.37620000  1.0
  O  O231  1  0.76165000  0.77241000  0.44218000  1.0
  O  O232  1  0.79276000  0.41257000  0.09880000  1.0
  O  O233  1  0.72114000  0.48992000  0.05095000  1.0
  O  O234  1  0.16604000  0.06390000  0.22632000  1.0
  O  O235  1  0.05409000  0.05835000  0.24074000  1.0
  O  O236  1  0.52013000  0.43582000  0.87282000  1.0
  O  O237  1  0.43710000  0.55654000  0.86419000  1.0
  O  O238  1  0.91796000  0.69157000  0.85433000  1.0
  O  O239  1  0.04038000  0.66597000  0.84921000  1.0
