# generated using pymatgen
data_SnH24C20Br2(NO2)2
_symmetry_space_group_name_H-M   'P 1'
_cell_length_a   8.01917000
_cell_length_b   9.91119000
_cell_length_c   14.92770000
_cell_angle_alpha   76.49970000
_cell_angle_beta   79.90930000
_cell_angle_gamma   81.06800000
_symmetry_Int_Tables_number   1
_chemical_formula_structural   SnH24C20Br2(NO2)2
_chemical_formula_sum   'Sn2 H48 C40 Br4 N4 O8'
_cell_volume   1127.68480663
_cell_formula_units_Z   2
loop_
 _symmetry_equiv_pos_site_id
 _symmetry_equiv_pos_as_xyz
  1  'x, y, z'
loop_
 _atom_site_type_symbol
 _atom_site_label
 _atom_site_symmetry_multiplicity
 _atom_site_fract_x
 _atom_site_fract_y
 _atom_site_fract_z
 _atom_site_occupancy
  Sn  Sn0  1  0.64876000  0.11284000  0.71787000  1.0
  Sn  Sn1  1  0.35123000  0.88717000  0.28213000  1.0
  H  H2  1  0.05905000  0.12131000  0.71321000  1.0
  H  H3  1  0.94095000  0.87869000  0.28679000  1.0
  H  H4  1  0.21716000  0.53291000  0.61489000  1.0
  H  H5  1  0.78284000  0.46709000  0.38511000  1.0
  H  H6  1  0.69227000  0.45440000  0.63647000  1.0
  H  H7  1  0.30773000  0.54561000  0.36352000  1.0
  H  H8  1  0.59203000  0.63118000  0.82988000  1.0
  H  H9  1  0.40797000  0.36882000  0.17012000  1.0
  H  H10  1  0.09834000  0.72814000  0.82758000  1.0
  H  H11  1  0.90167000  0.27186000  0.17241000  1.0
  H  H12  1  0.96193000  0.30638000  0.91568000  1.0
  H  H13  1  0.03807000  0.69361000  0.08432000  1.0
  H  H14  1  0.86693000  0.06270000  0.56950000  1.0
  H  H15  1  0.13307000  0.93731000  0.43050000  1.0
  H  H16  1  0.68838000  0.96765000  0.58765000  1.0
  H  H17  1  0.31162000  0.03235000  0.41235000  1.0
  H  H18  1  0.68572000  0.28087000  0.49641000  1.0
  H  H19  1  0.31428000  0.71913000  0.50359000  1.0
  H  H20  1  0.51102000  0.18560000  0.51507000  1.0
  H  H21  1  0.48898000  0.81440000  0.48493000  1.0
  H  H22  1  0.84945000  0.12549000  0.39049000  1.0
  H  H23  1  0.15055000  0.87451000  0.60951000  1.0
  H  H24  1  0.67579000  0.02765000  0.41218000  1.0
  H  H25  1  0.32421000  0.97235000  0.58782000  1.0
  H  H26  1  0.48828000  0.24543000  0.34428000  1.0
  H  H27  1  0.51172000  0.75457000  0.65572000  1.0
  H  H28  1  0.66168000  0.19793000  0.26287000  1.0
  H  H29  1  0.33832000  0.80207000  0.73713000  1.0
  H  H30  1  0.66738000  0.33979000  0.31626000  1.0
  H  H31  1  0.33263000  0.66021000  0.68373000  1.0
  H  H32  1  0.59992000  0.28131000  0.83748000  1.0
  H  H33  1  0.40007000  0.71868000  0.16252000  1.0
  H  H34  1  0.46732000  0.14386000  0.87839000  1.0
  H  H35  1  0.53268000  0.85614000  0.12161000  1.0
  H  H36  1  0.72452000  0.97966000  0.93204000  1.0
  H  H37  1  0.27549000  0.02033000  0.06796000  1.0
  H  H38  1  0.85191000  0.11643000  0.89126000  1.0
  H  H39  1  0.14809000  0.88357000  0.10874000  1.0
  H  H40  1  0.66257000  0.25164000  0.00332000  1.0
  H  H41  1  0.33744000  0.74836000  0.99668000  1.0
  H  H42  1  0.54007000  0.11129000  0.04397000  1.0
  H  H43  1  0.45994000  0.88871000  0.95603000  1.0
  H  H44  1  0.80554000  0.95173000  0.09264000  1.0
  H  H45  1  0.19447000  0.04826000  0.90736000  1.0
  H  H46  1  0.74837000  0.08978000  0.15232000  1.0
  H  H47  1  0.25163000  0.91022000  0.84767000  1.0
  H  H48  1  0.92133000  0.09822000  0.05912000  1.0
  H  H49  1  0.07867000  0.90179000  0.94087000  1.0
  C  C50  1  0.33916000  0.26114000  0.67851000  1.0
  C  C51  1  0.66084000  0.73885000  0.32149000  1.0
  C  C52  1  0.03054000  0.23340000  0.68730000  1.0
  C  C53  1  0.96945000  0.76660000  0.31271000  1.0
  C  C54  1  0.15945000  0.32078000  0.66618000  1.0
  C  C55  1  0.84055000  0.67922000  0.33382000  1.0
  C  C56  1  0.11796000  0.46361000  0.63213000  1.0
  C  C57  1  0.88204000  0.53638000  0.36787000  1.0
  C  C58  1  0.94916000  0.51240000  0.62059000  1.0
  C  C59  1  0.05084000  0.48760000  0.37941000  1.0
  C  C60  1  0.82602000  0.41985000  0.64370000  1.0
  C  C61  1  0.17398000  0.58015000  0.35630000  1.0
  C  C62  1  0.78361000  0.84729000  0.78713000  1.0
  C  C63  1  0.21639000  0.15271000  0.21287000  1.0
  C  C64  1  0.72392000  0.59790000  0.84205000  1.0
  C  C65  1  0.27608000  0.40210000  0.15796000  1.0
  C  C66  1  0.83886000  0.69719000  0.82469000  1.0
  C  C67  1  0.16114000  0.30281000  0.17531000  1.0
  C  C68  1  0.00699000  0.65268000  0.84116000  1.0
  C  C69  1  0.99301000  0.34733000  0.15884000  1.0
  C  C70  1  0.05087000  0.51067000  0.87459000  1.0
  C  C71  1  0.94913000  0.48932000  0.12541000  1.0
  C  C72  1  0.92867000  0.41820000  0.88950000  1.0
  C  C73  1  0.07133000  0.58180000  0.11050000  1.0
  C  C74  1  0.72679000  0.07209000  0.57995000  1.0
  C  C75  1  0.27321000  0.92791000  0.42005000  1.0
  C  C76  1  0.65142000  0.17585000  0.50081000  1.0
  C  C77  1  0.34858000  0.82416000  0.49919000  1.0
  C  C78  1  0.70929000  0.13324000  0.40692000  1.0
  C  C79  1  0.29071000  0.86676000  0.59308000  1.0
  C  C80  1  0.62816000  0.23471000  0.32827000  1.0
  C  C81  1  0.37184000  0.76529000  0.67173000  1.0
  C  C82  1  0.59857000  0.16769000  0.85189000  1.0
  C  C83  1  0.40143000  0.83230000  0.14811000  1.0
  C  C84  1  0.72058000  0.09405000  0.92030000  1.0
  C  C85  1  0.27943000  0.90595000  0.07970000  1.0
  C  C86  1  0.66982000  0.13714000  0.01441000  1.0
  C  C87  1  0.33018000  0.86286000  0.98559000  1.0
  C  C88  1  0.79286000  0.06624000  0.08324000  1.0
  C  C89  1  0.20715000  0.93376000  0.91676000  1.0
  Br  Br90  1  0.88457000  0.70468000  0.57258000  1.0
  Br  Br91  1  0.11544000  0.29532000  0.42743000  1.0
  Br  Br92  1  0.27600000  0.44013000  0.89921000  1.0
  Br  Br93  1  0.72400000  0.55987000  0.10079000  1.0
  N  N94  1  0.86821000  0.28265000  0.67622000  1.0
  N  N95  1  0.13179000  0.71735000  0.32378000  1.0
  N  N96  1  0.76790000  0.46110000  0.87300000  1.0
  N  N97  1  0.23210000  0.53890000  0.12700000  1.0
  O  O98  1  0.36754000  0.12791000  0.70742000  1.0
  O  O99  1  0.63245000  0.87209000  0.29258000  1.0
  O  O100  1  0.45581000  0.33993000  0.66070000  1.0
  O  O101  1  0.54419000  0.66007000  0.33930000  1.0
  O  O102  1  0.62410000  0.88431000  0.78153000  1.0
  O  O103  1  0.37590000  0.11569000  0.21847000  1.0
  O  O104  1  0.89160000  0.93505000  0.76078000  1.0
  O  O105  1  0.10839000  0.06496000  0.23922000  1.0
