# generated using pymatgen
data_YbCuH22C18IN5O9
_symmetry_space_group_name_H-M   'P 1'
_cell_length_a   10.89760000
_cell_length_b   11.84702881
_cell_length_c   14.51370000
_cell_angle_alpha   81.98667183
_cell_angle_beta   83.40490000
_cell_angle_gamma   67.50137820
_symmetry_Int_Tables_number   1
_chemical_formula_structural   YbCuH22C18IN5O9
_chemical_formula_sum   'Yb2 Cu2 H44 C36 I2 N10 O18'
_cell_volume   1710.38130643
_cell_formula_units_Z   2
loop_
 _symmetry_equiv_pos_site_id
 _symmetry_equiv_pos_as_xyz
  1  'x, y, z'
loop_
 _atom_site_type_symbol
 _atom_site_label
 _atom_site_symmetry_multiplicity
 _atom_site_fract_x
 _atom_site_fract_y
 _atom_site_fract_z
 _atom_site_occupancy
  Yb  Yb0  1  0.09764000  0.62348000  0.46425000  1.0
  Yb  Yb1  1  0.90236000  0.37652000  0.53575000  1.0
  Cu  Cu2  1  0.48644000  0.00308000  0.08785000  1.0
  Cu  Cu3  1  0.51357000  0.99692000  0.91213000  1.0
  H  H4  1  0.05945000  0.21264000  0.27908000  1.0
  H  H5  1  0.94056000  0.78736000  0.72092000  1.0
  H  H6  1  0.34732000  0.38281000  0.25796000  1.0
  H  H7  1  0.65269000  0.61720000  0.74204000  1.0
  H  H8  1  0.87013000  0.79410000  0.29735000  1.0
  H  H9  1  0.12989000  0.20590000  0.70264000  1.0
  H  H10  1  0.55924000  0.64683000  0.34257000  1.0
  H  H11  1  0.44076000  0.35318000  0.65743000  1.0
  H  H12  1  0.44911000  0.79280000  0.20755000  1.0
  H  H13  1  0.55089000  0.20721000  0.79244000  1.0
  H  H14  1  0.20566000  0.07274000  0.16087000  1.0
  H  H15  1  0.79437000  0.92726000  0.83913000  1.0
  H  H16  1  0.74393000  0.93841000  0.16646000  1.0
  H  H17  1  0.25608000  0.06158000  0.83353000  1.0
  H  H18  1  0.99950000  0.89955000  0.57207000  1.0
  H  H19  1  0.00048000  0.10048000  0.42792000  1.0
  H  H20  1  0.17858000  0.63350000  0.68556000  1.0
  H  H21  1  0.82141000  0.36651000  0.31445000  1.0
  H  H22  1  0.48514000  0.23313000  0.14224000  1.0
  H  H23  1  0.51487000  0.76688000  0.85776000  1.0
  H  H24  1  0.32156000  0.56061000  0.78973000  1.0
  H  H25  1  0.67845000  0.43939000  0.21027000  1.0
  H  H26  1  0.42018000  0.65118000  0.78818000  1.0
  H  H27  1  0.57982000  0.34882000  0.21182000  1.0
  H  H28  1  0.49355000  0.50029000  0.75054000  1.0
  H  H29  1  0.50644000  0.49971000  0.24947000  1.0
  H  H30  1  0.86409000  0.05094000  0.64584000  1.0
  H  H31  1  0.13590000  0.94906000  0.35416000  1.0
  H  H32  1  0.69808000  0.05279000  0.66332000  1.0
  H  H33  1  0.30190000  0.94723000  0.33669000  1.0
  H  H34  1  0.73655000  0.16255000  0.57903000  1.0
  H  H35  1  0.26343000  0.83746000  0.42098000  1.0
  H  H36  1  0.43333000  0.67497000  0.51994000  1.0
  H  H37  1  0.56667000  0.32501000  0.48007000  1.0
  H  H38  1  0.55998000  0.56976000  0.59225000  1.0
  H  H39  1  0.44001000  0.43022000  0.40775000  1.0
  H  H40  1  0.49568000  0.72929000  0.60694000  1.0
  H  H41  1  0.50433000  0.27069000  0.39306000  1.0
  H  H42  1  0.72883000  0.91732000  0.44234000  1.0
  H  H43  1  0.27113000  0.08266000  0.55769000  1.0
  H  H44  1  0.66020000  0.08096000  0.44343000  1.0
  H  H45  1  0.33973000  0.91902000  0.55660000  1.0
  H  H46  1  0.61193000  0.98641000  0.53550000  1.0
  H  H47  1  0.38805000  0.01356000  0.46454000  1.0
  C  C48  1  0.19522000  0.30579000  0.27988000  1.0
  C  C49  1  0.80481000  0.69421000  0.72012000  1.0
  C  C50  1  0.79841000  0.61990000  0.40754000  1.0
  C  C51  1  0.20160000  0.38010000  0.59245000  1.0
  C  C52  1  0.15359000  0.21928000  0.25059000  1.0
  C  C53  1  0.84642000  0.78072000  0.74941000  1.0
  C  C54  1  0.72359000  0.70972000  0.33119000  1.0
  C  C55  1  0.27642000  0.29028000  0.66880000  1.0
  C  C56  1  0.11695000  0.38509000  0.35482000  1.0
  C  C57  1  0.88305000  0.61491000  0.64518000  1.0
  C  C58  1  0.31487000  0.31348000  0.23906000  1.0
  C  C59  1  0.68514000  0.68653000  0.76093000  1.0
  C  C60  1  0.77569000  0.79306000  0.28083000  1.0
  C  C61  1  0.22433000  0.20695000  0.71915000  1.0
  C  C62  1  0.60329000  0.71017000  0.30551000  1.0
  C  C63  1  0.39673000  0.28983000  0.69448000  1.0
  C  C64  1  0.54077000  0.79225000  0.23148000  1.0
  C  C65  1  0.45923000  0.20776000  0.76851000  1.0
  C  C66  1  0.23397000  0.14157000  0.18600000  1.0
  C  C67  1  0.76605000  0.85843000  0.81400000  1.0
  C  C68  1  0.70648000  0.87289000  0.20840000  1.0
  C  C69  1  0.29354000  0.12711000  0.79159000  1.0
  C  C70  1  0.92702000  0.90162000  0.52406000  1.0
  C  C71  1  0.07297000  0.09837000  0.47594000  1.0
  C  C72  1  0.24540000  0.65941000  0.63115000  1.0
  C  C73  1  0.75460000  0.34059000  0.36885000  1.0
  C  C74  1  0.39045000  0.23181000  0.17563000  1.0
  C  C75  1  0.60956000  0.76820000  0.82437000  1.0
  C  C76  1  0.40299000  0.58386000  0.75158000  1.0
  C  C77  1  0.59702000  0.41613000  0.24842000  1.0
  C  C78  1  0.77367000  0.06720000  0.61129000  1.0
  C  C79  1  0.22632000  0.93280000  0.38872000  1.0
  C  C80  1  0.47004000  0.65367000  0.58986000  1.0
  C  C81  1  0.52996000  0.34631000  0.41014000  1.0
  C  C82  1  0.69498000  0.99235000  0.48685000  1.0
  C  C83  1  0.30497000  0.00763000  0.51318000  1.0
  I  I84  1  0.34486000  0.90584000  0.01147000  1.0
  I  I85  1  0.65515000  0.09416000  0.98852000  1.0
  N  N86  1  0.35304000  0.14461000  0.15059000  1.0
  N  N87  1  0.64698000  0.85539000  0.84941000  1.0
  N  N88  1  0.59028000  0.87374000  0.18355000  1.0
  N  N89  1  0.40973000  0.12627000  0.81644000  1.0
  N  N90  1  0.36718000  0.63493000  0.65669000  1.0
  N  N91  1  0.63282000  0.36507000  0.34332000  1.0
  N  N92  1  0.23722000  0.67324000  0.29736000  1.0
  N  N93  1  0.76278000  0.32677000  0.70265000  1.0
  N  N94  1  0.80419000  0.98341000  0.54008000  1.0
  N  N95  1  0.19579000  0.01659000  0.45993000  1.0
  O  O96  1  0.15995000  0.46304000  0.37556000  1.0
  O  O97  1  0.84005000  0.53697000  0.62443000  1.0
  O  O98  1  0.90561000  0.62651000  0.42793000  1.0
  O  O99  1  0.09439000  0.37348000  0.57206000  1.0
  O  O100  1  0.75382000  0.53921000  0.44727000  1.0
  O  O101  1  0.24619000  0.46079000  0.55271000  1.0
  O  O102  1  0.01484000  0.36524000  0.39320000  1.0
  O  O103  1  0.98516000  0.63476000  0.60680000  1.0
  O  O104  1  0.96083000  0.83210000  0.46037000  1.0
  O  O105  1  0.03913000  0.16791000  0.53963000  1.0
  O  O106  1  0.20571000  0.70768000  0.55168000  1.0
  O  O107  1  0.79430000  0.29231000  0.44832000  1.0
  O  O108  1  0.29541000  0.62814000  0.37480000  1.0
  O  O109  1  0.70460000  0.37186000  0.62520000  1.0
  O  O110  1  0.10980000  0.71081000  0.30525000  1.0
  O  O111  1  0.89021000  0.28921000  0.69476000  1.0
  O  O112  1  0.30098000  0.67906000  0.22232000  1.0
  O  O113  1  0.69903000  0.32093000  0.77768000  1.0
