# generated using pymatgen
data_AgPH14C10N3O2
_symmetry_space_group_name_H-M   'P 1'
_cell_length_a   6.94455000
_cell_length_b   9.73908000
_cell_length_c   9.80870000
_cell_angle_alpha   96.16250000
_cell_angle_beta   108.22900000
_cell_angle_gamma   106.69100000
_symmetry_Int_Tables_number   1
_chemical_formula_structural   AgPH14C10N3O2
_chemical_formula_sum   'Ag2 P2 H28 C20 N6 O4'
_cell_volume   589.20848157
_cell_formula_units_Z   2
loop_
 _symmetry_equiv_pos_site_id
 _symmetry_equiv_pos_as_xyz
  1  'x, y, z'
loop_
 _atom_site_type_symbol
 _atom_site_label
 _atom_site_symmetry_multiplicity
 _atom_site_fract_x
 _atom_site_fract_y
 _atom_site_fract_z
 _atom_site_occupancy
  Ag  Ag0  1  0.53573000  0.90171000  0.85495000  1.0
  Ag  Ag1  1  0.46425000  0.09828000  0.14503000  1.0
  P  P2  1  0.74107000  0.82294000  0.74328000  1.0
  P  P3  1  0.25892000  0.17705000  0.25671000  1.0
  H  H4  1  0.87718000  0.53100000  0.02236000  1.0
  H  H5  1  0.12281000  0.46900000  0.97766000  1.0
  H  H6  1  0.21093000  0.25674000  0.88958000  1.0
  H  H7  1  0.78906000  0.74327000  0.11043000  1.0
  H  H8  1  0.11476000  0.97865000  0.88229000  1.0
  H  H9  1  0.88524000  0.02134000  0.11772000  1.0
  H  H10  1  0.05340000  0.80895000  0.93839000  1.0
  H  H11  1  0.94659000  0.19104000  0.06160000  1.0
  H  H12  1  0.60332000  0.87195000  0.49729000  1.0
  H  H13  1  0.39666000  0.12804000  0.50271000  1.0
  H  H14  1  0.84037000  0.01746000  0.61592000  1.0
  H  H15  1  0.15963000  0.98255000  0.38408000  1.0
  H  H16  1  0.66710000  0.56282000  0.74629000  1.0
  H  H17  1  0.33292000  0.43718000  0.25371000  1.0
  H  H18  1  0.49804000  0.58978000  0.58002000  1.0
  H  H19  1  0.50197000  0.41021000  0.41998000  1.0
  H  H20  1  0.18560000  0.99538000  0.66154000  1.0
  H  H21  1  0.81441000  0.00462000  0.33846000  1.0
  H  H22  1  0.21118000  0.84055000  0.56121000  1.0
  H  H23  1  0.78882000  0.15946000  0.43879000  1.0
  H  H24  1  0.12754000  0.60789000  0.63177000  1.0
  H  H25  1  0.87247000  0.39213000  0.36822000  1.0
  H  H26  1  0.03367000  0.58835000  0.78150000  1.0
  H  H27  1  0.96635000  0.41164000  0.21849000  1.0
  H  H28  1  0.89555000  0.64300000  0.40428000  1.0
  H  H29  1  0.10446000  0.35701000  0.59571000  1.0
  H  H30  1  0.63532000  0.64879000  0.39018000  1.0
  H  H31  1  0.36469000  0.35121000  0.60982000  1.0
  C  C32  1  0.60453000  0.24717000  0.89760000  1.0
  C  C33  1  0.39550000  0.75284000  0.10241000  1.0
  C  C34  1  0.54991000  0.37798000  0.94966000  1.0
  C  C35  1  0.45011000  0.62204000  0.05034000  1.0
  C  C36  1  0.71105000  0.51637000  0.01162000  1.0
  C  C37  1  0.28892000  0.48364000  0.98840000  1.0
  C  C38  1  0.33817000  0.36325000  0.93857000  1.0
  C  C39  1  0.66182000  0.63672000  0.06142000  1.0
  C  C40  1  0.03220000  0.85943000  0.84212000  1.0
  C  C41  1  0.96781000  0.14057000  0.15789000  1.0
  C  C42  1  0.76520000  0.89735000  0.58043000  1.0
  C  C43  1  0.23480000  0.10265000  0.41957000  1.0
  C  C44  1  0.66436000  0.62599000  0.65973000  1.0
  C  C45  1  0.33566000  0.37401000  0.34027000  1.0
  C  C46  1  0.11603000  0.87612000  0.61971000  1.0
  C  C47  1  0.88397000  0.12388000  0.38029000  1.0
  C  C48  1  0.03084000  0.64303000  0.68903000  1.0
  C  C49  1  0.96918000  0.35697000  0.31097000  1.0
  C  C50  1  0.80292000  0.67813000  0.46517000  1.0
  C  C51  1  0.19709000  0.32187000  0.53482000  1.0
  N  N52  1  0.13401000  0.80404000  0.74679000  1.0
  N  N53  1  0.86600000  0.19596000  0.25321000  1.0
  N  N54  1  0.89617000  0.83798000  0.51557000  1.0
  N  N55  1  0.10383000  0.16202000  0.48442000  1.0
  N  N56  1  0.80823000  0.59883000  0.58535000  1.0
  N  N57  1  0.19178000  0.40118000  0.41465000  1.0
  O  O58  1  0.48380000  0.12126000  0.90692000  1.0
  O  O59  1  0.51614000  0.87873000  0.09304000  1.0
  O  O60  1  0.75700000  0.26598000  0.85156000  1.0
  O  O61  1  0.24299000  0.73402000  0.14848000  1.0
