# generated using pymatgen
data_Cu2Mo3H4C4(NO5)2
_symmetry_space_group_name_H-M   'P 1'
_cell_length_a   7.69615000
_cell_length_b   8.65412000
_cell_length_c   8.65413000
_cell_angle_alpha   91.19070000
_cell_angle_beta   90.00000000
_cell_angle_gamma   90.00000000
_symmetry_Int_Tables_number   1
_chemical_formula_structural   Cu2Mo3H4C4(NO5)2
_chemical_formula_sum   'Cu4 Mo6 H8 C8 N4 O20'
_cell_volume   576.27006972
_cell_formula_units_Z   2
loop_
 _symmetry_equiv_pos_site_id
 _symmetry_equiv_pos_as_xyz
  1  'x, y, z'
loop_
 _atom_site_type_symbol
 _atom_site_label
 _atom_site_symmetry_multiplicity
 _atom_site_fract_x
 _atom_site_fract_y
 _atom_site_fract_z
 _atom_site_occupancy
  Cu  Cu0  1  0.25000000  0.45180000  0.99053000  1.0
  Cu  Cu1  1  0.75000000  0.54820000  0.00947000  1.0
  Cu  Cu2  1  0.75000000  0.00947000  0.54819000  1.0
  Cu  Cu3  1  0.25000000  0.99053000  0.45181000  1.0
  Mo  Mo4  1  0.25000000  0.83325000  0.83326000  1.0
  Mo  Mo5  1  0.75000000  0.16676000  0.16674000  1.0
  Mo  Mo6  1  0.00000000  0.85789000  0.14211000  1.0
  Mo  Mo7  1  0.50000000  0.14211000  0.85789000  1.0
  Mo  Mo8  1  0.00000000  0.14212000  0.85789000  1.0
  Mo  Mo9  1  0.50000000  0.85789000  0.14211000  1.0
  H  H10  1  0.25000000  0.64113000  0.29324000  1.0
  H  H11  1  0.75000000  0.35887000  0.70676000  1.0
  H  H12  1  0.75000000  0.70675000  0.35887000  1.0
  H  H13  1  0.25000000  0.29324000  0.64113000  1.0
  H  H14  1  0.25000000  0.57477000  0.57478000  1.0
  H  H15  1  0.75000000  0.42522000  0.42523000  1.0
  H  H16  1  0.25000000  0.17423000  0.17423000  1.0
  H  H17  1  0.75000000  0.82578000  0.82577000  1.0
  C  C18  1  0.25000000  0.52185000  0.32961000  1.0
  C  C19  1  0.75000000  0.47815000  0.67041000  1.0
  C  C20  1  0.75000000  0.67038000  0.47816000  1.0
  C  C21  1  0.25000000  0.32960000  0.52187000  1.0
  C  C22  1  0.25000000  0.48494000  0.48494000  1.0
  C  C23  1  0.75000000  0.51505000  0.51505000  1.0
  C  C24  1  0.25000000  0.26334000  0.26334000  1.0
  C  C25  1  0.75000000  0.73664000  0.73664000  1.0
  N  N26  1  0.25000000  0.41081000  0.21745000  1.0
  N  N27  1  0.75000000  0.58919000  0.78255000  1.0
  N  N28  1  0.75000000  0.78255000  0.58918000  1.0
  N  N29  1  0.25000000  0.21745000  0.41081000  1.0
  O  O30  1  0.25000000  0.85921000  0.09132000  1.0
  O  O31  1  0.75000000  0.14080000  0.90868000  1.0
  O  O32  1  0.75000000  0.90869000  0.14079000  1.0
  O  O33  1  0.25000000  0.09132000  0.85920000  1.0
  O  O34  1  0.01620000  0.89164000  0.89164000  1.0
  O  O35  1  0.51620000  0.10836000  0.10836000  1.0
  O  O36  1  0.98380000  0.10837000  0.10836000  1.0
  O  O37  1  0.48380000  0.89164000  0.89164000  1.0
  O  O38  1  0.25000000  0.63289000  0.85662000  1.0
  O  O39  1  0.75000000  0.36712000  0.14338000  1.0
  O  O40  1  0.75000000  0.14338000  0.36712000  1.0
  O  O41  1  0.25000000  0.85662000  0.63289000  1.0
  O  O42  1  0.04674000  0.33882000  0.88462000  1.0
  O  O43  1  0.54674000  0.66118000  0.11538000  1.0
  O  O44  1  0.95326000  0.11538000  0.66117000  1.0
  O  O45  1  0.45326000  0.88463000  0.33882000  1.0
  O  O46  1  0.95326000  0.66118000  0.11538000  1.0
  O  O47  1  0.45326000  0.33882000  0.88462000  1.0
  O  O48  1  0.04674000  0.88462000  0.33882000  1.0
  O  O49  1  0.54674000  0.11537000  0.66117000  1.0
