# generated using pymatgen
data_CdH24C24(BrN6)2
_symmetry_space_group_name_H-M   'P 1'
_cell_length_a   7.76014000
_cell_length_b   8.94602000
_cell_length_c   11.37910000
_cell_angle_alpha   105.34700000
_cell_angle_beta   90.81860000
_cell_angle_gamma   112.69500000
_symmetry_Int_Tables_number   1
_chemical_formula_structural   CdH24C24(BrN6)2
_chemical_formula_sum   'Cd1 H24 C24 Br2 N12'
_cell_volume   696.76874453
_cell_formula_units_Z   1
loop_
 _symmetry_equiv_pos_site_id
 _symmetry_equiv_pos_as_xyz
  1  'x, y, z'
loop_
 _atom_site_type_symbol
 _atom_site_label
 _atom_site_symmetry_multiplicity
 _atom_site_fract_x
 _atom_site_fract_y
 _atom_site_fract_z
 _atom_site_occupancy
  Cd  Cd0  1  0.50000000  0.00000000  0.00000000  1.0
  H  H1  1  0.29667000  0.49050000  0.62929000  1.0
  H  H2  1  0.70333000  0.50950000  0.37071000  1.0
  H  H3  1  0.87680000  0.10579000  0.33891000  1.0
  H  H4  1  0.12321000  0.89422000  0.66108000  1.0
  H  H5  1  0.69694000  0.97818000  0.49405000  1.0
  H  H6  1  0.30307000  0.02183000  0.50595000  1.0
  H  H7  1  0.82022000  0.10797000  0.71627000  1.0
  H  H8  1  0.17978000  0.89203000  0.28373000  1.0
  H  H9  1  0.21359000  0.52148000  0.84713000  1.0
  H  H10  1  0.78641000  0.47852000  0.15287000  1.0
  H  H11  1  0.04428000  0.34236000  0.88151000  1.0
  H  H12  1  0.95572000  0.65763000  0.11849000  1.0
  H  H13  1  0.11502000  0.38347000  0.30790000  1.0
  H  H14  1  0.88498000  0.61653000  0.69210000  1.0
  H  H15  1  0.31008000  0.51449000  0.42642000  1.0
  H  H16  1  0.68992000  0.48551000  0.57358000  1.0
  H  H17  1  0.71727000  0.35861000  0.87487000  1.0
  H  H18  1  0.28273000  0.64139000  0.12514000  1.0
  H  H19  1  0.14476000  0.10891000  0.90698000  1.0
  H  H20  1  0.85524000  0.89109000  0.09302000  1.0
  H  H21  1  0.61784000  0.13465000  0.32383000  1.0
  H  H22  1  0.38216000  0.86535000  0.67617000  1.0
  H  H23  1  0.20304000  0.20899000  0.13296000  1.0
  H  H24  1  0.79696000  0.79101000  0.86704000  1.0
  C  C25  1  0.06714000  0.30746000  0.68728000  1.0
  C  C26  1  0.93286000  0.69254000  0.31272000  1.0
  C  C27  1  0.16436000  0.37911000  0.59991000  1.0
  C  C28  1  0.83564000  0.62088000  0.40009000  1.0
  C  C29  1  0.09584000  0.30850000  0.47508000  1.0
  C  C30  1  0.90416000  0.69151000  0.52492000  1.0
  C  C31  1  0.92712000  0.16340000  0.43708000  1.0
  C  C32  1  0.07288000  0.83660000  0.56292000  1.0
  C  C33  1  0.82710000  0.09232000  0.52345000  1.0
  C  C34  1  0.17290000  0.90768000  0.47654000  1.0
  C  C35  1  0.89698000  0.16426000  0.64847000  1.0
  C  C36  1  0.10302000  0.83574000  0.35153000  1.0
  C  C37  1  0.15087000  0.38251000  0.82080000  1.0
  C  C38  1  0.84914000  0.61748000  0.17920000  1.0
  C  C39  1  0.20741000  0.38421000  0.38238000  1.0
  C  C40  1  0.79259000  0.61580000  0.61762000  1.0
  C  C41  1  0.56653000  0.32422000  0.87087000  1.0
  C  C42  1  0.43347000  0.67578000  0.12913000  1.0
  C  C43  1  0.27781000  0.19459000  0.88833000  1.0
  C  C44  1  0.72219000  0.80540000  0.11167000  1.0
  C  C45  1  0.50790000  0.17360000  0.30290000  1.0
  C  C46  1  0.49210000  0.82640000  0.69710000  1.0
  C  C47  1  0.30134000  0.21023000  0.20257000  1.0
  C  C48  1  0.69865000  0.78977000  0.79743000  1.0
  Br  Br49  1  0.11684000  0.78853000  0.93505000  1.0
  Br  Br50  1  0.88316000  0.21147000  0.06495000  1.0
  N  N51  1  0.29872000  0.32876000  0.84905000  1.0
  N  N52  1  0.70128000  0.67124000  0.15095000  1.0
  N  N53  1  0.48260000  0.41327000  0.83646000  1.0
  N  N54  1  0.51740000  0.58673000  0.16355000  1.0
  N  N55  1  0.44574000  0.18792000  0.90337000  1.0
  N  N56  1  0.55426000  0.81208000  0.09664000  1.0
  N  N57  1  0.31164000  0.28516000  0.32294000  1.0
  N  N58  1  0.68837000  0.71484000  0.67706000  1.0
  N  N59  1  0.44314000  0.26320000  0.38913000  1.0
  N  N60  1  0.55687000  0.73680000  0.61087000  1.0
  N  N61  1  0.42478000  0.13801000  0.18669000  1.0
  N  N62  1  0.57522000  0.86199000  0.81331000  1.0
