# generated using pymatgen
data_Zn8H29C62I5O38
_symmetry_space_group_name_H-M   'P 1'
_cell_length_a   18.19100000
_cell_length_b   18.31481679
_cell_length_c   18.38276550
_cell_angle_alpha   61.03579890
_cell_angle_beta   60.85516250
_cell_angle_gamma   60.53201161
_symmetry_Int_Tables_number   1
_chemical_formula_structural   Zn8H29C62I5O38
_chemical_formula_sum   'Zn8 H29 C62 I5 O38'
_cell_volume   4409.38566929
_cell_formula_units_Z   1
loop_
 _symmetry_equiv_pos_site_id
 _symmetry_equiv_pos_as_xyz
  1  'x, y, z'
loop_
 _atom_site_type_symbol
 _atom_site_label
 _atom_site_symmetry_multiplicity
 _atom_site_fract_x
 _atom_site_fract_y
 _atom_site_fract_z
 _atom_site_occupancy
  Zn  Zn0  1  0.55267000  0.04333000  0.53357000  1.0
  Zn  Zn1  1  0.54296000  0.87383000  0.53852000  1.0
  Zn  Zn2  1  0.53047000  0.04950000  0.36943000  1.0
  Zn  Zn3  1  0.36501000  0.04600000  0.54711000  1.0
  Zn  Zn4  1  0.96623000  0.45439000  0.94612000  1.0
  Zn  Zn5  1  0.94500000  0.46581000  0.12543000  1.0
  Zn  Zn6  1  0.95889000  0.63232000  0.95332000  1.0
  Zn  Zn7  1  0.12993000  0.46152000  0.96256000  1.0
  H  H8  1  0.60180000  0.30357000  0.41534000  1.0
  H  H9  1  0.14076000  0.95965000  0.79662000  1.0
  H  H10  1  0.66018000  0.91954000  0.18322000  1.0
  H  H11  1  0.77145000  0.53625000  0.36779000  1.0
  H  H12  1  0.78549000  0.64982000  0.43811000  1.0
  H  H13  1  0.42626000  0.18174000  0.71238000  1.0
  H  H14  1  0.73922000  0.80000000  0.86175000  1.0
  H  H15  1  0.90204000  0.57439000  0.68161000  1.0
  H  H16  1  0.81607000  0.53008000  0.76573000  1.0
  H  H17  1  0.80166000  0.67658000  0.58880000  1.0
  H  H18  1  0.71582000  0.63173000  0.67127000  1.0
  H  H19  1  0.38616000  0.25474000  0.21372000  1.0
  H  H20  1  0.25250000  0.25269000  0.67217000  1.0
  H  H21  1  0.85546000  0.23945000  0.07968000  1.0
  H  H22  1  0.69514000  0.40163000  0.31968000  1.0
  H  H23  1  0.69212000  0.21642000  0.45400000  1.0
  H  H24  1  0.15902000  0.99150000  0.55693000  1.0
  H  H25  1  0.97338000  0.45061000  0.40879000  1.0
  H  H26  1  0.55595000  0.61218000  0.51778000  1.0
  H  H27  1  0.58953000  0.00347000  0.82865000  1.0
  H  H28  1  0.80920000  0.09458000  0.06334000  1.0
  H  H29  1  0.89935000  0.21963000  0.40851000  1.0
  H  H30  1  0.29556000  0.36163000  0.11459000  1.0
  H  H31  1  0.99949000  0.31125000  0.38736000  1.0
  H  H32  1  0.02873000  0.23840000  0.33204000  1.0
  H  H33  1  0.09489000  0.17710000  0.48526000  1.0
  H  H34  1  0.41744000  0.68366000  0.69821000  1.0
  H  H35  1  0.32099000  0.58882000  0.79022000  1.0
  H  H36  1  0.18274000  0.26383000  0.80813000  1.0
  C  C37  1  0.36456000  0.86339000  0.64929000  1.0
  C  C38  1  0.67394000  0.26758000  0.39574000  1.0
  C  C39  1  0.19037000  0.22026000  0.34750000  1.0
  C  C40  1  0.64705000  0.12904000  0.34799000  1.0
  C  C41  1  0.28074000  0.20763000  0.32133000  1.0
  C  C42  1  0.31591000  0.26255000  0.23651000  1.0
  C  C43  1  0.26482000  0.32341000  0.18112000  1.0
  C  C44  1  0.17376000  0.33534000  0.20833000  1.0
  C  C45  1  0.13828000  0.28422000  0.29342000  1.0
  C  C46  1  0.05488000  0.26072000  0.35749000  1.0
  C  C47  1  0.11524000  0.18514000  0.41577000  1.0
  C  C48  1  0.32161000  0.21543000  0.67078000  1.0
  C  C49  1  0.21857000  0.83865000  0.75520000  1.0
  C  C50  1  0.30984000  0.80488000  0.71355000  1.0
  C  C51  1  0.34593000  0.71281000  0.72888000  1.0
  C  C52  1  0.62880000  0.86508000  0.64405000  1.0
  C  C53  1  0.29188000  0.65978000  0.78005000  1.0
  C  C54  1  0.19866000  0.69539000  0.81763000  1.0
  C  C55  1  0.16413000  0.78630000  0.80427000  1.0
  C  C56  1  0.08034000  0.86426000  0.81944000  1.0
  C  C57  1  0.14306000  0.92509000  0.76042000  1.0
  C  C58  1  0.72627000  0.72219000  0.33125000  1.0
  C  C59  1  0.71210000  0.23650000  0.31772000  1.0
  C  C60  1  0.68334000  0.81288000  0.29982000  1.0
  C  C61  1  0.69366000  0.84888000  0.20967000  1.0
  C  C62  1  0.74529000  0.79679000  0.15411000  1.0
  C  C63  1  0.78972000  0.70455000  0.18641000  1.0
  C  C64  1  0.34064000  0.14151000  0.37528000  1.0
  C  C65  1  0.77627000  0.67050000  0.27653000  1.0
  C  C66  1  0.80032000  0.58558000  0.34984000  1.0
  C  C67  1  0.74417000  0.64610000  0.41296000  1.0
  C  C68  1  0.73469000  0.72099000  0.70538000  1.0
  C  C69  1  0.67867000  0.80592000  0.70831000  1.0
  C  C70  1  0.71002000  0.18039000  0.28878000  1.0
  C  C71  1  0.67963000  0.83243000  0.76880000  1.0
  C  C72  1  0.73909333  0.77726000  0.81698000  1.0
  C  C73  1  0.79711000  0.69199000  0.81151000  1.0
  C  C74  1  0.79150000  0.66489000  0.75611000  1.0
  C  C75  1  0.83009000  0.59142000  0.71815000  1.0
  C  C76  1  0.62856000  0.86937000  0.35741000  1.0
  C  C77  1  0.76679000  0.65513000  0.65994000  1.0
  C  C78  1  0.12127000  0.39042000  0.14681000  1.0
  C  C79  1  0.86101000  0.63602000  0.86182000  1.0
  C  C80  1  0.86914000  0.35666000  0.12177000  1.0
  C  C81  1  0.76512000  0.18164000  0.20100000  1.0
  C  C82  1  0.14200000  0.63860000  0.86588000  1.0
  C  C83  1  0.84987000  0.64432000  0.13245000  1.0
  C  C84  1  0.15437000  0.35189000  0.87187000  1.0
  C  C85  1  0.37466000  0.15567000  0.61686000  1.0
  C  C86  1  0.30514000  0.27284000  0.77720000  1.0
  C  C87  1  0.21592000  0.29264000  0.81817000  1.0
  C  C88  1  0.35590000  0.21956000  0.71869000  1.0
  C  C89  1  0.13045000  0.99090000  0.67276000  1.0
  C  C90  1  0.89801000  0.53990000  0.34157000  1.0
  C  C91  1  0.66486000  0.62406000  0.49031000  1.0
  C  C92  1  0.81469000  0.23958000  0.14695000  1.0
  C  C93  1  0.61061000  0.91497000  0.78922000  1.0
  C  C94  1  0.77947000  0.11389000  0.16796000  1.0
  C  C95  1  0.80322000  0.31316000  0.36905000  1.0
  C  C96  1  0.81563000  0.29611000  0.17760000  1.0
  C  C97  1  0.76379000  0.29150000  0.26467000  1.0
  C  C98  1  0.73337000  0.33060000  0.33527000  1.0
  I  I99  1  0.38620000  0.31799000  0.78605000  1.0
  I  I100  1  0.13668000  0.05607000  0.41641000  1.0
  I  I101  1  0.97969000  0.89243000  0.76967000  1.0
  I  I102  1  0.01982000  0.86000000  0.95641000  1.0
  I  I103  1  0.74688000  0.86445000  0.02242000  1.0
  O  O104  1  0.49627000  0.00372000  0.49776000  1.0
  O  O105  1  0.05794000  0.67855000  0.89116000  1.0
  O  O106  1  0.85464000  0.56320000  0.17220000  1.0
  O  O107  1  0.32662000  0.94553000  0.64267000  1.0
  O  O108  1  0.18561000  0.36927000  0.90830000  1.0
  O  O109  1  0.89238000  0.67779000  0.05297000  1.0
  O  O110  1  0.07256000  0.38077000  0.87689000  1.0
  O  O111  1  0.89855000  0.37327000  0.03870000  1.0
  O  O112  1  0.18144000  0.55577000  0.87736000  1.0
  O  O113  1  0.03837000  0.39935000  0.18069000  1.0
  O  O114  1  0.87752000  0.67615000  0.88983000  1.0
  O  O115  1  0.62306000  0.94620000  0.60976000  1.0
  O  O116  1  0.63872000  0.09878000  0.42937000  1.0
  O  O117  1  0.60130000  0.82629000  0.62530000  1.0
  O  O118  1  0.42389000  0.12759000  0.33394000  1.0
  O  O119  1  0.62264000  0.82913000  0.43856000  1.0
  O  O120  1  0.32884000  0.13715000  0.59705000  1.0
  O  O121  1  0.59224000  0.95155000  0.32169000  1.0
  O  O122  1  0.45957000  0.12817000  0.59568000  1.0
  O  O123  1  0.08939000  0.07016000  0.65875000  1.0
  O  O124  1  0.17133000  0.94915000  0.61271000  1.0
  O  O125  1  0.96010000  0.55779000  0.27642000  1.0
  O  O126  1  0.30464000  0.10553000  0.45730000  1.0
  O  O127  1  0.90903000  0.47528000  0.41845000  1.0
  O  O128  1  0.65453000  0.60539000  0.56719000  1.0
  O  O129  1  0.60467000  0.62720000  0.46414000  1.0
  O  O130  1  0.53370000  0.94433000  0.79016000  1.0
  O  O131  1  0.64112000  0.95356000  0.81167000  1.0
  O  O132  1  0.78061000  0.03806000  0.21324000  1.0
  O  O133  1  0.79581000  0.14467000  0.07943000  1.0
  O  O134  1  0.80929000  0.36716000  0.38477000  1.0
  O  O135  1  0.85838000  0.22720000  0.38339000  1.0
  O  O136  1  0.44354000  0.82696000  0.60456000  1.0
  O  O137  1  0.60373000  0.12502000  0.31348000  1.0
  O  O138  1  0.99951000  0.50206000  0.99674000  1.0
  O  O139  1  0.16408000  0.42041000  0.06572000  1.0
  O  O140  1  0.89426000  0.55329000  0.87155000  1.0
  O  O141  1  0.87977000  0.38709000  0.16420000  1.0
