# generated using pymatgen
data_CdH26C27(N2O3)2
_symmetry_space_group_name_H-M   'P 1'
_cell_length_a   10.23140000
_cell_length_b   10.56420000
_cell_length_c   13.28810000
_cell_angle_alpha   106.40000000
_cell_angle_beta   97.22350000
_cell_angle_gamma   106.04800000
_symmetry_Int_Tables_number   1
_chemical_formula_structural   CdH26C27(N2O3)2
_chemical_formula_sum   'Cd2 H52 C54 N8 O12'
_cell_volume   1291.38023756
_cell_formula_units_Z   2
loop_
 _symmetry_equiv_pos_site_id
 _symmetry_equiv_pos_as_xyz
  1  'x, y, z'
loop_
 _atom_site_type_symbol
 _atom_site_label
 _atom_site_symmetry_multiplicity
 _atom_site_fract_x
 _atom_site_fract_y
 _atom_site_fract_z
 _atom_site_occupancy
  Cd  Cd0  1  0.91269000  0.14343000  0.06088000  1.0
  Cd  Cd1  1  0.08731000  0.85658000  0.93912000  1.0
  H  H2  1  0.05986000  0.97208000  0.18978000  1.0
  H  H3  1  0.94014000  0.02791000  0.81022000  1.0
  H  H4  1  0.00670000  0.85572000  0.32920000  1.0
  H  H5  1  0.99330000  0.14427000  0.67081000  1.0
  H  H6  1  0.69384000  0.99503000  0.49899000  1.0
  H  H7  1  0.30617000  0.00497000  0.50101000  1.0
  H  H8  1  0.73863000  0.14200000  0.79106000  1.0
  H  H9  1  0.26137000  0.85801000  0.20894000  1.0
  H  H10  1  0.69607000  0.05826000  0.38096000  1.0
  H  H11  1  0.30393000  0.94173000  0.61904000  1.0
  H  H12  1  0.75453000  0.15591000  0.23785000  1.0
  H  H13  1  0.24547000  0.84408000  0.76215000  1.0
  H  H14  1  0.78248000  0.86986000  0.64632000  1.0
  H  H15  1  0.21752000  0.13014000  0.35368000  1.0
  H  H16  1  0.64952000  0.64953000  0.50450000  1.0
  H  H17  1  0.35048000  0.35047000  0.49550000  1.0
  H  H18  1  0.50119000  0.70509000  0.49015000  1.0
  H  H19  1  0.49882000  0.29491000  0.50985000  1.0
  H  H20  1  0.47412000  0.55058000  0.60377000  1.0
  H  H21  1  0.52588000  0.44942000  0.39623000  1.0
  H  H22  1  0.63306000  0.66153000  0.69370000  1.0
  H  H23  1  0.36694000  0.33847000  0.30629000  1.0
  H  H24  1  0.43211000  0.71706000  0.76459000  1.0
  H  H25  1  0.56790000  0.28294000  0.23541000  1.0
  H  H26  1  0.37287000  0.74252000  0.64333000  1.0
  H  H27  1  0.62713000  0.25748000  0.35666000  1.0
  H  H28  1  0.50654000  0.97054000  0.78818000  1.0
  H  H29  1  0.49347000  0.02946000  0.21182000  1.0
  H  H30  1  0.65182000  0.91285000  0.80554000  1.0
  H  H31  1  0.34818000  0.08715000  0.19446000  1.0
  H  H32  1  0.52677000  0.95800000  0.60091000  1.0
  H  H33  1  0.47323000  0.04200000  0.39909000  1.0
  H  H34  1  0.93981000  0.30107000  0.84361000  1.0
  H  H35  1  0.06020000  0.69893000  0.15639000  1.0
  H  H36  1  0.08850000  0.54817000  0.92882000  1.0
  H  H37  1  0.91151000  0.45183000  0.07118000  1.0
  H  H38  1  0.89701000  0.66853000  0.69539000  1.0
  H  H39  1  0.10299000  0.33148000  0.30461000  1.0
  H  H40  1  0.73589000  0.42275000  0.59855000  1.0
  H  H41  1  0.26412000  0.57725000  0.40145000  1.0
  H  H42  1  0.41938000  0.12571000  0.04485000  1.0
  H  H43  1  0.58061000  0.87429000  0.95514000  1.0
  H  H44  1  0.64798000  0.34702000  0.86208000  1.0
  H  H45  1  0.35202000  0.65298000  0.13792000  1.0
  H  H46  1  0.23186000  0.35096000  0.88089000  1.0
  H  H47  1  0.76813000  0.64905000  0.11911000  1.0
  H  H48  1  0.35234000  0.47009000  0.77312000  1.0
  H  H49  1  0.64766000  0.52992000  0.22688000  1.0
  H  H50  1  0.46748000  0.39115000  0.71138000  1.0
  H  H51  1  0.53252000  0.60885000  0.28863000  1.0
  H  H52  1  0.53563000  0.54469000  0.82555000  1.0
  H  H53  1  0.46436000  0.45531000  0.17445000  1.0
  C  C54  1  0.97971000  0.98677000  0.23424000  1.0
  C  C55  1  0.02029000  0.01323000  0.76576000  1.0
  C  C56  1  0.95030000  0.92286000  0.31081000  1.0
  C  C57  1  0.04970000  0.07714000  0.68919000  1.0
  C  C58  1  0.84697000  0.94599000  0.36592000  1.0
  C  C59  1  0.15302000  0.05400000  0.63408000  1.0
  C  C60  1  0.77638000  0.03296000  0.34069000  1.0
  C  C61  1  0.22362000  0.96704000  0.65931000  1.0
  C  C62  1  0.80968000  0.09081000  0.26187000  1.0
  C  C63  1  0.19033000  0.90918000  0.73814000  1.0
  C  C64  1  0.81808000  0.87595000  0.44914000  1.0
  C  C65  1  0.18191000  0.12404000  0.55086000  1.0
  C  C66  1  0.68746000  0.86410000  0.59322000  1.0
  C  C67  1  0.31255000  0.13590000  0.40678000  1.0
  C  C68  1  0.59170000  0.71165000  0.54831000  1.0
  C  C69  1  0.40831000  0.28835000  0.45168000  1.0
  C  C70  1  0.54272000  0.65969000  0.63768000  1.0
  C  C71  1  0.45728000  0.34031000  0.36231000  1.0
  C  C72  1  0.46724000  0.75175000  0.69909000  1.0
  C  C73  1  0.53276000  0.24825000  0.30091000  1.0
  C  C74  1  0.56182000  0.90407000  0.74564000  1.0
  C  C75  1  0.43818000  0.09593000  0.25436000  1.0
  C  C76  1  0.61506000  0.95892000  0.65837000  1.0
  C  C77  1  0.38494000  0.04108000  0.34162000  1.0
  C  C78  1  0.72472000  0.19639000  0.65416000  1.0
  C  C79  1  0.27528000  0.80361000  0.34584000  1.0
  C  C80  1  0.82148000  0.34225000  0.71424000  1.0
  C  C81  1  0.17852000  0.65775000  0.28576000  1.0
  C  C82  1  0.92419000  0.37747000  0.80713000  1.0
  C  C83  1  0.07582000  0.62253000  0.19286000  1.0
  C  C84  1  0.00910000  0.51619000  0.85526000  1.0
  C  C85  1  0.99090000  0.48381000  0.14474000  1.0
  C  C86  1  0.90163000  0.58346000  0.72551000  1.0
  C  C87  1  0.09837000  0.41654000  0.27448000  1.0
  C  C88  1  0.81225000  0.44774000  0.67219000  1.0
  C  C89  1  0.18775000  0.55226000  0.32781000  1.0
  C  C90  1  0.18015000  0.18882000  0.00406000  1.0
  C  C91  1  0.81985000  0.81118000  0.99595000  1.0
  C  C92  1  0.31203000  0.23416000  0.96695000  1.0
  C  C93  1  0.68797000  0.76584000  0.03305000  1.0
  C  C94  1  0.42512000  0.19175000  0.99491000  1.0
  C  C95  1  0.57488000  0.80825000  0.00509000  1.0
  C  C96  1  0.54625000  0.23331000  0.95717000  1.0
  C  C97  1  0.45375000  0.76669000  0.04283000  1.0
  C  C98  1  0.66926000  0.19251000  0.99024000  1.0
  C  C99  1  0.33074000  0.80750000  0.00976000  1.0
  C  C100  1  0.55253000  0.31523000  0.89040000  1.0
  C  C101  1  0.44746000  0.68478000  0.10960000  1.0
  C  C102  1  0.44002000  0.35840000  0.86125000  1.0
  C  C103  1  0.55997000  0.64160000  0.13876000  1.0
  C  C104  1  0.32093000  0.31814000  0.90113000  1.0
  C  C105  1  0.67907000  0.68187000  0.09888000  1.0
  C  C106  1  0.44880000  0.44576000  0.78909000  1.0
  C  C107  1  0.55119000  0.55424000  0.21091000  1.0
  N  N108  1  0.90949000  0.06822000  0.20908000  1.0
  N  N109  1  0.09051000  0.93177000  0.79092000  1.0
  N  N110  1  0.99765000  0.61787000  0.81621000  1.0
  N  N111  1  0.00236000  0.38213000  0.18379000  1.0
  N  N112  1  0.72847000  0.91569000  0.50745000  1.0
  N  N113  1  0.27153000  0.08431000  0.49255000  1.0
  N  N114  1  0.70778000  0.10426000  0.70785000  1.0
  N  N115  1  0.29222000  0.89574000  0.29214000  1.0
  O  O116  1  0.08584000  0.24151000  0.98413000  1.0
  O  O117  1  0.91416000  0.75848000  0.01587000  1.0
  O  O118  1  0.16361000  0.09811000  0.05278000  1.0
  O  O119  1  0.83640000  0.90189000  0.94723000  1.0
  O  O120  1  0.67647000  0.15148000  0.07099000  1.0
  O  O121  1  0.32352000  0.84853000  0.92902000  1.0
  O  O122  1  0.76666000  0.20287000  0.93706000  1.0
  O  O123  1  0.23334000  0.79712000  0.06295000  1.0
  O  O124  1  0.87443000  0.78926000  0.46095000  1.0
  O  O125  1  0.12555000  0.21072000  0.53905000  1.0
  O  O126  1  0.66712000  0.16564000  0.55733000  1.0
  O  O127  1  0.33287000  0.83436000  0.44267000  1.0
