# generated using pymatgen
data_InH7C4O5
_symmetry_space_group_name_H-M   'P 1'
_cell_length_a   6.50792000
_cell_length_b   7.35644000
_cell_length_c   8.15593000
_cell_angle_alpha   89.99740000
_cell_angle_beta   113.46200000
_cell_angle_gamma   89.99800000
_symmetry_Int_Tables_number   1
_chemical_formula_structural   InH7C4O5
_chemical_formula_sum   'In2 H14 C8 O10'
_cell_volume   358.18410148
_cell_formula_units_Z   2
loop_
 _symmetry_equiv_pos_site_id
 _symmetry_equiv_pos_as_xyz
  1  'x, y, z'
loop_
 _atom_site_type_symbol
 _atom_site_label
 _atom_site_symmetry_multiplicity
 _atom_site_fract_x
 _atom_site_fract_y
 _atom_site_fract_z
 _atom_site_occupancy
  In  In0  1  0.99996000  0.49995000  0.99999000  1.0
  In  In1  1  0.00005000  0.99995000  0.00003000  1.0
  H  H2  1  0.68812000  0.25002000  0.99913000  1.0
  H  H3  1  0.31188000  0.74998000  0.00085000  1.0
  H  H4  1  0.34332000  0.87230000  0.50157000  1.0
  H  H5  1  0.65668000  0.37223000  0.49839000  1.0
  H  H6  1  0.84234000  0.62774000  0.49901000  1.0
  H  H7  1  0.15767000  0.12781000  0.50100000  1.0
  H  H8  1  0.65676000  0.12781000  0.49847000  1.0
  H  H9  1  0.34322000  0.62789000  0.50155000  1.0
  H  H10  1  0.15769000  0.37225000  0.50103000  1.0
  H  H11  1  0.84231000  0.87218000  0.49896000  1.0
  H  H12  1  0.24407000  0.75016000  0.64359000  1.0
  H  H13  1  0.75592000  0.25004000  0.35641000  1.0
  H  H14  1  0.60082000  0.74999000  0.35787000  1.0
  H  H15  1  0.39918000  0.24997000  0.64213000  1.0
  C  C16  1  0.59789000  0.75004000  0.73327000  1.0
  C  C17  1  0.40211000  0.24997000  0.26673000  1.0
  C  C18  1  0.86378000  0.74996000  0.26657000  1.0
  C  C19  1  0.13621000  0.24998000  0.73344000  1.0
  C  C20  1  0.36855000  0.75012000  0.58371000  1.0
  C  C21  1  0.63145000  0.25000000  0.41628000  1.0
  C  C22  1  0.78507000  0.75000000  0.41687000  1.0
  C  C23  1  0.21493000  0.24998000  0.58313000  1.0
  O  O24  1  0.83773000  0.24994000  0.00030000  1.0
  O  O25  1  0.16230000  0.74992000  0.99973000  1.0
  O  O26  1  0.68469000  0.59517000  0.79151000  1.0
  O  O27  1  0.31532000  0.09510000  0.20848000  1.0
  O  O28  1  0.89209000  0.90484000  0.20808000  1.0
  O  O29  1  0.10795000  0.40483000  0.79194000  1.0
  O  O30  1  0.31529000  0.40482000  0.20842000  1.0
  O  O31  1  0.68471000  0.90488000  0.79159000  1.0
  O  O32  1  0.10809000  0.09509000  0.79198000  1.0
  O  O33  1  0.89186000  0.59509000  0.20798000  1.0
