# generated using pymatgen
data_DyH8C12(NO3)3
_symmetry_space_group_name_H-M   'P 1'
_cell_length_a   7.91204000
_cell_length_b   8.14140000
_cell_length_c   12.12750000
_cell_angle_alpha   80.48900000
_cell_angle_beta   77.79780000
_cell_angle_gamma   101.47120000
_symmetry_Int_Tables_number   1
_chemical_formula_structural   DyH8C12(NO3)3
_chemical_formula_sum   'Dy2 H16 C24 N6 O18'
_cell_volume   730.56456214
_cell_formula_units_Z   2
loop_
 _symmetry_equiv_pos_site_id
 _symmetry_equiv_pos_as_xyz
  1  'x, y, z'
loop_
 _atom_site_type_symbol
 _atom_site_label
 _atom_site_symmetry_multiplicity
 _atom_site_fract_x
 _atom_site_fract_y
 _atom_site_fract_z
 _atom_site_occupancy
  Dy  Dy0  1  0.20409000  0.21489000  0.47404000  1.0
  Dy  Dy1  1  0.79591000  0.78512000  0.52596000  1.0
  H  H2  1  0.40071000  0.77872000  0.03370000  1.0
  H  H3  1  0.59928000  0.22126000  0.96629000  1.0
  H  H4  1  0.50968000  0.58691000  0.90651000  1.0
  H  H5  1  0.49031000  0.41309000  0.09348000  1.0
  H  H6  1  0.05308000  0.52121000  0.78731000  1.0
  H  H7  1  0.94690000  0.47879000  0.21269000  1.0
  H  H8  1  0.92438000  0.70606000  0.90785000  1.0
  H  H9  1  0.07560000  0.29393000  0.09216000  1.0
  H  H10  1  0.80110000  0.69241000  0.12062000  1.0
  H  H11  1  0.19890000  0.30758000  0.87938000  1.0
  H  H12  1  0.62467000  0.91228000  0.12297000  1.0
  H  H13  1  0.37533000  0.08770000  0.87704000  1.0
  H  H14  1  0.44484000  0.96863000  0.40883000  1.0
  H  H15  1  0.55517000  0.03137000  0.59117000  1.0
  H  H16  1  0.24184000  0.87794000  0.42185000  1.0
  H  H17  1  0.75816000  0.12206000  0.57816000  1.0
  C  C18  1  0.08775000  0.08978000  0.28814000  1.0
  C  C19  1  0.91225000  0.91021000  0.71185000  1.0
  C  C20  1  0.04103000  0.98085000  0.20669000  1.0
  C  C21  1  0.95898000  0.01915000  0.79331000  1.0
  C  C22  1  0.87037000  0.89201000  0.20646000  1.0
  C  C23  1  0.12966000  0.10799000  0.79355000  1.0
  C  C24  1  0.69174000  0.89520000  0.26735000  1.0
  C  C25  1  0.30829000  0.10482000  0.73262000  1.0
  C  C26  1  0.07358000  0.84013000  0.07061000  1.0
  C  C27  1  0.92641000  0.15985000  0.92940000  1.0
  C  C28  1  0.15100000  0.75256000  0.98461000  1.0
  C  C29  1  0.84903000  0.24743000  0.01539000  1.0
  C  C30  1  0.32154000  0.72450000  0.97923000  1.0
  C  C31  1  0.67846000  0.27550000  0.02078000  1.0
  C  C32  1  0.37964000  0.61504000  0.91092000  1.0
  C  C33  1  0.62036000  0.38495000  0.08909000  1.0
  C  C34  1  0.12590000  0.57954000  0.84392000  1.0
  C  C35  1  0.87409000  0.42046000  0.15609000  1.0
  C  C36  1  0.05503000  0.68443000  0.91069000  1.0
  C  C37  1  0.94495000  0.31557000  0.08931000  1.0
  C  C38  1  0.06852000  0.55905000  0.44570000  1.0
  C  C39  1  0.93148000  0.44095000  0.55430000  1.0
  C  C40  1  0.56300000  0.48067000  0.44768000  1.0
  C  C41  1  0.43702000  0.51936000  0.55231000  1.0
  N  N42  1  0.16498000  0.95078000  0.11996000  1.0
  N  N43  1  0.83500000  0.04922000  0.88006000  1.0
  N  N44  1  0.89372000  0.80675000  0.11759000  1.0
  N  N45  1  0.10628000  0.19327000  0.88241000  1.0
  N  N46  1  0.28005000  0.53621000  0.84909000  1.0
  N  N47  1  0.71995000  0.46378000  0.15090000  1.0
  O  O48  1  0.21977000  0.21638000  0.25921000  1.0
  O  O49  1  0.78022000  0.78360000  0.74080000  1.0
  O  O50  1  0.98781000  0.04368000  0.39277000  1.0
  O  O51  1  0.01220000  0.95633000  0.60723000  1.0
  O  O52  1  0.64730000  0.90228000  0.37006000  1.0
  O  O53  1  0.35268000  0.09773000  0.62993000  1.0
  O  O54  1  0.56829000  0.89082000  0.20584000  1.0
  O  O55  1  0.43170000  0.10916000  0.79416000  1.0
  O  O56  1  0.17240000  0.49165000  0.38450000  1.0
  O  O57  1  0.82760000  0.50836000  0.61549000  1.0
  O  O58  1  0.06343000  0.71694000  0.42833000  1.0
  O  O59  1  0.93658000  0.28307000  0.57167000  1.0
  O  O60  1  0.50090000  0.35305000  0.40847000  1.0
  O  O61  1  0.49910000  0.64696000  0.59152000  1.0
  O  O62  1  0.71742000  0.57957000  0.41073000  1.0
  O  O63  1  0.28259000  0.42043000  0.58927000  1.0
  O  O64  1  0.32277000  0.98478000  0.42734000  1.0
  O  O65  1  0.67724000  0.01523000  0.57267000  1.0
