# generated using pymatgen
data_CdH14(C9N2)2
_symmetry_space_group_name_H-M   'P 1'
_cell_length_a   10.51027639
_cell_length_b   10.51021973
_cell_length_c   10.51021973
_cell_angle_alpha   90.36760116
_cell_angle_beta   119.78805592
_cell_angle_gamma   119.78805592
_symmetry_Int_Tables_number   1
_chemical_formula_structural   CdH14(C9N2)2
_chemical_formula_sum   'Cd2 H28 C36 N8'
_cell_volume   823.57222498
_cell_formula_units_Z   2
loop_
 _symmetry_equiv_pos_site_id
 _symmetry_equiv_pos_as_xyz
  1  'x, y, z'
loop_
 _atom_site_type_symbol
 _atom_site_label
 _atom_site_symmetry_multiplicity
 _atom_site_fract_x
 _atom_site_fract_y
 _atom_site_fract_z
 _atom_site_occupancy
  Cd  Cd0  1  0.00000000  0.00000000  0.00000000  1.0
  Cd  Cd1  1  0.50000000  0.25000000  0.75000000  1.0
  H  H2  1  0.76964000  0.12500000  0.39463000  1.0
  H  H3  1  0.23036000  0.62499000  0.35536000  1.0
  H  H4  1  0.73037000  0.60537000  0.37501000  1.0
  H  H5  1  0.26963000  0.64464000  0.87500000  1.0
  H  H6  1  0.84829000  0.35856000  0.31003000  1.0
  H  H7  1  0.15171000  0.46174000  0.51027000  1.0
  H  H8  1  0.54852000  0.78825000  0.43996000  1.0
  H  H9  1  0.45147000  0.89143000  0.23973000  1.0
  H  H10  1  0.65171000  0.76027000  0.21175000  1.0
  H  H11  1  0.34829000  0.56004000  0.10856000  1.0
  H  H12  1  0.95147000  0.48973000  0.64144000  1.0
  H  H13  1  0.04853000  0.68997000  0.53826000  1.0
  H  H14  1  0.61365000  0.35993000  0.07779000  1.0
  H  H15  1  0.38635000  0.46414000  0.74628000  1.0
  H  H16  1  0.78213000  0.78585000  0.67221000  1.0
  H  H17  1  0.21787000  0.89008000  0.00372000  1.0
  H  H18  1  0.88636000  0.99628000  0.21415000  1.0
  H  H19  1  0.11364000  0.32779000  0.10992000  1.0
  H  H20  1  0.71787000  0.25372000  0.64008000  1.0
  H  H21  1  0.28213000  0.92221000  0.53585000  1.0
  H  H22  1  0.87274000  0.06318000  0.65902000  1.0
  H  H23  1  0.12727000  0.78628000  0.19045000  1.0
  H  H24  1  0.90418000  0.46373000  0.09100000  1.0
  H  H25  1  0.09583000  0.18683000  0.55955000  1.0
  H  H26  1  0.62727000  0.44045000  0.53627000  1.0
  H  H27  1  0.37273000  0.90900000  0.81318000  1.0
  H  H28  1  0.59584000  0.80955000  0.93683000  1.0
  H  H29  1  0.40416000  0.34098000  0.21372000  1.0
  C  C30  1  0.66613000  0.12499000  0.29113000  1.0
  C  C31  1  0.33386000  0.62500000  0.45886000  1.0
  C  C32  1  0.83386000  0.70886000  0.37500000  1.0
  C  C33  1  0.16614000  0.54114000  0.87500000  1.0
  C  C34  1  0.71023000  0.25525000  0.24314000  1.0
  C  C35  1  0.28976000  0.53291000  0.54501000  1.0
  C  C36  1  0.51210000  0.71708000  0.50685000  1.0
  C  C37  1  0.48791000  0.99476000  0.20498000  1.0
  C  C38  1  0.78977000  0.79502000  0.28293000  1.0
  C  C39  1  0.21022000  0.49315000  0.00524000  1.0
  C  C40  1  0.98790000  0.45499000  0.74475000  1.0
  C  C41  1  0.01210000  0.75685000  0.46709000  1.0
  C  C42  1  0.57817000  0.25582000  0.11130000  1.0
  C  C43  1  0.42182000  0.53312000  0.67765000  1.0
  C  C44  1  0.64452000  0.71686000  0.63870000  1.0
  C  C45  1  0.35547000  0.99417000  0.07234000  1.0
  C  C46  1  0.92184000  0.92766000  0.28314000  1.0
  C  C47  1  0.07817000  0.36130000  0.00583000  1.0
  C  C48  1  0.85548000  0.32235000  0.74418000  1.0
  C  C49  1  0.14452000  0.88870000  0.46687000  1.0
  C  C50  1  0.39871000  0.12500000  0.02371000  1.0
  C  C51  1  0.60128000  0.62500000  0.72628000  1.0
  C  C52  1  0.10128000  0.97628000  0.37500000  1.0
  C  C53  1  0.89871000  0.27372000  0.87499000  1.0
  C  C54  1  0.25941000  0.12500000  0.88441000  1.0
  C  C55  1  0.74059000  0.62500000  0.86559000  1.0
  C  C56  1  0.24059000  0.11559000  0.37500000  1.0
  C  C57  1  0.75941000  0.13441000  0.87500000  1.0
  C  C58  1  0.00664000  0.09257000  0.71154000  1.0
  C  C59  1  0.99336000  0.70490000  0.08593000  1.0
  C  C60  1  0.88104000  0.54510000  0.03847000  1.0
  C  C61  1  0.11897000  0.15743000  0.66407000  1.0
  C  C62  1  0.49336000  0.33594000  0.45490000  1.0
  C  C63  1  0.50665000  0.96154000  0.84258000  1.0
  C  C64  1  0.61897000  0.91407000  0.90743000  1.0
  C  C65  1  0.38103000  0.28846000  0.29509000  1.0
  N  N66  1  0.09538000  0.07177000  0.84999000  1.0
  N  N67  1  0.90462000  0.75461000  0.97639000  1.0
  N  N68  1  0.72178000  0.49539000  0.90001000  1.0
  N  N69  1  0.27822000  0.17823000  0.77361000  1.0
  N  N70  1  0.40462000  0.22639000  0.50461000  1.0
  N  N71  1  0.59538000  0.09999000  0.82177000  1.0
  N  N72  1  0.77823000  0.02362000  0.92823000  1.0
  N  N73  1  0.22177000  0.15000000  0.24539000  1.0
