# generated using pymatgen
data_Zn4H64(C5O)13
_symmetry_space_group_name_H-M   'P 1'
_cell_length_a   19.46360000
_cell_length_b   19.50860000
_cell_length_c   19.55010000
_cell_angle_alpha   90.01590000
_cell_angle_beta   95.19770000
_cell_angle_gamma   95.25340000
_symmetry_Int_Tables_number   1
_chemical_formula_structural   Zn4H64(C5O)13
_chemical_formula_sum   'Zn4 H64 C65 O13'
_cell_volume   7361.46836243
_cell_formula_units_Z   1
loop_
 _symmetry_equiv_pos_site_id
 _symmetry_equiv_pos_as_xyz
  1  'x, y, z'
loop_
 _atom_site_type_symbol
 _atom_site_label
 _atom_site_symmetry_multiplicity
 _atom_site_fract_x
 _atom_site_fract_y
 _atom_site_fract_z
 _atom_site_occupancy
  Zn  Zn0  1  0.55810000  0.44387000  0.55897000  1.0
  Zn  Zn1  1  0.56010000  0.56482000  0.44913000  1.0
  Zn  Zn2  1  0.44779000  0.55385000  0.55527000  1.0
  Zn  Zn3  1  0.43653000  0.44117000  0.43519000  1.0
  H  H4  1  0.53924000  0.23499000  0.59459000  1.0
  H  H5  1  0.77005000  0.41281000  0.55595000  1.0
  H  H6  1  0.77110000  0.61990000  0.48181000  1.0
  H  H7  1  0.01015000  0.57802000  0.51882000  1.0
  H  H8  1  0.89836000  0.41983000  0.55546000  1.0
  H  H9  1  0.23140000  0.38169000  0.49411000  1.0
  H  H10  1  0.99146000  0.42160000  0.49645000  1.0
  H  H11  1  0.10165000  0.58717000  0.48354000  1.0
  H  H12  1  0.49333000  0.75857000  0.62374000  1.0
  H  H13  1  0.52619000  0.00244000  0.58702000  1.0
  H  H14  1  0.45125000  0.10232000  0.38279000  1.0
  H  H15  1  0.61513000  0.54457000  0.25011000  1.0
  H  H16  1  0.54623000  0.90717000  0.42619000  1.0
  H  H17  1  0.44375000  0.22919000  0.38766000  1.0
  H  H18  1  0.48720000  0.99895000  0.43121000  1.0
  H  H19  1  0.54617000  0.10903000  0.59132000  1.0
  H  H20  1  0.41019000  0.95692000  0.61682000  1.0
  H  H21  1  0.37856000  0.87382000  0.64303000  1.0
  H  H22  1  0.40978000  0.93804000  0.70583000  1.0
  H  H23  1  0.49756000  0.85308000  0.69572000  1.0
  H  H24  1  0.52998000  0.93592000  0.67185000  1.0
  H  H25  1  0.64441000  0.66907000  0.66872000  1.0
  H  H26  1  0.41020000  0.44098000  0.21951000  1.0
  H  H27  1  0.66644000  0.71383000  0.74790000  1.0
  H  H28  1  0.72567000  0.66061000  0.71559000  1.0
  H  H29  1  0.66532000  0.59993000  0.81040000  1.0
  H  H30  1  0.64461000  0.55555000  0.73176000  1.0
  H  H31  1  0.53401000  0.61360000  0.71369000  1.0
  H  H32  1  0.55340000  0.65567000  0.79310000  1.0
  H  H33  1  0.36956000  0.41515000  0.67410000  1.0
  H  H34  1  0.35534000  0.32380000  0.67547000  1.0
  H  H35  1  0.33289000  0.37392000  0.74486000  1.0
  H  H36  1  0.48047000  0.35786000  0.70515000  1.0
  H  H37  1  0.58564000  0.50170000  0.01378000  1.0
  H  H38  1  0.44364000  0.31960000  0.77662000  1.0
  H  H39  1  0.53360000  0.70105000  0.02021000  1.0
  H  H40  1  0.55840000  0.74790000  0.94722000  1.0
  H  H41  1  0.47359000  0.75066000  0.97334000  1.0
  H  H42  1  0.46962000  0.67084000  0.87155000  1.0
  H  H43  1  0.44681000  0.62438000  0.94458000  1.0
  H  H44  1  0.56828000  0.59268000  0.96657000  1.0
  H  H45  1  0.59144000  0.63624000  0.89269000  1.0
  H  H46  1  0.15678000  0.66417000  0.40604000  1.0
  H  H47  1  0.15550000  0.68898000  0.49337000  1.0
  H  H48  1  0.44061000  0.38174000  0.88144000  1.0
  H  H49  1  0.22068000  0.72692000  0.44425000  1.0
  H  H50  1  0.26886000  0.63861000  0.52329000  1.0
  H  H51  1  0.27556000  0.61981000  0.43724000  1.0
  H  H52  1  0.06215000  0.20797000  0.46268000  1.0
  H  H53  1  0.98328000  0.24527000  0.46979000  1.0
  H  H54  1  0.00745000  0.22356000  0.38766000  1.0
  H  H55  1  0.02963000  0.35142000  0.40863000  1.0
  H  H56  1  0.10754000  0.31467000  0.39979000  1.0
  H  H57  1  0.13372000  0.31229000  0.52641000  1.0
  H  H58  1  0.05444000  0.34500000  0.53882000  1.0
  H  H59  1  0.62711000  0.53575000  0.12468000  1.0
  H  H60  1  0.95850000  0.69282000  0.38667000  1.0
  H  H61  1  0.88801000  0.62998000  0.36345000  1.0
  H  H62  1  0.96862000  0.60372000  0.39836000  1.0
  H  H63  1  0.87285000  0.68863000  0.47506000  1.0
  H  H64  1  0.95330000  0.66455000  0.51053000  1.0
  H  H65  1  0.42947000  0.46009000  0.98665000  1.0
  H  H66  1  0.54477000  0.77987000  0.41545000  1.0
  H  H67  1  0.42033000  0.43362000  0.09422000  1.0
  C  C68  1  0.50462000  0.50028000  0.31719000  1.0
  C  C69  1  0.50134000  0.02178000  0.48225000  1.0
  C  C70  1  0.51676000  0.97985000  0.53553000  1.0
  C  C71  1  0.50296000  0.49176000  0.68307000  1.0
  C  C72  1  0.51726000  0.76157000  0.51865000  1.0
  C  C73  1  0.50092000  0.48808000  0.75946000  1.0
  C  C74  1  0.52683000  0.54593000  0.79996000  1.0
  C  C75  1  0.52345000  0.54365000  0.87178000  1.0
  C  C76  1  0.49145000  0.48364000  0.90081000  1.0
  C  C77  1  0.46499000  0.42764000  0.85819000  1.0
  C  C78  1  0.47068000  0.42764000  0.78766000  1.0
  C  C79  1  0.49850000  0.09594000  0.48675000  1.0
  C  C80  1  0.57922000  0.51535000  0.14544000  1.0
  C  C81  1  0.57289000  0.52042000  0.21537000  1.0
  C  C82  1  0.45718000  0.46226000  0.19788000  1.0
  C  C83  1  0.68611000  0.51161000  0.51559000  1.0
  C  C84  1  0.46325000  0.45841000  0.12784000  1.0
  C  C85  1  0.52419000  0.48576000  0.09988000  1.0
  C  C86  1  0.48229000  0.47671000  0.97460000  1.0
  C  C87  1  0.53266000  0.48757000  0.02653000  1.0
  C  C88  1  0.51154000  0.49427000  0.24233000  1.0
  C  C89  1  0.23820000  0.49171000  0.48777000  1.0
  C  C90  1  0.47015000  0.13134000  0.42956000  1.0
  C  C91  1  0.20196000  0.55159000  0.48471000  1.0
  C  C92  1  0.13075000  0.54212000  0.48843000  1.0
  C  C93  1  0.09395000  0.47746000  0.49693000  1.0
  C  C94  1  0.13070000  0.41795000  0.49853000  1.0
  C  C95  1  0.31498000  0.49499000  0.48726000  1.0
  C  C96  1  0.20202000  0.42679000  0.49307000  1.0
  C  C97  1  0.87025000  0.46336000  0.53786000  1.0
  C  C98  1  0.79885000  0.45919000  0.53879000  1.0
  C  C99  1  0.79987000  0.57625000  0.49753000  1.0
  C  C100  1  0.87179000  0.58178000  0.49737000  1.0
  C  C101  1  0.46580000  0.20204000  0.43190000  1.0
  C  C102  1  0.90792000  0.52357000  0.51645000  1.0
  C  C103  1  0.01942000  0.47267000  0.50278000  1.0
  C  C104  1  0.98262000  0.52669000  0.51358000  1.0
  C  C105  1  0.76286000  0.51572000  0.51756000  1.0
  C  C106  1  0.51355000  0.68535000  0.51220000  1.0
  C  C107  1  0.48980000  0.31581000  0.49396000  1.0
  C  C108  1  0.49088000  0.23965000  0.49148000  1.0
  C  C109  1  0.51949000  0.20510000  0.54877000  1.0
  C  C110  1  0.52300000  0.13455000  0.54651000  1.0
  C  C111  1  0.49117000  0.89274000  0.65625000  1.0
  C  C112  1  0.53316000  0.87441000  0.46919000  1.0
  C  C113  1  0.41822000  0.91687000  0.65548000  1.0
  C  C114  1  0.56037000  0.60813000  0.76534000  1.0
  C  C115  1  0.63809000  0.60372000  0.75878000  1.0
  C  C116  1  0.67050000  0.66513000  0.72073000  1.0
  C  C117  1  0.44400000  0.36541000  0.74376000  1.0
  C  C118  1  0.37120000  0.36992000  0.70740000  1.0
  C  C119  1  0.54802000  0.60702000  0.91501000  1.0
  C  C120  1  0.49020000  0.65439000  0.92271000  1.0
  C  C121  1  0.51516000  0.71698000  0.96827000  1.0
  C  C122  1  0.23749000  0.62290000  0.47521000  1.0
  C  C123  1  0.53297000  0.80360000  0.46293000  1.0
  C  C124  1  0.18968000  0.67846000  0.45355000  1.0
  C  C125  1  0.09564000  0.34611000  0.50362000  1.0
  C  C126  1  0.06517000  0.31609000  0.43337000  1.0
  C  C127  1  0.02749000  0.24433000  0.43858000  1.0
  C  C128  1  0.90844000  0.64806000  0.47386000  1.0
  C  C129  1  0.93238000  0.64339000  0.40142000  1.0
  C  C130  1  0.50450000  0.79197000  0.58062000  1.0
  C  C131  1  0.50605000  0.86320000  0.58832000  1.0
  C  C132  1  0.51871000  0.90555000  0.53081000  1.0
  O  O133  1  0.50039000  0.49959000  0.49848000  1.0
  O  O134  1  0.53701000  0.66029000  0.45945000  1.0
  O  O135  1  0.45702000  0.34418000  0.44356000  1.0
  O  O136  1  0.48643000  0.65042000  0.56002000  1.0
  O  O137  1  0.52240000  0.34681000  0.54655000  1.0
  O  O138  1  0.65553000  0.45742000  0.54027000  1.0
  O  O139  1  0.33989000  0.44657000  0.45606000  1.0
  O  O140  1  0.55333000  0.53672000  0.35257000  1.0
  O  O141  1  0.45440000  0.52159000  0.65054000  1.0
  O  O142  1  0.45085000  0.46907000  0.34028000  1.0
  O  O143  1  0.55189000  0.46476000  0.65696000  1.0
  O  O144  1  0.65631000  0.56238000  0.48906000  1.0
  O  O145  1  0.35022000  0.54563000  0.51935000  1.0
