# generated using pymatgen
data_AgH11C17N4O5
_symmetry_space_group_name_H-M   'P 1'
_cell_length_a   7.55998000
_cell_length_b   8.08161000
_cell_length_c   14.03230000
_cell_angle_alpha   74.74280000
_cell_angle_beta   79.45020000
_cell_angle_gamma   73.38840000
_symmetry_Int_Tables_number   1
_chemical_formula_structural   AgH11C17N4O5
_chemical_formula_sum   'Ag2 H22 C34 N8 O10'
_cell_volume   787.17910788
_cell_formula_units_Z   2
loop_
 _symmetry_equiv_pos_site_id
 _symmetry_equiv_pos_as_xyz
  1  'x, y, z'
loop_
 _atom_site_type_symbol
 _atom_site_label
 _atom_site_symmetry_multiplicity
 _atom_site_fract_x
 _atom_site_fract_y
 _atom_site_fract_z
 _atom_site_occupancy
  Ag  Ag0  1  0.38143000  0.36145000  0.51901000  1.0
  Ag  Ag1  1  0.61856000  0.63856000  0.48099000  1.0
  H  H2  1  0.48748000  0.49063000  0.29735000  1.0
  H  H3  1  0.51251000  0.50937000  0.70265000  1.0
  H  H4  1  0.95289000  0.09222000  0.20090000  1.0
  H  H5  1  0.04710000  0.90778000  0.79911000  1.0
  H  H6  1  0.92728000  0.90540000  0.37364000  1.0
  H  H7  1  0.07272000  0.09460000  0.62636000  1.0
  H  H8  1  0.67420000  0.02560000  0.50107000  1.0
  H  H9  1  0.32580000  0.97441000  0.49894000  1.0
  H  H10  1  0.79039000  0.68244000  0.97162000  1.0
  H  H11  1  0.20962000  0.31755000  0.02838000  1.0
  H  H12  1  0.53095000  0.92327000  0.89262000  1.0
  H  H13  1  0.46906000  0.07672000  0.10738000  1.0
  H  H14  1  0.20059000  0.93155000  0.97235000  1.0
  H  H15  1  0.79942000  0.06845000  0.02764000  1.0
  H  H16  1  0.81155000  0.76462000  0.27393000  1.0
  H  H17  1  0.18845000  0.23539000  0.72606000  1.0
  H  H18  1  0.28208000  0.34281000  0.21094000  1.0
  H  H19  1  0.71792000  0.65719000  0.78906000  1.0
  H  H20  1  0.19726000  0.16184000  0.37639000  1.0
  H  H21  1  0.80273000  0.83816000  0.62361000  1.0
  H  H22  1  0.92136000  0.29592000  0.48830000  1.0
  H  H23  1  0.07864000  0.70408000  0.51170000  1.0
  C  C24  1  0.58614000  0.36157000  0.31004000  1.0
  C  C25  1  0.41386000  0.63843000  0.68996000  1.0
  C  C26  1  0.72043000  0.30497000  0.23449000  1.0
  C  C27  1  0.27957000  0.69503000  0.76551000  1.0
  C  C28  1  0.84447000  0.13778000  0.25769000  1.0
  C  C29  1  0.15553000  0.86221000  0.74232000  1.0
  C  C30  1  0.82997000  0.03419000  0.35376000  1.0
  C  C31  1  0.17003000  0.96582000  0.64625000  1.0
  C  C32  1  0.69245000  0.09968000  0.42441000  1.0
  C  C33  1  0.30754000  0.90032000  0.57559000  1.0
  C  C34  1  0.75190000  0.41713000  0.13225000  1.0
  C  C35  1  0.24809000  0.58287000  0.86775000  1.0
  C  C36  1  0.60113000  0.56854000  0.08829000  1.0
  C  C37  1  0.39887000  0.43145000  0.91171000  1.0
  C  C38  1  0.64553000  0.69238000  0.00253000  1.0
  C  C39  1  0.35448000  0.30761000  0.99747000  1.0
  C  C40  1  0.50059000  0.82528000  0.95941000  1.0
  C  C41  1  0.49942000  0.17472000  0.04059000  1.0
  C  C42  1  0.31846000  0.83014000  0.00282000  1.0
  C  C43  1  0.68155000  0.16986000  0.99718000  1.0
  C  C44  1  0.28794000  0.70124000  0.08895000  1.0
  C  C45  1  0.71206000  0.29875000  0.91105000  1.0
  C  C46  1  0.09383000  0.70539000  0.13765000  1.0
  C  C47  1  0.90618000  0.29461000  0.86234000  1.0
  C  C48  1  0.90233000  0.63284000  0.29596000  1.0
  C  C49  1  0.09767000  0.36716000  0.70404000  1.0
  C  C50  1  0.05856000  0.57294000  0.23159000  1.0
  C  C51  1  0.94144000  0.42706000  0.76841000  1.0
  C  C52  1  0.16471000  0.39871000  0.26004000  1.0
  C  C53  1  0.83529000  0.60129000  0.73996000  1.0
  C  C54  1  0.11638000  0.29738000  0.35301000  1.0
  C  C55  1  0.88362000  0.70263000  0.64699000  1.0
  C  C56  1  0.96450000  0.36958000  0.41479000  1.0
  C  C57  1  0.03549000  0.63043000  0.58521000  1.0
  N  N58  1  0.57356000  0.26101000  0.40307000  1.0
  N  N59  1  0.42643000  0.73900000  0.59693000  1.0
  N  N60  1  0.42643000  0.57397000  0.13101000  1.0
  N  N61  1  0.57357000  0.42602000  0.86899000  1.0
  N  N62  1  0.85652000  0.53483000  0.38576000  1.0
  N  N63  1  0.14348000  0.46518000  0.61424000  1.0
  N  N64  1  0.66238000  0.14234000  0.68719000  1.0
  N  N65  1  0.33762000  0.85766000  0.31281000  1.0
  O  O66  1  0.90505000  0.38108000  0.08320000  1.0
  O  O67  1  0.09496000  0.61891000  0.91681000  1.0
  O  O68  1  0.96141000  0.82269000  0.10378000  1.0
  O  O69  1  0.03859000  0.17731000  0.89622000  1.0
  O  O70  1  0.53258000  0.09058000  0.66585000  1.0
  O  O71  1  0.46742000  0.90943000  0.33415000  1.0
  O  O72  1  0.71852000  0.27117000  0.62710000  1.0
  O  O73  1  0.28148000  0.72883000  0.37290000  1.0
  O  O74  1  0.73484000  0.06611000  0.76631000  1.0
  O  O75  1  0.26516000  0.93389000  0.23369000  1.0
