# generated using pymatgen
data_CuH7CN2ClO6
_symmetry_space_group_name_H-M   'P 1'
_cell_length_a   7.43827000
_cell_length_b   7.74376000
_cell_length_c   12.33500000
_cell_angle_alpha   90.00000000
_cell_angle_beta   90.00520000
_cell_angle_gamma   90.00000000
_symmetry_Int_Tables_number   1
_chemical_formula_structural   CuH7CN2ClO6
_chemical_formula_sum   'Cu4 H28 C4 N8 Cl4 O24'
_cell_volume   710.49818894
_cell_formula_units_Z   4
loop_
 _symmetry_equiv_pos_site_id
 _symmetry_equiv_pos_as_xyz
  1  'x, y, z'
loop_
 _atom_site_type_symbol
 _atom_site_label
 _atom_site_symmetry_multiplicity
 _atom_site_fract_x
 _atom_site_fract_y
 _atom_site_fract_z
 _atom_site_occupancy
  Cu  Cu0  1  0.17219000  0.25000000  0.35760000  1.0
  Cu  Cu1  1  0.32788000  0.75000000  0.85776000  1.0
  Cu  Cu2  1  0.67214000  0.25000000  0.14220000  1.0
  Cu  Cu3  1  0.82783000  0.75000000  0.64233000  1.0
  H  H4  1  0.07698000  0.55948000  0.31937000  1.0
  H  H5  1  0.42314000  0.44055000  0.81962000  1.0
  H  H6  1  0.57680000  0.94059000  0.18043000  1.0
  H  H7  1  0.92304000  0.05944000  0.68066000  1.0
  H  H8  1  0.92304000  0.44056000  0.68066000  1.0
  H  H9  1  0.57680000  0.55941000  0.18043000  1.0
  H  H10  1  0.42314000  0.05945000  0.81962000  1.0
  H  H11  1  0.07698000  0.94052000  0.31937000  1.0
  H  H12  1  0.29542000  0.55583000  0.34097000  1.0
  H  H13  1  0.20467000  0.44418000  0.84113000  1.0
  H  H14  1  0.79527000  0.94417000  0.15897000  1.0
  H  H15  1  0.70460000  0.05579000  0.65903000  1.0
  H  H16  1  0.70460000  0.44421000  0.65903000  1.0
  H  H17  1  0.79527000  0.55583000  0.15897000  1.0
  H  H18  1  0.20467000  0.05582000  0.84113000  1.0
  H  H19  1  0.29542000  0.94417000  0.34097000  1.0
  H  H20  1  0.15389000  0.54698000  0.44425000  1.0
  H  H21  1  0.34612000  0.45305000  0.94446000  1.0
  H  H22  1  0.65389000  0.95288000  0.05560000  1.0
  H  H23  1  0.84617000  0.04709000  0.55576000  1.0
  H  H24  1  0.84617000  0.45291000  0.55576000  1.0
  H  H25  1  0.65389000  0.54712000  0.05560000  1.0
  H  H26  1  0.34612000  0.04695000  0.94446000  1.0
  H  H27  1  0.15389000  0.95302000  0.44425000  1.0
  H  H28  1  0.16924000  0.25000000  0.12070000  1.0
  H  H29  1  0.33079000  0.75000000  0.62092000  1.0
  H  H30  1  0.66926000  0.25000000  0.37906000  1.0
  H  H31  1  0.83088000  0.75000000  0.87916000  1.0
  C  C32  1  0.31329000  0.25000000  0.14119000  1.0
  C  C33  1  0.18670000  0.75000000  0.64134000  1.0
  C  C34  1  0.81333000  0.25000000  0.35861000  1.0
  C  C35  1  0.68679000  0.75000000  0.85875000  1.0
  N  N36  1  0.17538000  0.50501000  0.36641000  1.0
  N  N37  1  0.32469000  0.49501000  0.86661000  1.0
  N  N38  1  0.67528000  0.99497000  0.13343000  1.0
  N  N39  1  0.82466000  0.00502000  0.63358000  1.0
  N  N40  1  0.82466000  0.49498000  0.63358000  1.0
  N  N41  1  0.67528000  0.50503000  0.13343000  1.0
  N  N42  1  0.32469000  0.00499000  0.86661000  1.0
  N  N43  1  0.17538000  0.99499000  0.36641000  1.0
  Cl  Cl44  1  0.35191000  0.25000000  0.60554000  1.0
  Cl  Cl45  1  0.14796000  0.75000000  0.10556000  1.0
  Cl  Cl46  1  0.85197000  0.25000000  0.89446000  1.0
  Cl  Cl47  1  0.64805000  0.75000000  0.39444000  1.0
  O  O48  1  0.36352000  0.25000000  0.24002000  1.0
  O  O49  1  0.13645000  0.75000000  0.74017000  1.0
  O  O50  1  0.86354000  0.25000000  0.25978000  1.0
  O  O51  1  0.63647000  0.75000000  0.75993000  1.0
  O  O52  1  0.42547000  0.25000000  0.06309000  1.0
  O  O53  1  0.07454000  0.75000000  0.56323000  1.0
  O  O54  1  0.92551000  0.25000000  0.43671000  1.0
  O  O55  1  0.57466000  0.75000000  0.93688000  1.0
  O  O56  1  0.50055000  0.25000000  0.68516000  1.0
  O  O57  1  0.99942000  0.75000000  0.18521000  1.0
  O  O58  1  0.00059000  0.25000000  0.81487000  1.0
  O  O59  1  0.49938000  0.75000000  0.31485000  1.0
  O  O60  1  0.24288000  0.09622000  0.62150000  1.0
  O  O61  1  0.25702000  0.90379000  0.12150000  1.0
  O  O62  1  0.74293000  0.40378000  0.87849000  1.0
  O  O63  1  0.75708000  0.59621000  0.37845000  1.0
  O  O64  1  0.75708000  0.90379000  0.37845000  1.0
  O  O65  1  0.74293000  0.09622000  0.87849000  1.0
  O  O66  1  0.25703000  0.59622000  0.12150000  1.0
  O  O67  1  0.24288000  0.40378000  0.62150000  1.0
  O  O68  1  0.42813000  0.25000000  0.49610000  1.0
  O  O69  1  0.07165000  0.75000000  0.99615000  1.0
  O  O70  1  0.92818000  0.25000000  0.00390000  1.0
  O  O71  1  0.57190000  0.75000000  0.50388000  1.0
