# generated using pymatgen
data_CsH7C7O4
_symmetry_space_group_name_H-M   'P 1'
_cell_length_a   5.63951000
_cell_length_b   11.83400000
_cell_length_c   13.50360000
_cell_angle_alpha   99.87270000
_cell_angle_beta   90.00000000
_cell_angle_gamma   89.99970000
_symmetry_Int_Tables_number   1
_chemical_formula_structural   CsH7C7O4
_chemical_formula_sum   'Cs4 H28 C28 O16'
_cell_volume   887.85694440
_cell_formula_units_Z   4
loop_
 _symmetry_equiv_pos_site_id
 _symmetry_equiv_pos_as_xyz
  1  'x, y, z'
loop_
 _atom_site_type_symbol
 _atom_site_label
 _atom_site_symmetry_multiplicity
 _atom_site_fract_x
 _atom_site_fract_y
 _atom_site_fract_z
 _atom_site_occupancy
  Cs  Cs0  1  0.73136000  0.39360000  0.55834000  1.0
  Cs  Cs1  1  0.23136000  0.60640000  0.94165000  1.0
  Cs  Cs2  1  0.26864000  0.60640000  0.44166000  1.0
  Cs  Cs3  1  0.76864000  0.39360000  0.05833000  1.0
  H  H4  1  0.66191000  0.06703000  0.30426000  1.0
  H  H5  1  0.16194000  0.93298000  0.19574000  1.0
  H  H6  1  0.33807000  0.93298000  0.69574000  1.0
  H  H7  1  0.83807000  0.06702000  0.80426000  1.0
  H  H8  1  0.28228000  0.22334000  0.10290000  1.0
  H  H9  1  0.78229000  0.77666000  0.39710000  1.0
  H  H10  1  0.71771000  0.77667000  0.89710000  1.0
  H  H11  1  0.21771000  0.22333000  0.60289000  1.0
  H  H12  1  0.64722000  0.02423000  0.11719000  1.0
  H  H13  1  0.14725000  0.97578000  0.38281000  1.0
  H  H14  1  0.35276000  0.97577000  0.88281000  1.0
  H  H15  1  0.85276000  0.02421000  0.61719000  1.0
  H  H16  1  0.96059000  0.10006000  0.01580000  1.0
  H  H17  1  0.46060000  0.89995000  0.48421000  1.0
  H  H18  1  0.03939000  0.89995000  0.98421000  1.0
  H  H19  1  0.53941000  0.10006000  0.51580000  1.0
  H  H20  1  0.66704000  0.44157000  0.32158000  1.0
  H  H21  1  0.16706000  0.55843000  0.17841000  1.0
  H  H22  1  0.33296000  0.55843000  0.67842000  1.0
  H  H23  1  0.83296000  0.44157000  0.82159000  1.0
  H  H24  1  0.82136000  0.55345000  0.31896000  1.0
  H  H25  1  0.32137000  0.44654000  0.18103000  1.0
  H  H26  1  0.17863000  0.44655000  0.68104000  1.0
  H  H27  1  0.67864000  0.55346000  0.81896000  1.0
  H  H28  1  0.14002000  0.24089000  0.42381000  1.0
  H  H29  1  0.64003000  0.75911000  0.07618000  1.0
  H  H30  1  0.85998000  0.75912000  0.57618000  1.0
  H  H31  1  0.35998000  0.24088000  0.92382000  1.0
  C  C32  1  0.15167000  0.21791000  0.25128000  1.0
  C  C33  1  0.65171000  0.78210000  0.24872000  1.0
  C  C34  1  0.84831000  0.78211000  0.74872000  1.0
  C  C35  1  0.34829000  0.21789000  0.75128000  1.0
  C  C36  1  0.79591000  0.10137000  0.25938000  1.0
  C  C37  1  0.29594000  0.89865000  0.24062000  1.0
  C  C38  1  0.20408000  0.89864000  0.74062000  1.0
  C  C39  1  0.70406000  0.10135000  0.75938000  1.0
  C  C40  1  0.14380000  0.18975000  0.14605000  1.0
  C  C41  1  0.64383000  0.81025000  0.35395000  1.0
  C  C42  1  0.85618000  0.81026000  0.85395000  1.0
  C  C43  1  0.35618000  0.18974000  0.64605000  1.0
  C  C44  1  0.78922000  0.07760000  0.15489000  1.0
  C  C45  1  0.28925000  0.92240000  0.34511000  1.0
  C  C46  1  0.21075000  0.92240000  0.84511000  1.0
  C  C47  1  0.71076000  0.07759000  0.65488000  1.0
  C  C48  1  0.96492000  0.12047000  0.09755000  1.0
  C  C49  1  0.46495000  0.87955000  0.40246000  1.0
  C  C50  1  0.03505000  0.87955000  0.90246000  1.0
  C  C51  1  0.53504000  0.12045000  0.59754000  1.0
  C  C52  1  0.97771000  0.17052000  0.30835000  1.0
  C  C53  1  0.47776000  0.82949000  0.19165000  1.0
  C  C54  1  0.02227000  0.82949000  0.69165000  1.0
  C  C55  1  0.52226000  0.17049000  0.80835000  1.0
  C  C56  1  0.33197000  0.29887000  0.30318000  1.0
  C  C57  1  0.83197000  0.70112000  0.19681000  1.0
  C  C58  1  0.66805000  0.70113000  0.69681000  1.0
  C  C59  1  0.16805000  0.29887000  0.80320000  1.0
  O  O60  1  0.34456000  0.31153000  0.39968000  1.0
  O  O61  1  0.84455000  0.68847000  0.10031000  1.0
  O  O62  1  0.65547000  0.68847000  0.60031000  1.0
  O  O63  1  0.15546000  0.31152000  0.89970000  1.0
  O  O64  1  0.46227000  0.35580000  0.25179000  1.0
  O  O65  1  0.96230000  0.64419000  0.24820000  1.0
  O  O66  1  0.53774000  0.64420000  0.74820000  1.0
  O  O67  1  0.03771000  0.35580000  0.75181000  1.0
  O  O68  1  0.77081000  0.49954000  0.36360000  1.0
  O  O69  1  0.27083000  0.50046000  0.13640000  1.0
  O  O70  1  0.22919000  0.50046000  0.63640000  1.0
  O  O71  1  0.72917000  0.49953000  0.86360000  1.0
  O  O72  1  0.98635000  0.19184000  0.41007000  1.0
  O  O73  1  0.48638000  0.80817000  0.08993000  1.0
  O  O74  1  0.01364000  0.80817000  0.58993000  1.0
  O  O75  1  0.51363000  0.19181000  0.91007000  1.0
