# generated using pymatgen
data_SmH8C6O7
_symmetry_space_group_name_H-M   'P 1'
_cell_length_a   7.78997000
_cell_length_b   10.80312121
_cell_length_c   12.76845911
_cell_angle_alpha   71.79092578
_cell_angle_beta   72.25088644
_cell_angle_gamma   68.88050662
_symmetry_Int_Tables_number   1
_chemical_formula_structural   SmH8C6O7
_chemical_formula_sum   'Sm4 H32 C24 O28'
_cell_volume   929.48911776
_cell_formula_units_Z   4
loop_
 _symmetry_equiv_pos_site_id
 _symmetry_equiv_pos_as_xyz
  1  'x, y, z'
loop_
 _atom_site_type_symbol
 _atom_site_label
 _atom_site_symmetry_multiplicity
 _atom_site_fract_x
 _atom_site_fract_y
 _atom_site_fract_z
 _atom_site_occupancy
  Sm  Sm0  1  0.55468000  0.69021000  0.77082000  1.0
  Sm  Sm1  1  0.01571000  0.80985000  0.72915000  1.0
  Sm  Sm2  1  0.44532000  0.30979000  0.22918000  1.0
  Sm  Sm3  1  0.98429000  0.19015000  0.27085000  1.0
  H  H4  1  0.49308000  0.41769000  0.91179000  1.0
  H  H5  1  0.82259000  0.08233000  0.58826000  1.0
  H  H6  1  0.50692000  0.58231000  0.08821000  1.0
  H  H7  1  0.17741000  0.91767000  0.41174000  1.0
  H  H8  1  0.30914000  0.49888000  0.85458000  1.0
  H  H9  1  0.66264000  0.00111000  0.64553000  1.0
  H  H10  1  0.69086000  0.50112000  0.14542000  1.0
  H  H11  1  0.33735000  0.99890000  0.35447000  1.0
  H  H12  1  0.41052000  0.16849000  0.51398000  1.0
  H  H13  1  0.09292000  0.33161000  0.98606000  1.0
  H  H14  1  0.58948000  0.83151000  0.48602000  1.0
  H  H15  1  0.90708000  0.66839000  0.01394000  1.0
  H  H16  1  0.33573000  0.20497000  0.64815000  1.0
  H  H17  1  0.18859000  0.29513000  0.85188000  1.0
  H  H18  1  0.66427000  0.79503000  0.35185000  1.0
  H  H19  1  0.81141000  0.70487000  0.14812000  1.0
  H  H20  1  0.99238000  0.24080000  0.63915000  1.0
  H  H21  1  0.87229000  0.25897000  0.86100000  1.0
  H  H22  1  0.00762000  0.75921000  0.36085000  1.0
  H  H23  1  0.12771000  0.74103000  0.13900000  1.0
  H  H24  1  0.10496000  0.36324000  0.54203000  1.0
  H  H25  1  0.01036000  0.13666000  0.95809000  1.0
  H  H26  1  0.89504000  0.63676000  0.45798000  1.0
  H  H27  1  0.98964000  0.86334000  0.04191000  1.0
  H  H28  1  0.44780000  0.86620000  0.02753000  1.0
  H  H29  1  0.34138000  0.63362000  0.47245000  1.0
  H  H30  1  0.55220000  0.13380000  0.97247000  1.0
  H  H31  1  0.65862000  0.36638000  0.52755000  1.0
  H  H32  1  0.39310000  0.00311000  0.91464000  1.0
  H  H33  1  0.31089000  0.49661000  0.58528000  1.0
  H  H34  1  0.60690000  0.99689000  0.08536000  1.0
  H  H35  1  0.68911000  0.50339000  0.41472000  1.0
  C  C36  1  0.30712000  0.01726000  0.64487000  1.0
  C  C37  1  0.96902000  0.48271000  0.85515000  1.0
  C  C38  1  0.69288000  0.98274000  0.35513000  1.0
  C  C39  1  0.03098000  0.51729000  0.14485000  1.0
  C  C40  1  0.29795000  0.16594000  0.59087000  1.0
  C  C41  1  0.05459000  0.33408000  0.90921000  1.0
  C  C42  1  0.70205000  0.83406000  0.40913000  1.0
  C  C43  1  0.94540000  0.66592000  0.09079000  1.0
  C  C44  1  0.10561000  0.25616000  0.56494000  1.0
  C  C45  1  0.92675000  0.24369000  0.93518000  1.0
  C  C46  1  0.89439000  0.74384000  0.43506000  1.0
  C  C47  1  0.07325000  0.75631000  0.06482000  1.0
  C  C48  1  0.06431000  0.23167000  0.46602000  1.0
  C  C49  1  0.76214000  0.26814000  0.03411000  1.0
  C  C50  1  0.93568000  0.76833000  0.53399000  1.0
  C  C51  1  0.23786000  0.73186000  0.96589000  1.0
  C  C52  1  0.68268000  0.89504000  0.89533000  1.0
  C  C53  1  0.47277000  0.60497000  0.60470000  1.0
  C  C54  1  0.31731000  0.10496000  0.10467000  1.0
  C  C55  1  0.52723000  0.39503000  0.39530000  1.0
  C  C56  1  0.49631000  0.95185000  0.96901000  1.0
  C  C57  1  0.41707000  0.54804000  0.53098000  1.0
  C  C58  1  0.50369000  0.04815000  0.03099000  1.0
  C  C59  1  0.58294000  0.45196000  0.46901000  1.0
  O  O60  1  0.44470000  0.48548000  0.84627000  1.0
  O  O61  1  0.77650000  0.01457000  0.65381000  1.0
  O  O62  1  0.55530000  0.51452000  0.15373000  1.0
  O  O63  1  0.22350000  0.98543000  0.34619000  1.0
  O  O64  1  0.46178000  0.93626000  0.67199000  1.0
  O  O65  1  0.06975000  0.56376000  0.82812000  1.0
  O  O66  1  0.53823000  0.06374000  0.32800000  1.0
  O  O67  1  0.93025000  0.43624000  0.17188000  1.0
  O  O68  1  0.16137000  0.98282000  0.65939000  1.0
  O  O69  1  0.80350000  0.51706000  0.84044000  1.0
  O  O70  1  0.83863000  0.01718000  0.34061000  1.0
  O  O71  1  0.19651000  0.48294000  0.15955000  1.0
  O  O72  1  0.93035000  0.18414000  0.47795000  1.0
  O  O73  1  0.59263000  0.31576000  0.02215000  1.0
  O  O74  1  0.06966000  0.81586000  0.52205000  1.0
  O  O75  1  0.40738000  0.68424000  0.97784000  1.0
  O  O76  1  0.16313000  0.26264000  0.36592000  1.0
  O  O77  1  0.79183000  0.23709000  0.13423000  1.0
  O  O78  1  0.83687000  0.73736000  0.63408000  1.0
  O  O79  1  0.20817000  0.76291000  0.86577000  1.0
  O  O80  1  0.69635000  0.80571000  0.84265000  1.0
  O  O81  1  0.34443000  0.69419000  0.65743000  1.0
  O  O82  1  0.30366000  0.19428000  0.15735000  1.0
  O  O83  1  0.65557000  0.30581000  0.34257000  1.0
  O  O84  1  0.82474000  0.93206000  0.88389000  1.0
  O  O85  1  0.64041000  0.56817000  0.61606000  1.0
  O  O86  1  0.17526000  0.06793000  0.11611000  1.0
  O  O87  1  0.35958000  0.43183000  0.38394000  1.0
