# generated using pymatgen
data_ZnH2C8(ClO2)2
_symmetry_space_group_name_H-M   'P 1'
_cell_length_a   7.17118000
_cell_length_b   7.50866000
_cell_length_c   16.96920000
_cell_angle_alpha   81.27810000
_cell_angle_beta   89.99960000
_cell_angle_gamma   89.99960000
_symmetry_Int_Tables_number   1
_chemical_formula_structural   ZnH2C8(ClO2)2
_chemical_formula_sum   'Zn4 H8 C32 Cl8 O16'
_cell_volume   903.15644477
_cell_formula_units_Z   4
loop_
 _symmetry_equiv_pos_site_id
 _symmetry_equiv_pos_as_xyz
  1  'x, y, z'
loop_
 _atom_site_type_symbol
 _atom_site_label
 _atom_site_symmetry_multiplicity
 _atom_site_fract_x
 _atom_site_fract_y
 _atom_site_fract_z
 _atom_site_occupancy
  Zn  Zn0  1  0.27286000  0.64903000  0.43385000  1.0
  Zn  Zn1  1  0.77286000  0.85098000  0.56615000  1.0
  Zn  Zn2  1  0.72714000  0.35098000  0.56615000  1.0
  Zn  Zn3  1  0.22715000  0.14902000  0.43385000  1.0
  H  H4  1  0.01300000  0.54560000  0.19111000  1.0
  H  H5  1  0.51300000  0.95441000  0.80889000  1.0
  H  H6  1  0.98700000  0.45440000  0.80889000  1.0
  H  H7  1  0.48701000  0.04559000  0.19112000  1.0
  H  H8  1  0.35830000  0.45988000  0.28348000  1.0
  H  H9  1  0.85830000  0.04012000  0.71652000  1.0
  H  H10  1  0.64170000  0.54012000  0.71652000  1.0
  H  H11  1  0.14170000  0.95987000  0.28348000  1.0
  C  C12  1  0.83156000  0.47498000  0.29297000  1.0
  C  C13  1  0.33155000  0.02502000  0.70703000  1.0
  C  C14  1  0.16844000  0.52502000  0.70703000  1.0
  C  C15  1  0.66845000  0.97498000  0.29297000  1.0
  C  C16  1  0.64577000  0.45357000  0.31918000  1.0
  C  C17  1  0.14577000  0.04644000  0.68082000  1.0
  C  C18  1  0.35423000  0.54644000  0.68082000  1.0
  C  C19  1  0.85424000  0.95357000  0.31918000  1.0
  C  C20  1  0.50160000  0.48081000  0.26321000  1.0
  C  C21  1  0.00160000  0.01918000  0.73679000  1.0
  C  C22  1  0.49840000  0.51918000  0.73678000  1.0
  C  C23  1  0.99840000  0.98081000  0.26321000  1.0
  C  C24  1  0.53888000  0.53367000  0.18270000  1.0
  C  C25  1  0.03888000  0.96633000  0.81730000  1.0
  C  C26  1  0.46112000  0.46633000  0.81730000  1.0
  C  C27  1  0.96112000  0.03366000  0.18270000  1.0
  C  C28  1  0.72478000  0.55961000  0.15686000  1.0
  C  C29  1  0.22478000  0.94039000  0.84314000  1.0
  C  C30  1  0.27522000  0.44038000  0.84314000  1.0
  C  C31  1  0.77522000  0.05961000  0.15686000  1.0
  C  C32  1  0.86965000  0.52739000  0.21217000  1.0
  C  C33  1  0.36965000  0.97261000  0.78783000  1.0
  C  C34  1  0.13035000  0.47260000  0.78783000  1.0
  C  C35  1  0.63036000  0.02738000  0.21217000  1.0
  C  C36  1  0.59923000  0.40567000  0.40524000  1.0
  C  C37  1  0.09923000  0.09434000  0.59476000  1.0
  C  C38  1  0.40076000  0.59434000  0.59476000  1.0
  C  C39  1  0.90077000  0.90566000  0.40524000  1.0
  C  C40  1  0.99546000  0.44621000  0.34884000  1.0
  C  C41  1  0.49546000  0.05379000  0.65116000  1.0
  C  C42  1  0.00454000  0.55379000  0.65116000  1.0
  C  C43  1  0.50454000  0.94621000  0.34885000  1.0
  Cl  Cl44  1  0.77785000  0.63184000  0.05868000  1.0
  Cl  Cl45  1  0.27785000  0.86815000  0.94132000  1.0
  Cl  Cl46  1  0.22215000  0.36815000  0.94132000  1.0
  Cl  Cl47  1  0.72215000  0.13183000  0.05868000  1.0
  Cl  Cl48  1  0.35700000  0.56927000  0.11590000  1.0
  Cl  Cl49  1  0.85700000  0.93073000  0.88410000  1.0
  Cl  Cl50  1  0.64299000  0.43073000  0.88410000  1.0
  Cl  Cl51  1  0.14300000  0.06925000  0.11590000  1.0
  O  O52  1  0.43163000  0.41823000  0.42960000  1.0
  O  O53  1  0.93163000  0.08178000  0.57040000  1.0
  O  O54  1  0.56836000  0.58178000  0.57040000  1.0
  O  O55  1  0.06838000  0.91822000  0.42960000  1.0
  O  O56  1  0.73525000  0.35243000  0.45162000  1.0
  O  O57  1  0.23524000  0.14758000  0.54838000  1.0
  O  O58  1  0.26475000  0.64758000  0.54838000  1.0
  O  O59  1  0.76475000  0.85242000  0.45163000  1.0
  O  O60  1  0.08013000  0.29690000  0.35114000  1.0
  O  O61  1  0.58012000  0.20310000  0.64886000  1.0
  O  O62  1  0.91988000  0.70310000  0.64886000  1.0
  O  O63  1  0.41989000  0.79691000  0.35114000  1.0
  O  O64  1  0.04235000  0.57760000  0.38338000  1.0
  O  O65  1  0.54235000  0.92240000  0.61662000  1.0
  O  O66  1  0.95765000  0.42240000  0.61662000  1.0
  O  O67  1  0.45765000  0.07761000  0.38339000  1.0
