# generated using pymatgen
data_Ni3H32C24(N3O5)2
_symmetry_space_group_name_H-M   'P 1'
_cell_length_a   9.19725000
_cell_length_b   11.68500000
_cell_length_c   11.99180000
_cell_angle_alpha   104.78800000
_cell_angle_beta   112.35200000
_cell_angle_gamma   94.19010000
_symmetry_Int_Tables_number   1
_chemical_formula_structural   Ni3H32C24(N3O5)2
_chemical_formula_sum   'Ni3 H32 C24 N6 O10'
_cell_volume   1131.39572970
_cell_formula_units_Z   1
loop_
 _symmetry_equiv_pos_site_id
 _symmetry_equiv_pos_as_xyz
  1  'x, y, z'
loop_
 _atom_site_type_symbol
 _atom_site_label
 _atom_site_symmetry_multiplicity
 _atom_site_fract_x
 _atom_site_fract_y
 _atom_site_fract_z
 _atom_site_occupancy
  Ni  Ni0  1  0.51111000  0.09932000  0.44384000  1.0
  Ni  Ni1  1  0.52110000  0.88716000  0.55328000  1.0
  Ni  Ni2  1  0.50183000  0.49532000  0.50002000  1.0
  H  H3  1  0.50716000  0.01263000  0.79265000  1.0
  H  H4  1  0.49346000  0.97329000  0.20554000  1.0
  H  H5  1  0.48276000  0.14828000  0.97679000  1.0
  H  H6  1  0.48455000  0.83502000  0.00851000  1.0
  H  H7  1  0.48449000  0.36834000  0.99640000  1.0
  H  H8  1  0.47854000  0.61394000  0.98351000  1.0
  H  H9  1  0.50653000  0.44302000  0.82623000  1.0
  H  H10  1  0.47788000  0.53773000  0.15911000  1.0
  H  H11  1  0.53721000  0.34405000  0.19132000  1.0
  H  H12  1  0.45093000  0.68234000  0.80909000  1.0
  H  H13  1  0.35791000  0.38025000  0.20064000  1.0
  H  H14  1  0.60757000  0.60875000  0.79380000  1.0
  H  H15  1  0.35943000  0.23211000  0.10926000  1.0
  H  H16  1  0.65072000  0.76477000  0.88825000  1.0
  H  H17  1  0.77769000  0.23570000  0.40608000  1.0
  H  H18  1  0.20699000  0.77577000  0.58285000  1.0
  H  H19  1  0.03724000  0.11628000  0.64784000  1.0
  H  H20  1  0.94460000  0.91103000  0.36777000  1.0
  H  H21  1  0.19181000  0.24380000  0.69717000  1.0
  H  H22  1  0.79094000  0.77899000  0.30129000  1.0
  H  H23  1  0.17462000  0.11270000  0.57486000  1.0
  H  H24  1  0.80311000  0.89739000  0.43491000  1.0
  H  H25  1  0.98854000  0.33028000  0.40702000  1.0
  H  H26  1  0.00267000  0.67655000  0.58544000  1.0
  H  H27  1  0.14791000  0.24665000  0.42915000  1.0
  H  H28  1  0.84687000  0.76191000  0.57663000  1.0
  H  H29  1  0.16176000  0.37395000  0.55474000  1.0
  H  H30  1  0.82161000  0.63643000  0.44398000  1.0
  H  H31  1  0.22535000  0.98678000  0.40237000  1.0
  H  H32  1  0.82649000  0.03841000  0.64165000  1.0
  H  H33  1  0.22032000  0.01424000  0.27860000  1.0
  H  H34  1  0.81133000  0.97725000  0.73710000  1.0
  C  C35  1  0.52236000  0.14802000  0.70383000  1.0
  C  C36  1  0.49039000  0.83540000  0.29503000  1.0
  C  C37  1  0.50803000  0.10758000  0.80131000  1.0
  C  C38  1  0.48839000  0.87737000  0.19408000  1.0
  C  C39  1  0.49463000  0.18458000  0.90469000  1.0
  C  C40  1  0.48397000  0.79893000  0.08380000  1.0
  C  C41  1  0.49579000  0.30700000  0.91611000  1.0
  C  C42  1  0.48025000  0.67553000  0.06941000  1.0
  C  C43  1  0.50869000  0.34888000  0.82139000  1.0
  C  C44  1  0.47961000  0.63270000  0.16688000  1.0
  C  C45  1  0.52027000  0.27319000  0.71389000  1.0
  C  C46  1  0.48452000  0.71010000  0.28033000  1.0
  C  C47  1  0.51752000  0.32942000  0.61693000  1.0
  C  C48  1  0.49291000  0.65906000  0.38050000  1.0
  C  C49  1  0.46491000  0.26131000  0.30647000  1.0
  C  C50  1  0.54670000  0.73532000  0.69017000  1.0
  C  C51  1  0.42608000  0.30790000  0.19539000  1.0
  C  C52  1  0.56670000  0.69476000  0.80221000  1.0
  C  C53  1  0.84182000  0.19191000  0.47686000  1.0
  C  C54  1  0.13859000  0.82173000  0.51523000  1.0
  C  C55  1  0.10654000  0.16955000  0.61584000  1.0
  C  C56  1  0.87298000  0.84816000  0.38935000  1.0
  C  C57  1  0.07886000  0.29697000  0.47517000  1.0
  C  C58  1  0.90846000  0.71215000  0.52288000  1.0
  N  N59  1  0.51103000  0.26642000  0.50722000  1.0
  N  N60  1  0.50788000  0.72689000  0.49248000  1.0
  N  N61  1  0.48792000  0.33209000  0.42139000  1.0
  N  N62  1  0.52175000  0.66063000  0.57814000  1.0
  N  N63  1  0.00087000  0.21858000  0.52147000  1.0
  N  N64  1  0.97994000  0.79264000  0.47521000  1.0
  O  O65  1  0.53708000  0.06899000  0.60747000  1.0
  O  O66  1  0.50285000  0.91591000  0.40170000  1.0
  O  O67  1  0.47506000  0.14878000  0.28719000  1.0
  O  O68  1  0.55232000  0.85063000  0.70370000  1.0
  O  O69  1  0.51211000  0.44530000  0.63721000  1.0
  O  O70  1  0.49035000  0.54344000  0.36210000  1.0
  O  O71  1  0.25047000  0.05202000  0.36859000  1.0
  O  O72  1  0.88376000  0.99407000  0.69899000  1.0
  O  O73  1  0.76515000  0.12258000  0.50922000  1.0
  O  O74  1  0.20946000  0.89312000  0.48248000  1.0
