# generated using pymatgen
data_LuH7C8SO9
_symmetry_space_group_name_H-M   'P 1'
_cell_length_a   6.33412000
_cell_length_b   8.48187000
_cell_length_c   10.53900000
_cell_angle_alpha   89.79220000
_cell_angle_beta   79.80820000
_cell_angle_gamma   72.22170000
_symmetry_Int_Tables_number   1
_chemical_formula_structural   LuH7C8SO9
_chemical_formula_sum   'Lu2 H14 C16 S2 O18'
_cell_volume   529.89494146
_cell_formula_units_Z   2
loop_
 _symmetry_equiv_pos_site_id
 _symmetry_equiv_pos_as_xyz
  1  'x, y, z'
loop_
 _atom_site_type_symbol
 _atom_site_label
 _atom_site_symmetry_multiplicity
 _atom_site_fract_x
 _atom_site_fract_y
 _atom_site_fract_z
 _atom_site_occupancy
  Lu  Lu0  1  0.15562000  0.74671000  0.38023000  1.0
  Lu  Lu1  1  0.84438000  0.25329000  0.61977000  1.0
  H  H2  1  0.61665000  0.58869000  0.85534000  1.0
  H  H3  1  0.38334000  0.41132000  0.14465000  1.0
  H  H4  1  0.65598000  0.63310000  0.08155000  1.0
  H  H5  1  0.34400000  0.36692000  0.91845000  1.0
  H  H6  1  0.18529000  0.84553000  0.94291000  1.0
  H  H7  1  0.81471000  0.15447000  0.05709000  1.0
  H  H8  1  0.51867000  0.91479000  0.32218000  1.0
  H  H9  1  0.48133000  0.08520000  0.67782000  1.0
  H  H10  1  0.28746000  0.04177000  0.39273000  1.0
  H  H11  1  0.71254000  0.95823000  0.60727000  1.0
  H  H12  1  0.65168000  0.64081000  0.29238000  1.0
  H  H13  1  0.34832000  0.35919000  0.70762000  1.0
  H  H14  1  0.57883000  0.48901000  0.35517000  1.0
  H  H15  1  0.42116000  0.51099000  0.64484000  1.0
  C  C16  1  0.02452000  0.77656000  0.79778000  1.0
  C  C17  1  0.97548000  0.22343000  0.20222000  1.0
  C  C18  1  0.86959000  0.69760000  0.77121000  1.0
  C  C19  1  0.13042000  0.30240000  0.22879000  1.0
  C  C20  1  0.73708000  0.64900000  0.87569000  1.0
  C  C21  1  0.26292000  0.35101000  0.12431000  1.0
  C  C22  1  0.76032000  0.67327000  0.00246000  1.0
  C  C23  1  0.23967000  0.32674000  0.99754000  1.0
  C  C24  1  0.92556000  0.74159000  0.02659000  1.0
  C  C25  1  0.07444000  0.25841000  0.97341000  1.0
  C  C26  1  0.05516000  0.79461000  0.92386000  1.0
  C  C27  1  0.94483000  0.20539000  0.07614000  1.0
  C  C28  1  0.84866000  0.65497000  0.63633000  1.0
  C  C29  1  0.15134000  0.34503000  0.36367000  1.0
  C  C30  1  0.98524000  0.74716000  0.15669000  1.0
  C  C31  1  0.01476000  0.25284000  0.84331000  1.0
  S  S32  1  0.21108000  0.84169000  0.67629000  1.0
  S  S33  1  0.78892000  0.15831000  0.32371000  1.0
  O  O34  1  0.08041000  0.98898000  0.61754000  1.0
  O  O35  1  0.91960000  0.01103000  0.38246000  1.0
  O  O36  1  0.30390000  0.70238000  0.57576000  1.0
  O  O37  1  0.69611000  0.29762000  0.42425000  1.0
  O  O38  1  0.37989000  0.87289000  0.74006000  1.0
  O  O39  1  0.62012000  0.12711000  0.25995000  1.0
  O  O40  1  0.86305000  0.75788000  0.54865000  1.0
  O  O41  1  0.13694000  0.24211000  0.45135000  1.0
  O  O42  1  0.81976000  0.51742000  0.61625000  1.0
  O  O43  1  0.18023000  0.48257000  0.38375000  1.0
  O  O44  1  0.17446000  0.76786000  0.16378000  1.0
  O  O45  1  0.82554000  0.23214000  0.83621000  1.0
  O  O46  1  0.85665000  0.72811000  0.26032000  1.0
  O  O47  1  0.14335000  0.27189000  0.73967000  1.0
  O  O48  1  0.36351000  0.92405000  0.36172000  1.0
  O  O49  1  0.63648000  0.07595000  0.63828000  1.0
  O  O50  1  0.52583000  0.59109000  0.30895000  1.0
  O  O51  1  0.47416000  0.40891000  0.69106000  1.0
