# generated using pymatgen
data_CuSiH20C24N4(O2F3)2
_symmetry_space_group_name_H-M   'P 1'
_cell_length_a   8.03313000
_cell_length_b   13.59440000
_cell_length_c   13.59440000
_cell_angle_alpha   89.73910000
_cell_angle_beta   86.17110000
_cell_angle_gamma   86.17100000
_symmetry_Int_Tables_number   1
_chemical_formula_structural   CuSiH20C24N4(O2F3)2
_chemical_formula_sum   'Cu1 Si1 H20 C24 N4 O4 F6'
_cell_volume   1477.96414406
_cell_formula_units_Z   1
loop_
 _symmetry_equiv_pos_site_id
 _symmetry_equiv_pos_as_xyz
  1  'x, y, z'
loop_
 _atom_site_type_symbol
 _atom_site_label
 _atom_site_symmetry_multiplicity
 _atom_site_fract_x
 _atom_site_fract_y
 _atom_site_fract_z
 _atom_site_occupancy
  Cu  Cu0  1  0.49999000  0.50000000  0.50000000  1.0
  Si  Si1  1  0.99999000  0.50000000  0.50000000  1.0
  H  H2  1  0.26132000  0.49987000  0.34103000  1.0
  H  H3  1  0.27098000  0.49979000  0.16069000  1.0
  H  H4  1  0.81295000  0.50017000  0.16490000  1.0
  H  H5  1  0.77910000  0.50011000  0.34159000  1.0
  H  H6  1  0.18703000  0.49982000  0.83510000  1.0
  H  H7  1  0.72900000  0.50020000  0.83931000  1.0
  H  H8  1  0.73867000  0.50014000  0.65896000  1.0
  H  H9  1  0.22088000  0.49988000  0.65841000  1.0
  H  H10  1  0.26132000  0.34103000  0.49986000  1.0
  H  H11  1  0.27098000  0.16069000  0.49979000  1.0
  H  H12  1  0.81295000  0.16490000  0.50017000  1.0
  H  H13  1  0.77910000  0.34159000  0.50011000  1.0
  H  H14  1  0.18703000  0.83510000  0.49982000  1.0
  H  H15  1  0.72900000  0.83931000  0.50020000  1.0
  H  H16  1  0.73868000  0.65896000  0.50014000  1.0
  H  H17  1  0.22088000  0.65841000  0.49988000  1.0
  H  H18  1  0.79915000  0.49998000  0.04495000  1.0
  H  H19  1  0.20084000  0.50001000  0.95504000  1.0
  H  H20  1  0.79915000  0.04496000  0.49998000  1.0
  H  H21  1  0.20084000  0.95504000  0.50002000  1.0
  C  C22  1  0.38101000  0.49994000  0.29837000  1.0
  C  C23  1  0.38756000  0.49992000  0.19614000  1.0
  C  C24  1  0.54236000  0.50002000  0.14047000  1.0
  C  C25  1  0.68424000  0.50010000  0.19670000  1.0
  C  C26  1  0.66898000  0.50009000  0.29897000  1.0
  C  C27  1  0.56274000  0.50003000  0.03241000  1.0
  C  C28  1  0.43725000  0.49997000  0.96759000  1.0
  C  C29  1  0.31574000  0.49989000  0.80330000  1.0
  C  C30  1  0.45763000  0.49997000  0.85953000  1.0
  C  C31  1  0.61242000  0.50007000  0.80385000  1.0
  C  C32  1  0.61897000  0.50006000  0.70163000  1.0
  C  C33  1  0.33100000  0.49990000  0.70103000  1.0
  C  C34  1  0.38101000  0.29837000  0.49994000  1.0
  C  C35  1  0.38756000  0.19614000  0.49992000  1.0
  C  C36  1  0.54236000  0.14047000  0.50002000  1.0
  C  C37  1  0.68424000  0.19670000  0.50010000  1.0
  C  C38  1  0.66898000  0.29897000  0.50009000  1.0
  C  C39  1  0.56274000  0.03241000  0.50003000  1.0
  C  C40  1  0.43725000  0.96759000  0.49997000  1.0
  C  C41  1  0.31574000  0.80330000  0.49988000  1.0
  C  C42  1  0.45763000  0.85952000  0.49997000  1.0
  C  C43  1  0.61242000  0.80385000  0.50007000  1.0
  C  C44  1  0.61898000  0.70163000  0.50006000  1.0
  C  C45  1  0.33101000  0.70103000  0.49990000  1.0
  N  N46  1  0.51906000  0.50002000  0.34962000  1.0
  N  N47  1  0.48093000  0.49998000  0.65038000  1.0
  N  N48  1  0.51906000  0.34962000  0.50002000  1.0
  N  N49  1  0.48093000  0.65038000  0.49998000  1.0
  O  O50  1  0.72428000  0.50008000  0.99158000  1.0
  O  O51  1  0.27571000  0.49991000  0.00842000  1.0
  O  O52  1  0.72428000  0.99158000  0.50008000  1.0
  O  O53  1  0.27571000  0.00842000  0.49991000  1.0
  F  F54  1  0.21582000  0.49944000  0.49944000  1.0
  F  F55  1  0.78417000  0.50056000  0.50056000  1.0
  F  F56  1  0.00001000  0.58927000  0.41073000  1.0
  F  F57  1  0.99999000  0.41072000  0.58928000  1.0
  F  F58  1  0.01864000  0.41073000  0.41074000  1.0
  F  F59  1  0.98135000  0.58927000  0.58927000  1.0
