# generated using pymatgen
data_ZnH10C24(N2O3)2
_symmetry_space_group_name_H-M   'P 1'
_cell_length_a   9.56724000
_cell_length_b   10.80480000
_cell_length_c   23.76420000
_cell_angle_alpha   89.81540000
_cell_angle_beta   89.63080000
_cell_angle_gamma   90.58330000
_symmetry_Int_Tables_number   1
_chemical_formula_structural   ZnH10C24(N2O3)2
_chemical_formula_sum   'Zn2 H20 C48 N8 O12'
_cell_volume   2456.36403518
_cell_formula_units_Z   2
loop_
 _symmetry_equiv_pos_site_id
 _symmetry_equiv_pos_as_xyz
  1  'x, y, z'
loop_
 _atom_site_type_symbol
 _atom_site_label
 _atom_site_symmetry_multiplicity
 _atom_site_fract_x
 _atom_site_fract_y
 _atom_site_fract_z
 _atom_site_occupancy
  Zn  Zn0  1  0.65005000  0.50199000  0.49853000  1.0
  Zn  Zn1  1  0.35089000  0.50126000  0.49984000  1.0
  H  H2  1  0.58599000  0.80305000  0.94610000  1.0
  H  H3  1  0.47282000  0.18653000  0.05302000  1.0
  H  H4  1  0.89923000  0.69976000  0.52118000  1.0
  H  H5  1  0.10123000  0.30404000  0.47411000  1.0
  H  H6  1  0.09412000  0.65099000  0.43060000  1.0
  H  H7  1  0.90649000  0.35203000  0.56407000  1.0
  H  H8  1  0.90957000  0.44445000  0.40633000  1.0
  H  H9  1  0.09134000  0.56159000  0.58871000  1.0
  H  H10  1  0.58146000  0.80286000  0.05279000  1.0
  H  H11  1  0.47452000  0.18715000  0.94637000  1.0
  H  H12  1  0.29374000  0.48067000  0.21144000  1.0
  H  H13  1  0.32089000  0.57716000  0.78942000  1.0
  H  H14  1  0.72906000  0.51803000  0.32302000  1.0
  H  H15  1  0.71571000  0.42206000  0.67404000  1.0
  H  H16  1  0.74218000  0.51127000  0.21782000  1.0
  H  H17  1  0.73063000  0.41791000  0.77930000  1.0
  H  H18  1  0.41386000  0.08008000  0.59217000  1.0
  H  H19  1  0.58368000  0.92189000  0.41154000  1.0
  H  H20  1  0.65786000  0.93240000  0.57623000  1.0
  H  H21  1  0.34148000  0.07054000  0.42755000  1.0
  C  C22  1  0.50667000  0.73824000  0.50249000  1.0
  C  C23  1  0.49090000  0.26443000  0.49877000  1.0
  C  C24  1  0.38937000  0.48812000  0.23584000  1.0
  C  C25  1  0.40737000  0.54208000  0.76432000  1.0
  C  C26  1  0.38215000  0.49029000  0.29491000  1.0
  C  C27  1  0.39849000  0.54296000  0.70532000  1.0
  C  C28  1  0.50624000  0.50138000  0.32647000  1.0
  C  C29  1  0.51079000  0.49864000  0.67250000  1.0
  C  C30  1  0.63447000  0.50910000  0.29804000  1.0
  C  C31  1  0.62954000  0.45487000  0.69997000  1.0
  C  C32  1  0.64170000  0.50550000  0.23958000  1.0
  C  C33  1  0.63799000  0.45307000  0.75842000  1.0
  C  C34  1  0.51845000  0.49551000  0.20888000  1.0
  C  C35  1  0.52613000  0.49687000  0.79025000  1.0
  C  C36  1  0.58672000  0.96383000  0.54351000  1.0
  C  C37  1  0.41218000  0.03847000  0.46030000  1.0
  C  C38  1  0.45297000  0.04392000  0.55225000  1.0
  C  C39  1  0.54554000  0.95857000  0.45152000  1.0
  C  C40  1  0.49627000  0.12652000  0.50056000  1.0
  C  C41  1  0.50329000  0.87603000  0.50371000  1.0
  C  C42  1  0.63201000  0.04678000  0.49147000  1.0
  C  C43  1  0.36685000  0.95557000  0.51219000  1.0
  C  C44  1  0.50427000  0.50450000  0.38978000  1.0
  C  C45  1  0.50679000  0.49701000  0.60910000  1.0
  C  C46  1  0.04657000  0.58515000  0.46009000  1.0
  C  C47  1  0.95425000  0.41882000  0.53503000  1.0
  C  C48  1  0.95004000  0.61286000  0.51079000  1.0
  C  C49  1  0.05077000  0.39117000  0.48435000  1.0
  C  C50  1  0.95535000  0.47001000  0.44659000  1.0
  C  C51  1  0.04524000  0.53424000  0.54864000  1.0
  C  C52  1  0.50978000  0.38038000  0.87797000  1.0
  C  C53  1  0.54472000  0.60988000  0.12110000  1.0
  C  C54  1  0.55355000  0.61055000  0.87792000  1.0
  C  C55  1  0.50518000  0.37917000  0.12130000  1.0
  C  C56  1  0.55195000  0.60794000  0.94034000  1.0
  C  C57  1  0.50810000  0.38149000  0.05887000  1.0
  C  C58  1  0.53096000  0.49481000  0.96959000  1.0
  C  C59  1  0.52916000  0.49460000  0.02959000  1.0
  C  C60  1  0.51092000  0.38202000  0.94040000  1.0
  C  C61  1  0.54775000  0.60766000  0.05872000  1.0
  C  C62  1  0.57025000  0.71760000  0.96993000  1.0
  C  C63  1  0.48916000  0.27197000  0.02923000  1.0
  C  C64  1  0.56790000  0.71748000  0.02903000  1.0
  C  C65  1  0.49030000  0.27227000  0.97011000  1.0
  C  C66  1  0.24520000  0.48378000  0.31946000  1.0
  C  C67  1  0.27159000  0.59018000  0.68263000  1.0
  C  C68  1  0.76895000  0.09501000  0.48074000  1.0
  C  C69  1  0.23080000  0.90520000  0.52257000  1.0
  N  N70  1  0.53156000  0.49569000  0.85092000  1.0
  N  N71  1  0.52359000  0.49453000  0.14819000  1.0
  N  N72  1  0.85904000  0.49777000  0.49736000  1.0
  N  N73  1  0.14179000  0.50609000  0.49793000  1.0
  N  N74  1  0.12719000  0.47975000  0.33242000  1.0
  N  N75  1  0.16206000  0.63055000  0.67179000  1.0
  N  N76  1  0.88201000  0.13301000  0.47233000  1.0
  N  N77  1  0.11937000  0.86364000  0.53100000  1.0
  O  O78  1  0.62098000  0.68730000  0.51582000  1.0
  O  O79  1  0.37515000  0.31315000  0.51239000  1.0
  O  O80  1  0.39481000  0.68482000  0.48678000  1.0
  O  O81  1  0.60235000  0.32000000  0.48357000  1.0
  O  O82  1  0.61750000  0.53687000  0.41351000  1.0
  O  O83  1  0.39254000  0.52674000  0.58596000  1.0
  O  O84  1  0.39024000  0.47381000  0.41384000  1.0
  O  O85  1  0.61878000  0.46563000  0.58413000  1.0
  O  O86  1  0.49023000  0.28575000  0.85056000  1.0
  O  O87  1  0.55880000  0.70525000  0.14851000  1.0
  O  O88  1  0.57207000  0.70579000  0.85046000  1.0
  O  O89  1  0.48770000  0.28388000  0.14882000  1.0
