# generated using pymatgen
data_Zn2H12C14N2O11
_symmetry_space_group_name_H-M   'P 1'
_cell_length_a   7.78424000
_cell_length_b   8.01266000
_cell_length_c   14.22670000
_cell_angle_alpha   91.78480000
_cell_angle_beta   97.91230000
_cell_angle_gamma   113.02600000
_symmetry_Int_Tables_number   1
_chemical_formula_structural   Zn2H12C14N2O11
_chemical_formula_sum   'Zn4 H24 C28 N4 O22'
_cell_volume   805.35858513
_cell_formula_units_Z   2
loop_
 _symmetry_equiv_pos_site_id
 _symmetry_equiv_pos_as_xyz
  1  'x, y, z'
loop_
 _atom_site_type_symbol
 _atom_site_label
 _atom_site_symmetry_multiplicity
 _atom_site_fract_x
 _atom_site_fract_y
 _atom_site_fract_z
 _atom_site_occupancy
  Zn  Zn0  1  0.93865000  0.05686000  0.79270000  1.0
  Zn  Zn1  1  0.06135000  0.94315000  0.20730000  1.0
  Zn  Zn2  1  0.52951000  0.17236000  0.28965000  1.0
  Zn  Zn3  1  0.47049000  0.82764000  0.71035000  1.0
  H  H4  1  0.12421000  0.97971000  0.65819000  1.0
  H  H5  1  0.87579000  0.02029000  0.34181000  1.0
  H  H6  1  0.98648000  0.07773000  0.61472000  1.0
  H  H7  1  0.01352000  0.92227000  0.38528000  1.0
  H  H8  1  0.84014000  0.50611000  0.28009000  1.0
  H  H9  1  0.15986000  0.49389000  0.71991000  1.0
  H  H10  1  0.62950000  0.48894000  0.22642000  1.0
  H  H11  1  0.37050000  0.51106000  0.77358000  1.0
  H  H12  1  0.49550000  0.09016000  0.10574000  1.0
  H  H13  1  0.50451000  0.90984000  0.89426000  1.0
  H  H14  1  0.64636000  0.00967000  0.15332000  1.0
  H  H15  1  0.35364000  0.99033000  0.84668000  1.0
  H  H16  1  0.70186000  0.23652000  0.88354000  1.0
  H  H17  1  0.29814000  0.76349000  0.11646000  1.0
  H  H18  1  0.70983000  0.36278000  0.04749000  1.0
  H  H19  1  0.29017000  0.63722000  0.95251000  1.0
  H  H20  1  0.98621000  0.40110000  0.17484000  1.0
  H  H21  1  0.01379000  0.59890000  0.82516000  1.0
  H  H22  1  0.24177000  0.27482000  0.39033000  1.0
  H  H23  1  0.75823000  0.72518000  0.60967000  1.0
  H  H24  1  0.22194000  0.34759000  0.56048000  1.0
  H  H25  1  0.77807000  0.65241000  0.43952000  1.0
  H  H26  1  0.47067000  0.33871000  0.68936000  1.0
  H  H27  1  0.52934000  0.66130000  0.31064000  1.0
  C  C28  1  0.81751000  0.25437000  0.94072000  1.0
  C  C29  1  0.18248000  0.74563000  0.05928000  1.0
  C  C30  1  0.82403000  0.32518000  0.03255000  1.0
  C  C31  1  0.17597000  0.67483000  0.96744000  1.0
  C  C32  1  0.97569000  0.34510000  0.10244000  1.0
  C  C33  1  0.02431000  0.65490000  0.89756000  1.0
  C  C34  1  0.11931000  0.29506000  0.07898000  1.0
  C  C35  1  0.88069000  0.70494000  0.92102000  1.0
  C  C36  1  0.10058000  0.22009000  0.98622000  1.0
  C  C37  1  0.89943000  0.77991000  0.01378000  1.0
  C  C38  1  0.24020000  0.14997000  0.95541000  1.0
  C  C39  1  0.75981000  0.85004000  0.04459000  1.0
  C  C40  1  0.28967000  0.32840000  0.15308000  1.0
  C  C41  1  0.71033000  0.67160000  0.84692000  1.0
  C  C42  1  0.34701000  0.27346000  0.44894000  1.0
  C  C43  1  0.65299000  0.72654000  0.55106000  1.0
  C  C44  1  0.33718000  0.31411000  0.54344000  1.0
  C  C45  1  0.66282000  0.68589000  0.45656000  1.0
  C  C46  1  0.47554000  0.30901000  0.61480000  1.0
  C  C47  1  0.52447000  0.69099000  0.38520000  1.0
  C  C48  1  0.62234000  0.26506000  0.59089000  1.0
  C  C49  1  0.37766000  0.73494000  0.40911000  1.0
  C  C50  1  0.62136000  0.22370000  0.49438000  1.0
  C  C51  1  0.37864000  0.77630000  0.50562000  1.0
  C  C52  1  0.76654000  0.16447000  0.46075000  1.0
  C  C53  1  0.23346000  0.83553000  0.53925000  1.0
  C  C54  1  0.77247000  0.26378000  0.66972000  1.0
  C  C55  1  0.22753000  0.73622000  0.33028000  1.0
  N  N56  1  0.95142000  0.20054000  0.91923000  1.0
  N  N57  1  0.04858000  0.79946000  0.08077000  1.0
  N  N58  1  0.48555000  0.22878000  0.42580000  1.0
  N  N59  1  0.51444000  0.77122000  0.57419000  1.0
  O  O60  1  0.19897000  0.07452000  0.86924000  1.0
  O  O61  1  0.80103000  0.92548000  0.13076000  1.0
  O  O62  1  0.04962000  0.05178000  0.67441000  1.0
  O  O63  1  0.95038000  0.94821000  0.32559000  1.0
  O  O64  1  0.38236000  0.16607000  0.01371000  1.0
  O  O65  1  0.61765000  0.83393000  0.98629000  1.0
  O  O66  1  0.70085000  0.44328000  0.27491000  1.0
  O  O67  1  0.29915000  0.55672000  0.72509000  1.0
  O  O68  1  0.54842000  0.05640000  0.16570000  1.0
  O  O69  1  0.45158000  0.94360000  0.83430000  1.0
  O  O70  1  0.27724000  0.20144000  0.21033000  1.0
  O  O71  1  0.72276000  0.79856000  0.78967000  1.0
  O  O72  1  0.42594000  0.47878000  0.15888000  1.0
  O  O73  1  0.57405000  0.52122000  0.84112000  1.0
  O  O74  1  0.74661000  0.12504000  0.37004000  1.0
  O  O75  1  0.25339000  0.87495000  0.62996000  1.0
  O  O76  1  0.89455000  0.15437000  0.52043000  1.0
  O  O77  1  0.10545000  0.84563000  0.47957000  1.0
  O  O78  1  0.73158000  0.11458000  0.71072000  1.0
  O  O79  1  0.26842000  0.88541000  0.28928000  1.0
  O  O80  1  0.91723000  0.40730000  0.69400000  1.0
  O  O81  1  0.08277000  0.59270000  0.30600000  1.0
