# generated using pymatgen
data_ZnSiH12C24N8(O4F3)2
_symmetry_space_group_name_H-M   'P 1'
_cell_length_a   7.69538000
_cell_length_b   14.03300000
_cell_length_c   14.03310000
_cell_angle_alpha   90.09100000
_cell_angle_beta   90.03470000
_cell_angle_gamma   89.96530000
_symmetry_Int_Tables_number   1
_chemical_formula_structural   ZnSiH12C24N8(O4F3)2
_chemical_formula_sum   'Zn1 Si1 H12 C24 N8 O8 F6'
_cell_volume   1515.42172400
_cell_formula_units_Z   1
loop_
 _symmetry_equiv_pos_site_id
 _symmetry_equiv_pos_as_xyz
  1  'x, y, z'
loop_
 _atom_site_type_symbol
 _atom_site_label
 _atom_site_symmetry_multiplicity
 _atom_site_fract_x
 _atom_site_fract_y
 _atom_site_fract_z
 _atom_site_occupancy
  Zn  Zn0  1  0.49999000  0.50104000  0.50103000  1.0
  Si  Si1  1  0.99998000  0.49968000  0.49967000  1.0
  H  H2  1  0.76854000  0.66542000  0.49906000  1.0
  H  H3  1  0.77629000  0.84211000  0.49655000  1.0
  H  H4  1  0.22635000  0.66293000  0.50978000  1.0
  H  H5  1  0.77351000  0.33828000  0.51044000  1.0
  H  H6  1  0.23144000  0.33558000  0.49859000  1.0
  H  H7  1  0.22393000  0.15892000  0.49600000  1.0
  H  H8  1  0.76852000  0.49874000  0.33557000  1.0
  H  H9  1  0.77605000  0.49609000  0.15893000  1.0
  H  H10  1  0.22645000  0.51038000  0.33826000  1.0
  H  H11  1  0.77366000  0.50979000  0.66293000  1.0
  H  H12  1  0.23147000  0.49900000  0.66539000  1.0
  H  H13  1  0.22369000  0.49650000  0.84209000  1.0
  C  C14  1  0.64800000  0.70618000  0.49916000  1.0
  C  C15  1  0.65195000  0.80509000  0.49662000  1.0
  C  C16  1  0.49519000  0.85684000  0.49508000  1.0
  C  C17  1  0.34158000  0.80243000  0.49996000  1.0
  C  C18  1  0.34663000  0.70369000  0.50500000  1.0
  C  C19  1  0.49582000  0.95722000  0.49298000  1.0
  C  C20  1  0.50458000  0.04384000  0.49302000  1.0
  C  C21  1  0.50501000  0.14422000  0.49517000  1.0
  C  C22  1  0.65840000  0.19881000  0.50040000  1.0
  C  C23  1  0.65321000  0.29757000  0.50538000  1.0
  C  C24  1  0.35206000  0.29493000  0.49893000  1.0
  C  C25  1  0.34824000  0.19599000  0.49635000  1.0
  C  C26  1  0.64792000  0.49903000  0.29493000  1.0
  C  C27  1  0.65173000  0.49642000  0.19598000  1.0
  C  C28  1  0.49498000  0.49516000  0.14421000  1.0
  C  C29  1  0.34156000  0.50035000  0.19880000  1.0
  C  C30  1  0.34676000  0.50535000  0.29755000  1.0
  C  C31  1  0.49541000  0.49299000  0.04382000  1.0
  C  C32  1  0.50412000  0.49296000  0.95722000  1.0
  C  C33  1  0.50477000  0.49506000  0.85683000  1.0
  C  C34  1  0.65840000  0.49997000  0.80242000  1.0
  C  C35  1  0.65338000  0.50501000  0.70369000  1.0
  C  C36  1  0.35200000  0.49912000  0.70617000  1.0
  C  C37  1  0.34803000  0.49657000  0.80507000  1.0
  N  N38  1  0.49817000  0.65604000  0.50244000  1.0
  N  N39  1  0.50172000  0.34530000  0.50247000  1.0
  N  N40  1  0.49823000  0.50251000  0.34530000  1.0
  N  N41  1  0.50184000  0.50243000  0.65604000  1.0
  N  N42  1  0.17020000  0.84823000  0.49874000  1.0
  N  N43  1  0.82993000  0.15309000  0.49953000  1.0
  N  N44  1  0.17006000  0.49942000  0.15306000  1.0
  N  N45  1  0.82978000  0.49876000  0.84824000  1.0
  O  O46  1  0.14488000  0.91053000  0.43805000  1.0
  O  O47  1  0.06303000  0.81986000  0.55823000  1.0
  O  O48  1  0.85616000  0.09127000  0.43829000  1.0
  O  O49  1  0.93627000  0.18106000  0.55983000  1.0
  O  O50  1  0.14389000  0.43813000  0.09131000  1.0
  O  O51  1  0.06370000  0.55974000  0.18098000  1.0
  O  O52  1  0.85512000  0.43809000  0.91055000  1.0
  O  O53  1  0.93693000  0.55827000  0.81986000  1.0
  F  F54  1  0.77064000  0.50035000  0.49893000  1.0
  F  F55  1  0.22934000  0.49893000  0.50035000  1.0
  F  F56  1  0.99999000  0.58505000  0.58503000  1.0
  F  F57  1  0.00000000  0.41398000  0.41400000  1.0
  F  F58  1  0.00172000  0.58506000  0.41429000  1.0
  F  F59  1  0.99825000  0.41430000  0.58506000  1.0
