# generated using pymatgen
data_HgH14C18N4(ClO)2
_symmetry_space_group_name_H-M   'P 1'
_cell_length_a   8.33532000
_cell_length_b   9.18415000
_cell_length_c   11.46420000
_cell_angle_alpha   89.99980000
_cell_angle_beta   85.81420000
_cell_angle_gamma   89.99990000
_symmetry_Int_Tables_number   1
_chemical_formula_structural   HgH14C18N4(ClO)2
_chemical_formula_sum   'Hg2 H28 C36 N8 Cl4 O4'
_cell_volume   875.27598681
_cell_formula_units_Z   2
loop_
 _symmetry_equiv_pos_site_id
 _symmetry_equiv_pos_as_xyz
  1  'x, y, z'
loop_
 _atom_site_type_symbol
 _atom_site_label
 _atom_site_symmetry_multiplicity
 _atom_site_fract_x
 _atom_site_fract_y
 _atom_site_fract_z
 _atom_site_occupancy
  Hg  Hg0  1  0.00000000  0.00000000  0.00000000  1.0
  Hg  Hg1  1  0.50000000  0.50000000  0.50000000  1.0
  H  H2  1  0.64285000  0.90302000  0.40265000  1.0
  H  H3  1  0.85716000  0.40302000  0.09735000  1.0
  H  H4  1  0.35716000  0.09698000  0.59735000  1.0
  H  H5  1  0.14285000  0.59698000  0.90265000  1.0
  H  H6  1  0.31725000  0.20273000  0.04495000  1.0
  H  H7  1  0.18275000  0.70273000  0.45505000  1.0
  H  H8  1  0.68275000  0.79727000  0.95505000  1.0
  H  H9  1  0.81725000  0.29727000  0.54495000  1.0
  H  H10  1  0.58902000  0.21231000  0.12756000  1.0
  H  H11  1  0.91099000  0.71231000  0.37243000  1.0
  H  H12  1  0.41098000  0.78769000  0.87244000  1.0
  H  H13  1  0.08901000  0.28769000  0.62757000  1.0
  H  H14  1  0.50010000  0.77967000  0.26421000  1.0
  H  H15  1  0.99990000  0.27967000  0.23579000  1.0
  H  H16  1  0.49990000  0.22032000  0.73580000  1.0
  H  H17  1  0.00010000  0.72033000  0.76420000  1.0
  H  H18  1  0.23574000  0.78611000  0.17235000  1.0
  H  H19  1  0.26426000  0.28611000  0.32764000  1.0
  H  H20  1  0.76426000  0.21388000  0.82765000  1.0
  H  H21  1  0.73574000  0.71389000  0.67236000  1.0
  H  H22  1  0.05293000  0.99605000  0.28417000  1.0
  H  H23  1  0.44708000  0.49605000  0.21583000  1.0
  H  H24  1  0.94708000  0.00395000  0.71583000  1.0
  H  H25  1  0.55292000  0.50395000  0.78417000  1.0
  H  H26  1  0.72272000  0.96428000  0.58966000  1.0
  H  H27  1  0.77729000  0.46428000  0.91034000  1.0
  H  H28  1  0.27729000  0.03572000  0.41034000  1.0
  H  H29  1  0.22272000  0.53572000  0.08965000  1.0
  C  C30  1  0.36301000  0.11165000  0.09396000  1.0
  C  C31  1  0.13700000  0.61165000  0.40604000  1.0
  C  C32  1  0.63700000  0.88835000  0.90605000  1.0
  C  C33  1  0.86300000  0.38835000  0.59396000  1.0
  C  C34  1  0.51213000  0.11733000  0.14024000  1.0
  C  C35  1  0.98788000  0.61733000  0.35976000  1.0
  C  C36  1  0.48787000  0.88267000  0.85977000  1.0
  C  C37  1  0.01212000  0.38267000  0.64024000  1.0
  C  C38  1  0.56314000  0.99909000  0.20510000  1.0
  C  C39  1  0.93687000  0.49909000  0.29489000  1.0
  C  C40  1  0.43687000  0.00091000  0.79490000  1.0
  C  C41  1  0.06313000  0.50091000  0.70510000  1.0
  C  C42  1  0.46365000  0.87669000  0.21812000  1.0
  C  C43  1  0.03635000  0.37669000  0.28187000  1.0
  C  C44  1  0.53635000  0.12331000  0.78188000  1.0
  C  C45  1  0.96365000  0.62331000  0.71812000  1.0
  C  C46  1  0.31719000  0.87925000  0.16627000  1.0
  C  C47  1  0.18282000  0.37926000  0.33373000  1.0
  C  C48  1  0.68282000  0.12074000  0.83373000  1.0
  C  C49  1  0.81719000  0.62074000  0.66627000  1.0
  C  C50  1  0.72349000  0.01484000  0.25438000  1.0
  C  C51  1  0.77651000  0.51484000  0.24561000  1.0
  C  C52  1  0.27651000  0.98516000  0.74562000  1.0
  C  C53  1  0.22349000  0.48516000  0.75438000  1.0
  C  C54  1  0.87255000  0.97705000  0.42842000  1.0
  C  C55  1  0.62746000  0.47705000  0.07157000  1.0
  C  C56  1  0.12746000  0.02295000  0.57158000  1.0
  C  C57  1  0.37255000  0.52295000  0.92842000  1.0
  C  C58  1  0.02941000  0.99865000  0.37839000  1.0
  C  C59  1  0.47059000  0.49865000  0.12161000  1.0
  C  C60  1  0.97059000  0.00135000  0.62161000  1.0
  C  C61  1  0.52941000  0.50135000  0.87839000  1.0
  C  C62  1  0.84482000  0.97872000  0.55048000  1.0
  C  C63  1  0.65518000  0.47872000  0.94952000  1.0
  C  C64  1  0.15518000  0.02128000  0.44952000  1.0
  C  C65  1  0.34482000  0.52128000  0.05048000  1.0
  N  N66  1  0.26678000  0.99440000  0.10683000  1.0
  N  N67  1  0.23322000  0.49440000  0.39317000  1.0
  N  N68  1  0.73322000  0.00559000  0.89317000  1.0
  N  N69  1  0.76677000  0.50559000  0.60683000  1.0
  N  N70  1  0.74087000  0.95266000  0.36042000  1.0
  N  N71  1  0.75914000  0.45266000  0.13958000  1.0
  N  N72  1  0.25914000  0.04734000  0.63958000  1.0
  N  N73  1  0.24086000  0.54734000  0.86042000  1.0
  Cl  Cl74  1  0.03287000  0.25978000  0.95901000  1.0
  Cl  Cl75  1  0.46713000  0.75978000  0.54098000  1.0
  Cl  Cl76  1  0.96714000  0.74022000  0.04099000  1.0
  Cl  Cl77  1  0.53287000  0.24022000  0.45901000  1.0
  O  O78  1  0.83066000  0.08858000  0.20077000  1.0
  O  O79  1  0.66934000  0.58858000  0.29923000  1.0
  O  O80  1  0.16934000  0.91142000  0.79923000  1.0
  O  O81  1  0.33066000  0.41142000  0.70077000  1.0
