# generated using pymatgen
data_Zn4H17(C9O5)3
_symmetry_space_group_name_H-M   'P 1'
_cell_length_a   18.25750000
_cell_length_b   18.45780000
_cell_length_c   18.45780000
_cell_angle_alpha   60.57740000
_cell_angle_beta   60.35780000
_cell_angle_gamma   60.35770000
_symmetry_Int_Tables_number   1
_chemical_formula_structural   Zn4H17(C9O5)3
_chemical_formula_sum   'Zn8 H34 C54 O30'
_cell_volume   4441.12846773
_cell_formula_units_Z   2
loop_
 _symmetry_equiv_pos_site_id
 _symmetry_equiv_pos_as_xyz
  1  'x, y, z'
loop_
 _atom_site_type_symbol
 _atom_site_label
 _atom_site_symmetry_multiplicity
 _atom_site_fract_x
 _atom_site_fract_y
 _atom_site_fract_z
 _atom_site_occupancy
  Zn  Zn0  1  0.70831000  0.20156000  0.38182000  1.0
  Zn  Zn1  1  0.11830000  0.79391000  0.79419000  1.0
  Zn  Zn2  1  0.88170000  0.20581000  0.20609000  1.0
  Zn  Zn3  1  0.29361000  0.79392000  0.79419000  1.0
  Zn  Zn4  1  0.70584000  0.37587000  0.21243000  1.0
  Zn  Zn5  1  0.29415000  0.78757000  0.62413000  1.0
  Zn  Zn6  1  0.29169000  0.61817000  0.79844000  1.0
  Zn  Zn7  1  0.70639000  0.20581000  0.20608000  1.0
  H  H8  1  0.54763000  0.33101000  0.57372000  1.0
  H  H9  1  0.49963000  0.61380000  0.28952000  1.0
  H  H10  1  0.50039000  0.71047000  0.38621000  1.0
  H  H11  1  0.59706000  0.61379000  0.28952000  1.0
  H  H12  1  0.16797000  0.92725000  0.43727000  1.0
  H  H13  1  0.53250000  0.56273000  0.07274000  1.0
  H  H14  1  0.46751000  0.92725000  0.43727000  1.0
  H  H15  1  0.83202000  0.56273000  0.07275000  1.0
  H  H16  1  0.45237000  0.42629000  0.66899000  1.0
  H  H17  1  0.93093000  0.97094000  0.66046000  1.0
  H  H18  1  0.56232000  0.33954000  0.02907000  1.0
  H  H19  1  0.43769000  0.97093000  0.66046000  1.0
  H  H20  1  0.06906000  0.33955000  0.02907000  1.0
  H  H21  1  0.84043000  0.06425000  0.55908000  1.0
  H  H22  1  0.46376000  0.44092000  0.93575000  1.0
  H  H23  1  0.53625000  0.06424000  0.55908000  1.0
  H  H24  1  0.15956000  0.44092000  0.93576000  1.0
  H  H25  1  0.06934000  0.04549000  0.05089000  1.0
  H  H26  1  0.16572000  0.94911000  0.95450000  1.0
  H  H27  1  0.83428000  0.04551000  0.05089000  1.0
  H  H28  1  0.93066000  0.94912000  0.95450000  1.0
  H  H29  1  0.02087000  0.97344000  0.29896000  1.0
  H  H30  1  0.12283000  0.89280000  0.32034000  1.0
  H  H31  1  0.12642000  0.98111000  0.21700000  1.0
  H  H32  1  0.33598000  0.67965000  0.10720000  1.0
  H  H33  1  0.29326000  0.70105000  0.02655000  1.0
  H  H34  1  0.40296000  0.71049000  0.38621000  1.0
  H  H35  1  0.32454000  0.78301000  0.01888000  1.0
  H  H36  1  0.66405000  0.89280000  0.32034000  1.0
  H  H37  1  0.70675000  0.97345000  0.29895000  1.0
  H  H38  1  0.67549000  0.98111000  0.21699000  1.0
  H  H39  1  0.97913000  0.70105000  0.02656000  1.0
  H  H40  1  0.87717000  0.67967000  0.10720000  1.0
  H  H41  1  0.87358000  0.78301000  0.01888000  1.0
  C  C42  1  0.61153000  0.38611000  0.11339000  1.0
  C  C43  1  0.51741000  0.53537000  0.04319000  1.0
  C  C44  1  0.95406000  0.59220000  0.99226000  1.0
  C  C45  1  0.08988000  0.96283000  0.28802000  1.0
  C  C46  1  0.34073000  0.71198000  0.03716000  1.0
  C  C47  1  0.65929000  0.96283000  0.28802000  1.0
  C  C48  1  0.91012000  0.71199000  0.03717000  1.0
  C  C49  1  0.48259000  0.95681000  0.46462000  1.0
  C  C50  1  0.90402000  0.53538000  0.04320000  1.0
  C  C51  1  0.09597000  0.95680000  0.46463000  1.0
  C  C52  1  0.05516000  0.94333000  0.55512000  1.0
  C  C53  1  0.55360000  0.44488000  0.05666000  1.0
  C  C54  1  0.44640000  0.94334000  0.55511000  1.0
  C  C55  1  0.11103000  0.88660000  0.61390000  1.0
  C  C56  1  0.94483000  0.44489000  0.05667000  1.0
  C  C57  1  0.96244000  0.98182000  0.58984000  1.0
  C  C58  1  0.53410000  0.41016000  0.01818000  1.0
  C  C59  1  0.46590000  0.98182000  0.58984000  1.0
  C  C60  1  0.03755000  0.41017000  0.01819000  1.0
  C  C61  1  0.88896000  0.38611000  0.11340000  1.0
  C  C62  1  0.91245000  0.03326000  0.53353000  1.0
  C  C63  1  0.47925000  0.46646000  0.96673000  1.0
  C  C64  1  0.52076000  0.03326000  0.53353000  1.0
  C  C65  1  0.08755000  0.46647000  0.96675000  1.0
  C  C66  1  0.38847000  0.88661000  0.61389000  1.0
  C  C67  1  0.95224000  0.04768000  0.44214000  1.0
  C  C68  1  0.44205000  0.55786000  0.95232000  1.0
  C  C69  1  0.55796000  0.04766000  0.44214000  1.0
  C  C70  1  0.04776000  0.55786000  0.95233000  1.0
  C  C71  1  0.03990000  0.02357000  0.02963000  1.0
  C  C72  1  0.09310000  0.97037000  0.97642000  1.0
  C  C73  1  0.90689000  0.02358000  0.02962000  1.0
  C  C74  1  0.96010000  0.97038000  0.97642000  1.0
  C  C75  1  0.05345000  0.94359000  0.94950000  1.0
  C  C76  1  0.94654000  0.05050000  0.05641000  1.0
  C  C77  1  0.89305000  0.10665000  0.38653000  1.0
  C  C78  1  0.38623000  0.61346000  0.89335000  1.0
  C  C79  1  0.61377000  0.10664000  0.38653000  1.0
  C  C80  1  0.10695000  0.61347000  0.89336000  1.0
  C  C81  1  0.88934000  0.10833000  0.11298000  1.0
  C  C82  1  0.11065000  0.88702000  0.89167000  1.0
  C  C83  1  0.61198000  0.38178000  0.39424000  1.0
  C  C84  1  0.38802000  0.60576000  0.61822000  1.0
  C  C85  1  0.52673000  0.53058000  0.41596000  1.0
  C  C86  1  0.47327000  0.58404000  0.46942000  1.0
  C  C87  1  0.55505000  0.43875000  0.45113000  1.0
  C  C88  1  0.44496000  0.54887000  0.56124000  1.0
  C  C89  1  0.52667000  0.40256000  0.54408000  1.0
  C  C90  1  0.47332000  0.45592000  0.59744000  1.0
  C  C91  1  0.46976000  0.66885000  0.39167000  1.0
  C  C92  1  0.53027000  0.60832000  0.33115000  1.0
  C  C93  1  0.04594000  0.00774000  0.40781000  1.0
  C  C94  1  0.46150000  0.59219000  0.99224000  1.0
  C  C95  1  0.53851000  0.00775000  0.40780000  1.0
  O  O96  1  0.75064000  0.24661000  0.25210000  1.0
  O  O97  1  0.19539000  0.85876000  0.57621000  1.0
  O  O98  1  0.80460000  0.42380000  0.14124000  1.0
  O  O99  1  0.36962000  0.85879000  0.57620000  1.0
  O  O100  1  0.80885000  0.12859000  0.42777000  1.0
  O  O101  1  0.36520000  0.57223000  0.87141000  1.0
  O  O102  1  0.63481000  0.12858000  0.42777000  1.0
  O  O103  1  0.19115000  0.57223000  0.87142000  1.0
  O  O104  1  0.24936000  0.74790000  0.75339000  1.0
  O  O105  1  0.63531000  0.13133000  0.30309000  1.0
  O  O106  1  0.06972000  0.69692000  0.86869000  1.0
  O  O107  1  0.93028000  0.13131000  0.30309000  1.0
  O  O108  1  0.36468000  0.69691000  0.86868000  1.0
  O  O109  1  0.93014000  0.30319000  0.12976000  1.0
  O  O110  1  0.36308000  0.87026000  0.69682000  1.0
  O  O111  1  0.63691000  0.30318000  0.12974000  1.0
  O  O112  1  0.06985000  0.87024000  0.69682000  1.0
  O  O113  1  0.80493000  0.13058000  0.13481000  1.0
  O  O114  1  0.07033000  0.86518000  0.86942000  1.0
  O  O115  1  0.92967000  0.13058000  0.13481000  1.0
  O  O116  1  0.19507000  0.86520000  0.86942000  1.0
  O  O117  1  0.63330000  0.42225000  0.31109000  1.0
  O  O118  1  0.36668000  0.68892000  0.57774000  1.0
  O  O119  1  0.63478000  0.29830000  0.43214000  1.0
  O  O120  1  0.63038000  0.42379000  0.14121000  1.0
  O  O121  1  0.36522000  0.56787000  0.70170000  1.0
  O  O122  1  0.09272000  0.01814000  0.31976000  1.0
  O  O123  1  0.43062000  0.68024000  0.98185000  1.0
  O  O124  1  0.56939000  0.01813000  0.31976000  1.0
  O  O125  1  0.90728000  0.68024000  0.98186000  1.0
