# generated using pymatgen
data_CdBH12C13(N4O)2
_symmetry_space_group_name_H-M   'P 1'
_cell_length_a   8.68447000
_cell_length_b   9.70941000
_cell_length_c   10.84390000
_cell_angle_alpha   95.63080000
_cell_angle_beta   96.69100000
_cell_angle_gamma   105.62400000
_symmetry_Int_Tables_number   1
_chemical_formula_structural   CdBH12C13(N4O)2
_chemical_formula_sum   'Cd2 B2 H24 C26 N16 O4'
_cell_volume   866.53288355
_cell_formula_units_Z   2
loop_
 _symmetry_equiv_pos_site_id
 _symmetry_equiv_pos_as_xyz
  1  'x, y, z'
loop_
 _atom_site_type_symbol
 _atom_site_label
 _atom_site_symmetry_multiplicity
 _atom_site_fract_x
 _atom_site_fract_y
 _atom_site_fract_z
 _atom_site_occupancy
  Cd  Cd0  1  0.72751000  0.21872000  0.69279000  1.0
  Cd  Cd1  1  0.27251000  0.78128000  0.30722000  1.0
  B  B2  1  0.35749000  0.61971000  0.80479000  1.0
  B  B3  1  0.64251000  0.38029000  0.19521000  1.0
  H  H4  1  0.03467000  0.20448000  0.94973000  1.0
  H  H5  1  0.96534000  0.79550000  0.05026000  1.0
  H  H6  1  0.31672000  0.43111000  0.00101000  1.0
  H  H7  1  0.68329000  0.56888000  0.99900000  1.0
  H  H8  1  0.05680000  0.45201000  0.65166000  1.0
  H  H9  1  0.94321000  0.54799000  0.34835000  1.0
  H  H10  1  0.15907000  0.81759000  0.79873000  1.0
  H  H11  1  0.84091000  0.18241000  0.20126000  1.0
  H  H12  1  0.36198000  0.59338000  0.53801000  1.0
  H  H13  1  0.63800000  0.40660000  0.46200000  1.0
  H  H14  1  0.44883000  0.35503000  0.79086000  1.0
  H  H15  1  0.55119000  0.64498000  0.20914000  1.0
  H  H16  1  0.65273000  0.83329000  0.93932000  1.0
  H  H17  1  0.34725000  0.16671000  0.06068000  1.0
  H  H18  1  0.05104000  0.85848000  0.55734000  1.0
  H  H19  1  0.94896000  0.14153000  0.44264000  1.0
  H  H20  1  0.64766000  0.77969000  0.70911000  1.0
  H  H21  1  0.35234000  0.22031000  0.29089000  1.0
  H  H22  1  0.16962000  0.66215000  0.99733000  1.0
  H  H23  1  0.83037000  0.33784000  0.00267000  1.0
  H  H24  1  0.85767000  0.61717000  0.66908000  1.0
  H  H25  1  0.14233000  0.38285000  0.33091000  1.0
  H  H26  1  0.60926000  0.95541000  0.17151000  1.0
  H  H27  1  0.39073000  0.04458000  0.82849000  1.0
  C  C28  1  0.08116000  0.28982000  0.89481000  1.0
  C  C29  1  0.91885000  0.71017000  0.10520000  1.0
  C  C30  1  0.22178000  0.40123000  0.92098000  1.0
  C  C31  1  0.77822000  0.59877000  0.07903000  1.0
  C  C32  1  0.08865000  0.41474000  0.73945000  1.0
  C  C33  1  0.91134000  0.58527000  0.26056000  1.0
  C  C34  1  0.18428000  0.77745000  0.70876000  1.0
  C  C35  1  0.81570000  0.22255000  0.29123000  1.0
  C  C36  1  0.28945000  0.65829000  0.57468000  1.0
  C  C37  1  0.71054000  0.34169000  0.42532000  1.0
  C  C38  1  0.53452000  0.44845000  0.76663000  1.0
  C  C39  1  0.46549000  0.55156000  0.23338000  1.0
  C  C40  1  0.54694000  0.81648000  0.98604000  1.0
  C  C41  1  0.45304000  0.18354000  0.01395000  1.0
  C  C42  1  0.56008000  0.95113000  0.50518000  1.0
  C  C43  1  0.43995000  0.04886000  0.49482000  1.0
  C  C44  1  0.13028000  0.79540000  0.58870000  1.0
  C  C45  1  0.86973000  0.20460000  0.41129000  1.0
  C  C46  1  0.63995000  0.66942000  0.72525000  1.0
  C  C47  1  0.36004000  0.33059000  0.27475000  1.0
  C  C48  1  0.29393000  0.72908000  0.01288000  1.0
  C  C49  1  0.70606000  0.27090000  0.98712000  1.0
  C  C50  1  0.74242000  0.58643000  0.70335000  1.0
  C  C51  1  0.25759000  0.41358000  0.29665000  1.0
  C  C52  1  0.52373000  0.87754000  0.09975000  1.0
  C  C53  1  0.47625000  0.12248000  0.90024000  1.0
  N  N54  1  0.99846000  0.29957000  0.78062000  1.0
  N  N55  1  0.00154000  0.70042000  0.21940000  1.0
  N  N56  1  0.22581000  0.48094000  0.82141000  1.0
  N  N57  1  0.77419000  0.51906000  0.17860000  1.0
  N  N58  1  0.28678000  0.69058000  0.69932000  1.0
  N  N59  1  0.71321000  0.30942000  0.30068000  1.0
  N  N60  1  0.39989000  0.72087000  0.93114000  1.0
  N  N61  1  0.60010000  0.27913000  0.06886000  1.0
  N  N62  1  0.50726000  0.58031000  0.76657000  1.0
  N  N63  1  0.49274000  0.41969000  0.23343000  1.0
  N  N64  1  0.19674000  0.71955000  0.50530000  1.0
  N  N65  1  0.80326000  0.28044000  0.49469000  1.0
  N  N66  1  0.67527000  0.44842000  0.72978000  1.0
  N  N67  1  0.32474000  0.55159000  0.27023000  1.0
  N  N68  1  0.36411000  0.82229000  0.11529000  1.0
  N  N69  1  0.63588000  0.17772000  0.88471000  1.0
  O  O70  1  0.67146000  0.98310000  0.59945000  1.0
  O  O71  1  0.32856000  0.01693000  0.40056000  1.0
  O  O72  1  0.53773000  0.84639000  0.41985000  1.0
  O  O73  1  0.46229000  0.15359000  0.58015000  1.0
