# generated using pymatgen
data_ZnH6C12(N2O)2
_symmetry_space_group_name_H-M   'P 1'
_cell_length_a   4.81954000
_cell_length_b   10.52040000
_cell_length_c   10.73230000
_cell_angle_alpha   89.99990000
_cell_angle_beta   89.99990000
_cell_angle_gamma   81.29350000
_symmetry_Int_Tables_number   1
_chemical_formula_structural   ZnH6C12(N2O)2
_chemical_formula_sum   'Zn2 H12 C24 N8 O4'
_cell_volume   537.89448487
_cell_formula_units_Z   2
loop_
 _symmetry_equiv_pos_site_id
 _symmetry_equiv_pos_as_xyz
  1  'x, y, z'
loop_
 _atom_site_type_symbol
 _atom_site_label
 _atom_site_symmetry_multiplicity
 _atom_site_fract_x
 _atom_site_fract_y
 _atom_site_fract_z
 _atom_site_occupancy
  Zn  Zn0  1  0.22594000  0.20147000  0.35588000  1.0
  Zn  Zn1  1  0.22594000  0.70147000  0.64412000  1.0
  H  H2  1  0.82175000  0.26106000  0.54980000  1.0
  H  H3  1  0.82175000  0.76106000  0.45020000  1.0
  H  H4  1  0.62672000  0.17403000  0.73622000  1.0
  H  H5  1  0.62671000  0.67403000  0.26378000  1.0
  H  H6  1  0.29739000  0.48832000  0.78065000  1.0
  H  H7  1  0.29738000  0.98832000  0.21935000  1.0
  H  H8  1  0.22523000  0.49546000  0.00707000  1.0
  H  H9  1  0.22523000  0.99546000  0.99293000  1.0
  H  H10  1  0.02583000  0.40953000  0.19543000  1.0
  H  H11  1  0.02584000  0.90953000  0.80457000  1.0
  H  H12  1  0.58698000  0.16539000  0.96952000  1.0
  H  H13  1  0.58698000  0.66539000  0.03048000  1.0
  C  C14  1  0.07441000  0.38160000  0.65268000  1.0
  C  C15  1  0.07440000  0.88160000  0.34732000  1.0
  C  C16  1  0.88354000  0.29142000  0.64158000  1.0
  C  C17  1  0.88354000  0.79142000  0.35843000  1.0
  C  C18  1  0.20219000  0.43109000  0.54306000  1.0
  C  C19  1  0.20218000  0.93109000  0.45694000  1.0
  C  C20  1  0.77222000  0.24320000  0.74651000  1.0
  C  C21  1  0.77222000  0.74320000  0.25349000  1.0
  C  C22  1  0.14409000  0.42279000  0.76993000  1.0
  C  C23  1  0.14409000  0.92279000  0.23007000  1.0
  C  C24  1  0.84035000  0.28400000  0.86737000  1.0
  C  C25  1  0.84035000  0.78400000  0.13263000  1.0
  C  C26  1  0.08853000  0.42219000  0.99910000  1.0
  C  C27  1  0.08853000  0.92219000  0.00090000  1.0
  C  C28  1  0.02653000  0.37768000  0.87884000  1.0
  C  C29  1  0.02653000  0.87768000  0.12116000  1.0
  C  C30  1  0.68767000  0.22386000  0.20717000  1.0
  C  C31  1  0.68767000  0.72386000  0.79283000  1.0
  C  C32  1  0.80160000  0.27782000  0.09329000  1.0
  C  C33  1  0.80160000  0.77782000  0.90671000  1.0
  C  C34  1  0.97885000  0.37353000  0.10394000  1.0
  C  C35  1  0.97885000  0.87353000  0.89606000  1.0
  C  C36  1  0.72892000  0.23642000  0.97684000  1.0
  C  C37  1  0.72891000  0.73642000  0.02316000  1.0
  N  N38  1  0.28857000  0.54708000  0.53605000  1.0
  N  N39  1  0.28857000  0.04708000  0.46395000  1.0
  N  N40  1  0.26325000  0.37090000  0.43350000  1.0
  N  N41  1  0.26325000  0.87090000  0.56650000  1.0
  N  N42  1  0.38794000  0.45171000  0.36027000  1.0
  N  N43  1  0.38793000  0.95172000  0.63973000  1.0
  N  N44  1  0.40303000  0.55650000  0.42179000  1.0
  N  N45  1  0.40302000  0.05650000  0.57821000  1.0
  O  O46  1  0.44374000  0.19020000  0.19892000  1.0
  O  O47  1  0.44375000  0.69020000  0.80108000  1.0
  O  O48  1  0.82341000  0.21398000  0.30975000  1.0
  O  O49  1  0.82341000  0.71398000  0.69025000  1.0
