# generated using pymatgen
data_MnHC2O3
_symmetry_space_group_name_H-M   'P 1'
_cell_length_a   3.36749000
_cell_length_b   8.59217997
_cell_length_c   10.25130000
_cell_angle_alpha   89.99954206
_cell_angle_beta   89.99960000
_cell_angle_gamma   79.27963287
_symmetry_Int_Tables_number   1
_chemical_formula_structural   MnHC2O3
_chemical_formula_sum   'Mn4 H4 C8 O12'
_cell_volume   291.43508893
_cell_formula_units_Z   4
loop_
 _symmetry_equiv_pos_site_id
 _symmetry_equiv_pos_as_xyz
  1  'x, y, z'
loop_
 _atom_site_type_symbol
 _atom_site_label
 _atom_site_symmetry_multiplicity
 _atom_site_fract_x
 _atom_site_fract_y
 _atom_site_fract_z
 _atom_site_occupancy
  Mn  Mn0  1  0.78718000  0.92081000  0.38287000  1.0
  Mn  Mn1  1  0.71282000  0.57919000  0.88288000  1.0
  Mn  Mn2  1  0.21283000  0.07919000  0.61712000  1.0
  Mn  Mn3  1  0.28718000  0.42081000  0.11712000  1.0
  H  H4  1  0.80575000  0.82585000  0.64033000  1.0
  H  H5  1  0.69425000  0.67415000  0.14033000  1.0
  H  H6  1  0.19426000  0.17414000  0.35968000  1.0
  H  H7  1  0.30574000  0.32585000  0.85967000  1.0
  C  C8  1  0.40575000  0.44386000  0.41840000  1.0
  C  C9  1  0.09424000  0.05615000  0.91839000  1.0
  C  C10  1  0.59425000  0.55614000  0.58161000  1.0
  C  C11  1  0.90575000  0.94385000  0.08161000  1.0
  C  C12  1  0.45124000  0.60721000  0.44953000  1.0
  C  C13  1  0.04879000  0.89280000  0.94953000  1.0
  C  C14  1  0.54877000  0.39279000  0.55047000  1.0
  C  C15  1  0.95122000  0.10721000  0.05047000  1.0
  O  O16  1  0.38721000  0.73781000  0.38797000  1.0
  O  O17  1  0.11279000  0.76218000  0.88796000  1.0
  O  O18  1  0.61279000  0.26219000  0.61203000  1.0
  O  O19  1  0.88721000  0.23782000  0.11204000  1.0
  O  O20  1  0.28954000  0.37439000  0.32102000  1.0
  O  O21  1  0.21046000  0.12561000  0.82102000  1.0
  O  O22  1  0.71046000  0.62561000  0.67898000  1.0
  O  O23  1  0.78955000  0.87439000  0.17898000  1.0
  O  O24  1  0.78774000  0.92919000  0.59658000  1.0
  O  O25  1  0.71226000  0.57081000  0.09658000  1.0
  O  O26  1  0.21226000  0.07082000  0.40342000  1.0
  O  O27  1  0.28774000  0.42918000  0.90342000  1.0
