# generated using pymatgen
data_SmH7C11N3O7
_symmetry_space_group_name_H-M   'P 1'
_cell_length_a   8.19999000
_cell_length_b   11.65820000
_cell_length_c   15.09870000
_cell_angle_alpha   89.99980000
_cell_angle_beta   90.00000000
_cell_angle_gamma   92.15880000
_symmetry_Int_Tables_number   1
_chemical_formula_structural   SmH7C11N3O7
_chemical_formula_sum   'Sm4 H28 C44 N12 O28'
_cell_volume   1442.36785670
_cell_formula_units_Z   4
loop_
 _symmetry_equiv_pos_site_id
 _symmetry_equiv_pos_as_xyz
  1  'x, y, z'
loop_
 _atom_site_type_symbol
 _atom_site_label
 _atom_site_symmetry_multiplicity
 _atom_site_fract_x
 _atom_site_fract_y
 _atom_site_fract_z
 _atom_site_occupancy
  Sm  Sm0  1  0.77997000  0.92543000  0.86964000  1.0
  Sm  Sm1  1  0.22003000  0.57457000  0.36964000  1.0
  Sm  Sm2  1  0.22003000  0.07457000  0.13036000  1.0
  Sm  Sm3  1  0.77997000  0.42543000  0.63036000  1.0
  H  H4  1  0.16253000  0.85522000  0.55639000  1.0
  H  H5  1  0.83747000  0.64478000  0.05639000  1.0
  H  H6  1  0.83747000  0.14478000  0.44361000  1.0
  H  H7  1  0.16253000  0.35522000  0.94361000  1.0
  H  H8  1  0.53444000  0.96145000  0.72732000  1.0
  H  H9  1  0.46556000  0.53855000  0.22733000  1.0
  H  H10  1  0.46556000  0.03855000  0.27268000  1.0
  H  H11  1  0.53444000  0.46145000  0.77268000  1.0
  H  H12  1  0.46647000  0.83947000  0.77305000  1.0
  H  H13  1  0.53353000  0.66053000  0.27305000  1.0
  H  H14  1  0.53353000  0.16053000  0.22695000  1.0
  H  H15  1  0.46647000  0.33947000  0.72695000  1.0
  H  H16  1  0.08811000  0.09762000  0.56231000  1.0
  H  H17  1  0.91189000  0.40238000  0.06231000  1.0
  H  H18  1  0.91188000  0.90238000  0.43769000  1.0
  H  H19  1  0.08812000  0.59762000  0.93769000  1.0
  H  H20  1  0.25405000  0.27854000  0.58476000  1.0
  H  H21  1  0.74595000  0.22146000  0.08476000  1.0
  H  H22  1  0.74594000  0.72146000  0.41524000  1.0
  H  H23  1  0.25406000  0.77854000  0.91524000  1.0
  H  H24  1  0.41161000  0.17280000  0.83163000  1.0
  H  H25  1  0.58839000  0.32719000  0.33163000  1.0
  H  H26  1  0.58838000  0.82719000  0.16837000  1.0
  H  H27  1  0.41161000  0.67281000  0.66837000  1.0
  H  H28  1  0.25000000  0.98643000  0.81989000  1.0
  H  H29  1  0.75000000  0.51357000  0.31989000  1.0
  H  H30  1  0.74999000  0.01357000  0.18011000  1.0
  H  H31  1  0.25000000  0.48643000  0.68011000  1.0
  C  C32  1  0.81622000  0.68001000  0.76170000  1.0
  C  C33  1  0.18378000  0.82000000  0.26170000  1.0
  C  C34  1  0.18379000  0.31999000  0.23830000  1.0
  C  C35  1  0.81622000  0.18001000  0.73830000  1.0
  C  C36  1  0.03599000  0.64441000  0.56528000  1.0
  C  C37  1  0.96401000  0.85560000  0.06528000  1.0
  C  C38  1  0.96402000  0.35559000  0.43472000  1.0
  C  C39  1  0.03599000  0.14441000  0.93472000  1.0
  C  C40  1  0.00563000  0.74112000  0.62634000  1.0
  C  C41  1  0.99437000  0.75888000  0.12634000  1.0
  C  C42  1  0.99437000  0.25887000  0.37366000  1.0
  C  C43  1  0.00563000  0.24113000  0.87366000  1.0
  C  C44  1  0.93065000  0.75526000  0.70823000  1.0
  C  C45  1  0.06935000  0.74474000  0.20823000  1.0
  C  C46  1  0.06935000  0.24474000  0.29177000  1.0
  C  C47  1  0.93065000  0.25526000  0.79177000  1.0
  C  C48  1  0.06915000  0.91518000  0.68052000  1.0
  C  C49  1  0.93085000  0.58482000  0.18052000  1.0
  C  C50  1  0.93085000  0.08482000  0.31948000  1.0
  C  C51  1  0.06916000  0.41518000  0.81948000  1.0
  C  C52  1  0.15738000  0.02630000  0.68960000  1.0
  C  C53  1  0.84262000  0.47370000  0.18960000  1.0
  C  C54  1  0.84261000  0.97370000  0.31040000  1.0
  C  C55  1  0.15739000  0.52630000  0.81040000  1.0
  C  C56  1  0.15930000  0.10977000  0.62274000  1.0
  C  C57  1  0.84070000  0.39023000  0.12274000  1.0
  C  C58  1  0.84069000  0.89023000  0.37726000  1.0
  C  C59  1  0.15931000  0.60977000  0.87726000  1.0
  C  C60  1  0.24991000  0.21200000  0.63562000  1.0
  C  C61  1  0.75009000  0.28800000  0.13562000  1.0
  C  C62  1  0.75009000  0.78800000  0.36438000  1.0
  C  C63  1  0.24991000  0.71200000  0.86438000  1.0
  C  C64  1  0.33652000  0.15295000  0.77344000  1.0
  C  C65  1  0.66348000  0.34705000  0.27344000  1.0
  C  C66  1  0.66347000  0.84705000  0.22656000  1.0
  C  C67  1  0.33653000  0.65295000  0.72656000  1.0
  C  C68  1  0.24845000  0.04907000  0.76662000  1.0
  C  C69  1  0.75155000  0.45093000  0.26662000  1.0
  C  C70  1  0.75154000  0.95093000  0.23338000  1.0
  C  C71  1  0.24845000  0.54907000  0.73337000  1.0
  C  C72  1  0.53388000  0.06333000  0.99844000  1.0
  C  C73  1  0.46611000  0.43667000  0.49844000  1.0
  C  C74  1  0.46612000  0.93666000  0.00156000  1.0
  C  C75  1  0.53388000  0.56333000  0.50156000  1.0
  N  N76  1  0.33670000  0.23338000  0.70968000  1.0
  N  N77  1  0.66331000  0.26662000  0.20967000  1.0
  N  N78  1  0.66330000  0.76662000  0.29032000  1.0
  N  N79  1  0.33670000  0.73338000  0.79032000  1.0
  N  N80  1  0.97220000  0.86324000  0.74064000  1.0
  N  N81  1  0.02780000  0.63676000  0.24064000  1.0
  N  N82  1  0.02780000  0.13675000  0.25936000  1.0
  N  N83  1  0.97221000  0.36325000  0.75936000  1.0
  N  N84  1  0.08787000  0.84414000  0.60997000  1.0
  N  N85  1  0.91213000  0.65586000  0.10997000  1.0
  N  N86  1  0.91213000  0.15586000  0.39003000  1.0
  N  N87  1  0.08787000  0.34414000  0.89003000  1.0
  O  O88  1  0.76644000  0.72343000  0.83354000  1.0
  O  O89  1  0.23356000  0.77657000  0.33354000  1.0
  O  O90  1  0.23357000  0.27657000  0.16646000  1.0
  O  O91  1  0.76643000  0.22343000  0.66646000  1.0
  O  O92  1  0.77469000  0.58028000  0.73485000  1.0
  O  O93  1  0.22531000  0.91973000  0.23485000  1.0
  O  O94  1  0.22531000  0.41972000  0.26515000  1.0
  O  O95  1  0.77469000  0.08028000  0.76515000  1.0
  O  O96  1  0.00683000  0.54275000  0.59133000  1.0
  O  O97  1  0.99317000  0.95725000  0.09132000  1.0
  O  O98  1  0.99317000  0.45724000  0.40868000  1.0
  O  O99  1  0.00683000  0.04276000  0.90868000  1.0
  O  O100  1  0.10307000  0.67407000  0.49247000  1.0
  O  O101  1  0.89693000  0.82593000  0.99247000  1.0
  O  O102  1  0.89693000  0.32593000  0.50753000  1.0
  O  O103  1  0.10307000  0.17408000  0.00754000  1.0
  O  O104  1  0.66258000  0.08241000  0.95340000  1.0
  O  O105  1  0.33742000  0.41758000  0.45339000  1.0
  O  O106  1  0.33742000  0.91758000  0.04660000  1.0
  O  O107  1  0.66258000  0.58242000  0.54660000  1.0
  O  O108  1  0.45552000  0.13668000  0.04107000  1.0
  O  O109  1  0.54449000  0.36331000  0.54106000  1.0
  O  O110  1  0.54449000  0.86330000  0.95893000  1.0
  O  O111  1  0.45550000  0.63669000  0.45893000  1.0
  O  O112  1  0.56418000  0.89555000  0.76231000  1.0
  O  O113  1  0.43582000  0.60445000  0.26231000  1.0
  O  O114  1  0.43582000  0.10445000  0.23769000  1.0
  O  O115  1  0.56418000  0.39555000  0.73769000  1.0
