# generated using pymatgen
data_Zn2H58C59(N3O5)2
_symmetry_space_group_name_H-M   'P 1'
_cell_length_a   7.84692000
_cell_length_b   17.93450000
_cell_length_c   23.07000000
_cell_angle_alpha   87.88190000
_cell_angle_beta   80.25020000
_cell_angle_gamma   77.36390000
_symmetry_Int_Tables_number   1
_chemical_formula_structural   Zn2H58C59(N3O5)2
_chemical_formula_sum   'Zn4 H116 C118 N12 O20'
_cell_volume   3122.26101482
_cell_formula_units_Z   2
loop_
 _symmetry_equiv_pos_site_id
 _symmetry_equiv_pos_as_xyz
  1  'x, y, z'
loop_
 _atom_site_type_symbol
 _atom_site_label
 _atom_site_symmetry_multiplicity
 _atom_site_fract_x
 _atom_site_fract_y
 _atom_site_fract_z
 _atom_site_occupancy
  Zn  Zn0  1  0.21548000  0.77941000  0.70727000  1.0
  Zn  Zn1  1  0.70171000  0.22039000  0.29296000  1.0
  Zn  Zn2  1  0.74406000  0.72062000  0.20722000  1.0
  Zn  Zn3  1  0.67262000  0.27946000  0.79291000  1.0
  H  H4  1  0.17240000  0.63868000  0.77170000  1.0
  H  H5  1  0.58322000  0.36072000  0.22817000  1.0
  H  H6  1  0.56067000  0.86130000  0.27198000  1.0
  H  H7  1  0.69465000  0.13874000  0.72800000  1.0
  H  H8  1  0.93099000  0.58196000  0.82863000  1.0
  H  H9  1  0.34234000  0.41743000  0.17103000  1.0
  H  H10  1  0.26258000  0.91792000  0.32899000  1.0
  H  H11  1  0.50987000  0.08210000  0.67103000  1.0
  H  H12  1  0.55901000  0.78587000  0.78908000  1.0
  H  H13  1  0.13326000  0.21398000  0.21100000  1.0
  H  H14  1  0.09442000  0.71414000  0.28911000  1.0
  H  H15  1  0.09821000  0.28585000  0.71095000  1.0
  H  H16  1  0.81746000  0.83474000  0.73540000  1.0
  H  H17  1  0.38664000  0.16509000  0.26489000  1.0
  H  H18  1  0.40169000  0.66539000  0.23534000  1.0
  H  H19  1  0.30332000  0.33467000  0.76460000  1.0
  H  H20  1  0.56963000  0.59500000  0.83479000  1.0
  H  H21  1  0.99928000  0.40475000  0.16528000  1.0
  H  H22  1  0.91407000  0.90488000  0.33490000  1.0
  H  H23  1  0.15418000  0.09512000  0.66510000  1.0
  H  H24  1  0.44908000  0.68980000  0.84928000  1.0
  H  H25  1  0.98799000  0.31003000  0.15052000  1.0
  H  H26  1  0.88849000  0.81007000  0.34948000  1.0
  H  H27  1  0.04822000  0.18995000  0.65063000  1.0
  H  H28  1  0.48720000  0.62239000  0.94268000  1.0
  H  H29  1  0.05139000  0.37802000  0.05735000  1.0
  H  H30  1  0.85904000  0.87796000  0.44279000  1.0
  H  H31  1  0.17936000  0.12233000  0.55723000  1.0
  H  H32  1  0.71919000  0.59461000  0.92000000  1.0
  H  H33  1  0.23352000  0.40536000  0.08003000  1.0
  H  H34  1  0.06374000  0.90530000  0.42009000  1.0
  H  H35  1  0.38880000  0.09478000  0.57990000  1.0
  H  H36  1  0.51370000  0.76128000  0.93689000  1.0
  H  H37  1  0.21009000  0.23898000  0.06271000  1.0
  H  H38  1  0.02286000  0.73895000  0.43740000  1.0
  H  H39  1  0.19933000  0.26124000  0.56269000  1.0
  H  H40  1  0.74494000  0.73106000  0.91721000  1.0
  H  H41  1  0.39199000  0.26871000  0.08246000  1.0
  H  H42  1  0.22452000  0.76856000  0.41745000  1.0
  H  H43  1  0.41057000  0.23149000  0.58274000  1.0
  H  H44  1  0.65892000  0.83083000  0.11708000  1.0
  H  H45  1  0.60559000  0.16943000  0.88282000  1.0
  H  H46  1  0.23968000  0.66939000  0.61721000  1.0
  H  H47  1  0.52697000  0.33055000  0.38298000  1.0
  H  H48  1  0.60868000  0.83514000  0.01333000  1.0
  H  H49  1  0.45476000  0.16515000  0.98639000  1.0
  H  H50  1  0.19266000  0.66506000  0.51358000  1.0
  H  H51  1  0.37202000  0.33503000  0.48657000  1.0
  H  H52  1  0.70000000  0.58876000  0.01751000  1.0
  H  H53  1  0.30527000  0.41156000  0.98232000  1.0
  H  H54  1  0.03858000  0.91146000  0.51768000  1.0
  H  H55  1  0.46699000  0.08865000  0.48249000  1.0
  H  H56  1  0.74496000  0.59475000  0.12193000  1.0
  H  H57  1  0.46155000  0.40555000  0.87805000  1.0
  H  H58  1  0.09043000  0.90550000  0.62199000  1.0
  H  H59  1  0.61723000  0.09449000  0.37821000  1.0
  H  H60  1  0.49406000  0.55162000  0.73462000  1.0
  H  H61  1  0.77955000  0.44805000  0.26548000  1.0
  H  H62  1  0.79522000  0.94798000  0.23457000  1.0
  H  H63  1  0.97827000  0.05188000  0.76559000  1.0
  H  H64  1  0.02990000  0.42306000  0.69813000  1.0
  H  H65  1  0.14998000  0.57698000  0.30187000  1.0
  H  H66  1  0.20193000  0.07688000  0.19820000  1.0
  H  H67  1  0.47791000  0.92315000  0.80186000  1.0
  H  H68  1  0.89510000  0.65516000  0.63410000  1.0
  H  H69  1  0.18519000  0.34470000  0.36560000  1.0
  H  H70  1  0.30038000  0.84464000  0.13433000  1.0
  H  H71  1  0.28013000  0.15535000  0.86580000  1.0
  H  H72  1  0.24502000  0.42136000  0.62515000  1.0
  H  H73  1  0.29199000  0.57865000  0.37447000  1.0
  H  H74  1  0.41586000  0.07860000  0.12545000  1.0
  H  H75  1  0.62121000  0.92149000  0.87452000  1.0
  H  H76  1  0.31393000  0.46398000  0.68358000  1.0
  H  H77  1  0.46194000  0.53588000  0.31615000  1.0
  H  H78  1  0.52781000  0.03587000  0.18376000  1.0
  H  H79  1  0.74823000  0.96427000  0.81618000  1.0
  H  H80  1  0.55977000  0.43527000  0.59690000  1.0
  H  H81  1  0.59222000  0.56466000  0.40296000  1.0
  H  H82  1  0.74438000  0.06475000  0.09691000  1.0
  H  H83  1  0.90750000  0.93527000  0.90294000  1.0
  H  H84  1  0.42162000  0.49206000  0.55091000  1.0
  H  H85  1  0.46455000  0.50803000  0.44890000  1.0
  H  H86  1  0.66269000  0.00795000  0.05101000  1.0
  H  H87  1  0.72352000  0.99209000  0.94890000  1.0
  H  H88  1  0.49101000  0.53556000  0.60866000  1.0
  H  H89  1  0.63522000  0.46436000  0.39130000  1.0
  H  H90  1  0.77610000  0.96445000  0.10865000  1.0
  H  H91  1  0.85073000  0.03560000  0.89125000  1.0
  H  H92  1  0.05958000  0.70383000  0.03133000  1.0
  H  H93  1  0.79397000  0.29600000  0.96875000  1.0
  H  H94  1  0.51262000  0.79604000  0.53132000  1.0
  H  H95  1  0.84115000  0.20399000  0.46852000  1.0
  H  H96  1  0.15981000  0.81470000  0.06054000  1.0
  H  H97  1  0.03524000  0.18548000  0.93964000  1.0
  H  H98  1  0.72474000  0.68546000  0.56044000  1.0
  H  H99  1  0.97102000  0.31477000  0.43948000  1.0
  H  H100  1  0.23143000  0.88114000  0.87702000  1.0
  H  H101  1  0.98918000  0.11868000  0.12309000  1.0
  H  H102  1  0.86177000  0.61874000  0.37697000  1.0
  H  H103  1  0.85755000  0.38150000  0.62295000  1.0
  H  H104  1  0.12292000  0.76711000  0.85557000  1.0
  H  H105  1  0.74471000  0.23248000  0.14446000  1.0
  H  H106  1  0.63870000  0.73258000  0.35558000  1.0
  H  H107  1  0.72752000  0.26749000  0.64425000  1.0
  H  H108  1  0.36167000  0.94339000  0.94927000  1.0
  H  H109  1  0.25445000  0.05671000  0.05096000  1.0
  H  H110  1  0.05512000  0.55679000  0.44917000  1.0
  H  H111  1  0.06070000  0.44362000  0.55084000  1.0
  H  H112  1  0.33259000  0.91739000  0.02478000  1.0
  H  H113  1  0.27477000  0.08266000  0.97543000  1.0
  H  H114  1  0.99987000  0.58273000  0.52470000  1.0
  H  H115  1  0.10726000  0.41756000  0.47534000  1.0
  H  H116  1  0.01751000  0.98725000  0.03769000  1.0
  H  H117  1  0.04211000  0.01297000  0.96253000  1.0
  H  H118  1  0.75433000  0.51301000  0.53740000  1.0
  H  H119  1  0.80521000  0.48726000  0.46223000  1.0
  C  C120  1  0.03435000  0.66924000  0.77773000  1.0
  C  C121  1  0.48150000  0.33026000  0.22219000  1.0
  C  C122  1  0.45315000  0.83076000  0.27794000  1.0
  C  C123  1  0.56254000  0.16930000  0.72202000  1.0
  C  C124  1  0.89903000  0.63847000  0.80898000  1.0
  C  C125  1  0.34682000  0.36103000  0.19083000  1.0
  C  C126  1  0.28707000  0.86147000  0.30924000  1.0
  C  C127  1  0.45826000  0.13856000  0.69077000  1.0
  C  C128  1  0.72361000  0.68028000  0.81523000  1.0
  C  C129  1  0.21904000  0.31939000  0.18466000  1.0
  C  C130  1  0.15341000  0.81968000  0.31540000  1.0
  C  C131  1  0.28893000  0.18033000  0.68463000  1.0
  C  C132  1  0.69327000  0.75184000  0.78775000  1.0
  C  C133  1  0.23238000  0.24793000  0.21229000  1.0
  C  C134  1  0.19461000  0.74818000  0.28784000  1.0
  C  C135  1  0.23121000  0.25183000  0.71220000  1.0
  C  C136  1  0.83557000  0.77917000  0.75713000  1.0
  C  C137  1  0.37126000  0.22059000  0.24303000  1.0
  C  C138  1  0.36424000  0.72091000  0.25716000  1.0
  C  C139  1  0.34308000  0.27914000  0.74281000  1.0
  C  C140  1  0.57596000  0.65046000  0.85227000  1.0
  C  C141  1  0.07849000  0.34936000  0.14765000  1.0
  C  C142  1  0.97593000  0.84947000  0.35244000  1.0
  C  C143  1  0.17801000  0.15056000  0.64762000  1.0
  C  C144  1  0.60249000  0.64073000  0.91700000  1.0
  C  C145  1  0.15954000  0.35938000  0.08295000  1.0
  C  C146  1  0.99264000  0.85935000  0.41715000  1.0
  C  C147  1  0.26895000  0.14080000  0.58289000  1.0
  C  C148  1  0.62649000  0.71438000  0.94254000  1.0
  C  C149  1  0.28203000  0.28575000  0.05719000  1.0
  C  C150  1  0.08956000  0.78566000  0.44283000  1.0
  C  C151  1  0.31804000  0.21447000  0.55729000  1.0
  C  C152  1  0.66709000  0.77850000  0.09318000  1.0
  C  C153  1  0.53750000  0.22178000  0.90669000  1.0
  C  C154  1  0.19541000  0.72172000  0.59332000  1.0
  C  C155  1  0.51085000  0.27827000  0.40687000  1.0
  C  C156  1  0.63860000  0.78024000  0.03550000  1.0
  C  C157  1  0.45250000  0.22004000  0.96426000  1.0
  C  C158  1  0.16809000  0.71996000  0.53571000  1.0
  C  C159  1  0.42417000  0.28011000  0.46446000  1.0
  C  C160  1  0.65006000  0.71194000  0.00583000  1.0
  C  C161  1  0.36627000  0.28834000  0.99393000  1.0
  C  C162  1  0.11121000  0.78826000  0.50606000  1.0
  C  C163  1  0.40552000  0.21186000  0.49409000  1.0
  C  C164  1  0.68928000  0.64400000  0.03754000  1.0
  C  C165  1  0.36969000  0.35630000  0.96230000  1.0
  C  C166  1  0.08307000  0.85622000  0.53770000  1.0
  C  C167  1  0.47657000  0.14386000  0.46247000  1.0
  C  C168  1  0.71569000  0.64628000  0.09553000  1.0
  C  C169  1  0.45690000  0.35402000  0.90439000  1.0
  C  C170  1  0.11232000  0.85396000  0.59563000  1.0
  C  C171  1  0.56149000  0.14604000  0.40457000  1.0
  C  C172  1  0.68119000  0.61079000  0.68377000  1.0
  C  C173  1  0.97579000  0.38900000  0.31617000  1.0
  C  C174  1  0.04182000  0.88894000  0.18383000  1.0
  C  C175  1  0.11523000  0.11101000  0.81630000  1.0
  C  C176  1  0.63106000  0.54819000  0.71445000  1.0
  C  C177  1  0.89307000  0.45160000  0.28559000  1.0
  C  C178  1  0.92878000  0.95153000  0.21444000  1.0
  C  C179  1  0.09537000  0.04841000  0.78567000  1.0
  C  C180  1  0.75626000  0.48098000  0.71893000  1.0
  C  C181  1  0.95516000  0.51890000  0.28114000  1.0
  C  C182  1  0.98646000  0.01880000  0.21893000  1.0
  C  C183  1  0.22491000  0.98117000  0.78116000  1.0
  C  C184  1  0.93432000  0.47594000  0.69343000  1.0
  C  C185  1  0.10286000  0.52404000  0.30655000  1.0
  C  C186  1  0.15948000  0.02395000  0.19348000  1.0
  C  C187  1  0.37777000  0.97607000  0.80658000  1.0
  C  C188  1  0.98349000  0.53858000  0.66242000  1.0
  C  C189  1  0.18437000  0.46139000  0.33743000  1.0
  C  C190  1  0.27160000  0.96131000  0.16255000  1.0
  C  C191  1  0.39637000  0.03874000  0.83751000  1.0
  C  C192  1  0.85660000  0.60599000  0.65758000  1.0
  C  C193  1  0.12046000  0.39388000  0.34223000  1.0
  C  C194  1  0.21245000  0.89381000  0.15774000  1.0
  C  C195  1  0.26476000  0.10618000  0.84238000  1.0
  C  C196  1  0.54539000  0.68326000  0.67934000  1.0
  C  C197  1  0.90822000  0.31648000  0.32065000  1.0
  C  C198  1  0.97857000  0.81646000  0.17940000  1.0
  C  C199  1  0.97487000  0.18343000  0.82082000  1.0
  C  C200  1  0.69560000  0.41410000  0.74958000  1.0
  C  C201  1  0.85796000  0.58576000  0.25050000  1.0
  C  C202  1  0.85885000  0.08561000  0.24965000  1.0
  C  C203  1  0.19454000  0.91433000  0.75051000  1.0
  C  C204  1  0.28848000  0.47209000  0.63790000  1.0
  C  C205  1  0.39877000  0.52787000  0.36181000  1.0
  C  C206  1  0.51014000  0.02785000  0.13810000  1.0
  C  C207  1  0.67723000  0.97225000  0.86186000  1.0
  C  C208  1  0.44961000  0.48465000  0.59609000  1.0
  C  C209  1  0.53049000  0.51533000  0.40375000  1.0
  C  C210  1  0.68363000  0.01535000  0.09616000  1.0
  C  C211  1  0.79664000  0.98471000  0.90374000  1.0
  C  C212  1  0.09693000  0.74449000  0.99765000  1.0
  C  C213  1  0.83854000  0.25538000  0.00243000  1.0
  C  C214  1  0.59082000  0.75543000  0.49763000  1.0
  C  C215  1  0.84470000  0.24466000  0.50222000  1.0
  C  C216  1  0.15398000  0.80792000  0.01417000  1.0
  C  C217  1  0.97602000  0.19213000  0.98597000  1.0
  C  C218  1  0.71181000  0.69218000  0.51410000  1.0
  C  C219  1  0.91844000  0.30803000  0.48580000  1.0
  C  C220  1  0.20362000  0.85976000  0.97113000  1.0
  C  C221  1  0.03447000  0.14029000  0.02902000  1.0
  C  C222  1  0.81323000  0.64036000  0.47104000  1.0
  C  C223  1  0.92468000  0.35991000  0.52888000  1.0
  C  C224  1  0.19248000  0.84393000  0.91297000  1.0
  C  C225  1  0.94902000  0.15594000  0.08714000  1.0
  C  C226  1  0.78578000  0.65601000  0.41292000  1.0
  C  C227  1  0.85488000  0.34421000  0.58699000  1.0
  C  C228  1  0.13244000  0.77935000  0.90085000  1.0
  C  C229  1  0.81193000  0.22037000  0.09921000  1.0
  C  C230  1  0.66079000  0.72045000  0.40083000  1.0
  C  C231  1  0.78267000  0.27966000  0.59902000  1.0
  C  C232  1  0.26502000  0.92953000  0.98628000  1.0
  C  C233  1  0.18089000  0.07057000  0.01392000  1.0
  C  C234  1  0.94453000  0.57064000  0.48617000  1.0
  C  C235  1  0.00120000  0.42967000  0.51379000  1.0
  C  C236  1  0.11309000  0.00006000  0.00010000  1.0
  C  C237  1  0.86300000  0.50014000  0.49989000  1.0
  N  N238  1  0.00388000  0.73916000  0.75269000  1.0
  N  N239  1  0.49540000  0.26046000  0.24743000  1.0
  N  N240  1  0.49251000  0.76091000  0.25278000  1.0
  N  N241  1  0.50703000  0.23917000  0.74716000  1.0
  N  N242  1  0.70542000  0.71238000  0.12301000  1.0
  N  N243  1  0.54025000  0.28791000  0.87696000  1.0
  N  N244  1  0.16818000  0.78785000  0.62309000  1.0
  N  N245  1  0.57908000  0.21211000  0.37713000  1.0
  N  N246  1  0.08458000  0.72943000  0.94201000  1.0
  N  N247  1  0.75516000  0.27026000  0.05804000  1.0
  N  N248  1  0.56298000  0.77034000  0.44201000  1.0
  N  N249  1  0.77625000  0.22969000  0.55782000  1.0
  O  O250  1  0.38986000  0.68178000  0.70928000  1.0
  O  O251  1  0.78076000  0.31792000  0.29084000  1.0
  O  O252  1  0.82147000  0.81802000  0.20929000  1.0
  O  O253  1  0.84885000  0.18184000  0.79104000  1.0
  O  O254  1  0.58396000  0.73816000  0.64909000  1.0
  O  O255  1  0.97190000  0.26158000  0.35084000  1.0
  O  O256  1  0.07208000  0.76153000  0.14919000  1.0
  O  O257  1  0.98343000  0.23838000  0.85100000  1.0
  O  O258  1  0.53953000  0.42128000  0.77690000  1.0
  O  O259  1  0.73644000  0.57856000  0.22313000  1.0
  O  O260  1  0.71037000  0.07829000  0.27722000  1.0
  O  O261  1  0.06567000  0.92158000  0.72320000  1.0
  O  O262  1  0.80930000  0.34933000  0.74574000  1.0
  O  O263  1  0.90289000  0.65056000  0.25444000  1.0
  O  O264  1  0.90741000  0.15048000  0.24559000  1.0
  O  O265  1  0.30424000  0.84950000  0.75440000  1.0
  O  O266  1  0.15128000  0.53940000  0.63446000  1.0
  O  O267  1  0.32536000  0.46058000  0.36526000  1.0
  O  O268  1  0.44025000  0.96054000  0.13465000  1.0
  O  O269  1  0.53652000  0.03953000  0.86538000  1.0
