# generated using pymatgen
data_CdH20C17N4O5
_symmetry_space_group_name_H-M   'P 1'
_cell_length_a   9.00059000
_cell_length_b   9.28039000
_cell_length_c   10.95760000
_cell_angle_alpha   83.83760000
_cell_angle_beta   89.99980000
_cell_angle_gamma   89.99990000
_symmetry_Int_Tables_number   1
_chemical_formula_structural   CdH20C17N4O5
_chemical_formula_sum   'Cd2 H40 C34 N8 O10'
_cell_volume   909.98839470
_cell_formula_units_Z   2
loop_
 _symmetry_equiv_pos_site_id
 _symmetry_equiv_pos_as_xyz
  1  'x, y, z'
loop_
 _atom_site_type_symbol
 _atom_site_label
 _atom_site_symmetry_multiplicity
 _atom_site_fract_x
 _atom_site_fract_y
 _atom_site_fract_z
 _atom_site_occupancy
  Cd  Cd0  1  0.32309000  0.53681000  0.44993000  1.0
  Cd  Cd1  1  0.67691000  0.03681000  0.94993000  1.0
  H  H2  1  0.91298000  0.40955000  0.49035000  1.0
  H  H3  1  0.08702000  0.90955000  0.99035000  1.0
  H  H4  1  0.91162000  0.66138000  0.41246000  1.0
  H  H5  1  0.08838000  0.16138000  0.91246000  1.0
  H  H6  1  0.46290000  0.05557000  0.19055000  1.0
  H  H7  1  0.53709000  0.55557000  0.69055000  1.0
  H  H8  1  0.47320000  0.15642000  0.39507000  1.0
  H  H9  1  0.52680000  0.65642000  0.89507000  1.0
  H  H10  1  0.93485000  0.25467000  0.32273000  1.0
  H  H11  1  0.06515000  0.75467000  0.82273000  1.0
  H  H12  1  0.90446000  0.15439000  0.12021000  1.0
  H  H13  1  0.09554000  0.65439000  0.62021000  1.0
  H  H14  1  0.61032000  0.28605000  0.53787000  1.0
  H  H15  1  0.38968000  0.78605000  0.03787000  1.0
  H  H16  1  0.78424000  0.19705000  0.56077000  1.0
  H  H17  1  0.21575000  0.69705000  0.06078000  1.0
  H  H18  1  0.78237000  0.87155000  0.33953000  1.0
  H  H19  1  0.21763000  0.37154000  0.83953000  1.0
  H  H20  1  0.60896000  0.78235000  0.36489000  1.0
  H  H21  1  0.39105000  0.28235000  0.86489000  1.0
  H  H22  1  0.90817000  0.93546000  0.77364000  1.0
  H  H23  1  0.09183000  0.43547000  0.27364000  1.0
  H  H24  1  0.93841000  0.83550000  0.57081000  1.0
  H  H25  1  0.06159000  0.33550000  0.07081000  1.0
  H  H26  1  0.46860000  0.89982000  0.51262000  1.0
  H  H27  1  0.53140000  0.39982000  0.01262000  1.0
  H  H28  1  0.45851000  0.00087000  0.71742000  1.0
  H  H29  1  0.54149000  0.50086000  0.21742000  1.0
  H  H30  1  0.05055000  0.08586000  0.53920000  1.0
  H  H31  1  0.94945000  0.58586000  0.03919000  1.0
  H  H32  1  0.05041000  0.15888000  0.68201000  1.0
  H  H33  1  0.94959000  0.65888000  0.18200000  1.0
  H  H34  1  0.20495000  0.05264000  0.64098000  1.0
  H  H35  1  0.79505000  0.55264000  0.14098000  1.0
  H  H36  1  0.13527000  0.95557000  0.20492000  1.0
  H  H37  1  0.86473000  0.45557000  0.70492000  1.0
  H  H38  1  0.20371000  0.04278000  0.33005000  1.0
  H  H39  1  0.79629000  0.54278000  0.83004000  1.0
  H  H40  1  0.01935000  0.96800000  0.33446000  1.0
  H  H41  1  0.98065000  0.46800000  0.83446000  1.0
  C  C42  1  0.56491000  0.10175000  0.22340000  1.0
  C  C43  1  0.43509000  0.60176000  0.72340000  1.0
  C  C44  1  0.57160000  0.15599000  0.33704000  1.0
  C  C45  1  0.42840000  0.65599000  0.83703000  1.0
  C  C46  1  0.70541000  0.21299000  0.37537000  1.0
  C  C47  1  0.29460000  0.71299000  0.87537000  1.0
  C  C48  1  0.82786000  0.21219000  0.29660000  1.0
  C  C49  1  0.17213000  0.71219000  0.79660000  1.0
  C  C50  1  0.81215000  0.15715000  0.18442000  1.0
  C  C51  1  0.18785000  0.65715000  0.68442000  1.0
  C  C52  1  0.72049000  0.27378000  0.49762000  1.0
  C  C53  1  0.27951000  0.77378000  0.99762000  1.0
  C  C54  1  0.72012000  0.53498000  0.45178000  1.0
  C  C55  1  0.27987000  0.03498000  0.95178000  1.0
  C  C56  1  0.71920000  0.79630000  0.40443000  1.0
  C  C57  1  0.28080000  0.29630000  0.90443000  1.0
  C  C58  1  0.81413000  0.92525000  0.71247000  1.0
  C  C59  1  0.18587000  0.42525000  0.21247000  1.0
  C  C60  1  0.82968000  0.87045000  0.60022000  1.0
  C  C61  1  0.17032000  0.37045000  0.10022000  1.0
  C  C62  1  0.70469000  0.85980000  0.52560000  1.0
  C  C63  1  0.29531000  0.35980000  0.02560000  1.0
  C  C64  1  0.56864000  0.90768000  0.56767000  1.0
  C  C65  1  0.43136000  0.40768000  0.06767000  1.0
  C  C66  1  0.56226000  0.96214000  0.68119000  1.0
  C  C67  1  0.43774000  0.46214000  0.18118000  1.0
  C  C68  1  0.19355000  0.26990000  0.54591000  1.0
  C  C69  1  0.80645000  0.76990000  0.04590000  1.0
  C  C70  1  0.19618000  0.80855000  0.35991000  1.0
  C  C71  1  0.80382000  0.30855000  0.85991000  1.0
  C  C72  1  0.12177000  0.13280000  0.60604000  1.0
  C  C73  1  0.87823000  0.63280000  0.10604000  1.0
  C  C74  1  0.13432000  0.95305000  0.30556000  1.0
  C  C75  1  0.86568000  0.45306000  0.80556000  1.0
  N  N76  1  0.68264000  0.10353000  0.14775000  1.0
  N  N77  1  0.31736000  0.60353000  0.64775000  1.0
  N  N78  1  0.79817000  0.41176000  0.48663000  1.0
  N  N79  1  0.20184000  0.91175000  0.98663000  1.0
  N  N80  1  0.79735000  0.65863000  0.41838000  1.0
  N  N81  1  0.20265000  0.15863000  0.91838000  1.0
  N  N82  1  0.68237000  0.96937000  0.75307000  1.0
  N  N83  1  0.31763000  0.46937000  0.25307000  1.0
  O  O84  1  0.58026000  0.53420000  0.45091000  1.0
  O  O85  1  0.41973000  0.03420000  0.95091000  1.0
  O  O86  1  0.33381000  0.27824000  0.53770000  1.0
  O  O87  1  0.66619000  0.77824000  0.03770000  1.0
  O  O88  1  0.10789000  0.37503000  0.50478000  1.0
  O  O89  1  0.89211000  0.87503000  0.00477000  1.0
  O  O90  1  0.33609000  0.79418000  0.37032000  1.0
  O  O91  1  0.66392000  0.29418000  0.87032000  1.0
  O  O92  1  0.10595000  0.70405000  0.39132000  1.0
  O  O93  1  0.89405000  0.20405000  0.89132000  1.0
