# generated using pymatgen
data_CdH29C24S4N5
_symmetry_space_group_name_H-M   'P 1'
_cell_length_a   9.56750000
_cell_length_b   11.05570000
_cell_length_c   12.98900000
_cell_angle_alpha   90.00000000
_cell_angle_beta   100.03200000
_cell_angle_gamma   90.00000000
_symmetry_Int_Tables_number   1
_chemical_formula_structural   CdH29C24S4N5
_chemical_formula_sum   'Cd2 H58 C48 S8 N10'
_cell_volume   1352.91045572
_cell_formula_units_Z   2
loop_
 _symmetry_equiv_pos_site_id
 _symmetry_equiv_pos_as_xyz
  1  'x, y, z'
loop_
 _atom_site_type_symbol
 _atom_site_label
 _atom_site_symmetry_multiplicity
 _atom_site_fract_x
 _atom_site_fract_y
 _atom_site_fract_z
 _atom_site_occupancy
  Cd  Cd0  1  0.07726000  0.11793000  0.28430000  1.0
  Cd  Cd1  1  0.92274000  0.61793000  0.71570000  1.0
  H  H2  1  0.95097000  0.55337000  0.33819000  1.0
  H  H3  1  0.04903000  0.05337000  0.66181000  1.0
  H  H4  1  0.02168000  0.67713000  0.27645000  1.0
  H  H5  1  0.97832000  0.17713000  0.72355000  1.0
  H  H6  1  0.06660000  0.69639000  0.47598000  1.0
  H  H7  1  0.93340000  0.19639000  0.52402000  1.0
  H  H8  1  0.22746000  0.69076000  0.42561000  1.0
  H  H9  1  0.77254000  0.19076000  0.57438000  1.0
  H  H10  1  0.16446000  0.55957000  0.48308000  1.0
  H  H11  1  0.83554000  0.05957000  0.51691000  1.0
  H  H12  1  0.33568000  0.51366000  0.23332000  1.0
  H  H13  1  0.66432000  0.01366000  0.76668000  1.0
  H  H14  1  0.26745000  0.65884000  0.25772000  1.0
  H  H15  1  0.73255000  0.15884000  0.74228000  1.0
  H  H16  1  0.26416000  0.41729000  0.05747000  1.0
  H  H17  1  0.73584000  0.91728000  0.94253000  1.0
  H  H18  1  0.14073000  0.44080000  0.87267000  1.0
  H  H19  1  0.85927000  0.94080000  0.12734000  1.0
  H  H20  1  0.96287000  0.76702000  0.93706000  1.0
  H  H21  1  0.03713000  0.26702000  0.06294000  1.0
  H  H22  1  0.07998000  0.75807000  0.12550000  1.0
  H  H23  1  0.92002000  0.25807000  0.87450000  1.0
  H  H24  1  0.46623000  0.00134000  0.57899000  1.0
  H  H25  1  0.53377000  0.50134000  0.42100000  1.0
  H  H26  1  0.59983000  0.89155000  0.56969000  1.0
  H  H27  1  0.40017000  0.39155000  0.43030000  1.0
  H  H28  1  0.46024000  0.82976000  0.70526000  1.0
  H  H29  1  0.53976000  0.32976000  0.29474000  1.0
  H  H30  1  0.43168000  0.72574000  0.59982000  1.0
  H  H31  1  0.56832000  0.22574000  0.40018000  1.0
  H  H32  1  0.29925000  0.83677000  0.61193000  1.0
  H  H33  1  0.70075000  0.33677000  0.38806000  1.0
  H  H34  1  0.45125000  0.78222000  0.31695000  1.0
  H  H35  1  0.54875000  0.28222000  0.68304000  1.0
  H  H36  1  0.55235000  0.73634000  0.43858000  1.0
  H  H37  1  0.44765000  0.23634000  0.56142000  1.0
  H  H38  1  0.79783000  0.74966000  0.42998000  1.0
  H  H39  1  0.20217000  0.24966000  0.57002000  1.0
  H  H40  1  0.00251000  0.87096000  0.38575000  1.0
  H  H41  1  0.99749000  0.37096000  0.61425000  1.0
  H  H42  1  0.73487000  0.14246000  0.25064000  1.0
  H  H43  1  0.26513000  0.64247000  0.74936000  1.0
  H  H44  1  0.51961000  0.03476000  0.29074000  1.0
  H  H45  1  0.48040000  0.53476000  0.70926000  1.0
  H  H46  1  0.31268000  0.02497000  0.76782000  1.0
  H  H47  1  0.68731000  0.52497000  0.23218000  1.0
  H  H48  1  0.33647000  0.11187000  0.09382000  1.0
  H  H49  1  0.66353000  0.61186000  0.90618000  1.0
  H  H50  1  0.49888000  0.28360000  0.06772000  1.0
  H  H51  1  0.50113000  0.78359000  0.93228000  1.0
  H  H52  1  0.55996000  0.31558000  0.88898000  1.0
  H  H53  1  0.44004000  0.81558000  0.11102000  1.0
  H  H54  1  0.26398000  0.88023000  0.99355000  1.0
  H  H55  1  0.73602000  0.38023000  0.00645000  1.0
  H  H56  1  0.17053000  0.91105000  0.86557000  1.0
  H  H57  1  0.82948000  0.41105000  0.13444000  1.0
  H  H58  1  0.12088000  0.98267000  0.97659000  1.0
  H  H59  1  0.87912000  0.48266000  0.02342000  1.0
  C  C60  1  0.11664000  0.39334000  0.28186000  1.0
  C  C61  1  0.88336000  0.89334000  0.71814000  1.0
  C  C62  1  0.04950000  0.59935000  0.32873000  1.0
  C  C63  1  0.95050000  0.09935000  0.67127000  1.0
  C  C64  1  0.13219000  0.63908000  0.43431000  1.0
  C  C65  1  0.86781000  0.13908000  0.56569000  1.0
  C  C66  1  0.23998000  0.56986000  0.22244000  1.0
  C  C67  1  0.76002000  0.06986000  0.77756000  1.0
  C  C68  1  0.17893000  0.58455000  0.10780000  1.0
  C  C69  1  0.82107000  0.08455000  0.89220000  1.0
  C  C70  1  0.19826000  0.49623000  0.03417000  1.0
  C  C71  1  0.80174000  0.99623000  0.96583000  1.0
  C  C72  1  0.12934000  0.50906000  0.93131000  1.0
  C  C73  1  0.87065000  0.00906000  0.06869000  1.0
  C  C74  1  0.03045000  0.69097000  0.96760000  1.0
  C  C75  1  0.96955000  0.19097000  0.03240000  1.0
  C  C76  1  0.09449000  0.68463000  0.07225000  1.0
  C  C77  1  0.90551000  0.18463000  0.92775000  1.0
  C  C78  1  0.31247000  0.95018000  0.39674000  1.0
  C  C79  1  0.68753000  0.45018000  0.60326000  1.0
  C  C80  1  0.48473000  0.90744000  0.55730000  1.0
  C  C81  1  0.51526000  0.40744000  0.44270000  1.0
  C  C82  1  0.41384000  0.81949000  0.62227000  1.0
  C  C83  1  0.58616000  0.31949000  0.37773000  1.0
  C  C84  1  0.51633000  0.81515000  0.38946000  1.0
  C  C85  1  0.48366000  0.31515000  0.61054000  1.0
  C  C86  1  0.64242000  0.88252000  0.36305000  1.0
  C  C87  1  0.35758000  0.38252000  0.63695000  1.0
  C  C88  1  0.77964000  0.83589000  0.38919000  1.0
  C  C89  1  0.22036000  0.33589000  0.61081000  1.0
  C  C90  1  0.89302000  0.90194000  0.36434000  1.0
  C  C91  1  0.10698000  0.40194000  0.63566000  1.0
  C  C92  1  0.74350000  0.05463000  0.28979000  1.0
  C  C93  1  0.25650000  0.55463000  0.71021000  1.0
  C  C94  1  0.62487000  0.99495000  0.31247000  1.0
  C  C95  1  0.37513000  0.49495000  0.68753000  1.0
  C  C96  1  0.35326000  0.08021000  0.83658000  1.0
  C  C97  1  0.64674000  0.58021000  0.16342000  1.0
  C  C98  1  0.31118000  0.05413000  0.93236000  1.0
  C  C99  1  0.68882000  0.55413000  0.06764000  1.0
  C  C100  1  0.36575000  0.12849000  0.01741000  1.0
  C  C101  1  0.63425000  0.62849000  0.98259000  1.0
  C  C102  1  0.45597000  0.22370000  0.00313000  1.0
  C  C103  1  0.54402000  0.72369000  0.99687000  1.0
  C  C104  1  0.49030000  0.24158000  0.90398000  1.0
  C  C105  1  0.50970000  0.74158000  0.09602000  1.0
  C  C106  1  0.21151000  0.95172000  0.94202000  1.0
  C  C107  1  0.78849000  0.45171000  0.05798000  1.0
  S  S108  1  0.23420000  0.29888000  0.23483000  1.0
  S  S109  1  0.76580000  0.79888000  0.76517000  1.0
  S  S110  1  0.97900000  0.33389000  0.33487000  1.0
  S  S111  1  0.02100000  0.83388000  0.66513000  1.0
  S  S112  1  0.22533000  0.04632000  0.46764000  1.0
  S  S113  1  0.77467000  0.54632000  0.53236000  1.0
  S  S114  1  0.24961000  0.92710000  0.26498000  1.0
  S  S115  1  0.75039000  0.42710000  0.73502000  1.0
  N  N116  1  0.13349000  0.51467000  0.27722000  1.0
  N  N117  1  0.86650000  0.01467000  0.72277000  1.0
  N  N118  1  0.04603000  0.60422000  0.89801000  1.0
  N  N119  1  0.95397000  0.10422000  0.10199000  1.0
  N  N120  1  0.43064000  0.89285000  0.44491000  1.0
  N  N121  1  0.56936000  0.39285000  0.55508000  1.0
  N  N122  1  0.87529000  0.00900000  0.31507000  1.0
  N  N123  1  0.12471000  0.50900000  0.68493000  1.0
  N  N124  1  0.44086000  0.17089000  0.82173000  1.0
  N  N125  1  0.55913000  0.67089000  0.17827000  1.0
