# generated using pymatgen
data_Al2H6C16S2N2O15
_symmetry_space_group_name_H-M   'P 1'
_cell_length_a   6.82378000
_cell_length_b   11.05007992
_cell_length_c   12.35405339
_cell_angle_alpha   65.26084568
_cell_angle_beta   77.93763799
_cell_angle_gamma   73.55866230
_symmetry_Int_Tables_number   1
_chemical_formula_structural   Al2H6C16S2N2O15
_chemical_formula_sum   'Al2 H6 C16 S2 N2 O15'
_cell_volume   807.05360029
_cell_formula_units_Z   1
loop_
 _symmetry_equiv_pos_site_id
 _symmetry_equiv_pos_as_xyz
  1  'x, y, z'
loop_
 _atom_site_type_symbol
 _atom_site_label
 _atom_site_symmetry_multiplicity
 _atom_site_fract_x
 _atom_site_fract_y
 _atom_site_fract_z
 _atom_site_occupancy
  Al  Al0  1  0.49936000  0.49956000  0.50212000  1.0
  Al  Al1  1  0.00146000  0.50055000  0.49834000  1.0
  H  H2  1  0.29036000  0.32664000  0.60354000  1.0
  H  H3  1  0.74443000  0.61960000  0.35341000  1.0
  H  H4  1  0.36138000  0.87429000  0.53444000  1.0
  H  H5  1  0.63983000  0.12320000  0.46753000  1.0
  H  H6  1  0.32274000  0.43745000  0.85539000  1.0
  H  H7  1  0.85405000  0.56369000  0.10086000  1.0
  C  C8  1  0.69378000  0.46939000  0.70348000  1.0
  C  C9  1  0.84643000  0.27080000  0.50833000  1.0
  C  C10  1  0.31299000  0.53369000  0.29552000  1.0
  C  C11  1  0.15362000  0.72579000  0.49617000  1.0
  C  C12  1  0.92750000  0.13259000  0.50164000  1.0
  C  C13  1  0.07265000  0.86464000  0.50152000  1.0
  C  C14  1  0.13090000  0.06099000  0.51778000  1.0
  C  C15  1  0.86970000  0.93653000  0.48439000  1.0
  C  C16  1  0.20369000  0.92978000  0.51941000  1.0
  C  C17  1  0.79717000  0.06765000  0.48316000  1.0
  C  C18  1  0.57949000  0.53762000  0.11477000  1.0
  C  C19  1  0.43900000  0.46119000  0.88690000  1.0
  C  C20  1  0.38793000  0.52262000  0.18019000  1.0
  C  C21  1  0.62725000  0.47779000  0.82149000  1.0
  C  C22  1  0.42275000  0.48125000  0.99404000  1.0
  C  C23  1  0.59835000  0.51406000  0.00795000  1.0
  S  S24  1  0.23638000  0.47545000  0.11315000  1.0
  S  S25  1  0.78488000  0.51898000  0.88890000  1.0
  N  N26  1  0.28233000  0.12936000  0.52327000  1.0
  N  N27  1  0.71587000  0.87127000  0.47669000  1.0
  O  O28  1  0.56474000  0.44314000  0.65966000  1.0
  O  O29  1  0.97496000  0.31939000  0.53043000  1.0
  O  O30  1  0.13065000  0.51609000  0.33989000  1.0
  O  O31  1  0.33855000  0.66872000  0.51622000  1.0
  O  O32  1  0.43516000  0.56081000  0.34356000  1.0
  O  O33  1  0.02859000  0.67903000  0.46926000  1.0
  O  O34  1  0.87256000  0.48837000  0.65520000  1.0
  O  O35  1  0.65856000  0.32491000  0.49428000  1.0
  O  O36  1  0.26158000  0.42501000  0.55923000  1.0
  O  O37  1  0.73993000  0.57134000  0.43982000  1.0
  O  O38  1  0.35405000  0.20319000  0.42479000  1.0
  O  O39  1  0.33481000  0.10417000  0.62187000  1.0
  O  O40  1  0.65603000  0.90538000  0.37842000  1.0
  O  O41  1  0.64712000  0.79362000  0.57438000  1.0
  O  O42  1  0.72306000  0.57106000  0.15113000  1.0
