# generated using pymatgen
data_NaYH16(C3O2)6
_symmetry_space_group_name_H-M   'P 1'
_cell_length_a   6.79323000
_cell_length_b   7.46901000
_cell_length_c   19.85590000
_cell_angle_alpha   90.00020000
_cell_angle_beta   99.85220000
_cell_angle_gamma   89.99960000
_symmetry_Int_Tables_number   1
_chemical_formula_structural   NaYH16(C3O2)6
_chemical_formula_sum   'Na2 Y2 H32 C36 O24'
_cell_volume   992.60497167
_cell_formula_units_Z   2
loop_
 _symmetry_equiv_pos_site_id
 _symmetry_equiv_pos_as_xyz
  1  'x, y, z'
loop_
 _atom_site_type_symbol
 _atom_site_label
 _atom_site_symmetry_multiplicity
 _atom_site_fract_x
 _atom_site_fract_y
 _atom_site_fract_z
 _atom_site_occupancy
  Na  Na0  1  0.33700000  0.74993000  0.67296000  1.0
  Na  Na1  1  0.66299000  0.24992000  0.32703000  1.0
  Y  Y2  1  0.20701000  0.24990000  0.41451000  1.0
  Y  Y3  1  0.79298000  0.74991000  0.58550000  1.0
  H  H4  1  0.39165000  0.35045000  0.18931000  1.0
  H  H5  1  0.20386000  0.64961000  0.81085000  1.0
  H  H6  1  0.79614000  0.14961000  0.18915000  1.0
  H  H7  1  0.60834000  0.85045000  0.81069000  1.0
  H  H8  1  0.32644000  0.35390000  0.06229000  1.0
  H  H9  1  0.26534000  0.64600000  0.93783000  1.0
  H  H10  1  0.73465000  0.14600000  0.06217000  1.0
  H  H11  1  0.67355000  0.85389000  0.93771000  1.0
  H  H12  1  0.28109000  0.14922000  0.96888000  1.0
  H  H13  1  0.31265000  0.85080000  0.03114000  1.0
  H  H14  1  0.68734000  0.35080000  0.96886000  1.0
  H  H15  1  0.71892000  0.64921000  0.03112000  1.0
  H  H16  1  0.21707000  0.14727000  0.84226000  1.0
  H  H17  1  0.37514000  0.85313000  0.15773000  1.0
  H  H18  1  0.62487000  0.35311000  0.84227000  1.0
  H  H19  1  0.78294000  0.64725000  0.15774000  1.0
  H  H20  1  0.44257000  0.73199000  0.43622000  1.0
  H  H21  1  0.00560000  0.26798000  0.56377000  1.0
  H  H22  1  0.99440000  0.76798000  0.43623000  1.0
  H  H23  1  0.55742000  0.23199000  0.56379000  1.0
  H  H24  1  0.28045000  0.88321000  0.34453000  1.0
  H  H25  1  0.93564000  0.11670000  0.65547000  1.0
  H  H26  1  0.06436000  0.61669000  0.34453000  1.0
  H  H27  1  0.71956000  0.38321000  0.65547000  1.0
  H  H28  1  0.48059000  0.40898000  0.73570000  1.0
  H  H29  1  0.74431000  0.59089000  0.26437000  1.0
  H  H30  1  0.25570000  0.09089000  0.73564000  1.0
  H  H31  1  0.51942000  0.90898000  0.26430000  1.0
  H  H32  1  0.24558000  0.39753000  0.72693000  1.0
  H  H33  1  0.51807000  0.60272000  0.27313000  1.0
  H  H34  1  0.48193000  0.10271000  0.72687000  1.0
  H  H35  1  0.75442000  0.89753000  0.27307000  1.0
  C  C36  1  0.13575000  0.24990000  0.27278000  1.0
  C  C37  1  0.86424000  0.74990000  0.72722000  1.0
  C  C38  1  0.09783000  0.24991000  0.19702000  1.0
  C  C39  1  0.90217000  0.74991000  0.80298000  1.0
  C  C40  1  0.24847000  0.30449000  0.16114000  1.0
  C  C41  1  0.08868000  0.69556000  0.83895000  1.0
  C  C42  1  0.91131000  0.19556000  0.16105000  1.0
  C  C43  1  0.75152000  0.80449000  0.83886000  1.0
  C  C44  1  0.21180000  0.30527000  0.09009000  1.0
  C  C45  1  0.12299000  0.69487000  0.91001000  1.0
  C  C46  1  0.87700000  0.19487000  0.08999000  1.0
  C  C47  1  0.78819000  0.80526000  0.90991000  1.0
  C  C48  1  0.02617000  0.25004000  0.05335000  1.0
  C  C49  1  0.97382000  0.75004000  0.94665000  1.0
  C  C50  1  0.98877000  0.25009000  0.97802000  1.0
  C  C51  1  0.01123000  0.75008000  0.02198000  1.0
  C  C52  1  0.13777000  0.19594000  0.94113000  1.0
  C  C53  1  0.19700000  0.80434000  0.05889000  1.0
  C  C54  1  0.80300000  0.30434000  0.94111000  1.0
  C  C55  1  0.86224000  0.69593000  0.05887000  1.0
  C  C56  1  0.10216000  0.19437000  0.87013000  1.0
  C  C57  1  0.23236000  0.80589000  0.12990000  1.0
  C  C58  1  0.76764000  0.30589000  0.87010000  1.0
  C  C59  1  0.89785000  0.69435000  0.12987000  1.0
  C  C60  1  0.91673000  0.25005000  0.83380000  1.0
  C  C61  1  0.08328000  0.75005000  0.16621000  1.0
  C  C62  1  0.87880000  0.24998000  0.75771000  1.0
  C  C63  1  0.12121000  0.74997000  0.24229000  1.0
  C  C64  1  0.31267000  0.81331000  0.44337000  1.0
  C  C65  1  0.86863000  0.18653000  0.55661000  1.0
  C  C66  1  0.13136000  0.68653000  0.44339000  1.0
  C  C67  1  0.68732000  0.31331000  0.55663000  1.0
  C  C68  1  0.36472000  0.91397000  0.51073000  1.0
  C  C69  1  0.85350000  0.08588000  0.48926000  1.0
  C  C70  1  0.14650000  0.58587000  0.51074000  1.0
  C  C71  1  0.63526000  0.41398000  0.48927000  1.0
  O  O72  1  0.99048000  0.23651000  0.30605000  1.0
  O  O73  1  0.68561000  0.76340000  0.69400000  1.0
  O  O74  1  0.31438000  0.26340000  0.30600000  1.0
  O  O75  1  0.00951000  0.73650000  0.69395000  1.0
  O  O76  1  0.70457000  0.29192000  0.72567000  1.0
  O  O77  1  0.97899000  0.70799000  0.27431000  1.0
  O  O78  1  0.02101000  0.20799000  0.72569000  1.0
  O  O79  1  0.29543000  0.79192000  0.27433000  1.0
  O  O80  1  0.26983000  0.94321000  0.39001000  1.0
  O  O81  1  0.87944000  0.05667000  0.60999000  1.0
  O  O82  1  0.12056000  0.55667000  0.39001000  1.0
  O  O83  1  0.73017000  0.44321000  0.60999000  1.0
  O  O84  1  0.46479000  0.83271000  0.56186000  1.0
  O  O85  1  0.90243000  0.16726000  0.43816000  1.0
  O  O86  1  0.09756000  0.66726000  0.56184000  1.0
  O  O87  1  0.53520000  0.33269000  0.43814000  1.0
  O  O88  1  0.30456000  0.07344000  0.51243000  1.0
  O  O89  1  0.79197000  0.92632000  0.48757000  1.0
  O  O90  1  0.20802000  0.42630000  0.51243000  1.0
  O  O91  1  0.69542000  0.57343000  0.48758000  1.0
  O  O92  1  0.35832000  0.48089000  0.73417000  1.0
  O  O93  1  0.62349000  0.51918000  0.26597000  1.0
  O  O94  1  0.37652000  0.01918000  0.73403000  1.0
  O  O95  1  0.64169000  0.98089000  0.26583000  1.0
