# generated using pymatgen
data_Zn4H32(C12O5)3
_symmetry_space_group_name_H-M   'P 1'
_cell_length_a   17.79970000
_cell_length_b   18.69840000
_cell_length_c   23.38899858
_cell_angle_alpha   113.55471865
_cell_angle_beta   110.28689785
_cell_angle_gamma   90.06420000
_symmetry_Int_Tables_number   1
_chemical_formula_structural   Zn4H32(C12O5)3
_chemical_formula_sum   'Zn8 H64 C72 O30'
_cell_volume   6604.29495754
_cell_formula_units_Z   2
loop_
 _symmetry_equiv_pos_site_id
 _symmetry_equiv_pos_as_xyz
  1  'x, y, z'
loop_
 _atom_site_type_symbol
 _atom_site_label
 _atom_site_symmetry_multiplicity
 _atom_site_fract_x
 _atom_site_fract_y
 _atom_site_fract_z
 _atom_site_occupancy
  Zn  Zn0  1  0.11774000  0.52585000  0.05591000  1.0
  Zn  Zn1  1  0.97167000  0.38885000  0.94843000  1.0
  Zn  Zn2  1  0.97662000  0.56150000  0.95119000  1.0
  Zn  Zn3  1  0.93819000  0.53445000  0.06559000  1.0
  Zn  Zn4  1  0.38535000  0.97500000  0.95263000  1.0
  Zn  Zn5  1  0.52880000  0.94575000  0.06110000  1.0
  Zn  Zn6  1  0.52438000  0.11716000  0.06341000  1.0
  Zn  Zn7  1  0.56782000  0.97624000  0.94878000  1.0
  H  H8  1  0.49437000  0.86952000  0.73836000  1.0
  H  H9  1  0.43393000  0.80644000  0.61231000  1.0
  H  H10  1  0.19415000  0.80970000  0.61919000  1.0
  H  H11  1  0.31979000  0.69512000  0.38977000  1.0
  H  H12  1  0.01905000  0.63742000  0.27470000  1.0
  H  H13  1  0.08202000  0.70051000  0.40066000  1.0
  H  H14  1  0.62882000  0.24668000  0.26963000  1.0
  H  H15  1  0.69912000  0.31175000  0.39534000  1.0
  H  H16  1  0.70086000  0.08100000  0.39642000  1.0
  H  H17  1  0.81032000  0.42403000  0.61414000  1.0
  H  H18  1  0.86866000  0.25995000  0.74275000  1.0
  H  H19  1  0.80961000  0.19392000  0.61653000  1.0
  H  H20  1  0.19741000  0.78742000  0.08902000  1.0
  H  H21  1  0.12542000  0.78261000  0.01244000  1.0
  H  H22  1  0.21414000  0.87687000  0.01500000  1.0
  H  H23  1  0.28582000  0.88105000  0.09146000  1.0
  H  H24  1  0.21416000  0.78057000  0.90398000  1.0
  H  H25  1  0.28621000  0.71592000  0.89975000  1.0
  H  H26  1  0.12617000  0.68501000  0.90102000  1.0
  H  H27  1  0.19941000  0.62158000  0.89820000  1.0
  H  H28  1  0.30220000  0.69505000  0.08581000  1.0
  H  H29  1  0.30297000  0.62688000  0.00814000  1.0
  H  H30  1  0.39113000  0.72059000  0.00962000  1.0
  H  H31  1  0.39093000  0.78836000  0.08757000  1.0
  H  H32  1  0.89114000  0.29498000  0.09551000  1.0
  H  H33  1  0.88827000  0.22797000  0.01546000  1.0
  H  H34  1  0.79998000  0.13440000  0.01422000  1.0
  H  H35  1  0.80295000  0.20208000  0.09412000  1.0
  H  H36  1  0.69638000  0.13143000  0.90839000  1.0
  H  H37  1  0.62377000  0.19556000  0.91147000  1.0
  H  H38  1  0.78334000  0.22609000  0.90936000  1.0
  H  H39  1  0.71100000  0.29043000  0.91408000  1.0
  H  H40  1  0.78893000  0.38962000  0.10298000  1.0
  H  H41  1  0.71574000  0.38844000  0.02915000  1.0
  H  H42  1  0.62690000  0.29454000  0.02679000  1.0
  H  H43  1  0.69974000  0.29619000  0.10088000  1.0
  H  H44  1  0.16180000  0.26980000  0.06265000  1.0
  H  H45  1  0.24586000  0.34693000  0.10371000  1.0
  H  H46  1  0.33337000  0.25446000  0.10694000  1.0
  H  H47  1  0.24880000  0.17765000  0.06475000  1.0
  H  H48  1  0.39402000  0.29619000  0.03978000  1.0
  H  H49  1  0.35335000  0.24818000  0.95084000  1.0
  H  H50  1  0.30523000  0.38790000  0.03584000  1.0
  H  H51  1  0.26455000  0.33869000  0.94689000  1.0
  H  H52  1  0.10194000  0.19942000  0.93451000  1.0
  H  H53  1  0.14329000  0.22768000  0.88708000  1.0
  H  H54  1  0.23230000  0.13645000  0.89019000  1.0
  H  H55  1  0.19042000  0.10787000  0.93718000  1.0
  H  H56  1  0.89945000  0.80351000  0.07114000  1.0
  H  H57  1  0.85500000  0.77350000  0.11667000  1.0
  H  H58  1  0.76888000  0.86726000  0.11439000  1.0
  H  H59  1  0.81238000  0.89529000  0.06736000  1.0
  H  H60  1  0.64916000  0.75696000  0.05453000  1.0
  H  H61  1  0.60653000  0.70870000  0.96562000  1.0
  H  H62  1  0.73615000  0.66336000  0.05557000  1.0
  H  H63  1  0.69383000  0.61645000  0.96664000  1.0
  H  H64  1  0.83999000  0.73726000  0.94330000  1.0
  H  H65  1  0.75717000  0.65982000  0.89970000  1.0
  H  H66  1  0.66758000  0.75063000  0.89769000  1.0
  H  H67  1  0.75067000  0.82769000  0.93942000  1.0
  H  H68  1  0.27708000  0.89705000  0.79676000  1.0
  H  H69  1  0.23306000  0.60615000  0.21209000  1.0
  H  H70  1  0.60059000  0.98734000  0.21937000  1.0
  H  H71  1  0.89453000  0.51902000  0.79210000  1.0
  C  C72  1  0.14136000  0.36109000  0.99596000  1.0
  C  C73  1  0.90761000  0.41354000  0.82323000  1.0
  C  C74  1  0.14444000  0.63510000  0.99862000  1.0
  C  C75  1  0.86129000  0.64453000  0.01091000  1.0
  C  C76  1  0.09298000  0.59375000  0.18732000  1.0
  C  C77  1  0.86085000  0.36743000  0.01098000  1.0
  C  C78  1  0.35984000  0.86137000  0.00319000  1.0
  C  C79  1  0.58383000  0.09336000  0.18893000  1.0
  C  C80  1  0.35629000  0.13980000  0.00284000  1.0
  C  C81  1  0.64520000  0.14203000  0.00822000  1.0
  C  C82  1  0.41741000  0.91199000  0.82385000  1.0
  C  C83  1  0.64708000  0.86761000  0.00721000  1.0
  C  C84  1  0.37958000  0.87483000  0.74962000  1.0
  C  C85  1  0.42875000  0.85589000  0.71123000  1.0
  C  C86  1  0.39551000  0.82109000  0.64157000  1.0
  C  C87  1  0.30986000  0.80403000  0.60744000  1.0
  C  C88  1  0.25995000  0.82245000  0.64470000  1.0
  C  C89  1  0.29357000  0.85739000  0.71525000  1.0
  C  C90  1  0.27416000  0.76852000  0.53617000  1.0
  C  C91  1  0.24205000  0.73781000  0.47474000  1.0
  C  C92  1  0.20528000  0.70204000  0.40350000  1.0
  C  C93  1  0.25388000  0.68278000  0.36513000  1.0
  C  C94  1  0.21879000  0.64741000  0.29460000  1.0
  C  C95  1  0.13264000  0.63080000  0.26144000  1.0
  C  C96  1  0.08480000  0.65058000  0.30096000  1.0
  C  C97  1  0.11944000  0.68547000  0.37056000  1.0
  C  C98  1  0.62498000  0.12874000  0.26270000  1.0
  C  C99  1  0.64514000  0.21168000  0.29850000  1.0
  C  C100  1  0.68400000  0.24768000  0.36775000  1.0
  C  C101  1  0.70421000  0.20031000  0.40380000  1.0
  C  C102  1  0.68539000  0.11773000  0.36910000  1.0
  C  C103  1  0.64575000  0.08125000  0.29890000  1.0
  C  C104  1  0.74198000  0.23648000  0.47481000  1.0
  C  C105  1  0.77250000  0.26844000  0.53624000  1.0
  C  C106  1  0.80632000  0.30500000  0.60741000  1.0
  C  C107  1  0.82294000  0.38764000  0.64187000  1.0
  C  C108  1  0.85596000  0.42468000  0.71240000  1.0
  C  C109  1  0.87248000  0.37765000  0.74912000  1.0
  C  C110  1  0.85526000  0.29459000  0.71348000  1.0
  C  C111  1  0.82282000  0.25807000  0.64394000  1.0
  C  C112  1  0.18890000  0.77815000  0.03752000  1.0
  C  C113  1  0.24789000  0.84071000  0.03913000  1.0
  C  C114  1  0.30305000  0.79903000  0.00150000  1.0
  C  C115  1  0.24807000  0.74441000  0.92794000  1.0
  C  C116  1  0.18975000  0.68153000  0.92647000  1.0
  C  C117  1  0.20407000  0.69381000  0.99902000  1.0
  C  C118  1  0.29244000  0.68708000  0.03451000  1.0
  C  C119  1  0.35104000  0.74916000  0.03568000  1.0
  C  C120  1  0.85018000  0.25686000  0.04347000  1.0
  C  C121  1  0.79135000  0.19467000  0.04254000  1.0
  C  C122  1  0.70235000  0.20389000  0.00933000  1.0
  C  C123  1  0.68743000  0.19153000  0.93667000  1.0
  C  C124  1  0.74555000  0.25420000  0.93782000  1.0
  C  C125  1  0.80148000  0.30883000  0.01121000  1.0
  C  C126  1  0.74927000  0.35027000  0.05100000  1.0
  C  C127  1  0.69035000  0.28812000  0.04961000  1.0
  C  C128  1  0.21853000  0.28942000  0.06034000  1.0
  C  C129  1  0.27682000  0.22819000  0.06221000  1.0
  C  C130  1  0.29728000  0.19794000  0.99812000  1.0
  C  C131  1  0.33714000  0.26936000  0.99554000  1.0
  C  C132  1  0.27823000  0.32996000  0.99306000  1.0
  C  C133  1  0.19831000  0.30034000  0.99459000  1.0
  C  C134  1  0.15927000  0.22002000  0.93387000  1.0
  C  C135  1  0.21811000  0.15936000  0.93584000  1.0
  C  C136  1  0.84141000  0.78276000  0.07081000  1.0
  C  C137  1  0.78349000  0.84450000  0.06898000  1.0
  C  C138  1  0.70372000  0.80647000  0.00598000  1.0
  C  C139  1  0.66415000  0.73536000  0.00936000  1.0
  C  C140  1  0.72218000  0.67371000  0.01022000  1.0
  C  C141  1  0.80187000  0.70291000  0.00828000  1.0
  C  C142  1  0.78299000  0.71661000  0.94434000  1.0
  C  C143  1  0.72403000  0.77705000  0.94254000  1.0
  O  O144  1  0.00021000  0.50285000  0.00643000  1.0
  O  O145  1  0.17166000  0.43257000  0.03893000  1.0
  O  O146  1  0.92012000  0.36826000  0.85309000  1.0
  O  O147  1  0.07037000  0.62534000  0.95989000  1.0
  O  O148  1  0.06751000  0.33632000  0.95557000  1.0
  O  O149  1  0.17191000  0.60118000  0.03762000  1.0
  O  O150  1  0.92391000  0.49031000  0.85393000  1.0
  O  O151  1  0.90145000  0.63346000  0.97318000  1.0
  O  O152  1  0.01578000  0.58028000  0.16029000  1.0
  O  O153  1  0.86790000  0.61219000  0.05097000  1.0
  O  O154  1  0.14057000  0.57701000  0.15385000  1.0
  O  O155  1  0.89949000  0.33756000  0.97228000  1.0
  O  O156  1  0.86811000  0.44064000  0.04884000  1.0
  O  O157  1  0.50209000  0.00332000  0.00499000  1.0
  O  O158  1  0.32817000  0.89936000  0.96829000  1.0
  O  O159  1  0.56539000  0.01668000  0.15824000  1.0
  O  O160  1  0.42863000  0.16872000  0.04608000  1.0
  O  O161  1  0.43484000  0.87160000  0.03962000  1.0
  O  O162  1  0.32926000  0.06668000  0.96421000  1.0
  O  O163  1  0.56850000  0.13876000  0.15920000  1.0
  O  O164  1  0.60719000  0.16711000  0.04778000  1.0
  O  O165  1  0.49447000  0.92854000  0.85254000  1.0
  O  O166  1  0.63989000  0.06987000  0.96805000  1.0
  O  O167  1  0.36819000  0.92572000  0.85577000  1.0
  O  O168  1  0.61773000  0.88679000  0.05308000  1.0
  O  O169  1  0.63337000  0.89553000  0.96359000  1.0
  O  O170  1  0.24177000  0.87317000  0.74764000  1.0
  O  O171  1  0.26926000  0.63054000  0.26095000  1.0
  O  O172  1  0.62883000  0.00162000  0.26854000  1.0
  O  O173  1  0.87077000  0.50437000  0.74262000  1.0
