# generated using pymatgen
data_CuH4C6S5IO
_symmetry_space_group_name_H-M   'P 1'
_cell_length_a   4.34899000
_cell_length_b   12.68780000
_cell_length_c   20.57040000
_cell_angle_alpha   89.99980000
_cell_angle_beta   90.00000000
_cell_angle_gamma   89.99980000
_symmetry_Int_Tables_number   1
_chemical_formula_structural   CuH4C6S5IO
_chemical_formula_sum   'Cu4 H16 C24 S20 I4 O4'
_cell_volume   1135.05647381
_cell_formula_units_Z   4
loop_
 _symmetry_equiv_pos_site_id
 _symmetry_equiv_pos_as_xyz
  1  'x, y, z'
loop_
 _atom_site_type_symbol
 _atom_site_label
 _atom_site_symmetry_multiplicity
 _atom_site_fract_x
 _atom_site_fract_y
 _atom_site_fract_z
 _atom_site_occupancy
  Cu  Cu0  1  0.65152000  0.06425000  0.98085000  1.0
  Cu  Cu1  1  0.15149000  0.93574000  0.01915000  1.0
  Cu  Cu2  1  0.65152000  0.56425000  0.51915000  1.0
  Cu  Cu3  1  0.15149000  0.43574000  0.48085000  1.0
  H  H4  1  0.38174000  0.93251000  0.63912000  1.0
  H  H5  1  0.88173000  0.06749000  0.36088000  1.0
  H  H6  1  0.38176000  0.43251000  0.86087000  1.0
  H  H7  1  0.88175000  0.56749000  0.13912000  1.0
  H  H8  1  0.42072000  0.10956000  0.58537000  1.0
  H  H9  1  0.92074000  0.89045000  0.41463000  1.0
  H  H10  1  0.42074000  0.60956000  0.91462000  1.0
  H  H11  1  0.92074000  0.39045000  0.08537000  1.0
  H  H12  1  0.09834000  0.16016000  0.54050000  1.0
  H  H13  1  0.59836000  0.83984000  0.45951000  1.0
  H  H14  1  0.09836000  0.66016000  0.95950000  1.0
  H  H15  1  0.59837000  0.33984000  0.04049000  1.0
  H  H16  1  0.06702000  0.84886000  0.61404000  1.0
  H  H17  1  0.56702000  0.15114000  0.38596000  1.0
  H  H18  1  0.06704000  0.34886000  0.88596000  1.0
  H  H19  1  0.56701000  0.65114000  0.11404000  1.0
  C  C20  1  0.48993000  0.13739000  0.83129000  1.0
  C  C21  1  0.98991000  0.86261000  0.16872000  1.0
  C  C22  1  0.48992000  0.63739000  0.66871000  1.0
  C  C23  1  0.98993000  0.36261000  0.33128000  1.0
  C  C24  1  0.14820000  0.04164000  0.74564000  1.0
  C  C25  1  0.64819000  0.95836000  0.25436000  1.0
  C  C26  1  0.14819000  0.54164000  0.75436000  1.0
  C  C27  1  0.64820000  0.45835000  0.24564000  1.0
  C  C28  1  0.19989000  0.13973000  0.71996000  1.0
  C  C29  1  0.69988000  0.86027000  0.28005000  1.0
  C  C30  1  0.19988000  0.63973000  0.78004000  1.0
  C  C31  1  0.69989000  0.36026000  0.21995000  1.0
  C  C32  1  0.13314000  0.92758000  0.63125000  1.0
  C  C33  1  0.63314000  0.07242000  0.36875000  1.0
  C  C34  1  0.13317000  0.42758000  0.86875000  1.0
  C  C35  1  0.63314000  0.57242000  0.13125000  1.0
  C  C36  1  0.01072000  0.01022000  0.58503000  1.0
  C  C37  1  0.51075000  0.98978000  0.41497000  1.0
  C  C38  1  0.01075000  0.51022000  0.91497000  1.0
  C  C39  1  0.51076000  0.48979000  0.08503000  1.0
  C  C40  1  0.16970000  0.11592000  0.58379000  1.0
  C  C41  1  0.66972000  0.88409000  0.41621000  1.0
  C  C42  1  0.16971000  0.61592000  0.91620000  1.0
  C  C43  1  0.66973000  0.38409000  0.08379000  1.0
  S  S44  1  0.69566000  0.17506000  0.89551000  1.0
  S  S45  1  0.19565000  0.82494000  0.10450000  1.0
  S  S46  1  0.69565000  0.67506000  0.60449000  1.0
  S  S47  1  0.19564000  0.32493000  0.39551000  1.0
  S  S48  1  0.31997000  0.01502000  0.82054000  1.0
  S  S49  1  0.81995000  0.98498000  0.17947000  1.0
  S  S50  1  0.31996000  0.51501000  0.67946000  1.0
  S  S51  1  0.81995000  0.48498000  0.32053000  1.0
  S  S52  1  0.43561000  0.22082000  0.76611000  1.0
  S  S53  1  0.93561000  0.77919000  0.23390000  1.0
  S  S54  1  0.43560000  0.72082000  0.73389000  1.0
  S  S55  1  0.93563000  0.27918000  0.26610000  1.0
  S  S56  1  0.03554000  0.19784000  0.65144000  1.0
  S  S57  1  0.53555000  0.80216000  0.34857000  1.0
  S  S58  1  0.03554000  0.69785000  0.84856000  1.0
  S  S59  1  0.53557000  0.30215000  0.15143000  1.0
  S  S60  1  0.93677000  0.94071000  0.70973000  1.0
  S  S61  1  0.43675000  0.05929000  0.29027000  1.0
  S  S62  1  0.93677000  0.44071000  0.79027000  1.0
  S  S63  1  0.43677000  0.55929000  0.20973000  1.0
  I  I64  1  0.65598000  0.86402000  0.95575000  1.0
  I  I65  1  0.15599000  0.13597000  0.04425000  1.0
  I  I66  1  0.65598000  0.36402000  0.54425000  1.0
  I  I67  1  0.15598000  0.63597000  0.45575000  1.0
  O  O68  1  0.77873000  0.99288000  0.55273000  1.0
  O  O69  1  0.27875000  0.00712000  0.44728000  1.0
  O  O70  1  0.77876000  0.49289000  0.94727000  1.0
  O  O71  1  0.27873000  0.50712000  0.05272000  1.0
