# generated using pymatgen
data_Ni3P2H66C78(N3O5)4
_symmetry_space_group_name_H-M   'P 1'
_cell_length_a   13.66920000
_cell_length_b   13.66920000
_cell_length_c   13.66920000
_cell_angle_alpha   74.64580000
_cell_angle_beta   74.64570000
_cell_angle_gamma   74.64570000
_symmetry_Int_Tables_number   1
_chemical_formula_structural   Ni3P2H66C78(N3O5)4
_chemical_formula_sum   'Ni3 P2 H66 C78 N12 O20'
_cell_volume   2322.35107026
_cell_formula_units_Z   1
loop_
 _symmetry_equiv_pos_site_id
 _symmetry_equiv_pos_as_xyz
  1  'x, y, z'
loop_
 _atom_site_type_symbol
 _atom_site_label
 _atom_site_symmetry_multiplicity
 _atom_site_fract_x
 _atom_site_fract_y
 _atom_site_fract_z
 _atom_site_occupancy
  Ni  Ni0  1  0.00000000  0.50000000  0.00000000  1.0
  Ni  Ni1  1  0.00000000  0.00000000  0.50000000  1.0
  Ni  Ni2  1  0.50000000  0.00000000  0.00000000  1.0
  P  P3  1  0.39434000  0.39434000  0.39434000  1.0
  P  P4  1  0.60566000  0.60566000  0.60566000  1.0
  H  H5  1  0.57068000  0.29807000  0.25699000  1.0
  H  H6  1  0.25699000  0.57068000  0.29807000  1.0
  H  H7  1  0.29807000  0.25699000  0.57068000  1.0
  H  H8  1  0.42932000  0.70193000  0.74301000  1.0
  H  H9  1  0.74301000  0.42932000  0.70193000  1.0
  H  H10  1  0.70193000  0.74301000  0.42932000  1.0
  H  H11  1  0.02131000  0.29972000  0.05495000  1.0
  H  H12  1  0.05495000  0.02131000  0.29972000  1.0
  H  H13  1  0.29972000  0.05496000  0.02131000  1.0
  H  H14  1  0.97869000  0.70028000  0.94505000  1.0
  H  H15  1  0.94505000  0.97869000  0.70028000  1.0
  H  H16  1  0.70028000  0.94504000  0.97869000  1.0
  H  H17  1  0.11513000  0.33290000  0.96136000  1.0
  H  H18  1  0.96136000  0.11513000  0.33290000  1.0
  H  H19  1  0.33290000  0.96136000  0.11513000  1.0
  H  H20  1  0.88486000  0.66710000  0.03864000  1.0
  H  H21  1  0.03864000  0.88486000  0.66710000  1.0
  H  H22  1  0.66710000  0.03864000  0.88487000  1.0
  H  H23  1  0.45401000  0.59870000  0.33755000  1.0
  H  H24  1  0.33755000  0.45401000  0.59870000  1.0
  H  H25  1  0.59870000  0.33755000  0.45401000  1.0
  H  H26  1  0.54599000  0.40129000  0.66245000  1.0
  H  H27  1  0.66245000  0.54599000  0.40130000  1.0
  H  H28  1  0.40130000  0.66245000  0.54599000  1.0
  H  H29  1  0.72716000  0.35992000  0.14040000  1.0
  H  H30  1  0.14040000  0.72716000  0.35992000  1.0
  H  H31  1  0.35992000  0.14040000  0.72716000  1.0
  H  H32  1  0.27284000  0.64008000  0.85960000  1.0
  H  H33  1  0.85960000  0.27284000  0.64008000  1.0
  H  H34  1  0.64008000  0.85960000  0.27284000  1.0
  H  H35  1  0.07731000  0.37223000  0.64054000  1.0
  H  H36  1  0.64055000  0.07731000  0.37224000  1.0
  H  H37  1  0.37223000  0.64055000  0.07730000  1.0
  H  H38  1  0.92269000  0.62777000  0.35945000  1.0
  H  H39  1  0.35945000  0.92269000  0.62776000  1.0
  H  H40  1  0.62777000  0.35945000  0.92269000  1.0
  H  H41  1  0.60785000  0.66012000  0.21591000  1.0
  H  H42  1  0.21591000  0.60785000  0.66012000  1.0
  H  H43  1  0.66012000  0.21591000  0.60785000  1.0
  H  H44  1  0.39215000  0.33988000  0.78409000  1.0
  H  H45  1  0.78409000  0.39215000  0.33988000  1.0
  H  H46  1  0.33988000  0.78409000  0.39215000  1.0
  H  H47  1  0.88124000  0.66507000  0.53494000  1.0
  H  H48  1  0.53493000  0.88123000  0.66507000  1.0
  H  H49  1  0.66507000  0.53493000  0.88124000  1.0
  H  H50  1  0.11876000  0.33493000  0.46506000  1.0
  H  H51  1  0.46507000  0.11876000  0.33493000  1.0
  H  H52  1  0.33493000  0.46507000  0.11876000  1.0
  H  H53  1  0.08783000  0.46146000  0.76168000  1.0
  H  H54  1  0.76168000  0.08783000  0.46146000  1.0
  H  H55  1  0.46146000  0.76168000  0.08783000  1.0
  H  H56  1  0.91217000  0.53854000  0.23832000  1.0
  H  H57  1  0.23832000  0.91217000  0.53854000  1.0
  H  H58  1  0.53854000  0.23832000  0.91217000  1.0
  H  H59  1  0.79488000  0.63221000  0.69990000  1.0
  H  H60  1  0.69990000  0.79488000  0.63221000  1.0
  H  H61  1  0.63221000  0.69990000  0.79488000  1.0
  H  H62  1  0.20512000  0.36779000  0.30010000  1.0
  H  H63  1  0.30010000  0.20512000  0.36779000  1.0
  H  H64  1  0.36779000  0.30010000  0.20512000  1.0
  H  H65  1  0.80725000  0.63918000  0.89829000  1.0
  H  H66  1  0.89829000  0.80725000  0.63918000  1.0
  H  H67  1  0.63918000  0.89829000  0.80725000  1.0
  H  H68  1  0.19275000  0.36082000  0.10171000  1.0
  H  H69  1  0.10171000  0.19275000  0.36082000  1.0
  H  H70  1  0.36082000  0.10171000  0.19275000  1.0
  C  C71  1  0.50265000  0.44415000  0.30604000  1.0
  C  C72  1  0.30604000  0.50265000  0.44415000  1.0
  C  C73  1  0.44415000  0.30604000  0.50265000  1.0
  C  C74  1  0.49735000  0.55585000  0.69396000  1.0
  C  C75  1  0.69396000  0.49735000  0.55585000  1.0
  C  C76  1  0.55585000  0.69396000  0.49735000  1.0
  C  C77  1  0.97682000  0.52114000  0.59889000  1.0
  C  C78  1  0.59889000  0.97682000  0.52115000  1.0
  C  C79  1  0.52115000  0.59889000  0.97682000  1.0
  C  C80  1  0.02317000  0.47886000  0.40111000  1.0
  C  C81  1  0.40111000  0.02318000  0.47885000  1.0
  C  C82  1  0.47886000  0.40111000  0.02317000  1.0
  C  C83  1  0.57915000  0.37721000  0.24893000  1.0
  C  C84  1  0.24893000  0.57915000  0.37721000  1.0
  C  C85  1  0.37721000  0.24893000  0.57916000  1.0
  C  C86  1  0.42084000  0.62279000  0.75107000  1.0
  C  C87  1  0.75107000  0.42084000  0.62279000  1.0
  C  C88  1  0.62279000  0.75107000  0.42084000  1.0
  C  C89  1  0.67644000  0.51337000  0.17207000  1.0
  C  C90  1  0.17207000  0.67644000  0.51337000  1.0
  C  C91  1  0.51337000  0.17207000  0.67644000  1.0
  C  C92  1  0.32356000  0.48663000  0.82793000  1.0
  C  C93  1  0.82793000  0.32356000  0.48663000  1.0
  C  C94  1  0.48663000  0.82793000  0.32356000  1.0
  C  C95  1  0.51265000  0.54637000  0.29360000  1.0
  C  C96  1  0.29360000  0.51265000  0.54637000  1.0
  C  C97  1  0.54637000  0.29360000  0.51265000  1.0
  C  C98  1  0.48735000  0.45363000  0.70640000  1.0
  C  C99  1  0.70640000  0.48735000  0.45363000  1.0
  C  C100  1  0.45363000  0.70640000  0.48735000  1.0
  C  C101  1  0.66582000  0.41140000  0.18327000  1.0
  C  C102  1  0.18327000  0.66582000  0.41140000  1.0
  C  C103  1  0.41140000  0.18327000  0.66582000  1.0
  C  C104  1  0.33418000  0.58860000  0.81673000  1.0
  C  C105  1  0.81673000  0.33418000  0.58860000  1.0
  C  C106  1  0.58860000  0.81673000  0.33418000  1.0
  C  C107  1  0.04476000  0.42903000  0.57860000  1.0
  C  C108  1  0.57860000  0.04476000  0.42903000  1.0
  C  C109  1  0.42903000  0.57860000  0.04476000  1.0
  C  C110  1  0.95524000  0.57097000  0.42140000  1.0
  C  C111  1  0.42140000  0.95524000  0.57097000  1.0
  C  C112  1  0.57098000  0.42140000  0.95524000  1.0
  C  C113  1  0.59860000  0.58101000  0.22613000  1.0
  C  C114  1  0.22612000  0.59860000  0.58101000  1.0
  C  C115  1  0.58101000  0.22612000  0.59860000  1.0
  C  C116  1  0.40140000  0.41899000  0.77388000  1.0
  C  C117  1  0.77388000  0.40140000  0.41899000  1.0
  C  C118  1  0.41899000  0.77387000  0.40140000  1.0
  C  C119  1  0.77278000  0.54967000  0.10570000  1.0
  C  C120  1  0.10570000  0.77278000  0.54966000  1.0
  C  C121  1  0.54966000  0.10571000  0.77278000  1.0
  C  C122  1  0.22722000  0.45034000  0.89430000  1.0
  C  C123  1  0.89430000  0.22722000  0.45034000  1.0
  C  C124  1  0.45034000  0.89429000  0.22722000  1.0
  C  C125  1  0.93216000  0.59213000  0.51998000  1.0
  C  C126  1  0.51998000  0.93216000  0.59212000  1.0
  C  C127  1  0.59213000  0.51998000  0.93216000  1.0
  C  C128  1  0.06784000  0.40788000  0.48002000  1.0
  C  C129  1  0.48002000  0.06784000  0.40788000  1.0
  C  C130  1  0.40788000  0.48002000  0.06784000  1.0
  C  C131  1  0.01023000  0.50898000  0.77333000  1.0
  C  C132  1  0.77333000  0.01023000  0.50898000  1.0
  C  C133  1  0.50898000  0.77333000  0.01023000  1.0
  C  C134  1  0.98977000  0.49102000  0.22667000  1.0
  C  C135  1  0.22667000  0.98977000  0.49102000  1.0
  C  C136  1  0.49102000  0.22666000  0.98977000  1.0
  C  C137  1  0.85765000  0.60219000  0.74153000  1.0
  C  C138  1  0.74153000  0.85765000  0.60219000  1.0
  C  C139  1  0.60219000  0.74153000  0.85765000  1.0
  C  C140  1  0.14235000  0.39781000  0.25847000  1.0
  C  C141  1  0.25847000  0.14235000  0.39781000  1.0
  C  C142  1  0.39781000  0.25847000  0.14235000  1.0
  C  C143  1  0.86418000  0.60221000  0.83987000  1.0
  C  C144  1  0.83987000  0.86418000  0.60221000  1.0
  C  C145  1  0.60221000  0.83987000  0.86418000  1.0
  C  C146  1  0.13582000  0.39779000  0.16013000  1.0
  C  C147  1  0.16013000  0.13582000  0.39779000  1.0
  C  C148  1  0.39779000  0.16013000  0.13582000  1.0
  N  N149  1  0.95087000  0.54247000  0.69972000  1.0
  N  N150  1  0.69972000  0.95087000  0.54247000  1.0
  N  N151  1  0.54247000  0.69972000  0.95087000  1.0
  N  N152  1  0.04913000  0.45753000  0.30028000  1.0
  N  N153  1  0.30028000  0.04913000  0.45753000  1.0
  N  N154  1  0.45753000  0.30028000  0.04913000  1.0
  N  N155  1  0.95933000  0.54385000  0.85858000  1.0
  N  N156  1  0.85858000  0.95933000  0.54385000  1.0
  N  N157  1  0.54385000  0.85858000  0.95933000  1.0
  N  N158  1  0.04067000  0.45615000  0.14141000  1.0
  N  N159  1  0.14142000  0.04067000  0.45615000  1.0
  N  N160  1  0.45615000  0.14142000  0.04067000  1.0
  O  O161  1  0.34281000  0.34281000  0.34281000  1.0
  O  O162  1  0.65719000  0.65719000  0.65719000  1.0
  O  O163  1  0.84773000  0.47919000  0.07406000  1.0
  O  O164  1  0.07406000  0.84773000  0.47919000  1.0
  O  O165  1  0.47919000  0.07406000  0.84773000  1.0
  O  O166  1  0.15227000  0.52081000  0.92594000  1.0
  O  O167  1  0.92594000  0.15227000  0.52081000  1.0
  O  O168  1  0.52081000  0.92594000  0.15227000  1.0
  O  O169  1  0.03641000  0.33937000  0.98425000  1.0
  O  O170  1  0.98425000  0.03640000  0.33937000  1.0
  O  O171  1  0.33937000  0.98425000  0.03641000  1.0
  O  O172  1  0.96359000  0.66063000  0.01575000  1.0
  O  O173  1  0.01575000  0.96359000  0.66063000  1.0
  O  O174  1  0.66063000  0.01575000  0.96359000  1.0
  O  O175  1  0.77247000  0.64586000  0.08865000  1.0
  O  O176  1  0.08865000  0.77247000  0.64586000  1.0
  O  O177  1  0.64586000  0.08865000  0.77247000  1.0
  O  O178  1  0.22753000  0.35414000  0.91135000  1.0
  O  O179  1  0.91135000  0.22753000  0.35414000  1.0
  O  O180  1  0.35414000  0.91135000  0.22753000  1.0
