# generated using pymatgen
data_HgH8C10S2(BrN)2
_symmetry_space_group_name_H-M   'P 1'
_cell_length_a   9.10943000
_cell_length_b   11.65690000
_cell_length_c   13.32070000
_cell_angle_alpha   90.00010000
_cell_angle_beta   90.00010000
_cell_angle_gamma   75.98600000
_symmetry_Int_Tables_number   1
_chemical_formula_structural   HgH8C10S2(BrN)2
_chemical_formula_sum   'Hg4 H32 C40 S8 Br8 N8'
_cell_volume   1372.39449646
_cell_formula_units_Z   4
loop_
 _symmetry_equiv_pos_site_id
 _symmetry_equiv_pos_as_xyz
  1  'x, y, z'
loop_
 _atom_site_type_symbol
 _atom_site_label
 _atom_site_symmetry_multiplicity
 _atom_site_fract_x
 _atom_site_fract_y
 _atom_site_fract_z
 _atom_site_occupancy
  Hg  Hg0  1  0.48239000  0.12900000  0.87198000  1.0
  Hg  Hg1  1  0.98239000  0.62900000  0.62802000  1.0
  Hg  Hg2  1  0.51761000  0.87100000  0.12802000  1.0
  Hg  Hg3  1  0.01761000  0.37100000  0.37198000  1.0
  H  H4  1  0.02616000  0.99228000  0.64896000  1.0
  H  H5  1  0.52616000  0.49228000  0.85104000  1.0
  H  H6  1  0.97384000  0.00772000  0.35104000  1.0
  H  H7  1  0.47384000  0.50772000  0.14896000  1.0
  H  H8  1  0.20320000  0.86928000  0.52739000  1.0
  H  H9  1  0.70321000  0.36928000  0.97261000  1.0
  H  H10  1  0.79680000  0.13072000  0.47261000  1.0
  H  H11  1  0.29680000  0.63072000  0.02739000  1.0
  H  H12  1  0.48201000  0.86749000  0.53589000  1.0
  H  H13  1  0.98202000  0.36749000  0.96411000  1.0
  H  H14  1  0.51799000  0.13251000  0.46411000  1.0
  H  H15  1  0.01799000  0.63251000  0.03589000  1.0
  H  H16  1  0.56781000  0.98615000  0.66942000  1.0
  H  H17  1  0.06781000  0.48615000  0.83058000  1.0
  H  H18  1  0.43219000  0.01385000  0.33058000  1.0
  H  H19  1  0.93219000  0.51385000  0.16942000  1.0
  H  H20  1  0.41908000  0.26522000  0.66493000  1.0
  H  H21  1  0.91908000  0.76522000  0.83507000  1.0
  H  H22  1  0.58092000  0.73478000  0.33507000  1.0
  H  H23  1  0.08092000  0.23478000  0.16493000  1.0
  H  H24  1  0.50054000  0.39210000  0.53649000  1.0
  H  H25  1  0.00054000  0.89210000  0.96351000  1.0
  H  H26  1  0.49946000  0.60790000  0.46351000  1.0
  H  H27  1  0.99946000  0.10790000  0.03649000  1.0
  H  H28  1  0.77567000  0.39991000  0.53235000  1.0
  H  H29  1  0.27567000  0.89991000  0.96765000  1.0
  H  H30  1  0.22433000  0.60009000  0.46765000  1.0
  H  H31  1  0.72433000  0.10009000  0.03235000  1.0
  H  H32  1  0.95638000  0.27490000  0.65214000  1.0
  H  H33  1  0.45638000  0.77490000  0.84786000  1.0
  H  H34  1  0.04362000  0.72510000  0.34786000  1.0
  H  H35  1  0.54362000  0.22510000  0.15214000  1.0
  C  C36  1  0.20464000  0.05589000  0.72146000  1.0
  C  C37  1  0.70465000  0.55589000  0.77854000  1.0
  C  C38  1  0.79536000  0.94410000  0.27854000  1.0
  C  C39  1  0.29535000  0.44410000  0.22146000  1.0
  C  C40  1  0.14620000  0.99056000  0.65069000  1.0
  C  C41  1  0.64620000  0.49056000  0.84931000  1.0
  C  C42  1  0.85380000  0.00944000  0.34931000  1.0
  C  C43  1  0.35380000  0.50944000  0.15069000  1.0
  C  C44  1  0.24626000  0.92144000  0.58301000  1.0
  C  C45  1  0.74626000  0.42144000  0.91699000  1.0
  C  C46  1  0.75374000  0.07856000  0.41699000  1.0
  C  C47  1  0.25374000  0.57856000  0.08301000  1.0
  C  C48  1  0.39983000  0.91999000  0.58741000  1.0
  C  C49  1  0.89983000  0.41999000  0.91259000  1.0
  C  C50  1  0.60017000  0.08001000  0.41259000  1.0
  C  C51  1  0.10017000  0.58001000  0.08741000  1.0
  C  C52  1  0.44836000  0.98693000  0.66103000  1.0
  C  C53  1  0.94836000  0.48693000  0.83897000  1.0
  C  C54  1  0.55164000  0.01307000  0.33897000  1.0
  C  C55  1  0.05164000  0.51307000  0.16103000  1.0
  C  C56  1  0.53748000  0.26842000  0.65871000  1.0
  C  C57  1  0.03748000  0.76842000  0.84129000  1.0
  C  C58  1  0.46252000  0.73158000  0.34129000  1.0
  C  C59  1  0.96252000  0.23158000  0.15871000  1.0
  C  C60  1  0.58353000  0.33994000  0.58778000  1.0
  C  C61  1  0.08353000  0.83994000  0.91222000  1.0
  C  C62  1  0.41647000  0.66006000  0.41222000  1.0
  C  C63  1  0.91647000  0.16006000  0.08778000  1.0
  C  C64  1  0.73579000  0.34309000  0.58558000  1.0
  C  C65  1  0.23579000  0.84309000  0.91443000  1.0
  C  C66  1  0.26421000  0.65691000  0.41442000  1.0
  C  C67  1  0.76421000  0.15691000  0.08557000  1.0
  C  C68  1  0.83715000  0.27372000  0.65249000  1.0
  C  C69  1  0.33715000  0.77372000  0.84751000  1.0
  C  C70  1  0.16285000  0.72628000  0.34751000  1.0
  C  C71  1  0.66285000  0.22628000  0.15249000  1.0
  C  C72  1  0.78018000  0.20429000  0.72078000  1.0
  C  C73  1  0.28018000  0.70429000  0.77922000  1.0
  C  C74  1  0.21982000  0.79571000  0.27922000  1.0
  C  C75  1  0.71982000  0.29571000  0.22078000  1.0
  S  S76  1  0.09420000  0.15162000  0.81210000  1.0
  S  S77  1  0.59420000  0.65162000  0.68790000  1.0
  S  S78  1  0.90580000  0.84838000  0.18790000  1.0
  S  S79  1  0.40580000  0.34838000  0.31210000  1.0
  S  S80  1  0.89132000  0.10843000  0.81125000  1.0
  S  S81  1  0.39132000  0.60843000  0.68875000  1.0
  S  S82  1  0.10868000  0.89157000  0.18875000  1.0
  S  S83  1  0.60868000  0.39157000  0.31125000  1.0
  Br  Br84  1  0.34924000  0.33689000  0.91953000  1.0
  Br  Br85  1  0.84924000  0.83689000  0.58047000  1.0
  Br  Br86  1  0.65076000  0.66311000  0.08047000  1.0
  Br  Br87  1  0.15076000  0.16311000  0.41953000  1.0
  Br  Br88  1  0.65375000  0.92490000  0.90187000  1.0
  Br  Br89  1  0.15375000  0.42490000  0.59813000  1.0
  Br  Br90  1  0.34626000  0.07511000  0.09812000  1.0
  Br  Br91  1  0.84625000  0.57511000  0.40187000  1.0
  N  N92  1  0.35258000  0.05370000  0.72702000  1.0
  N  N93  1  0.85258000  0.55370000  0.77298000  1.0
  N  N94  1  0.64742000  0.94630000  0.27298000  1.0
  N  N95  1  0.14742000  0.44630000  0.22702000  1.0
  N  N96  1  0.63374000  0.20172000  0.72431000  1.0
  N  N97  1  0.13374000  0.70171000  0.77569000  1.0
  N  N98  1  0.36626000  0.79828000  0.27569000  1.0
  N  N99  1  0.86626000  0.29828000  0.22431000  1.0
