# generated using pymatgen
data_ZnH7C8N5O2
_symmetry_space_group_name_H-M   'P 1'
_cell_length_a   9.60616000
_cell_length_b   12.00910000
_cell_length_c   12.00920000
_cell_angle_alpha   90.41750000
_cell_angle_beta   109.35800000
_cell_angle_gamma   109.35800000
_symmetry_Int_Tables_number   1
_chemical_formula_structural   ZnH7C8N5O2
_chemical_formula_sum   'Zn4 H28 C32 N20 O8'
_cell_volume   1222.45242219
_cell_formula_units_Z   4
loop_
 _symmetry_equiv_pos_site_id
 _symmetry_equiv_pos_as_xyz
  1  'x, y, z'
loop_
 _atom_site_type_symbol
 _atom_site_label
 _atom_site_symmetry_multiplicity
 _atom_site_fract_x
 _atom_site_fract_y
 _atom_site_fract_z
 _atom_site_occupancy
  Zn  Zn0  1  0.84819000  0.37419000  0.15510000  1.0
  Zn  Zn1  1  0.65181000  0.84490000  0.62581000  1.0
  Zn  Zn2  1  0.15181000  0.62581000  0.84490000  1.0
  Zn  Zn3  1  0.34819000  0.15510000  0.37419000  1.0
  H  H4  1  0.19354000  0.73401000  0.48517000  1.0
  H  H5  1  0.30645000  0.51483000  0.26599000  1.0
  H  H6  1  0.80646000  0.26599000  0.51483000  1.0
  H  H7  1  0.69355000  0.48517000  0.73401000  1.0
  H  H8  1  0.98740000  0.75610000  0.11194000  1.0
  H  H9  1  0.51260000  0.88807000  0.24390000  1.0
  H  H10  1  0.01260000  0.24390000  0.88806000  1.0
  H  H11  1  0.48741000  0.11194000  0.75610000  1.0
  H  H12  1  0.33212000  0.95759000  0.51667000  1.0
  H  H13  1  0.16788000  0.48334000  0.04240000  1.0
  H  H14  1  0.66788000  0.04240000  0.48334000  1.0
  H  H15  1  0.83212000  0.51667000  0.95759000  1.0
  H  H16  1  0.12971000  0.97745000  0.15722000  1.0
  H  H17  1  0.37029000  0.84278000  0.02255000  1.0
  H  H18  1  0.87030000  0.02255000  0.84278000  1.0
  H  H19  1  0.62971000  0.15722000  0.97745000  1.0
  H  H20  1  0.22269000  0.34606000  0.48261000  1.0
  H  H21  1  0.27731000  0.51739000  0.65393000  1.0
  H  H22  1  0.77731000  0.65394000  0.51739000  1.0
  H  H23  1  0.72268000  0.48261000  0.34606000  1.0
  H  H24  1  0.04588000  0.22048000  0.45061000  1.0
  H  H25  1  0.45412000  0.54938000  0.77951000  1.0
  H  H26  1  0.95412000  0.77952000  0.54939000  1.0
  H  H27  1  0.54587000  0.45061000  0.22048000  1.0
  H  H28  1  0.03666000  0.36416000  0.41921000  1.0
  H  H29  1  0.46334000  0.58079000  0.63584000  1.0
  H  H30  1  0.96334000  0.63584000  0.58079000  1.0
  H  H31  1  0.53665000  0.41921000  0.36416000  1.0
  C  C32  1  0.99639000  0.59635000  0.27887000  1.0
  C  C33  1  0.50361000  0.72114000  0.40364000  1.0
  C  C34  1  0.00361000  0.40365000  0.72112000  1.0
  C  C35  1  0.49639000  0.27886000  0.59636000  1.0
  C  C36  1  0.10467000  0.27951000  0.29974000  1.0
  C  C37  1  0.39533000  0.70026000  0.72048000  1.0
  C  C38  1  0.89533000  0.72049000  0.70026000  1.0
  C  C39  1  0.60467000  0.29974000  0.27951000  1.0
  C  C40  1  0.07815000  0.72954000  0.29714000  1.0
  C  C41  1  0.42185000  0.70286000  0.27046000  1.0
  C  C42  1  0.92186000  0.27046000  0.70286000  1.0
  C  C43  1  0.57815000  0.29714000  0.72954000  1.0
  C  C44  1  0.17708000  0.78654000  0.41167000  1.0
  C  C45  1  0.32291000  0.58833000  0.21346000  1.0
  C  C46  1  0.82291000  0.21346000  0.58833000  1.0
  C  C47  1  0.67709000  0.41167000  0.78654000  1.0
  C  C48  1  0.06026000  0.79771000  0.20294000  1.0
  C  C49  1  0.43974000  0.79706000  0.20229000  1.0
  C  C50  1  0.93975000  0.20229000  0.79706000  1.0
  C  C51  1  0.56026000  0.20294000  0.79771000  1.0
  C  C52  1  0.25399000  0.90900000  0.42902000  1.0
  C  C53  1  0.24602000  0.57098000  0.09100000  1.0
  C  C54  1  0.74602000  0.09100000  0.57099000  1.0
  C  C55  1  0.75398000  0.42902000  0.90900000  1.0
  C  C56  1  0.14031000  0.92013000  0.22734000  1.0
  C  C57  1  0.35969000  0.77267000  0.07987000  1.0
  C  C58  1  0.85970000  0.07987000  0.77267000  1.0
  C  C59  1  0.64031000  0.22734000  0.92013000  1.0
  C  C60  1  0.10117000  0.30404000  0.41974000  1.0
  C  C61  1  0.39883000  0.58025000  0.69595000  1.0
  C  C62  1  0.89883000  0.69596000  0.58026000  1.0
  C  C63  1  0.60116000  0.41974000  0.30404000  1.0
  N  N64  1  0.02190000  0.30788000  0.19700000  1.0
  N  N65  1  0.47809000  0.80300000  0.69211000  1.0
  N  N66  1  0.97809000  0.69211000  0.80300000  1.0
  N  N67  1  0.52191000  0.19700000  0.30789000  1.0
  N  N68  1  0.23499000  0.97475000  0.33827000  1.0
  N  N69  1  0.26501000  0.66174000  0.02525000  1.0
  N  N70  1  0.76501000  0.02525000  0.66174000  1.0
  N  N71  1  0.73499000  0.33827000  0.97475000  1.0
  N  N72  1  0.06161000  0.26890000  0.10921000  1.0
  N  N73  1  0.43839000  0.89079000  0.73110000  1.0
  N  N74  1  0.93839000  0.73110000  0.89079000  1.0
  N  N75  1  0.56162000  0.10921000  0.26890000  1.0
  N  N76  1  0.19418000  0.22455000  0.27521000  1.0
  N  N77  1  0.30582000  0.72479000  0.77545000  1.0
  N  N78  1  0.80582000  0.77545000  0.72480000  1.0
  N  N79  1  0.69418000  0.27520000  0.22455000  1.0
  N  N80  1  0.16488000  0.21898000  0.15602000  1.0
  N  N81  1  0.33512000  0.84398000  0.78102000  1.0
  N  N82  1  0.83512000  0.78102000  0.84398000  1.0
  N  N83  1  0.66488000  0.15602000  0.21898000  1.0
  O  O84  1  0.91796000  0.54856000  0.16865000  1.0
  O  O85  1  0.58204000  0.83135000  0.45144000  1.0
  O  O86  1  0.08205000  0.45144000  0.83135000  1.0
  O  O87  1  0.41797000  0.16865000  0.54856000  1.0
  O  O88  1  0.00815000  0.54069000  0.36662000  1.0
  O  O89  1  0.49184000  0.63338000  0.45931000  1.0
  O  O90  1  0.99185000  0.45931000  0.63339000  1.0
  O  O91  1  0.50816000  0.36663000  0.54068000  1.0
