# generated using pymatgen
data_Tb2CoH32(C4O5)4
_symmetry_space_group_name_H-M   'P 1'
_cell_length_a   8.03000000
_cell_length_b   9.73434000
_cell_length_c   11.23880000
_cell_angle_alpha   111.74500000
_cell_angle_beta   105.66300000
_cell_angle_gamma   92.52690000
_symmetry_Int_Tables_number   1
_chemical_formula_structural   Tb2CoH32(C4O5)4
_chemical_formula_sum   'Tb2 Co1 H32 C16 O20'
_cell_volume   775.42059415
_cell_formula_units_Z   1
loop_
 _symmetry_equiv_pos_site_id
 _symmetry_equiv_pos_as_xyz
  1  'x, y, z'
loop_
 _atom_site_type_symbol
 _atom_site_label
 _atom_site_symmetry_multiplicity
 _atom_site_fract_x
 _atom_site_fract_y
 _atom_site_fract_z
 _atom_site_occupancy
  Tb  Tb0  1  0.89991000  0.06484000  0.66007000  1.0
  Tb  Tb1  1  0.10009000  0.93515000  0.33993000  1.0
  Co  Co2  1  0.00000000  0.00000000  0.00000000  1.0
  H  H3  1  0.57804000  0.98520000  0.93305000  1.0
  H  H4  1  0.42195000  0.01482000  0.06694000  1.0
  H  H5  1  0.40593000  0.04731000  0.83283000  1.0
  H  H6  1  0.59406000  0.95270000  0.16716000  1.0
  H  H7  1  0.58331000  0.17769000  0.96723000  1.0
  H  H8  1  0.41668000  0.82232000  0.03275000  1.0
  H  H9  1  0.28940000  0.69559000  0.67008000  1.0
  H  H10  1  0.71062000  0.30442000  0.32995000  1.0
  H  H11  1  0.06693000  0.60963000  0.60451000  1.0
  H  H12  1  0.93310000  0.39037000  0.39550000  1.0
  H  H13  1  0.19818000  0.61371000  0.76250000  1.0
  H  H14  1  0.80184000  0.38629000  0.23752000  1.0
  H  H15  1  0.27874000  0.38139000  0.76896000  1.0
  H  H16  1  0.72126000  0.61860000  0.23103000  1.0
  H  H17  1  0.39252000  0.43499000  0.66942000  1.0
  H  H18  1  0.60749000  0.56501000  0.33058000  1.0
  H  H19  1  0.46042000  0.29648000  0.73032000  1.0
  H  H20  1  0.53958000  0.70352000  0.26968000  1.0
  H  H21  1  0.39501000  0.41650000  0.99064000  1.0
  H  H22  1  0.60497000  0.58351000  0.00935000  1.0
  H  H23  1  0.44466000  0.35223000  0.12533000  1.0
  H  H24  1  0.55533000  0.64777000  0.87466000  1.0
  H  H25  1  0.28497000  0.47102000  0.11450000  1.0
  H  H26  1  0.71502000  0.52898000  0.88550000  1.0
  H  H27  1  0.76538000  0.30774000  0.62248000  1.0
  H  H28  1  0.23462000  0.69226000  0.37753000  1.0
  H  H29  1  0.93147000  0.39805000  0.74969000  1.0
  H  H30  1  0.06853000  0.60195000  0.25032000  1.0
  H  H31  1  0.59805000  0.05073000  0.41821000  1.0
  H  H32  1  0.40195000  0.94927000  0.58179000  1.0
  H  H33  1  0.77908000  0.10424000  0.40128000  1.0
  H  H34  1  0.22092000  0.89576000  0.59872000  1.0
  C  C35  1  0.65623000  0.05461000  0.79615000  1.0
  C  C36  1  0.34377000  0.94539000  0.20385000  1.0
  C  C37  1  0.54604000  0.06496000  0.88602000  1.0
  C  C38  1  0.45396000  0.93505000  0.11397000  1.0
  C  C39  1  0.11512000  0.82306000  0.76790000  1.0
  C  C40  1  0.88489000  0.17694000  0.23211000  1.0
  C  C41  1  0.19720000  0.24454000  0.97145000  1.0
  C  C42  1  0.80279000  0.75545000  0.02854000  1.0
  C  C43  1  0.17238000  0.67646000  0.69825000  1.0
  C  C44  1  0.82764000  0.32354000  0.30177000  1.0
  C  C45  1  0.34530000  0.34318000  0.69211000  1.0
  C  C46  1  0.65471000  0.65682000  0.30789000  1.0
  C  C47  1  0.23078000  0.21949000  0.56562000  1.0
  C  C48  1  0.76922000  0.78051000  0.43438000  1.0
  C  C49  1  0.34094000  0.37852000  0.05495000  1.0
  C  C50  1  0.65905000  0.62148000  0.94505000  1.0
  O  O51  1  0.09734000  0.14240000  0.56830000  1.0
  O  O52  1  0.90266000  0.85760000  0.43169000  1.0
  O  O53  1  0.81665000  0.03832000  0.83420000  1.0
  O  O54  1  0.18335000  0.96169000  0.16580000  1.0
  O  O55  1  0.26963000  0.18481000  0.45753000  1.0
  O  O56  1  0.73038000  0.81519000  0.54247000  1.0
  O  O57  1  0.10832000  0.91875000  0.71322000  1.0
  O  O58  1  0.89168000  0.08124000  0.28678000  1.0
  O  O59  1  0.59610000  0.06614000  0.68283000  1.0
  O  O60  1  0.40391000  0.93386000  0.31716000  1.0
  O  O61  1  0.18452000  0.15153000  0.02522000  1.0
  O  O62  1  0.81546000  0.84847000  0.97478000  1.0
  O  O63  1  0.10156000  0.23761000  0.85810000  1.0
  O  O64  1  0.89845000  0.76238000  0.14190000  1.0
  O  O65  1  0.07743000  0.83936000  0.87396000  1.0
  O  O66  1  0.92256000  0.16064000  0.12605000  1.0
  O  O67  1  0.82553000  0.32510000  0.71671000  1.0
  O  O68  1  0.17447000  0.67490000  0.28329000  1.0
  O  O69  1  0.71626000  0.11415000  0.46912000  1.0
  O  O70  1  0.28374000  0.88585000  0.53087000  1.0
