# generated using pymatgen
data_YbH9C15O7
_symmetry_space_group_name_H-M   'P 1'
_cell_length_a   14.47870000
_cell_length_b   14.73770000
_cell_length_c   14.73760000
_cell_angle_alpha   89.99920000
_cell_angle_beta   89.99960000
_cell_angle_gamma   89.99950000
_symmetry_Int_Tables_number   1
_chemical_formula_structural   YbH9C15O7
_chemical_formula_sum   'Yb4 H36 C60 O28'
_cell_volume   3144.74942416
_cell_formula_units_Z   4
loop_
 _symmetry_equiv_pos_site_id
 _symmetry_equiv_pos_as_xyz
  1  'x, y, z'
loop_
 _atom_site_type_symbol
 _atom_site_label
 _atom_site_symmetry_multiplicity
 _atom_site_fract_x
 _atom_site_fract_y
 _atom_site_fract_z
 _atom_site_occupancy
  Yb  Yb0  1  0.48252000  0.63001000  0.41334000  1.0
  Yb  Yb1  1  0.98252000  0.36998000  0.58666000  1.0
  Yb  Yb2  1  0.23252000  0.58666000  0.63001000  1.0
  Yb  Yb3  1  0.73252000  0.41334000  0.36998000  1.0
  H  H4  1  0.59697000  0.57599000  0.25619000  1.0
  H  H5  1  0.09696000  0.42401000  0.74381000  1.0
  H  H6  1  0.34696000  0.74381000  0.57598000  1.0
  H  H7  1  0.84697000  0.25619000  0.42401000  1.0
  H  H8  1  0.57445000  0.68276000  0.25039000  1.0
  H  H9  1  0.07444000  0.31724000  0.74961000  1.0
  H  H10  1  0.32444000  0.74960000  0.68276000  1.0
  H  H11  1  0.82445000  0.25039000  0.31724000  1.0
  H  H12  1  0.10045000  0.52872000  0.45564000  1.0
  H  H13  1  0.60045000  0.47128000  0.54435000  1.0
  H  H14  1  0.85045000  0.54436000  0.52872000  1.0
  H  H15  1  0.35046000  0.45564000  0.47127000  1.0
  H  H16  1  0.97891000  0.49026000  0.19254000  1.0
  H  H17  1  0.47891000  0.50974000  0.80746000  1.0
  H  H18  1  0.72892000  0.80747000  0.49025000  1.0
  H  H19  1  0.22892000  0.19254000  0.50975000  1.0
  H  H20  1  0.24948000  0.61223000  0.21859000  1.0
  H  H21  1  0.74948000  0.38778000  0.78141000  1.0
  H  H22  1  0.99948000  0.78141000  0.61224000  1.0
  H  H23  1  0.49949000  0.21859000  0.38777000  1.0
  H  H24  1  0.18060000  0.69678000  0.09880000  1.0
  H  H25  1  0.68060000  0.30322000  0.90120000  1.0
  H  H26  1  0.93059000  0.90119000  0.69679000  1.0
  H  H27  1  0.43060000  0.09880000  0.30322000  1.0
  H  H28  1  0.21289000  0.70484000  0.93264000  1.0
  H  H29  1  0.71289000  0.29516000  0.06736000  1.0
  H  H30  1  0.96288000  0.06735000  0.70484000  1.0
  H  H31  1  0.46288000  0.93264000  0.29517000  1.0
  H  H32  1  0.10271000  0.43621000  0.89902000  1.0
  H  H33  1  0.60271000  0.56379000  0.10098000  1.0
  H  H34  1  0.85271000  0.10098000  0.43621000  1.0
  H  H35  1  0.35271000  0.89902000  0.56380000  1.0
  H  H36  1  0.07066000  0.42729000  0.06419000  1.0
  H  H37  1  0.57066000  0.57271000  0.93580000  1.0
  H  H38  1  0.82066000  0.93581000  0.42730000  1.0
  H  H39  1  0.32067000  0.06419000  0.57271000  1.0
  C  C40  1  0.18152000  0.57635000  0.34263000  1.0
  C  C41  1  0.68152000  0.42365000  0.65737000  1.0
  C  C42  1  0.93153000  0.65737000  0.57635000  1.0
  C  C43  1  0.43153000  0.34263000  0.42365000  1.0
  C  C44  1  0.10411000  0.53619000  0.38240000  1.0
  C  C45  1  0.60411000  0.46382000  0.61760000  1.0
  C  C46  1  0.85411000  0.61761000  0.53619000  1.0
  C  C47  1  0.35411000  0.38240000  0.46381000  1.0
  C  C48  1  0.03201000  0.50436000  0.32801000  1.0
  C  C49  1  0.53201000  0.49564000  0.67199000  1.0
  C  C50  1  0.78201000  0.67199000  0.50435000  1.0
  C  C51  1  0.28201000  0.32801000  0.49565000  1.0
  C  C52  1  0.03691000  0.51367000  0.23352000  1.0
  C  C53  1  0.53691000  0.48633000  0.76648000  1.0
  C  C54  1  0.78692000  0.76648000  0.51367000  1.0
  C  C55  1  0.28692000  0.23353000  0.48633000  1.0
  C  C56  1  0.11473000  0.55320000  0.19266000  1.0
  C  C57  1  0.61473000  0.44680000  0.80734000  1.0
  C  C58  1  0.86473000  0.80734000  0.55320000  1.0
  C  C59  1  0.36474000  0.19266000  0.44680000  1.0
  C  C60  1  0.18685000  0.58397000  0.24831000  1.0
  C  C61  1  0.68685000  0.41603000  0.75169000  1.0
  C  C62  1  0.93685000  0.75169000  0.58398000  1.0
  C  C63  1  0.43686000  0.24831000  0.41603000  1.0
  C  C64  1  0.26067000  0.60645000  0.40027000  1.0
  C  C65  1  0.76067000  0.39355000  0.59973000  1.0
  C  C66  1  0.01067000  0.59972000  0.60645000  1.0
  C  C67  1  0.51067000  0.40028000  0.39355000  1.0
  C  C68  1  0.94981000  0.46131000  0.37202000  1.0
  C  C69  1  0.44981000  0.53869000  0.62798000  1.0
  C  C70  1  0.69981000  0.62799000  0.46130000  1.0
  C  C71  1  0.19981000  0.37202000  0.53869000  1.0
  C  C72  1  0.12487000  0.56085000  0.09320000  1.0
  C  C73  1  0.62486000  0.43915000  0.90679000  1.0
  C  C74  1  0.87487000  0.90680000  0.56085000  1.0
  C  C75  1  0.37487000  0.09320000  0.43915000  1.0
  C  C76  1  0.16415000  0.63938000  0.05496000  1.0
  C  C77  1  0.66416000  0.36062000  0.94504000  1.0
  C  C78  1  0.91415000  0.94503000  0.63938000  1.0
  C  C79  1  0.41415000  0.05496000  0.36063000  1.0
  C  C80  1  0.18199000  0.64441000  0.96253000  1.0
  C  C81  1  0.68200000  0.35559000  0.03747000  1.0
  C  C82  1  0.93199000  0.03747000  0.64442000  1.0
  C  C83  1  0.43199000  0.96253000  0.35559000  1.0
  C  C84  1  0.16144000  0.57065000  0.90587000  1.0
  C  C85  1  0.66144000  0.42935000  0.09413000  1.0
  C  C86  1  0.91143000  0.09413000  0.57066000  1.0
  C  C87  1  0.41143000  0.90587000  0.42935000  1.0
  C  C88  1  0.11939000  0.49334000  0.94291000  1.0
  C  C89  1  0.61940000  0.50667000  0.05709000  1.0
  C  C90  1  0.86939000  0.05709000  0.49334000  1.0
  C  C91  1  0.36939000  0.94291000  0.50667000  1.0
  C  C92  1  0.10080000  0.48875000  0.03544000  1.0
  C  C93  1  0.60080000  0.51125000  0.96456000  1.0
  C  C94  1  0.85080000  0.96457000  0.48876000  1.0
  C  C95  1  0.35080000  0.03544000  0.51125000  1.0
  C  C96  1  0.18743000  0.57489000  0.80865000  1.0
  C  C97  1  0.68743000  0.42511000  0.19135000  1.0
  C  C98  1  0.93743000  0.19135000  0.57489000  1.0
  C  C99  1  0.43743000  0.80864000  0.42511000  1.0
  O  O100  1  0.33824000  0.61940000  0.36161000  1.0
  O  O101  1  0.83824000  0.38059000  0.63839000  1.0
  O  O102  1  0.08824000  0.63839000  0.61939000  1.0
  O  O103  1  0.58825000  0.36160000  0.38060000  1.0
  O  O104  1  0.24777000  0.61606000  0.48498000  1.0
  O  O105  1  0.74777000  0.38394000  0.51501000  1.0
  O  O106  1  0.99778000  0.51502000  0.61606000  1.0
  O  O107  1  0.49778000  0.48498000  0.38393000  1.0
  O  O108  1  0.87410000  0.45955000  0.32813000  1.0
  O  O109  1  0.37410000  0.54045000  0.67186000  1.0
  O  O110  1  0.62411000  0.67185000  0.45953000  1.0
  O  O111  1  0.12411000  0.32814000  0.54046000  1.0
  O  O112  1  0.95909000  0.42922000  0.45165000  1.0
  O  O113  1  0.45909000  0.57077000  0.54835000  1.0
  O  O114  1  0.70911000  0.54836000  0.42921000  1.0
  O  O115  1  0.20910000  0.45165000  0.57078000  1.0
  O  O116  1  0.22589000  0.64587000  0.77638000  1.0
  O  O117  1  0.72589000  0.35413000  0.22362000  1.0
  O  O118  1  0.97588000  0.22362000  0.64588000  1.0
  O  O119  1  0.47589000  0.77638000  0.35413000  1.0
  O  O120  1  0.17311000  0.50659000  0.75547000  1.0
  O  O121  1  0.67311000  0.49341000  0.24453000  1.0
  O  O122  1  0.92311000  0.24453000  0.50659000  1.0
  O  O123  1  0.42311000  0.75547000  0.49341000  1.0
  O  O124  1  0.55038000  0.62463000  0.27054000  1.0
  O  O125  1  0.05038000  0.37537000  0.72946000  1.0
  O  O126  1  0.30038000  0.72946000  0.62462000  1.0
  O  O127  1  0.80039000  0.27055000  0.37537000  1.0
