# generated using pymatgen
data_MoH15C15NO4
_symmetry_space_group_name_H-M   'P 1'
_cell_length_a   7.77799000
_cell_length_b   11.83200000
_cell_length_c   19.01300000
_cell_angle_alpha   90.00000000
_cell_angle_beta   90.00000000
_cell_angle_gamma   96.85700000
_symmetry_Int_Tables_number   1
_chemical_formula_structural   MoH15C15NO4
_chemical_formula_sum   'Mo4 H60 C60 N4 O16'
_cell_volume   1737.23518007
_cell_formula_units_Z   4
loop_
 _symmetry_equiv_pos_site_id
 _symmetry_equiv_pos_as_xyz
  1  'x, y, z'
loop_
 _atom_site_type_symbol
 _atom_site_label
 _atom_site_symmetry_multiplicity
 _atom_site_fract_x
 _atom_site_fract_y
 _atom_site_fract_z
 _atom_site_occupancy
  Mo  Mo0  1  0.76215000  0.51620000  0.14933000  1.0
  Mo  Mo1  1  0.23785000  0.48380000  0.64933000  1.0
  Mo  Mo2  1  0.25557000  0.48706000  0.15180000  1.0
  Mo  Mo3  1  0.74443000  0.51294000  0.65180000  1.0
  H  H4  1  0.82268000  0.57759000  0.37589000  1.0
  H  H5  1  0.17732000  0.42241000  0.87589000  1.0
  H  H6  1  0.95826000  0.47672000  0.47297000  1.0
  H  H7  1  0.04174000  0.52328000  0.97297000  1.0
  H  H8  1  0.12019000  0.32880000  0.51240000  1.0
  H  H9  1  0.87981000  0.67120000  0.01240000  1.0
  H  H10  1  0.25289000  0.15164000  0.49038000  1.0
  H  H11  1  0.74712000  0.84835000  0.99038000  1.0
  H  H12  1  0.21243000  0.05482000  0.37343000  1.0
  H  H13  1  0.78758000  0.94518000  0.87342000  1.0
  H  H14  1  0.05499000  0.13708000  0.27916000  1.0
  H  H15  1  0.94501000  0.86294000  0.77916000  1.0
  H  H16  1  0.89638000  0.19510000  0.21480000  1.0
  H  H17  1  0.10362000  0.80489000  0.71480000  1.0
  H  H18  1  0.79867000  0.33060000  0.98811000  1.0
  H  H19  1  0.20132000  0.66940000  0.48811000  1.0
  H  H20  1  0.99408000  0.35570000  0.03859000  1.0
  H  H21  1  0.00592000  0.64430000  0.53859000  1.0
  H  H22  1  0.63601000  0.25526000  0.08951000  1.0
  H  H23  1  0.36399000  0.74474000  0.58951000  1.0
  H  H24  1  0.99080000  0.16859000  0.10265000  1.0
  H  H25  1  0.00920000  0.83141000  0.60265000  1.0
  H  H26  1  0.78992000  0.09509000  0.13013000  1.0
  H  H27  1  0.21008000  0.90491000  0.63013000  1.0
  H  H28  1  0.68492000  0.09042000  0.00287000  1.0
  H  H29  1  0.31508000  0.90958000  0.50286000  1.0
  H  H30  1  0.89414000  0.15317000  0.97666000  1.0
  H  H31  1  0.10586000  0.84683000  0.47666000  1.0
  H  H32  1  0.86932000  0.01748000  0.01638000  1.0
  H  H33  1  0.13068000  0.98252000  0.51637000  1.0
  H  H34  1  0.33399000  0.40959000  0.37407000  1.0
  H  H35  1  0.66600000  0.59042000  0.87407000  1.0
  H  H36  1  0.47054000  0.51792000  0.47640000  1.0
  H  H37  1  0.52946000  0.48208000  0.97640000  1.0
  H  H38  1  0.63043000  0.68431000  0.52584000  1.0
  H  H39  1  0.36958000  0.31570000  0.02584000  1.0
  H  H40  1  0.77282000  0.88204000  0.51387000  1.0
  H  H41  1  0.22718000  0.11796000  0.01387000  1.0
  H  H42  1  0.76650000  0.98203000  0.39790000  1.0
  H  H43  1  0.23349000  0.01798000  0.89789000  1.0
  H  H44  1  0.62259000  0.88744000  0.29665000  1.0
  H  H45  1  0.37740000  0.11256000  0.79665000  1.0
  H  H46  1  0.51673000  0.80433000  0.21904000  1.0
  H  H47  1  0.48326000  0.19567000  0.71904000  1.0
  H  H48  1  0.54186000  0.63081000  0.03984000  1.0
  H  H49  1  0.45814000  0.36919000  0.53984000  1.0
  H  H50  1  0.36761000  0.67992000  0.99220000  1.0
  H  H51  1  0.63239000  0.32008000  0.49220000  1.0
  H  H52  1  0.50927000  0.79777000  0.10236000  1.0
  H  H53  1  0.49073000  0.20223000  0.60236000  1.0
  H  H54  1  0.11438000  0.73817000  0.09091000  1.0
  H  H55  1  0.88563000  0.26183000  0.59091000  1.0
  H  H56  1  0.21836000  0.84755000  0.14389000  1.0
  H  H57  1  0.78164000  0.15245000  0.64389000  1.0
  H  H58  1  0.36363000  0.94386000  0.03705000  1.0
  H  H59  1  0.63638000  0.05613000  0.53705000  1.0
  H  H60  1  0.25393000  0.83697000  0.98220000  1.0
  H  H61  1  0.74608000  0.16302000  0.48220000  1.0
  H  H62  1  0.13414000  0.92856000  0.02983000  1.0
  H  H63  1  0.86586000  0.07144000  0.52983000  1.0
  C  C64  1  0.90322000  0.33855000  0.28537000  1.0
  C  C65  1  0.09677000  0.66146000  0.78536000  1.0
  C  C66  1  0.85062000  0.44661000  0.29934000  1.0
  C  C67  1  0.14937000  0.55340000  0.79934000  1.0
  C  C68  1  0.86940000  0.49541000  0.36760000  1.0
  C  C69  1  0.13060000  0.50459000  0.86760000  1.0
  C  C70  1  0.94461000  0.44010000  0.42045000  1.0
  C  C71  1  0.05538000  0.55990000  0.92046000  1.0
  C  C72  1  0.01074000  0.33491000  0.40817000  1.0
  C  C73  1  0.98927000  0.66509000  0.90816000  1.0
  C  C74  1  0.10449000  0.28588000  0.46162000  1.0
  C  C75  1  0.89550000  0.71412000  0.96162000  1.0
  C  C76  1  0.17801000  0.18728000  0.44926000  1.0
  C  C77  1  0.82200000  0.81272000  0.94925000  1.0
  C  C78  1  0.15551000  0.13325000  0.38321000  1.0
  C  C79  1  0.84449000  0.86675000  0.88321000  1.0
  C  C80  1  0.06409000  0.17951000  0.33011000  1.0
  C  C81  1  0.93592000  0.82049000  0.83010000  1.0
  C  C82  1  0.99021000  0.28245000  0.34022000  1.0
  C  C83  1  0.00980000  0.71755000  0.84022000  1.0
  C  C84  1  0.86941000  0.28356000  0.21838000  1.0
  C  C85  1  0.13059000  0.71644000  0.71837000  1.0
  C  C86  1  0.85187000  0.35393000  0.04044000  1.0
  C  C87  1  0.14813000  0.64607000  0.54044000  1.0
  C  C88  1  0.77805000  0.26840000  0.09666000  1.0
  C  C89  1  0.22194000  0.73160000  0.59666000  1.0
  C  C90  1  0.85128000  0.15479000  0.09045000  1.0
  C  C91  1  0.14872000  0.84521000  0.59045000  1.0
  C  C92  1  0.82277000  0.10137000  0.01753000  1.0
  C  C93  1  0.17723000  0.89863000  0.51753000  1.0
  C  C94  1  0.45539000  0.66482000  0.29199000  1.0
  C  C95  1  0.54460000  0.33519000  0.79199000  1.0
  C  C96  1  0.38240000  0.55077000  0.30241000  1.0
  C  C97  1  0.61760000  0.44923000  0.80241000  1.0
  C  C98  1  0.39033000  0.49787000  0.36915000  1.0
  C  C99  1  0.60967000  0.50212000  0.86915000  1.0
  C  C100  1  0.46586000  0.55750000  0.42493000  1.0
  C  C101  1  0.53415000  0.44251000  0.92493000  1.0
  C  C102  1  0.54260000  0.67200000  0.41768000  1.0
  C  C103  1  0.45739000  0.32800000  0.91768000  1.0
  C  C104  1  0.62686000  0.72930000  0.47582000  1.0
  C  C105  1  0.37314000  0.27070000  0.97582000  1.0
  C  C106  1  0.70700000  0.83920000  0.46900000  1.0
  C  C107  1  0.29300000  0.16080000  0.96900000  1.0
  C  C108  1  0.70326000  0.89515000  0.40360000  1.0
  C  C109  1  0.29675000  0.10486000  0.90360000  1.0
  C  C110  1  0.62128000  0.84083000  0.34608000  1.0
  C  C111  1  0.37872000  0.15917000  0.84609000  1.0
  C  C112  1  0.53916000  0.72726000  0.35063000  1.0
  C  C113  1  0.46084000  0.27274000  0.85063000  1.0
  C  C114  1  0.45186000  0.71720000  0.22399000  1.0
  C  C115  1  0.54813000  0.28280000  0.72399000  1.0
  C  C116  1  0.40638000  0.64872000  0.04367000  1.0
  C  C117  1  0.59362000  0.35128000  0.54367000  1.0
  C  C118  1  0.39097000  0.73582000  0.10230000  1.0
  C  C119  1  0.60903000  0.26418000  0.60230000  1.0
  C  C120  1  0.23154000  0.79986000  0.09480000  1.0
  C  C121  1  0.76846000  0.20013000  0.59480000  1.0
  C  C122  1  0.24729000  0.88158000  0.03262000  1.0
  C  C123  1  0.75271000  0.11842000  0.53262000  1.0
  N  N124  1  0.80857000  0.32974000  0.16347000  1.0
  N  N125  1  0.19144000  0.67026000  0.66347000  1.0
  N  N126  1  0.38117000  0.67038000  0.16781000  1.0
  N  N127  1  0.61883000  0.32962000  0.66781000  1.0
  O  O128  1  0.53513000  0.47811000  0.14886000  1.0
  O  O129  1  0.46486000  0.52189000  0.64886000  1.0
  O  O130  1  0.78841000  0.66103000  0.13417000  1.0
  O  O131  1  0.21160000  0.33897000  0.63417000  1.0
  O  O132  1  0.77793000  0.50756000  0.25170000  1.0
  O  O133  1  0.22206000  0.49244000  0.75170000  1.0
  O  O134  1  0.80901000  0.46425000  0.05677000  1.0
  O  O135  1  0.19099000  0.53575000  0.55677000  1.0
  O  O136  1  0.04306000  0.52445000  0.16134000  1.0
  O  O137  1  0.95694000  0.47555000  0.66135000  1.0
  O  O138  1  0.22514000  0.34319000  0.13402000  1.0
  O  O139  1  0.77486000  0.65681000  0.63401000  1.0
  O  O140  1  0.30254000  0.48635000  0.25247000  1.0
  O  O141  1  0.69746000  0.51365000  0.75247000  1.0
  O  O142  1  0.29829000  0.54621000  0.05886000  1.0
  O  O143  1  0.70171000  0.45379000  0.55887000  1.0
