# generated using pymatgen
data_CdH20C20(NO)4
_symmetry_space_group_name_H-M   'P 1'
_cell_length_a   8.47364000
_cell_length_b   10.28360000
_cell_length_c   12.55050000
_cell_angle_alpha   83.24750000
_cell_angle_beta   77.46500000
_cell_angle_gamma   77.56840000
_symmetry_Int_Tables_number   1
_chemical_formula_structural   CdH20C20(NO)4
_chemical_formula_sum   'Cd2 H40 C40 N8 O8'
_cell_volume   1039.66123161
_cell_formula_units_Z   2
loop_
 _symmetry_equiv_pos_site_id
 _symmetry_equiv_pos_as_xyz
  1  'x, y, z'
loop_
 _atom_site_type_symbol
 _atom_site_label
 _atom_site_symmetry_multiplicity
 _atom_site_fract_x
 _atom_site_fract_y
 _atom_site_fract_z
 _atom_site_occupancy
  Cd  Cd0  1  0.12902000  0.48157000  0.78960000  1.0
  Cd  Cd1  1  0.87099000  0.51843000  0.21040000  1.0
  H  H2  1  0.68405000  0.91046000  0.63907000  1.0
  H  H3  1  0.31596000  0.08953000  0.36093000  1.0
  H  H4  1  0.63414000  0.24889000  0.40164000  1.0
  H  H5  1  0.36587000  0.75110000  0.59837000  1.0
  H  H6  1  0.87545000  0.13439000  0.27568000  1.0
  H  H7  1  0.12456000  0.86561000  0.72432000  1.0
  H  H8  1  0.02183000  0.90595000  0.32902000  1.0
  H  H9  1  0.97818000  0.09404000  0.67098000  1.0
  H  H10  1  0.22423000  0.48940000  0.49183000  1.0
  H  H11  1  0.77578000  0.51059000  0.50818000  1.0
  H  H12  1  0.88601000  0.74829000  0.70796000  1.0
  H  H13  1  0.11398000  0.25171000  0.29204000  1.0
  H  H14  1  0.20236000  0.15437000  0.81911000  1.0
  H  H15  1  0.79764000  0.84564000  0.18088000  1.0
  H  H16  1  0.47710000  0.37600000  0.57143000  1.0
  H  H17  1  0.52291000  0.62399000  0.42856000  1.0
  H  H18  1  0.57687000  0.25269000  0.08941000  1.0
  H  H19  1  0.42311000  0.74731000  0.91059000  1.0
  H  H20  1  0.59562000  0.41080000  0.93404000  1.0
  H  H21  1  0.40437000  0.58921000  0.06597000  1.0
  H  H22  1  0.48407000  0.22127000  0.91683000  1.0
  H  H23  1  0.51592000  0.77875000  0.08317000  1.0
  H  H24  1  0.60450000  0.26311000  0.78870000  1.0
  H  H25  1  0.39549000  0.73691000  0.21130000  1.0
  H  H26  1  0.65624000  0.01417000  0.83414000  1.0
  H  H27  1  0.34375000  0.98585000  0.16585000  1.0
  H  H28  1  0.83644000  0.07886000  0.82216000  1.0
  H  H29  1  0.16354000  0.92116000  0.17784000  1.0
  H  H30  1  0.80790000  0.92073000  0.98566000  1.0
  H  H31  1  0.19209000  0.07928000  0.01433000  1.0
  H  H32  1  0.60869000  0.01163000  0.03744000  1.0
  H  H33  1  0.39130000  0.98837000  0.96255000  1.0
  H  H34  1  0.81748000  0.07440000  0.12624000  1.0
  H  H35  1  0.18251000  0.92559000  0.87375000  1.0
  H  H36  1  0.93133000  0.11751000  0.99782000  1.0
  H  H37  1  0.06865000  0.88250000  0.00218000  1.0
  H  H38  1  0.09041000  0.67562000  0.37324000  1.0
  H  H39  1  0.90960000  0.32437000  0.62676000  1.0
  H  H40  1  0.41542000  0.98934000  0.69927000  1.0
  H  H41  1  0.58458000  0.01065000  0.30074000  1.0
  C  C42  1  0.85978000  0.89125000  0.48705000  1.0
  C  C43  1  0.14022000  0.10873000  0.51295000  1.0
  C  C44  1  0.72337000  0.95873000  0.55839000  1.0
  C  C45  1  0.27664000  0.04126000  0.44161000  1.0
  C  C46  1  0.64172000  0.08730000  0.52962000  1.0
  C  C47  1  0.35828000  0.91269000  0.47038000  1.0
  C  C48  1  0.69660000  0.14901000  0.42592000  1.0
  C  C49  1  0.30341000  0.85098000  0.57408000  1.0
  C  C50  1  0.83278000  0.08328000  0.35473000  1.0
  C  C51  1  0.16722000  0.91671000  0.64528000  1.0
  C  C52  1  0.91374000  0.95528000  0.38453000  1.0
  C  C53  1  0.08627000  0.04471000  0.61547000  1.0
  C  C54  1  0.13366000  0.57468000  0.52359000  1.0
  C  C55  1  0.86635000  0.42531000  0.47641000  1.0
  C  C56  1  0.95199000  0.70807000  0.63111000  1.0
  C  C57  1  0.04802000  0.29193000  0.36889000  1.0
  C  C58  1  0.94836000  0.76273000  0.52496000  1.0
  C  C59  1  0.05165000  0.23726000  0.47504000  1.0
  C  C60  1  0.29379000  0.17972000  0.74930000  1.0
  C  C61  1  0.70621000  0.82029000  0.25070000  1.0
  C  C62  1  0.43617000  0.28989000  0.61857000  1.0
  C  C63  1  0.56384000  0.71010000  0.38142000  1.0
  C  C64  1  0.50375000  0.15603000  0.60667000  1.0
  C  C65  1  0.49626000  0.84397000  0.39333000  1.0
  C  C66  1  0.70360000  0.25613000  0.04388000  1.0
  C  C67  1  0.29639000  0.74387000  0.95612000  1.0
  C  C68  1  0.68369000  0.31448000  0.92736000  1.0
  C  C69  1  0.31630000  0.68553000  0.07265000  1.0
  C  C70  1  0.61134000  0.22148000  0.87247000  1.0
  C  C71  1  0.38865000  0.77854000  0.12752000  1.0
  C  C72  1  0.71236000  0.07891000  0.87259000  1.0
  C  C73  1  0.28762000  0.92111000  0.12740000  1.0
  C  C74  1  0.73102000  0.02182000  0.98831000  1.0
  C  C75  1  0.26897000  0.97819000  0.01168000  1.0
  C  C76  1  0.80526000  0.11364000  0.04242000  1.0
  C  C77  1  0.19473000  0.88636000  0.95757000  1.0
  C  C78  1  0.76585000  0.34809000  0.10541000  1.0
  C  C79  1  0.23414000  0.65191000  0.89460000  1.0
  C  C80  1  0.84102000  0.35086000  0.85493000  1.0
  C  C81  1  0.15897000  0.64915000  0.14508000  1.0
  N  N82  1  0.06533000  0.67571000  0.45873000  1.0
  N  N83  1  0.93469000  0.32428000  0.54127000  1.0
  N  N84  1  0.06795000  0.59206000  0.62907000  1.0
  N  N85  1  0.93206000  0.40794000  0.37093000  1.0
  N  N86  1  0.41213000  0.08926000  0.69206000  1.0
  N  N87  1  0.58788000  0.91074000  0.30794000  1.0
  N  N88  1  0.30648000  0.30252000  0.70700000  1.0
  N  N89  1  0.69353000  0.69747000  0.29299000  1.0
  O  O90  1  0.88774000  0.30147000  0.15264000  1.0
  O  O91  1  0.11224000  0.69852000  0.84738000  1.0
  O  O92  1  0.68807000  0.46896000  0.11223000  1.0
  O  O93  1  0.31193000  0.53104000  0.88777000  1.0
  O  O94  1  0.94986000  0.37484000  0.90304000  1.0
  O  O95  1  0.05013000  0.62517000  0.09697000  1.0
  O  O96  1  0.85340000  0.36274000  0.75225000  1.0
  O  O97  1  0.14661000  0.63727000  0.24775000  1.0
