# generated using pymatgen
data_UH2C2O7
_symmetry_space_group_name_H-M   'P 1'
_cell_length_a   5.49386000
_cell_length_b   9.61457000
_cell_length_c   12.84940000
_cell_angle_alpha   89.99930000
_cell_angle_beta   89.99640000
_cell_angle_gamma   99.51280000
_symmetry_Int_Tables_number   1
_chemical_formula_structural   UH2C2O7
_chemical_formula_sum   'U4 H8 C8 O28'
_cell_volume   669.38618904
_cell_formula_units_Z   4
loop_
 _symmetry_equiv_pos_site_id
 _symmetry_equiv_pos_as_xyz
  1  'x, y, z'
loop_
 _atom_site_type_symbol
 _atom_site_label
 _atom_site_symmetry_multiplicity
 _atom_site_fract_x
 _atom_site_fract_y
 _atom_site_fract_z
 _atom_site_occupancy
  U  U0  1  0.76440000  0.75595000  0.90967000  1.0
  U  U1  1  0.23567000  0.74406000  0.40967000  1.0
  U  U2  1  0.23560000  0.24407000  0.09033000  1.0
  U  U3  1  0.76430000  0.25590000  0.59034000  1.0
  H  H4  1  0.72627000  0.63441000  0.69812000  1.0
  H  H5  1  0.27376000  0.86558000  0.19811000  1.0
  H  H6  1  0.27371000  0.36557000  0.30188000  1.0
  H  H7  1  0.72629000  0.13442000  0.80189000  1.0
  H  H8  1  0.92483000  0.77400000  0.67713000  1.0
  H  H9  1  0.07521000  0.72600000  0.17714000  1.0
  H  H10  1  0.07512000  0.22600000  0.32287000  1.0
  H  H11  1  0.92487000  0.27400000  0.82285000  1.0
  C  C12  1  0.49787000  0.96473000  0.05332000  1.0
  C  C13  1  0.50213000  0.53527000  0.55333000  1.0
  C  C14  1  0.50215000  0.03530000  0.94668000  1.0
  C  C15  1  0.49785000  0.46471000  0.44666000  1.0
  C  C16  1  0.00752000  0.53211000  0.05457000  1.0
  C  C17  1  0.99244000  0.96787000  0.55457000  1.0
  C  C18  1  0.99254000  0.46792000  0.94543000  1.0
  C  C19  1  0.00750000  0.03209000  0.44542000  1.0
  O  O20  1  0.46243000  0.65002000  0.90584000  1.0
  O  O21  1  0.53767000  0.84999000  0.40582000  1.0
  O  O22  1  0.53752000  0.34998000  0.09418000  1.0
  O  O23  1  0.46235000  0.15002000  0.59422000  1.0
  O  O24  1  0.06590000  0.86282000  0.91033000  1.0
  O  O25  1  0.93414000  0.63722000  0.41034000  1.0
  O  O26  1  0.93416000  0.13726000  0.08964000  1.0
  O  O27  1  0.06580000  0.36273000  0.58964000  1.0
  O  O28  1  0.60116000  0.85778000  0.06118000  1.0
  O  O29  1  0.39884000  0.64224000  0.56117000  1.0
  O  O30  1  0.39890000  0.14227000  0.93883000  1.0
  O  O31  1  0.60109000  0.35772000  0.43883000  1.0
  O  O32  1  0.38279000  0.01859000  0.12518000  1.0
  O  O33  1  0.61716000  0.48140000  0.62518000  1.0
  O  O34  1  0.61719000  0.98144000  0.87482000  1.0
  O  O35  1  0.38284000  0.51859000  0.37481000  1.0
  O  O36  1  0.92734000  0.64832000  0.06505000  1.0
  O  O37  1  0.07267000  0.85166000  0.56505000  1.0
  O  O38  1  0.07272000  0.35171000  0.93495000  1.0
  O  O39  1  0.92725000  0.14828000  0.43496000  1.0
  O  O40  1  0.09998000  0.46658000  0.12500000  1.0
  O  O41  1  0.89986000  0.03339000  0.62497000  1.0
  O  O42  1  0.90006000  0.53345000  0.87501000  1.0
  O  O43  1  0.10009000  0.96657000  0.37501000  1.0
  O  O44  1  0.80051000  0.72731000  0.72795000  1.0
  O  O45  1  0.19953000  0.77270000  0.22795000  1.0
  O  O46  1  0.19947000  0.27269000  0.27205000  1.0
  O  O47  1  0.80052000  0.22731000  0.77206000  1.0
