# generated using pymatgen
data_CuH7C10NO4
_symmetry_space_group_name_H-M   'P 1'
_cell_length_a   9.75764000
_cell_length_b   9.75767000
_cell_length_c   13.83880000
_cell_angle_alpha   77.17340000
_cell_angle_beta   77.17320000
_cell_angle_gamma   65.89920000
_symmetry_Int_Tables_number   1
_chemical_formula_structural   CuH7C10NO4
_chemical_formula_sum   'Cu4 H28 C40 N4 O16'
_cell_volume   1159.90450315
_cell_formula_units_Z   4
loop_
 _symmetry_equiv_pos_site_id
 _symmetry_equiv_pos_as_xyz
  1  'x, y, z'
loop_
 _atom_site_type_symbol
 _atom_site_label
 _atom_site_symmetry_multiplicity
 _atom_site_fract_x
 _atom_site_fract_y
 _atom_site_fract_z
 _atom_site_occupancy
  Cu  Cu0  1  0.41733000  0.91703000  0.51227000  1.0
  Cu  Cu1  1  0.08297000  0.58267000  0.98773000  1.0
  Cu  Cu2  1  0.58267000  0.08296000  0.48773000  1.0
  Cu  Cu3  1  0.91704000  0.41733000  0.01227000  1.0
  H  H4  1  0.26453000  0.40880000  0.27238000  1.0
  H  H5  1  0.59120000  0.73547000  0.22762000  1.0
  H  H6  1  0.73548000  0.59121000  0.72762000  1.0
  H  H7  1  0.40879000  0.26453000  0.77237000  1.0
  H  H8  1  0.14181000  0.15730000  0.28696000  1.0
  H  H9  1  0.84270000  0.85819000  0.21304000  1.0
  H  H10  1  0.85819000  0.84270000  0.71304000  1.0
  H  H11  1  0.15730000  0.14181000  0.78696000  1.0
  H  H12  1  0.13655000  0.94298000  0.43288000  1.0
  H  H13  1  0.05702000  0.86345000  0.06713000  1.0
  H  H14  1  0.86345000  0.05702000  0.56713000  1.0
  H  H15  1  0.94298000  0.13655000  0.93287000  1.0
  H  H16  1  0.99067000  0.78751000  0.43011000  1.0
  H  H17  1  0.21249000  0.00933000  0.06989000  1.0
  H  H18  1  0.00933000  0.21249000  0.56989000  1.0
  H  H19  1  0.78750000  0.99067000  0.93011000  1.0
  H  H20  1  0.30550000  0.42011000  0.60817000  1.0
  H  H21  1  0.57989000  0.69450000  0.89183000  1.0
  H  H22  1  0.69450000  0.57989000  0.39183000  1.0
  H  H23  1  0.42010000  0.30550000  0.10817000  1.0
  H  H24  1  0.43286000  0.59686000  0.60677000  1.0
  H  H25  1  0.40315000  0.56714000  0.89323000  1.0
  H  H26  1  0.56714000  0.40314000  0.39324000  1.0
  H  H27  1  0.59686000  0.43286000  0.10677000  1.0
  H  H28  1  0.11115000  0.37128000  0.56458000  1.0
  H  H29  1  0.62872000  0.88885000  0.93542000  1.0
  H  H30  1  0.88885000  0.62872000  0.43542000  1.0
  H  H31  1  0.37127000  0.11115000  0.06458000  1.0
  C  C32  1  0.32143000  0.20555000  0.38722000  1.0
  C  C33  1  0.79445000  0.67857000  0.11278000  1.0
  C  C34  1  0.67857000  0.79445000  0.61278000  1.0
  C  C35  1  0.20555000  0.32143000  0.88722000  1.0
  C  C36  1  0.24317000  0.30496000  0.30204000  1.0
  C  C37  1  0.69505000  0.75683000  0.19796000  1.0
  C  C38  1  0.75683000  0.69505000  0.69796000  1.0
  C  C39  1  0.30495000  0.24317000  0.80204000  1.0
  C  C40  1  0.16278000  0.26124000  0.25678000  1.0
  C  C41  1  0.73876000  0.83722000  0.24322000  1.0
  C  C42  1  0.83722000  0.73877000  0.74322000  1.0
  C  C43  1  0.26123000  0.16278000  0.75678000  1.0
  C  C44  1  0.10144000  0.34774000  0.16288000  1.0
  C  C45  1  0.65226000  0.89855000  0.33712000  1.0
  C  C46  1  0.89856000  0.65226000  0.83712000  1.0
  C  C47  1  0.34773000  0.10145000  0.66288000  1.0
  C  C48  1  0.16901000  0.82636000  0.47130000  1.0
  C  C49  1  0.17364000  0.83099000  0.02870000  1.0
  C  C50  1  0.83099000  0.17364000  0.52871000  1.0
  C  C51  1  0.82636000  0.16901000  0.97130000  1.0
  C  C52  1  0.08894000  0.73789000  0.46954000  1.0
  C  C53  1  0.26211000  0.91106000  0.03046000  1.0
  C  C54  1  0.91106000  0.26211000  0.53046000  1.0
  C  C55  1  0.73789000  0.08894000  0.96954000  1.0
  C  C56  1  0.13565000  0.58736000  0.51956000  1.0
  C  C57  1  0.41264000  0.86435000  0.98044000  1.0
  C  C58  1  0.86435000  0.41264000  0.48045000  1.0
  C  C59  1  0.58736000  0.13565000  0.01956000  1.0
  C  C60  1  0.26230000  0.53628000  0.56961000  1.0
  C  C61  1  0.46372000  0.73770000  0.93039000  1.0
  C  C62  1  0.73770000  0.46372000  0.43039000  1.0
  C  C63  1  0.53627000  0.26230000  0.06961000  1.0
  C  C64  1  0.33467000  0.63341000  0.56834000  1.0
  C  C65  1  0.36659000  0.66533000  0.93166000  1.0
  C  C66  1  0.66533000  0.36659000  0.43167000  1.0
  C  C67  1  0.63341000  0.33467000  0.06834000  1.0
  C  C68  1  0.06100000  0.48400000  0.52220000  1.0
  C  C69  1  0.51600000  0.93900000  0.97780000  1.0
  C  C70  1  0.93900000  0.51600000  0.47780000  1.0
  C  C71  1  0.48400000  0.06100000  0.02220000  1.0
  N  N72  1  0.28998000  0.77646000  0.51980000  1.0
  N  N73  1  0.22354000  0.71002000  0.98020000  1.0
  N  N74  1  0.71002000  0.22354000  0.48020000  1.0
  N  N75  1  0.77646000  0.28998000  0.01980000  1.0
  O  O76  1  0.28158000  0.09534000  0.43125000  1.0
  O  O77  1  0.90467000  0.71842000  0.06875000  1.0
  O  O78  1  0.71842000  0.90466000  0.56875000  1.0
  O  O79  1  0.09534000  0.28158000  0.93125000  1.0
  O  O80  1  0.57181000  0.76391000  0.59525000  1.0
  O  O81  1  0.23610000  0.42819000  0.90475000  1.0
  O  O82  1  0.42819000  0.23610000  0.40476000  1.0
  O  O83  1  0.76390000  0.57181000  0.09524000  1.0
  O  O84  1  0.00967000  0.30526000  0.13624000  1.0
  O  O85  1  0.69474000  0.99032000  0.36377000  1.0
  O  O86  1  0.99033000  0.69474000  0.86377000  1.0
  O  O87  1  0.30526000  0.00968000  0.63623000  1.0
  O  O88  1  0.14800000  0.45290000  0.11668000  1.0
  O  O89  1  0.54710000  0.85199000  0.38332000  1.0
  O  O90  1  0.85200000  0.54710000  0.88332000  1.0
  O  O91  1  0.45290000  0.14800000  0.61668000  1.0
