# generated using pymatgen
data_CaH3C4N11O
_symmetry_space_group_name_H-M   'P 1'
_cell_length_a   6.59080000
_cell_length_b   9.90986000
_cell_length_c   12.87120000
_cell_angle_alpha   90.00010000
_cell_angle_beta   90.00000000
_cell_angle_gamma   91.84380000
_symmetry_Int_Tables_number   1
_chemical_formula_structural   CaH3C4N11O
_chemical_formula_sum   'Ca4 H12 C16 N44 O4'
_cell_volume   840.23308695
_cell_formula_units_Z   4
loop_
 _symmetry_equiv_pos_site_id
 _symmetry_equiv_pos_as_xyz
  1  'x, y, z'
loop_
 _atom_site_type_symbol
 _atom_site_label
 _atom_site_symmetry_multiplicity
 _atom_site_fract_x
 _atom_site_fract_y
 _atom_site_fract_z
 _atom_site_occupancy
  Ca  Ca0  1  0.29824000  0.86017000  0.12396000  1.0
  Ca  Ca1  1  0.20176000  0.63983000  0.62396000  1.0
  Ca  Ca2  1  0.70176000  0.13983000  0.87604000  1.0
  Ca  Ca3  1  0.79824000  0.36017000  0.37604000  1.0
  H  H4  1  0.93289000  0.85337000  0.98174000  1.0
  H  H5  1  0.56711000  0.64662000  0.48174000  1.0
  H  H6  1  0.06711000  0.14662000  0.01826000  1.0
  H  H7  1  0.43289000  0.35337000  0.51826000  1.0
  H  H8  1  0.84733000  0.83345000  0.09513000  1.0
  H  H9  1  0.65267000  0.66655000  0.59513000  1.0
  H  H10  1  0.15267000  0.16655000  0.90487000  1.0
  H  H11  1  0.34733000  0.33345000  0.40487000  1.0
  H  H12  1  0.83067000  0.51789000  0.85338000  1.0
  H  H13  1  0.66933000  0.98211000  0.35338000  1.0
  H  H14  1  0.16933000  0.48211000  0.14662000  1.0
  H  H15  1  0.33067000  0.01789000  0.64662000  1.0
  C  C16  1  0.65039000  0.26098000  0.11752000  1.0
  C  C17  1  0.84961000  0.23902000  0.61752000  1.0
  C  C18  1  0.34961000  0.73902000  0.88248000  1.0
  C  C19  1  0.15039000  0.76098000  0.38248000  1.0
  C  C20  1  0.70048000  0.38549000  0.06269000  1.0
  C  C21  1  0.79952000  0.11451000  0.56270000  1.0
  C  C22  1  0.29953000  0.61451000  0.93731000  1.0
  C  C23  1  0.20047000  0.88549000  0.43731000  1.0
  C  C24  1  0.70734000  0.52531000  0.08685000  1.0
  C  C25  1  0.79266000  0.97469000  0.58686000  1.0
  C  C26  1  0.29266000  0.47468000  0.91315000  1.0
  C  C27  1  0.20734000  0.02531000  0.41315000  1.0
  C  C28  1  0.66315000  0.60061000  0.18024000  1.0
  C  C29  1  0.83685000  0.89939000  0.68025000  1.0
  C  C30  1  0.33685000  0.39939000  0.81975000  1.0
  C  C31  1  0.16315000  0.10061000  0.31975000  1.0
  N  N32  1  0.65579000  0.23534000  0.22015000  1.0
  N  N33  1  0.84421000  0.26466000  0.72015000  1.0
  N  N34  1  0.34422000  0.76466000  0.77986000  1.0
  N  N35  1  0.15578000  0.73534000  0.27986000  1.0
  N  N36  1  0.74848000  0.37357000  0.96108000  1.0
  N  N37  1  0.75152000  0.12643000  0.46108000  1.0
  N  N38  1  0.25153000  0.62643000  0.03892000  1.0
  N  N39  1  0.24848000  0.87357000  0.53892000  1.0
  N  N40  1  0.60707000  0.76755000  0.28151000  1.0
  N  N41  1  0.89293000  0.73245000  0.78151000  1.0
  N  N42  1  0.39293000  0.23245000  0.71849000  1.0
  N  N43  1  0.10707000  0.26755000  0.21849000  1.0
  N  N44  1  0.57380000  0.05138000  0.13582000  1.0
  N  N45  1  0.92620000  0.44862000  0.63582000  1.0
  N  N46  1  0.42620000  0.94862000  0.86418000  1.0
  N  N47  1  0.07380000  0.55138000  0.36418000  1.0
  N  N48  1  0.76129000  0.59361000  0.99947000  1.0
  N  N49  1  0.73871000  0.90639000  0.49947000  1.0
  N  N50  1  0.23871000  0.40639000  0.00053000  1.0
  N  N51  1  0.26129000  0.09361000  0.50053000  1.0
  N  N52  1  0.65480000  0.55128000  0.27733000  1.0
  N  N53  1  0.84519000  0.94872000  0.77733000  1.0
  N  N54  1  0.34520000  0.44872000  0.72267000  1.0
  N  N55  1  0.15481000  0.05128000  0.22267000  1.0
  N  N56  1  0.78355000  0.49908000  0.92894000  1.0
  N  N57  1  0.71645000  0.00092000  0.42894000  1.0
  N  N58  1  0.21645000  0.50092000  0.07105000  1.0
  N  N59  1  0.28355000  0.99908000  0.57106000  1.0
  N  N60  1  0.60055000  0.14771000  0.06386000  1.0
  N  N61  1  0.89945000  0.35229000  0.56386000  1.0
  N  N62  1  0.39946000  0.85229000  0.93614000  1.0
  N  N63  1  0.10055000  0.64771000  0.43614000  1.0
  N  N64  1  0.63161000  0.73499000  0.18055000  1.0
  N  N65  1  0.86839000  0.76501000  0.68055000  1.0
  N  N66  1  0.36839000  0.26501000  0.81945000  1.0
  N  N67  1  0.13161000  0.23499000  0.31945000  1.0
  N  N68  1  0.60781000  0.10273000  0.22894000  1.0
  N  N69  1  0.89219000  0.39727000  0.72895000  1.0
  N  N70  1  0.39219000  0.89727000  0.77106000  1.0
  N  N71  1  0.10781000  0.60273000  0.27106000  1.0
  N  N72  1  0.61914000  0.65816000  0.33884000  1.0
  N  N73  1  0.88086000  0.84184000  0.83884000  1.0
  N  N74  1  0.38086000  0.34184000  0.66116000  1.0
  N  N75  1  0.11914000  0.15816000  0.16116000  1.0
  O  O76  1  0.96585000  0.86910000  0.05625000  1.0
  O  O77  1  0.53416000  0.63089000  0.55625000  1.0
  O  O78  1  0.03416000  0.13089000  0.94375000  1.0
  O  O79  1  0.46584000  0.36911000  0.44375000  1.0
