# generated using pymatgen
data_CdH8C10(BrN)2
_symmetry_space_group_name_H-M   'P 1'
_cell_length_a   3.90139000
_cell_length_b   11.82900000
_cell_length_c   12.42330000
_cell_angle_alpha   89.99970000
_cell_angle_beta   89.99940000
_cell_angle_gamma   89.99970000
_symmetry_Int_Tables_number   1
_chemical_formula_structural   CdH8C10(BrN)2
_chemical_formula_sum   'Cd2 H16 C20 Br4 N4'
_cell_volume   573.32960893
_cell_formula_units_Z   2
loop_
 _symmetry_equiv_pos_site_id
 _symmetry_equiv_pos_as_xyz
  1  'x, y, z'
loop_
 _atom_site_type_symbol
 _atom_site_label
 _atom_site_symmetry_multiplicity
 _atom_site_fract_x
 _atom_site_fract_y
 _atom_site_fract_z
 _atom_site_occupancy
  Cd  Cd0  1  0.49997000  0.25000000  0.75000000  1.0
  Cd  Cd1  1  0.50001000  0.75001000  0.25000000  1.0
  H  H2  1  0.34378000  0.04198000  0.90905000  1.0
  H  H3  1  0.65622000  0.54199000  0.40906000  1.0
  H  H4  1  0.34380000  0.54198000  0.09097000  1.0
  H  H5  1  0.34380000  0.95802000  0.40904000  1.0
  H  H6  1  0.65622000  0.95801000  0.09094000  1.0
  H  H7  1  0.34379000  0.45802000  0.59095000  1.0
  H  H8  1  0.65622000  0.45801000  0.90905000  1.0
  H  H9  1  0.65619000  0.04199000  0.59096000  1.0
  H  H10  1  0.33795000  0.83147000  0.91699000  1.0
  H  H11  1  0.66206000  0.33149000  0.41698000  1.0
  H  H12  1  0.33795000  0.33147000  0.08300000  1.0
  H  H13  1  0.33796000  0.16853000  0.41699000  1.0
  H  H14  1  0.66204000  0.16852000  0.08301000  1.0
  H  H15  1  0.33794000  0.66852000  0.58301000  1.0
  H  H16  1  0.66207000  0.66852000  0.91698000  1.0
  H  H17  1  0.66203000  0.83148000  0.58302000  1.0
  C  C18  1  0.41560000  0.99142000  0.83910000  1.0
  C  C19  1  0.58437000  0.49142000  0.33909000  1.0
  C  C20  1  0.41560000  0.49143000  0.16089000  1.0
  C  C21  1  0.41561000  0.00858000  0.33910000  1.0
  C  C22  1  0.58438000  0.00859000  0.16090000  1.0
  C  C23  1  0.41562000  0.50858000  0.66090000  1.0
  C  C24  1  0.58440000  0.50857000  0.83910000  1.0
  C  C25  1  0.58438000  0.99142000  0.66090000  1.0
  C  C26  1  0.41357000  0.87399000  0.84272000  1.0
  C  C27  1  0.58644000  0.37398000  0.34273000  1.0
  C  C28  1  0.41359000  0.37400000  0.15728000  1.0
  C  C29  1  0.41360000  0.12601000  0.34271000  1.0
  C  C30  1  0.58644000  0.12602000  0.15727000  1.0
  C  C31  1  0.41357000  0.62601000  0.65728000  1.0
  C  C32  1  0.58642000  0.62602000  0.84273000  1.0
  C  C33  1  0.58643000  0.87398000  0.65727000  1.0
  C  C34  1  0.49999000  0.81250000  0.75000000  1.0
  C  C35  1  0.50003000  0.31250000  0.25001000  1.0
  C  C36  1  0.50002000  0.18750000  0.24999000  1.0
  C  C37  1  0.49999000  0.68749000  0.75000000  1.0
  Br  Br38  1  0.99999000  0.25000000  0.91128000  1.0
  Br  Br39  1  1.00000000  0.75000000  0.41128000  1.0
  Br  Br40  1  1.00000000  0.75000000  0.08871000  1.0
  Br  Br41  1  0.00000000  0.25000000  0.58874000  1.0
  N  N42  1  0.49998000  0.04957000  0.75001000  1.0
  N  N43  1  0.49999000  0.54958000  0.25000000  1.0
  N  N44  1  0.50000000  0.95043000  0.24999000  1.0
  N  N45  1  0.50001000  0.45041000  0.74999000  1.0
