# generated using pymatgen
data_NiP2H28C18S5(NO2)2
_symmetry_space_group_name_H-M   'P 1'
_cell_length_a   8.12536000
_cell_length_b   9.34478000
_cell_length_c   17.75790000
_cell_angle_alpha   100.02400000
_cell_angle_beta   100.11800000
_cell_angle_gamma   94.60220000
_symmetry_Int_Tables_number   1
_chemical_formula_structural   NiP2H28C18S5(NO2)2
_chemical_formula_sum   'Ni2 P4 H56 C36 S10 N4 O8'
_cell_volume   1298.55177621
_cell_formula_units_Z   2
loop_
 _symmetry_equiv_pos_site_id
 _symmetry_equiv_pos_as_xyz
  1  'x, y, z'
loop_
 _atom_site_type_symbol
 _atom_site_label
 _atom_site_symmetry_multiplicity
 _atom_site_fract_x
 _atom_site_fract_y
 _atom_site_fract_z
 _atom_site_occupancy
  Ni  Ni0  1  0.00000000  0.50000000  0.50000000  1.0
  Ni  Ni1  1  0.00000000  0.00000000  0.00000000  1.0
  P  P2  1  0.27143000  0.75360000  0.53436000  1.0
  P  P3  1  0.72857000  0.24640000  0.46564000  1.0
  P  P4  1  0.78760000  0.24084000  0.97407000  1.0
  P  P5  1  0.21240000  0.75917000  0.02593000  1.0
  H  H6  1  0.50046000  0.57220000  0.60552000  1.0
  H  H7  1  0.49954000  0.42780000  0.39447000  1.0
  H  H8  1  0.40165000  0.67074000  0.67774000  1.0
  H  H9  1  0.59835000  0.32926000  0.32225000  1.0
  H  H10  1  0.70859000  0.65715000  0.72870000  1.0
  H  H11  1  0.29141000  0.34285000  0.27129000  1.0
  H  H12  1  0.66812000  0.84213000  0.72969000  1.0
  H  H13  1  0.33188000  0.15787000  0.27031000  1.0
  H  H14  1  0.76498000  0.74826000  0.65565000  1.0
  H  H15  1  0.23502000  0.25174000  0.34434000  1.0
  H  H16  1  0.12587000  0.04254000  0.46353000  1.0
  H  H17  1  0.87414000  0.95746000  0.53647000  1.0
  H  H18  1  0.04414000  0.85480000  0.43866000  1.0
  H  H19  1  0.95586000  0.14521000  0.56134000  1.0
  H  H20  1  0.11905000  0.94649000  0.32224000  1.0
  H  H21  1  0.88095000  0.05350000  0.67776000  1.0
  H  H22  1  0.24558000  0.80823000  0.34720000  1.0
  H  H23  1  0.75442000  0.19177000  0.65280000  1.0
  H  H24  1  0.33023000  0.99673000  0.37338000  1.0
  H  H25  1  0.66977000  0.00327000  0.62661000  1.0
  H  H26  1  0.85863000  0.21459000  0.82402000  1.0
  H  H27  1  0.14137000  0.78541000  0.17598000  1.0
  H  H28  1  0.00171000  0.36888000  0.87891000  1.0
  H  H29  1  0.99829000  0.63113000  0.12108000  1.0
  H  H30  1  0.87354000  0.41047000  0.74486000  1.0
  H  H31  1  0.12645000  0.58952000  0.25514000  1.0
  H  H32  1  0.81886000  0.53844000  0.82064000  1.0
  H  H33  1  0.18113000  0.46156000  0.17936000  1.0
  H  H34  1  0.67015000  0.38713000  0.76746000  1.0
  H  H35  1  0.32985000  0.61287000  0.23254000  1.0
  H  H36  1  0.74719000  0.26820000  0.12776000  1.0
  H  H37  1  0.25282000  0.73180000  0.87224000  1.0
  H  H38  1  0.55860000  0.15404000  0.07786000  1.0
  H  H39  1  0.44140000  0.84596000  0.92214000  1.0
  H  H40  1  0.49932000  0.34476000  0.18462000  1.0
  H  H41  1  0.50068000  0.65524000  0.81538000  1.0
  H  H42  1  0.39643000  0.37580000  0.09282000  1.0
  H  H43  1  0.60357000  0.62420000  0.90718000  1.0
  H  H44  1  0.58530000  0.48595000  0.14239000  1.0
  H  H45  1  0.41470000  0.51405000  0.85760000  1.0
  H  H46  1  0.95935000  0.52249000  0.33178000  1.0
  H  H47  1  0.04065000  0.47751000  0.66822000  1.0
  H  H48  1  0.81988000  0.67508000  0.24334000  1.0
  H  H49  1  0.18012000  0.32493000  0.75666000  1.0
  H  H50  1  0.56093000  0.84313000  0.42793000  1.0
  H  H51  1  0.43907000  0.15688000  0.57207000  1.0
  H  H52  1  0.71404000  0.68558000  0.50780000  1.0
  H  H53  1  0.28597000  0.31442000  0.49220000  1.0
  H  H54  1  0.03573000  0.11498000  0.17226000  1.0
  H  H55  1  0.96427000  0.88502000  0.82774000  1.0
  H  H56  1  0.87794000  0.08085000  0.27894000  1.0
  H  H57  1  0.12205000  0.91915000  0.72106000  1.0
  H  H58  1  0.54584000  0.74129000  0.11183000  1.0
  H  H59  1  0.45415000  0.25871000  0.88817000  1.0
  H  H60  1  0.71094000  0.79564000  0.01238000  1.0
  H  H61  1  0.28906000  0.20436000  0.98762000  1.0
  C  C62  1  0.49874000  0.67974000  0.64212000  1.0
  C  C63  1  0.50126000  0.32026000  0.35787000  1.0
  C  C64  1  0.67006000  0.73617000  0.69188000  1.0
  C  C65  1  0.32994000  0.26383000  0.30812000  1.0
  C  C66  1  0.15645000  0.93195000  0.44318000  1.0
  C  C67  1  0.84356000  0.06805000  0.55682000  1.0
  C  C68  1  0.21719000  0.91981000  0.36695000  1.0
  C  C69  1  0.78281000  0.08018000  0.63305000  1.0
  C  C70  1  0.86959000  0.33120000  0.85109000  1.0
  C  C71  1  0.13041000  0.66881000  0.14891000  1.0
  C  C72  1  0.80349000  0.42264000  0.79268000  1.0
  C  C73  1  0.19651000  0.57735000  0.20732000  1.0
  C  C74  1  0.62263000  0.26646000  0.09104000  1.0
  C  C75  1  0.37737000  0.73354000  0.90896000  1.0
  C  C76  1  0.51978000  0.37455000  0.12956000  1.0
  C  C77  1  0.48022000  0.62545000  0.87044000  1.0
  C  C78  1  0.87141000  0.59652000  0.35081000  1.0
  C  C79  1  0.12860000  0.40348000  0.64919000  1.0
  C  C80  1  0.79267000  0.68137000  0.30164000  1.0
  C  C81  1  0.20733000  0.31863000  0.69837000  1.0
  C  C82  1  0.68014000  0.77515000  0.32871000  1.0
  C  C83  1  0.31986000  0.22485000  0.67129000  1.0
  C  C84  1  0.64736000  0.77356000  0.40366000  1.0
  C  C85  1  0.35265000  0.22645000  0.59634000  1.0
  C  C86  1  0.73417000  0.68658000  0.44888000  1.0
  C  C87  1  0.26584000  0.31342000  0.55112000  1.0
  C  C88  1  0.92634000  0.03362000  0.16168000  1.0
  C  C89  1  0.07365000  0.96638000  0.83832000  1.0
  C  C90  1  0.83992000  0.01312000  0.22076000  1.0
  C  C91  1  0.16007000  0.98688000  0.77924000  1.0
  C  C92  1  0.69977000  0.90742000  0.20332000  1.0
  C  C93  1  0.30022000  0.09258000  0.79668000  1.0
  C  C94  1  0.65316000  0.82519000  0.12787000  1.0
  C  C95  1  0.34683000  0.17481000  0.87213000  1.0
  C  C96  1  0.74508000  0.85518000  0.07219000  1.0
  C  C97  1  0.25492000  0.14482000  0.92781000  1.0
  S  S98  1  0.24880000  0.57940000  0.44900000  1.0
  S  S99  1  0.75120000  0.42060000  0.55100000  1.0
  S  S100  1  0.08084000  0.73554000  0.59104000  1.0
  S  S101  1  0.91916000  0.26446000  0.40896000  1.0
  S  S102  1  0.01138000  0.26733000  0.04493000  1.0
  S  S103  1  0.98862000  0.73267000  0.95508000  1.0
  S  S104  1  0.72876000  0.03080000  0.92172000  1.0
  S  S105  1  0.27124000  0.96920000  0.07828000  1.0
  S  S106  1  0.57325000  0.89011000  0.27390000  1.0
  S  S107  1  0.42674000  0.10988000  0.72610000  1.0
  N  N108  1  0.84748000  0.60094000  0.42425000  1.0
  N  N109  1  0.15252000  0.39906000  0.57575000  1.0
  N  N110  1  0.87854000  0.95781000  0.08816000  1.0
  N  N111  1  0.12146000  0.04219000  0.91185000  1.0
  O  O112  1  0.45294000  0.78275000  0.59135000  1.0
  O  O113  1  0.54707000  0.21725000  0.40865000  1.0
  O  O114  1  0.29027000  0.90498000  0.50404000  1.0
  O  O115  1  0.70973000  0.09502000  0.49596000  1.0
  O  O116  1  0.76941000  0.34725000  0.91166000  1.0
  O  O117  1  0.23060000  0.65276000  0.08834000  1.0
  O  O118  1  0.64653000  0.30859000  0.01823000  1.0
  O  O119  1  0.35347000  0.69142000  0.98177000  1.0
