# generated using pymatgen
data_CuH14C14N8O9
_symmetry_space_group_name_H-M   'P 1'
_cell_length_a   7.30776000
_cell_length_b   10.11180000
_cell_length_c   12.80550000
_cell_angle_alpha   95.50980000
_cell_angle_beta   90.02020000
_cell_angle_gamma   111.15100000
_symmetry_Int_Tables_number   1
_chemical_formula_structural   CuH14C14N8O9
_chemical_formula_sum   'Cu2 H28 C28 N16 O18'
_cell_volume   877.80875771
_cell_formula_units_Z   2
loop_
 _symmetry_equiv_pos_site_id
 _symmetry_equiv_pos_as_xyz
  1  'x, y, z'
loop_
 _atom_site_type_symbol
 _atom_site_label
 _atom_site_symmetry_multiplicity
 _atom_site_fract_x
 _atom_site_fract_y
 _atom_site_fract_z
 _atom_site_occupancy
  Cu  Cu0  1  0.09148000  0.00003000  0.74996000  1.0
  Cu  Cu1  1  0.90852000  0.99997000  0.25004000  1.0
  H  H2  1  0.39015000  0.75059000  0.25138000  1.0
  H  H3  1  0.63987000  0.24937000  0.24873000  1.0
  H  H4  1  0.60985000  0.24941000  0.74862000  1.0
  H  H5  1  0.36012000  0.75063000  0.75127000  1.0
  H  H6  1  0.68089000  0.96064000  0.80238000  1.0
  H  H7  1  0.72023000  0.03940000  0.69764000  1.0
  H  H8  1  0.31911000  0.03936000  0.19762000  1.0
  H  H9  1  0.27978000  0.96060000  0.30237000  1.0
  H  H10  1  0.49187000  0.24449000  0.40190000  1.0
  H  H11  1  0.24719000  0.75537000  0.09818000  1.0
  H  H12  1  0.50813000  0.75551000  0.59810000  1.0
  H  H13  1  0.75281000  0.24463000  0.90182000  1.0
  H  H14  1  0.28164000  0.26292000  0.36908000  1.0
  H  H15  1  0.01856000  0.73704000  0.13089000  1.0
  H  H16  1  0.71836000  0.73707000  0.63092000  1.0
  H  H17  1  0.98144000  0.26296000  0.86911000  1.0
  H  H18  1  0.25046000  0.03333000  0.51178000  1.0
  H  H19  1  0.21706000  0.96665000  0.98822000  1.0
  H  H20  1  0.74953000  0.96667000  0.48822000  1.0
  H  H21  1  0.78294000  0.03335000  0.01178000  1.0
  H  H22  1  0.35104000  0.47027000  0.59237000  1.0
  H  H23  1  0.88094000  0.52979000  0.90754000  1.0
  H  H24  1  0.64896000  0.52973000  0.40763000  1.0
  H  H25  1  0.11906000  0.47022000  0.09247000  1.0
  H  H26  1  0.90352000  0.55589000  0.67911000  1.0
  H  H27  1  0.34797000  0.44417000  0.82078000  1.0
  H  H28  1  0.09648000  0.44411000  0.32089000  1.0
  H  H29  1  0.65202000  0.55583000  0.17922000  1.0
  C  C30  1  0.25157000  0.13110000  0.55532000  1.0
  C  C31  1  0.12041000  0.86890000  0.94467000  1.0
  C  C32  1  0.74843000  0.86889000  0.44468000  1.0
  C  C33  1  0.87959000  0.13111000  0.05533000  1.0
  C  C34  1  0.29953000  0.35597000  0.59761000  1.0
  C  C35  1  0.94369000  0.64407000  0.90230000  1.0
  C  C36  1  0.70047000  0.64403000  0.40239000  1.0
  C  C37  1  0.05631000  0.35593000  0.09770000  1.0
  C  C38  1  0.07390000  0.64121000  0.54870000  1.0
  C  C39  1  0.43312000  0.35882000  0.95122000  1.0
  C  C40  1  0.92610000  0.35879000  0.45130000  1.0
  C  C41  1  0.56688000  0.64118000  0.04878000  1.0
  C  C42  1  0.12842000  0.60994000  0.44665000  1.0
  C  C43  1  0.51865000  0.39005000  0.05336000  1.0
  C  C44  1  0.87158000  0.39006000  0.55335000  1.0
  C  C45  1  0.48136000  0.60995000  0.94664000  1.0
  C  C46  1  0.94498000  0.53092000  0.60012000  1.0
  C  C47  1  0.41431000  0.46913000  0.89980000  1.0
  C  C48  1  0.05502000  0.46908000  0.39987000  1.0
  C  C49  1  0.58569000  0.53088000  0.10021000  1.0
  C  C50  1  0.15101000  0.78520000  0.61207000  1.0
  C  C51  1  0.36670000  0.21485000  0.88781000  1.0
  C  C52  1  0.84899000  0.21480000  0.38793000  1.0
  C  C53  1  0.63330000  0.78515000  0.11219000  1.0
  C  C54  1  0.25014000  0.72485000  0.38402000  1.0
  C  C55  1  0.52548000  0.27512000  0.11605000  1.0
  C  C56  1  0.74987000  0.27515000  0.61598000  1.0
  C  C57  1  0.47452000  0.72488000  0.88395000  1.0
  N  N58  1  0.32397000  0.26221000  0.51985000  1.0
  N  N59  1  0.06172000  0.73779000  0.98014000  1.0
  N  N60  1  0.67603000  0.73779000  0.48015000  1.0
  N  N61  1  0.93828000  0.26221000  0.01987000  1.0
  N  N62  1  0.18833000  0.14638000  0.65098000  1.0
  N  N63  1  0.04202000  0.85368000  0.84896000  1.0
  N  N64  1  0.81167000  0.85362000  0.34901000  1.0
  N  N65  1  0.95798000  0.14632000  0.15104000  1.0
  N  N66  1  0.21611000  0.28783000  0.67790000  1.0
  N  N67  1  0.92847000  0.71226000  0.82199000  1.0
  N  N68  1  0.78388000  0.71217000  0.32210000  1.0
  N  N69  1  0.07154000  0.28774000  0.17801000  1.0
  N  N70  1  0.39960000  0.29911000  0.42187000  1.0
  N  N71  1  0.10035000  0.70083000  0.07814000  1.0
  N  N72  1  0.60039000  0.70089000  0.57813000  1.0
  N  N73  1  0.89965000  0.29917000  0.92186000  1.0
  O  O74  1  0.02761000  0.84728000  0.62690000  1.0
  O  O75  1  0.18124000  0.15274000  0.87295000  1.0
  O  O76  1  0.97239000  0.15272000  0.37310000  1.0
  O  O77  1  0.81876000  0.84725000  0.12706000  1.0
  O  O78  1  0.32244000  0.83027000  0.65376000  1.0
  O  O79  1  0.49315000  0.16983000  0.84618000  1.0
  O  O80  1  0.67756000  0.16973000  0.34624000  1.0
  O  O81  1  0.50684000  0.83016000  0.15381000  1.0
  O  O82  1  0.28698000  0.85303000  0.41055000  1.0
  O  O83  1  0.43414000  0.14699000  0.08952000  1.0
  O  O84  1  0.71302000  0.14697000  0.58945000  1.0
  O  O85  1  0.56586000  0.85302000  0.91048000  1.0
  O  O86  1  0.31045000  0.67426000  0.29635000  1.0
  O  O87  1  0.63634000  0.32571000  0.20375000  1.0
  O  O88  1  0.68955000  0.32574000  0.70365000  1.0
  O  O89  1  0.36366000  0.67429000  0.79625000  1.0
  O  O90  1  0.77887000  0.99988000  0.74996000  1.0
  O  O91  1  0.22113000  0.00011000  0.25004000  1.0
