# generated using pymatgen
data_CdH6(C2O3)2
_symmetry_space_group_name_H-M   'P 1'
_cell_length_a   6.54410000
_cell_length_b   7.63154000
_cell_length_c   7.88668000
_cell_angle_alpha   68.45330000
_cell_angle_beta   88.10620000
_cell_angle_gamma   70.14240000
_symmetry_Int_Tables_number   1
_chemical_formula_structural   CdH6(C2O3)2
_chemical_formula_sum   'Cd2 H12 C8 O12'
_cell_volume   342.66706678
_cell_formula_units_Z   2
loop_
 _symmetry_equiv_pos_site_id
 _symmetry_equiv_pos_as_xyz
  1  'x, y, z'
loop_
 _atom_site_type_symbol
 _atom_site_label
 _atom_site_symmetry_multiplicity
 _atom_site_fract_x
 _atom_site_fract_y
 _atom_site_fract_z
 _atom_site_occupancy
  Cd  Cd0  1  0.14919000  0.82372000  0.88593000  1.0
  Cd  Cd1  1  0.85081000  0.17628000  0.11407000  1.0
  H  H2  1  0.48502000  0.70481000  0.35097000  1.0
  H  H3  1  0.51498000  0.29519000  0.64903000  1.0
  H  H4  1  0.85280000  0.71817000  0.46955000  1.0
  H  H5  1  0.14719000  0.28185000  0.53045000  1.0
  H  H6  1  0.57844000  0.84649000  0.92242000  1.0
  H  H7  1  0.42157000  0.15351000  0.07758000  1.0
  H  H8  1  0.55332000  0.66195000  0.08965000  1.0
  H  H9  1  0.44668000  0.33805000  0.91035000  1.0
  H  H10  1  0.76222000  0.95489000  0.64905000  1.0
  H  H11  1  0.23778000  0.04510000  0.35096000  1.0
  H  H12  1  0.82801000  0.71584000  0.77095000  1.0
  H  H13  1  0.17199000  0.28416000  0.22905000  1.0
  C  C14  1  0.35326000  0.68875000  0.61341000  1.0
  C  C15  1  0.64674000  0.31126000  0.38659000  1.0
  C  C16  1  0.46469000  0.59903000  0.48215000  1.0
  C  C17  1  0.53531000  0.40097000  0.51785000  1.0
  C  C18  1  0.03800000  0.64886000  0.25153000  1.0
  C  C19  1  0.96199000  0.35114000  0.74847000  1.0
  C  C20  1  0.96460000  0.59414000  0.43733000  1.0
  C  C21  1  0.03539000  0.40586000  0.56267000  1.0
  O  O22  1  0.28495000  0.87972000  0.56466000  1.0
  O  O23  1  0.71505000  0.12029000  0.43535000  1.0
  O  O24  1  0.32431000  0.57592000  0.77169000  1.0
  O  O25  1  0.67568000  0.42408000  0.22831000  1.0
  O  O26  1  0.99514000  0.83739000  0.15715000  1.0
  O  O27  1  0.00488000  0.16261000  0.84286000  1.0
  O  O28  1  0.14263000  0.51861000  0.18706000  1.0
  O  O29  1  0.85735000  0.48139000  0.81293000  1.0
  O  O30  1  0.47368000  0.80492000  0.00773000  1.0
  O  O31  1  0.52632000  0.19508000  0.99227000  1.0
  O  O32  1  0.80654000  0.85014000  0.77719000  1.0
  O  O33  1  0.19347000  0.14985000  0.22282000  1.0
