# generated using pymatgen
data_H4Pb(C2O3)2
_symmetry_space_group_name_H-M   'P 1'
_cell_length_a   8.07425000
_cell_length_b   8.25021000
_cell_length_c   8.91668000
_cell_angle_alpha   90.00020000
_cell_angle_beta   90.00000000
_cell_angle_gamma   89.99990000
_symmetry_Int_Tables_number   1
_chemical_formula_structural   H4Pb(C2O3)2
_chemical_formula_sum   'H16 Pb4 C16 O24'
_cell_volume   593.97802284
_cell_formula_units_Z   4
loop_
 _symmetry_equiv_pos_site_id
 _symmetry_equiv_pos_as_xyz
  1  'x, y, z'
loop_
 _atom_site_type_symbol
 _atom_site_label
 _atom_site_symmetry_multiplicity
 _atom_site_fract_x
 _atom_site_fract_y
 _atom_site_fract_z
 _atom_site_occupancy
  H  H0  1  0.71637000  0.85033000  0.02578000  1.0
  H  H1  1  0.78363000  0.35033000  0.97422000  1.0
  H  H2  1  0.28364000  0.64967000  0.52578000  1.0
  H  H3  1  0.21636000  0.14967000  0.47422000  1.0
  H  H4  1  0.62245000  0.86085000  0.77241000  1.0
  H  H5  1  0.87756000  0.36085000  0.22759000  1.0
  H  H6  1  0.37756000  0.63915000  0.27241000  1.0
  H  H7  1  0.12245000  0.13915000  0.72759000  1.0
  H  H8  1  0.75836000  0.59294000  0.08994000  1.0
  H  H9  1  0.74164000  0.09294000  0.91005000  1.0
  H  H10  1  0.24164000  0.90706000  0.58995000  1.0
  H  H11  1  0.25836000  0.40706000  0.41006000  1.0
  H  H12  1  0.87211000  0.61758000  0.71265000  1.0
  H  H13  1  0.62789000  0.11758000  0.28734000  1.0
  H  H14  1  0.12789000  0.88242000  0.21265000  1.0
  H  H15  1  0.37211000  0.38242000  0.78735000  1.0
  Pb  Pb16  1  0.15562000  0.54731000  0.00617000  1.0
  Pb  Pb17  1  0.34438000  0.04731000  0.99384000  1.0
  Pb  Pb18  1  0.84437000  0.95269000  0.50616000  1.0
  Pb  Pb19  1  0.65562000  0.45269000  0.49384000  1.0
  C  C20  1  0.93313000  0.87907000  0.88749000  1.0
  C  C21  1  0.56687000  0.37907000  0.11252000  1.0
  C  C22  1  0.06688000  0.62093000  0.38749000  1.0
  C  C23  1  0.43313000  0.12093000  0.61251000  1.0
  C  C24  1  0.78695000  0.77643000  0.94523000  1.0
  C  C25  1  0.71305000  0.27643000  0.05477000  1.0
  C  C26  1  0.21306000  0.72357000  0.44523000  1.0
  C  C27  1  0.28695000  0.22357000  0.55477000  1.0
  C  C28  1  0.67853000  0.74451000  0.80560000  1.0
  C  C29  1  0.82147000  0.24451000  0.19440000  1.0
  C  C30  1  0.32147000  0.75549000  0.30560000  1.0
  C  C31  1  0.17853000  0.25549000  0.69440000  1.0
  C  C32  1  0.53006000  0.63390000  0.83374000  1.0
  C  C33  1  0.96994000  0.13390000  0.16626000  1.0
  C  C34  1  0.46994000  0.86610000  0.33374000  1.0
  C  C35  1  0.03006000  0.36610000  0.66626000  1.0
  O  O36  1  0.07928000  0.82551000  0.89815000  1.0
  O  O37  1  0.42072000  0.32551000  0.10185000  1.0
  O  O38  1  0.92074000  0.67449000  0.39815000  1.0
  O  O39  1  0.57927000  0.17449000  0.60185000  1.0
  O  O40  1  0.89458000  0.01323000  0.82531000  1.0
  O  O41  1  0.60542000  0.51323000  0.17469000  1.0
  O  O42  1  0.10543000  0.48676000  0.32531000  1.0
  O  O43  1  0.39458000  0.98676000  0.67469000  1.0
  O  O44  1  0.84514000  0.63371000  0.01625000  1.0
  O  O45  1  0.65486000  0.13371000  0.98375000  1.0
  O  O46  1  0.15487000  0.86629000  0.51626000  1.0
  O  O47  1  0.34514000  0.36629000  0.48374000  1.0
  O  O48  1  0.77692000  0.69237000  0.68181000  1.0
  O  O49  1  0.72308000  0.19237000  0.31819000  1.0
  O  O50  1  0.22308000  0.80763000  0.18181000  1.0
  O  O51  1  0.27692000  0.30763000  0.81819000  1.0
  O  O52  1  0.42146000  0.68793000  0.92309000  1.0
  O  O53  1  0.07853000  0.18793000  0.07691000  1.0
  O  O54  1  0.57853000  0.81208000  0.42309000  1.0
  O  O55  1  0.92147000  0.31208000  0.57691000  1.0
  O  O56  1  0.52323000  0.49910000  0.76360000  1.0
  O  O57  1  0.97677000  0.99910000  0.23640000  1.0
  O  O58  1  0.47677000  0.00090000  0.26359000  1.0
  O  O59  1  0.02323000  0.50090000  0.73641000  1.0
