# generated using pymatgen
data_K3H6C6N7O6
_symmetry_space_group_name_H-M   'P 1'
_cell_length_a   7.09991000
_cell_length_b   10.29530000
_cell_length_c   17.11500000
_cell_angle_alpha   90.00000000
_cell_angle_beta   90.00000000
_cell_angle_gamma   89.52430000
_symmetry_Int_Tables_number   1
_chemical_formula_structural   K3H6C6N7O6
_chemical_formula_sum   'K12 H24 C24 N28 O24'
_cell_volume   1250.98984621
_cell_formula_units_Z   4
loop_
 _symmetry_equiv_pos_site_id
 _symmetry_equiv_pos_as_xyz
  1  'x, y, z'
loop_
 _atom_site_type_symbol
 _atom_site_label
 _atom_site_symmetry_multiplicity
 _atom_site_fract_x
 _atom_site_fract_y
 _atom_site_fract_z
 _atom_site_occupancy
  K  K0  1  0.72910000  0.62612000  0.08096000  1.0
  K  K1  1  0.77090000  0.37388000  0.58096000  1.0
  K  K2  1  0.27090000  0.37388000  0.91904000  1.0
  K  K3  1  0.22910000  0.62612000  0.41904000  1.0
  K  K4  1  0.74341000  0.98242000  0.00920000  1.0
  K  K5  1  0.75659000  0.01758000  0.50920000  1.0
  K  K6  1  0.25659000  0.01758000  0.99080000  1.0
  K  K7  1  0.24341000  0.98242000  0.49080000  1.0
  K  K8  1  0.67010000  0.77828000  0.33199000  1.0
  K  K9  1  0.82990000  0.22172000  0.83199000  1.0
  K  K10  1  0.32990000  0.22172000  0.66801000  1.0
  K  K11  1  0.17010000  0.77830000  0.16801000  1.0
  H  H12  1  0.62972000  0.50068000  0.90745000  1.0
  H  H13  1  0.87028000  0.49932000  0.40745000  1.0
  H  H14  1  0.37028000  0.49932000  0.09255000  1.0
  H  H15  1  0.12973000  0.50068000  0.59255000  1.0
  H  H16  1  0.82150000  0.47143000  0.94900000  1.0
  H  H17  1  0.67850000  0.52857000  0.44900000  1.0
  H  H18  1  0.17850000  0.52857000  0.05100000  1.0
  H  H19  1  0.32150000  0.47143000  0.55100000  1.0
  H  H20  1  0.39818000  0.70216000  0.01020000  1.0
  H  H21  1  0.10182000  0.29784000  0.51020000  1.0
  H  H22  1  0.60182000  0.29784000  0.98980000  1.0
  H  H23  1  0.89818000  0.70216000  0.48980000  1.0
  H  H24  1  0.49975000  0.77264000  0.93873000  1.0
  H  H25  1  0.00025000  0.22736000  0.43873000  1.0
  H  H26  1  0.50025000  0.22736000  0.06127000  1.0
  H  H27  1  0.99975000  0.77264000  0.56127000  1.0
  H  H28  1  0.83004000  0.93307000  0.18993000  1.0
  H  H29  1  0.66996000  0.06693000  0.68993000  1.0
  H  H30  1  0.16996000  0.06694000  0.81007000  1.0
  H  H31  1  0.33004000  0.93306000  0.31007000  1.0
  H  H32  1  0.62786000  0.89005000  0.16325000  1.0
  H  H33  1  0.87214000  0.10996000  0.66325000  1.0
  H  H34  1  0.37214000  0.10996000  0.83675000  1.0
  H  H35  1  0.12786000  0.89005000  0.33675000  1.0
  C  C36  1  0.98560000  0.39474000  0.15884000  1.0
  C  C37  1  0.51439000  0.60526000  0.65884000  1.0
  C  C38  1  0.01439000  0.60526000  0.84116000  1.0
  C  C39  1  0.48561000  0.39474000  0.34116000  1.0
  C  C40  1  0.98339000  0.24741000  0.05601000  1.0
  C  C41  1  0.51661000  0.75259000  0.55601000  1.0
  C  C42  1  0.01661000  0.75259000  0.94399000  1.0
  C  C43  1  0.48339000  0.24740000  0.44399000  1.0
  C  C44  1  0.96407000  0.16271000  0.18201000  1.0
  C  C45  1  0.53593000  0.83729000  0.68200000  1.0
  C  C46  1  0.03593000  0.83729000  0.81799000  1.0
  C  C47  1  0.46407000  0.16270000  0.31799000  1.0
  C  C48  1  0.93907000  0.08849000  0.31059000  1.0
  C  C49  1  0.56093000  0.91152000  0.81059000  1.0
  C  C50  1  0.06093000  0.91152000  0.68942000  1.0
  C  C51  1  0.43907000  0.08848000  0.18941000  1.0
  C  C52  1  0.96399000  0.31268000  0.29208000  1.0
  C  C53  1  0.53601000  0.68732000  0.79208000  1.0
  C  C54  1  0.03601000  0.68732000  0.70792000  1.0
  C  C55  1  0.46399000  0.31268000  0.20792000  1.0
  C  C56  1  0.98459000  0.53471000  0.26572000  1.0
  C  C57  1  0.51541000  0.46529000  0.76572000  1.0
  C  C58  1  0.01541000  0.46529000  0.73428000  1.0
  C  C59  1  0.48459000  0.53471000  0.23428000  1.0
  N  N60  1  0.97141000  0.28995000  0.21117000  1.0
  N  N61  1  0.52859000  0.71005000  0.71117000  1.0
  N  N62  1  0.02859000  0.71005000  0.78883000  1.0
  N  N63  1  0.47141000  0.28995000  0.28883000  1.0
  N  N64  1  0.99050000  0.37339000  0.08224000  1.0
  N  N65  1  0.50949000  0.62660000  0.58224000  1.0
  N  N66  1  0.00950000  0.62660000  0.91776000  1.0
  N  N67  1  0.49050000  0.37339000  0.41776000  1.0
  N  N68  1  0.97113000  0.14226000  0.10561000  1.0
  N  N69  1  0.52887000  0.85774000  0.60561000  1.0
  N  N70  1  0.02887000  0.85774000  0.89439000  1.0
  N  N71  1  0.47113000  0.14226000  0.39439000  1.0
  N  N72  1  0.94836000  0.06369000  0.23189000  1.0
  N  N73  1  0.55164000  0.93631000  0.73189000  1.0
  N  N74  1  0.05164000  0.93631000  0.76811000  1.0
  N  N75  1  0.44837000  0.06368000  0.26811000  1.0
  N  N76  1  0.94857000  0.21215000  0.34052000  1.0
  N  N77  1  0.55143000  0.78785000  0.84052000  1.0
  N  N78  1  0.05143000  0.78786000  0.65949000  1.0
  N  N79  1  0.44857000  0.21214000  0.15949000  1.0
  N  N80  1  0.97207000  0.43371000  0.31882000  1.0
  N  N81  1  0.52793000  0.56629000  0.81883000  1.0
  N  N82  1  0.02793000  0.56629000  0.68117000  1.0
  N  N83  1  0.47206000  0.43371000  0.18117000  1.0
  N  N84  1  0.99237000  0.51528000  0.18645000  1.0
  N  N85  1  0.50763000  0.48472000  0.68645000  1.0
  N  N86  1  0.00763000  0.48472000  0.81355000  1.0
  N  N87  1  0.49237000  0.51527000  0.31355000  1.0
  O  O88  1  0.99036000  0.64907000  0.29170000  1.0
  O  O89  1  0.50964000  0.35093000  0.79171000  1.0
  O  O90  1  0.00964000  0.35093000  0.70829000  1.0
  O  O91  1  0.49036000  0.64907000  0.20830000  1.0
  O  O92  1  0.99064000  0.22450000  0.98334000  1.0
  O  O93  1  0.50936000  0.77550000  0.48334000  1.0
  O  O94  1  0.00937000  0.77549000  0.01666000  1.0
  O  O95  1  0.49063000  0.22450000  0.51666000  1.0
  O  O96  1  0.92289000  0.99393000  0.35772000  1.0
  O  O97  1  0.57711000  0.00608000  0.85771000  1.0
  O  O98  1  0.07711000  0.00608000  0.64229000  1.0
  O  O99  1  0.42289000  0.99392000  0.14229000  1.0
  O  O100  1  0.68632000  0.45320000  0.95297000  1.0
  O  O101  1  0.81368000  0.54680000  0.45297000  1.0
  O  O102  1  0.31368000  0.54680000  0.04703000  1.0
  O  O103  1  0.18632000  0.45320000  0.54703000  1.0
  O  O104  1  0.47098000  0.78043000  0.99619000  1.0
  O  O105  1  0.02902000  0.21957000  0.49619000  1.0
  O  O106  1  0.52902000  0.21957000  0.00381000  1.0
  O  O107  1  0.97098000  0.78043000  0.50381000  1.0
  O  O108  1  0.75951000  0.85862000  0.16643000  1.0
  O  O109  1  0.74049000  0.14138000  0.66643000  1.0
  O  O110  1  0.24049000  0.14138000  0.83357000  1.0
  O  O111  1  0.25950000  0.85862000  0.33357000  1.0
