# generated using pymatgen
data_Zn4H18C27O16
_symmetry_space_group_name_H-M   'P 1'
_cell_length_a   15.81536213
_cell_length_b   16.43010000
_cell_length_c   16.80310000
_cell_angle_alpha   114.25900000
_cell_angle_beta   116.32159053
_cell_angle_gamma   63.68926675
_symmetry_Int_Tables_number   1
_chemical_formula_structural   Zn4H18C27O16
_chemical_formula_sum   'Zn8 H36 C54 O32'
_cell_volume   3381.00846456
_cell_formula_units_Z   2
loop_
 _symmetry_equiv_pos_site_id
 _symmetry_equiv_pos_as_xyz
  1  'x, y, z'
loop_
 _atom_site_type_symbol
 _atom_site_label
 _atom_site_symmetry_multiplicity
 _atom_site_fract_x
 _atom_site_fract_y
 _atom_site_fract_z
 _atom_site_occupancy
  Zn  Zn0  1  0.05406000  0.86237000  0.94054000  1.0
  Zn  Zn1  1  0.04182000  0.06285000  0.94552000  1.0
  Zn  Zn2  1  0.09963000  0.01897000  0.13479000  1.0
  Zn  Zn3  1  0.87890000  0.05157000  0.99835000  1.0
  Zn  Zn4  1  0.48168000  0.63456000  0.51497000  1.0
  Zn  Zn5  1  0.43418000  0.48498000  0.54735000  1.0
  Zn  Zn6  1  0.65417000  0.44630000  0.56094000  1.0
  Zn  Zn7  1  0.48698000  0.43478000  0.36298000  1.0
  H  H8  1  0.25692000  0.72126000  0.86564000  1.0
  H  H9  1  0.38805000  0.69386000  0.89339000  1.0
  H  H10  1  0.30854000  0.81366000  0.90138000  1.0
  H  H11  1  0.19208000  0.80177000  0.50660000  1.0
  H  H12  1  0.04476000  0.93505000  0.54502000  1.0
  H  H13  1  0.02587000  0.97096000  0.69668000  1.0
  H  H14  1  0.15198000  0.71370000  0.12110000  1.0
  H  H15  1  0.12958000  0.72255000  0.22032000  1.0
  H  H16  1  0.13377000  0.82421000  0.20847000  1.0
  H  H17  1  0.58762000  0.59270000  0.25643000  1.0
  H  H18  1  0.55928000  0.66652000  0.13877000  1.0
  H  H19  1  0.38876000  0.76708000  0.06997000  1.0
  H  H20  1  0.72966000  0.68979000  0.59733000  1.0
  H  H21  1  0.85582000  0.68351000  0.62726000  1.0
  H  H22  1  0.83107000  0.60580000  0.65775000  1.0
  H  H23  1  0.62432000  0.65805000  0.82084000  1.0
  H  H24  1  0.66418000  0.76729000  0.97764000  1.0
  H  H25  1  0.76900000  0.86445000  0.01506000  1.0
  H  H26  1  0.37156000  0.23152000  0.36972000  1.0
  H  H27  1  0.41555000  0.11995000  0.29359000  1.0
  H  H28  1  0.44110000  0.22057000  0.30318000  1.0
  H  H29  1  0.13610000  0.52142000  0.35532000  1.0
  H  H30  1  0.97126000  0.50251000  0.24806000  1.0
  H  H31  1  0.96519000  0.34591000  0.13450000  1.0
  H  H32  1  0.91185000  0.25557000  0.86116000  1.0
  H  H33  1  0.84474000  0.37929000  0.88665000  1.0
  H  H34  1  0.81701000  0.30098000  0.91377000  1.0
  H  H35  1  0.51900000  0.20039000  0.54562000  1.0
  H  H36  1  0.56702000  0.05818000  0.59734000  1.0
  H  H37  1  0.70879000  0.03511000  0.74101000  1.0
  H  H38  1  0.79804000  0.28235000  0.14805000  1.0
  H  H39  1  0.77778000  0.39224000  0.23520000  1.0
  H  H40  1  0.88993000  0.29614000  0.26025000  1.0
  H  H41  1  0.79041000  0.17618000  0.47124000  1.0
  H  H42  1  0.93052000  0.03055000  0.43620000  1.0
  H  H43  1  0.99257000  0.00816000  0.31332000  1.0
  C  C44  1  0.31414000  0.73965000  0.86288000  1.0
  C  C45  1  0.23505000  0.77842000  0.71548000  1.0
  C  C46  1  0.24722000  0.76052000  0.63026000  1.0
  C  C47  1  0.17900000  0.81726000  0.57050000  1.0
  C  C48  1  0.09796000  0.89177000  0.59232000  1.0
  C  C49  1  0.08732000  0.91143000  0.67667000  1.0
  C  C50  1  0.15379000  0.85561000  0.73815000  1.0
  C  C51  1  0.12639000  0.88749000  0.82341000  1.0
  C  C52  1  0.33226000  0.68384000  0.60008000  1.0
  C  C53  1  0.16501000  0.74715000  0.19536000  1.0
  C  C54  1  0.33837000  0.71044000  0.21405000  1.0
  C  C55  1  0.43497000  0.65311000  0.25222000  1.0
  C  C56  1  0.51372000  0.63740000  0.22547000  1.0
  C  C57  1  0.49779000  0.67806000  0.15952000  1.0
  C  C58  1  0.40250000  0.73396000  0.12091000  1.0
  C  C59  1  0.32233000  0.75178000  0.14792000  1.0
  C  C60  1  0.22650000  0.82149000  0.10805000  1.0
  C  C61  1  0.45231000  0.60936000  0.32319000  1.0
  C  C62  1  0.80393000  0.67692000  0.64916000  1.0
  C  C63  1  0.76649000  0.74489000  0.79324000  1.0
  C  C64  1  0.70518000  0.69247000  0.77140000  1.0
  C  C65  1  0.67119000  0.69982000  0.83917000  1.0
  C  C66  1  0.69310000  0.76098000  0.92666000  1.0
  C  C67  1  0.75169000  0.81470000  0.94769000  1.0
  C  C68  1  0.79056000  0.80497000  0.88302000  1.0
  C  C69  1  0.85788000  0.86040000  0.91212000  1.0
  C  C70  1  0.66455000  0.63248000  0.67762000  1.0
  C  C71  1  0.38674000  0.19649000  0.30360000  1.0
  C  C72  1  0.21715000  0.29167000  0.23874000  1.0
  C  C73  1  0.22061000  0.38048000  0.30037000  1.0
  C  C74  1  0.13125000  0.45426000  0.30499000  1.0
  C  C75  1  0.03952000  0.44357000  0.24524000  1.0
  C  C76  1  0.03617000  0.35650000  0.18185000  1.0
  C  C77  1  0.12363000  0.28032000  0.18066000  1.0
  C  C78  1  0.11575000  0.18498000  0.12191000  1.0
  C  C79  1  0.31418000  0.40526000  0.35857000  1.0
  C  C80  1  0.83953000  0.30850000  0.86450000  1.0
  C  C81  1  0.72176000  0.23361000  0.73370000  1.0
  C  C82  1  0.63850000  0.24808000  0.65380000  1.0
  C  C83  1  0.58334000  0.18590000  0.60599000  1.0
  C  C84  1  0.60927000  0.10747000  0.63526000  1.0
  C  C85  1  0.68877000  0.09438000  0.71513000  1.0
  C  C86  1  0.74599000  0.15572000  0.76463000  1.0
  C  C87  1  0.83073000  0.12868000  0.84687000  1.0
  C  C88  1  0.60616000  0.33180000  0.62011000  1.0
  C  C89  1  0.80972000  0.31533000  0.22196000  1.0
  C  C90  1  0.80596000  0.21590000  0.29430000  1.0
  C  C91  1  0.77269000  0.22865000  0.36510000  1.0
  C  C92  1  0.81681000  0.16273000  0.41561000  1.0
  C  C93  1  0.89574000  0.08228000  0.39686000  1.0
  C  C94  1  0.93018000  0.06966000  0.32837000  1.0
  C  C95  1  0.88547000  0.13413000  0.27482000  1.0
  C  C96  1  0.92301000  0.10497000  0.19679000  1.0
  C  C97  1  0.69331000  0.31711000  0.39262000  1.0
  O  O98  1  0.01901000  0.99680000  0.00476000  1.0
  O  O99  1  0.30783000  0.72207000  0.76994000  1.0
  O  O100  1  0.13283000  0.96833000  0.87638000  1.0
  O  O101  1  0.09227000  0.83595000  0.83294000  1.0
  O  O102  1  0.36672000  0.60564000  0.61997000  1.0
  O  O103  1  0.36222000  0.70318000  0.55251000  1.0
  O  O104  1  0.26887000  0.71856000  0.24641000  1.0
  O  O105  1  0.20368000  0.90303000  0.16311000  1.0
  O  O106  1  0.17948000  0.79515000  0.02292000  1.0
  O  O107  1  0.45588000  0.52363000  0.29522000  1.0
  O  O108  1  0.46389000  0.66240000  0.40522000  1.0
  O  O109  1  0.80349000  0.74714000  0.73523000  1.0
  O  O110  1  0.82245000  0.94874000  0.94580000  1.0
  O  O111  1  0.94488000  0.81517000  0.90477000  1.0
  O  O112  1  0.70267000  0.54345000  0.66612000  1.0
  O  O113  1  0.59219000  0.67564000  0.61969000  1.0
  O  O114  1  0.29673000  0.21352000  0.22775000  1.0
  O  O115  1  0.15008000  0.12135000  0.16303000  1.0
  O  O116  1  0.07106000  0.17666000  0.03554000  1.0
  O  O117  1  0.37382000  0.38816000  0.31738000  1.0
  O  O118  1  0.32333000  0.44529000  0.44350000  1.0
  O  O119  1  0.76549000  0.30199000  0.77540000  1.0
  O  O120  1  0.80714000  0.12927000  0.91066000  1.0
  O  O121  1  0.91889000  0.10239000  0.84471000  1.0
  O  O122  1  0.67079000  0.34446000  0.60481000  1.0
  O  O123  1  0.51461000  0.38217000  0.60738000  1.0
  O  O124  1  0.75828000  0.28831000  0.25408000  1.0
  O  O125  1  0.01645000  0.06223000  0.21234000  1.0
  O  O126  1  0.85962000  0.11996000  0.11955000  1.0
  O  O127  1  0.60350000  0.32498000  0.34125000  1.0
  O  O128  1  0.72348000  0.37555000  0.46822000  1.0
  O  O129  1  0.51362000  0.49968000  0.49472000  1.0
