# generated using pymatgen
data_ZnH18C22(N2O3)2
_symmetry_space_group_name_H-M   'P 1'
_cell_length_a   5.86590000
_cell_length_b   13.85170242
_cell_length_c   16.35770000
_cell_angle_alpha   90.42439011
_cell_angle_beta   100.24890000
_cell_angle_gamma   102.16035430
_symmetry_Int_Tables_number   1
_chemical_formula_structural   ZnH18C22(N2O3)2
_chemical_formula_sum   'Zn2 H36 C44 N8 O12'
_cell_volume   1277.16077080
_cell_formula_units_Z   2
loop_
 _symmetry_equiv_pos_site_id
 _symmetry_equiv_pos_as_xyz
  1  'x, y, z'
loop_
 _atom_site_type_symbol
 _atom_site_label
 _atom_site_symmetry_multiplicity
 _atom_site_fract_x
 _atom_site_fract_y
 _atom_site_fract_z
 _atom_site_occupancy
  Zn  Zn0  1  0.08252000  0.74971000  0.74988000  1.0
  Zn  Zn1  1  0.91747000  0.25029000  0.25013000  1.0
  H  H2  1  0.01875000  0.75261000  0.56421000  1.0
  H  H3  1  0.20061000  0.74720000  0.93561000  1.0
  H  H4  1  0.98122000  0.24746000  0.43579000  1.0
  H  H5  1  0.79940000  0.25275000  0.06439000  1.0
  H  H6  1  0.26256000  0.81483000  0.45894000  1.0
  H  H7  1  0.48818000  0.68564000  0.04089000  1.0
  H  H8  1  0.73741000  0.18525000  0.54107000  1.0
  H  H9  1  0.51185000  0.31430000  0.95909000  1.0
  H  H10  1  0.84183000  0.93100000  0.66163000  1.0
  H  H11  1  0.74897000  0.56847000  0.83822000  1.0
  H  H12  1  0.15818000  0.06902000  0.33839000  1.0
  H  H13  1  0.25103000  0.43151000  0.16173000  1.0
  H  H14  1  0.57079000  0.86568000  0.75930000  1.0
  H  H15  1  0.44480000  0.63316000  0.74053000  1.0
  H  H16  1  0.42922000  0.13432000  0.24072000  1.0
  H  H17  1  0.55518000  0.36683000  0.25945000  1.0
  H  H18  1  0.57655000  0.81406000  0.39141000  1.0
  H  H19  1  0.87074000  0.68654000  0.10819000  1.0
  H  H20  1  0.42350000  0.18595000  0.60863000  1.0
  H  H21  1  0.12931000  0.31344000  0.89176000  1.0
  H  H22  1  0.79754000  0.91640000  0.36849000  1.0
  H  H23  1  0.01162000  0.58395000  0.13137000  1.0
  H  H24  1  0.20261000  0.08358000  0.63155000  1.0
  H  H25  1  0.98853000  0.41606000  0.86859000  1.0
  H  H26  1  0.50877000  0.93183000  0.37567000  1.0
  H  H27  1  0.70051000  0.56909000  0.12428000  1.0
  H  H28  1  0.49137000  0.06819000  0.62432000  1.0
  H  H29  1  0.29964000  0.43088000  0.87572000  1.0
  H  H30  1  0.46081000  0.65547000  0.56697000  1.0
  H  H31  1  0.73748000  0.84497000  0.93306000  1.0
  H  H32  1  0.53912000  0.34460000  0.43299000  1.0
  H  H33  1  0.26247000  0.15495000  0.06701000  1.0
  H  H34  1  0.03587000  0.54615000  0.38761000  1.0
  H  H35  1  0.60192000  0.95487000  0.11261000  1.0
  H  H36  1  0.96413000  0.45394000  0.61233000  1.0
  H  H37  1  0.39802000  0.04504000  0.88744000  1.0
  C  C38  1  0.20079000  0.79412000  0.58305000  1.0
  C  C39  1  0.32269000  0.70569000  0.91678000  1.0
  C  C40  1  0.79920000  0.20595000  0.41696000  1.0
  C  C41  1  0.67730000  0.29425000  0.08321000  1.0
  C  C42  1  0.33951000  0.82918000  0.52459000  1.0
  C  C43  1  0.48526000  0.67100000  0.97525000  1.0
  C  C44  1  0.66047000  0.17089000  0.47543000  1.0
  C  C45  1  0.51476000  0.32894000  0.02473000  1.0
  C  C46  1  0.57432000  0.88075000  0.55169000  1.0
  C  C47  1  0.64168000  0.61930000  0.94815000  1.0
  C  C48  1  0.42567000  0.11930000  0.44832000  1.0
  C  C49  1  0.35834000  0.38065000  0.05182000  1.0
  C  C50  1  0.65921000  0.89336000  0.63793000  1.0
  C  C51  1  0.62758000  0.60627000  0.86190000  1.0
  C  C52  1  0.34079000  0.10668000  0.36208000  1.0
  C  C53  1  0.37242000  0.39370000  0.13807000  1.0
  C  C54  1  0.51001000  0.85681000  0.69233000  1.0
  C  C55  1  0.46010000  0.64245000  0.80751000  1.0
  C  C56  1  0.48999000  0.14323000  0.30769000  1.0
  C  C57  1  0.53988000  0.35752000  0.19247000  1.0
  C  C58  1  0.72962000  0.92109000  0.49270000  1.0
  C  C59  1  0.81565000  0.57909000  0.00716000  1.0
  C  C60  1  0.27040000  0.07896000  0.50731000  1.0
  C  C61  1  0.18439000  0.42086000  0.99281000  1.0
  C  C62  1  0.65066000  0.89382000  0.40185000  1.0
  C  C63  1  0.85437000  0.60669000  0.09797000  1.0
  C  C64  1  0.34943000  0.10619000  0.59817000  1.0
  C  C65  1  0.14573000  0.39329000  0.90200000  1.0
  C  C66  1  0.83829000  0.58937000  0.64435000  1.0
  C  C67  1  0.10432000  0.91022000  0.85543000  1.0
  C  C68  1  0.16169000  0.41071000  0.35559000  1.0
  C  C69  1  0.89561000  0.08971000  0.14462000  1.0
  C  C70  1  0.66250000  0.54248000  0.57088000  1.0
  C  C71  1  0.04907000  0.95726000  0.92905000  1.0
  C  C72  1  0.33742000  0.45758000  0.42909000  1.0
  C  C73  1  0.95092000  0.04267000  0.07102000  1.0
  C  C74  1  0.47667000  0.58755000  0.53701000  1.0
  C  C75  1  0.85182000  0.91266000  0.96302000  1.0
  C  C76  1  0.52325000  0.41251000  0.46295000  1.0
  C  C77  1  0.14819000  0.08726000  0.03706000  1.0
  C  C78  1  0.31246000  0.54675000  0.46649000  1.0
  C  C79  1  0.79911000  0.95371000  0.03362000  1.0
  C  C80  1  0.68747000  0.45331000  0.53348000  1.0
  C  C81  1  0.20087000  0.04621000  0.96644000  1.0
  N  N82  1  0.28357000  0.80807000  0.66539000  1.0
  N  N83  1  0.30911000  0.69132000  0.83445000  1.0
  N  N84  1  0.71641000  0.19197000  0.33463000  1.0
  N  N85  1  0.69088000  0.30865000  0.16554000  1.0
  N  N86  1  0.92801000  0.98066000  0.52715000  1.0
  N  N87  1  0.92034000  0.51932000  0.97282000  1.0
  N  N88  1  0.07195000  0.01943000  0.47287000  1.0
  N  N89  1  0.07967000  0.48062000  0.02715000  1.0
  O  O90  1  0.80555000  0.67054000  0.67604000  1.0
  O  O91  1  0.95845000  0.82929000  0.82370000  1.0
  O  O92  1  0.19441000  0.32951000  0.32393000  1.0
  O  O93  1  0.04146000  0.17065000  0.17634000  1.0
  O  O94  1  0.01349000  0.55138000  0.67262000  1.0
  O  O95  1  0.28942000  0.94785000  0.82710000  1.0
  O  O96  1  0.98656000  0.44872000  0.32728000  1.0
  O  O97  1  0.71051000  0.05207000  0.17294000  1.0
  O  O98  1  0.13414000  0.59232000  0.43549000  1.0
  O  O99  1  0.60604000  0.90855000  0.06471000  1.0
  O  O100  1  0.86579000  0.40773000  0.56447000  1.0
  O  O101  1  0.39393000  0.09136000  0.93535000  1.0
