# generated using pymatgen
data_ZnH15C20N3O4
_symmetry_space_group_name_H-M   'P 1'
_cell_length_a   13.13590000
_cell_length_b   15.87610000
_cell_length_c   17.26610000
_cell_angle_alpha   87.51540000
_cell_angle_beta   89.42160000
_cell_angle_gamma   79.76660000
_symmetry_Int_Tables_number   1
_chemical_formula_structural   ZnH15C20N3O4
_chemical_formula_sum   'Zn2 H30 C40 N6 O8'
_cell_volume   3540.16864255
_cell_formula_units_Z   2
loop_
 _symmetry_equiv_pos_site_id
 _symmetry_equiv_pos_as_xyz
  1  'x, y, z'
loop_
 _atom_site_type_symbol
 _atom_site_label
 _atom_site_symmetry_multiplicity
 _atom_site_fract_x
 _atom_site_fract_y
 _atom_site_fract_z
 _atom_site_occupancy
  Zn  Zn0  1  0.48866000  0.58861000  0.50214000  1.0
  Zn  Zn1  1  0.51006000  0.41142000  0.49798000  1.0
  H  H2  1  0.18165000  0.43883000  0.42171000  1.0
  H  H3  1  0.81717000  0.56132000  0.57832000  1.0
  H  H4  1  0.61727000  0.11481000  0.38498000  1.0
  H  H5  1  0.38287000  0.88520000  0.61554000  1.0
  H  H6  1  0.60890000  0.27512000  0.39565000  1.0
  H  H7  1  0.39039000  0.72500000  0.60473000  1.0
  H  H8  1  0.02172000  0.39507000  0.37429000  1.0
  H  H9  1  0.97690000  0.60547000  0.62544000  1.0
  H  H10  1  0.44209000  0.61568000  0.74901000  1.0
  H  H11  1  0.57555000  0.38374000  0.25345000  1.0
  H  H12  1  0.45316000  0.60988000  0.89475000  1.0
  H  H13  1  0.57899000  0.38876000  0.10749000  1.0
  H  H14  1  0.47200000  0.66065000  0.10504000  1.0
  H  H15  1  0.56002000  0.33815000  0.89331000  1.0
  H  H16  1  0.46948000  0.65534000  0.25161000  1.0
  H  H17  1  0.54805000  0.34426000  0.74706000  1.0
  H  H18  1  0.58324000  0.71837000  0.41368000  1.0
  H  H19  1  0.41541000  0.28137000  0.58632000  1.0
  H  H20  1  0.58461000  0.87759000  0.41623000  1.0
  H  H21  1  0.41492000  0.12203000  0.58390000  1.0
  H  H22  1  0.05045000  0.70673000  0.67925000  1.0
  H  H23  1  0.09040000  0.60881000  0.73322000  1.0
  H  H24  1  0.16573000  0.69097000  0.73449000  1.0
  H  H25  1  0.25292000  0.58038000  0.64915000  1.0
  H  H26  1  0.20916000  0.67392000  0.59400000  1.0
  H  H27  1  0.90817000  0.39269000  0.26653000  1.0
  H  H28  1  0.94816000  0.29432000  0.31984000  1.0
  H  H29  1  0.83282000  0.31061000  0.26465000  1.0
  H  H30  1  0.78975000  0.32646000  0.40541000  1.0
  H  H31  1  0.74571000  0.42026000  0.35071000  1.0
  C  C32  1  0.51136000  0.51394000  0.34734000  1.0
  C  C33  1  0.49407000  0.48594000  0.65293000  1.0
  C  C34  1  0.55486000  0.44636000  0.13981000  1.0
  C  C35  1  0.47437000  0.55257000  0.86159000  1.0
  C  C36  1  0.52266000  0.52491000  0.09854000  1.0
  C  C37  1  0.50988000  0.47381000  0.90162000  1.0
  C  C38  1  0.49469000  0.60065000  0.13872000  1.0
  C  C39  1  0.53447000  0.39839000  0.86057000  1.0
  C  C40  1  0.49325000  0.59760000  0.21936000  1.0
  C  C41  1  0.52773000  0.40182000  0.78009000  1.0
  C  C42  1  0.45880000  0.24129000  0.54316000  1.0
  C  C43  1  0.54026000  0.75853000  0.45696000  1.0
  C  C44  1  0.45871000  0.15406000  0.54170000  1.0
  C  C45  1  0.54082000  0.84568000  0.45851000  1.0
  C  C46  1  0.51694000  0.10755000  0.48398000  1.0
  C  C47  1  0.48296000  0.89227000  0.51636000  1.0
  C  C48  1  0.57216000  0.15030000  0.43011000  1.0
  C  C49  1  0.42770000  0.84965000  0.57031000  1.0
  C  C50  1  0.56799000  0.23795000  0.43588000  1.0
  C  C51  1  0.43139000  0.76206000  0.56445000  1.0
  C  C52  1  0.70087000  0.48029000  0.49660000  1.0
  C  C53  1  0.29803000  0.51963000  0.50362000  1.0
  C  C54  1  0.18387000  0.52361000  0.51416000  1.0
  C  C55  1  0.81492000  0.47662000  0.48581000  1.0
  C  C56  1  0.97614000  0.42977000  0.41978000  1.0
  C  C57  1  0.02254000  0.57076000  0.57997000  1.0
  C  C58  1  0.87157000  0.42777000  0.42637000  1.0
  C  C59  1  0.12714000  0.57268000  0.57344000  1.0
  C  C60  1  0.86336000  0.52374000  0.53475000  1.0
  C  C61  1  0.13541000  0.47656000  0.46515000  1.0
  C  C62  1  0.97067000  0.52427000  0.52948000  1.0
  C  C63  1  0.02806000  0.47621000  0.47029000  1.0
  C  C64  1  0.52024000  0.51895000  0.26064000  1.0
  C  C65  1  0.49590000  0.48053000  0.73986000  1.0
  C  C66  1  0.55304000  0.44390000  0.22011000  1.0
  C  C67  1  0.46799000  0.55544000  0.78147000  1.0
  C  C68  1  0.18158000  0.62214000  0.62811000  1.0
  C  C69  1  0.11819000  0.65900000  0.69732000  1.0
  C  C70  1  0.81714000  0.37849000  0.37153000  1.0
  C  C71  1  0.88043000  0.34220000  0.30208000  1.0
  N  N72  1  0.51396000  0.53417000  0.01708000  1.0
  N  N73  1  0.52178000  0.46418000  0.98288000  1.0
  N  N74  1  0.51266000  0.28214000  0.49141000  1.0
  N  N75  1  0.48629000  0.71783000  0.50875000  1.0
  N  N76  1  0.52476000  0.01821000  0.47498000  1.0
  N  N77  1  0.47536000  0.98156000  0.52538000  1.0
  O  O78  1  0.49714000  0.58419000  0.38224000  1.0
  O  O79  1  0.50609000  0.41581000  0.61794000  1.0
  O  O80  1  0.51786000  0.43930000  0.37932000  1.0
  O  O81  1  0.48163000  0.56085000  0.62075000  1.0
  O  O82  1  0.64668000  0.55450000  0.50436000  1.0
  O  O83  1  0.35219000  0.44519000  0.49711000  1.0
  O  O84  1  0.66644000  0.41015000  0.49773000  1.0
  O  O85  1  0.33257000  0.58975000  0.50139000  1.0
