# generated using pymatgen
data_Zn6H38C43(SO11)3
_symmetry_space_group_name_H-M   'P 1'
_cell_length_a   18.79680000
_cell_length_b   18.81820000
_cell_length_c   18.84240000
_cell_angle_alpha   109.30300000
_cell_angle_beta   109.33300000
_cell_angle_gamma   109.33400000
_symmetry_Int_Tables_number   1
_chemical_formula_structural   Zn6H38C43(SO11)3
_chemical_formula_sum   'Zn6 H38 C43 S3 O33'
_cell_volume   5158.59745248
_cell_formula_units_Z   1
loop_
 _symmetry_equiv_pos_site_id
 _symmetry_equiv_pos_as_xyz
  1  'x, y, z'
loop_
 _atom_site_type_symbol
 _atom_site_label
 _atom_site_symmetry_multiplicity
 _atom_site_fract_x
 _atom_site_fract_y
 _atom_site_fract_z
 _atom_site_occupancy
  Zn  Zn0  1  0.94714000  0.00002000  0.43574000  1.0
  Zn  Zn1  1  0.06777000  0.00376000  0.56627000  1.0
  Zn  Zn2  1  0.04975000  0.56405000  0.98801000  1.0
  Zn  Zn3  1  0.92790000  0.42630000  0.97388000  1.0
  Zn  Zn4  1  0.47666000  0.56519000  0.53758000  1.0
  Zn  Zn5  1  0.49278000  0.44522000  0.42712000  1.0
  H  H6  1  0.98129000  0.21780000  0.61037000  1.0
  H  H7  1  0.00197000  0.83346000  0.26509000  1.0
  H  H8  1  0.08790000  0.29526000  0.69800000  1.0
  H  H9  1  0.72934000  0.64331000  0.48443000  1.0
  H  H10  1  0.68216000  0.78440000  0.55111000  1.0
  H  H11  1  0.86558000  0.77385000  0.52447000  1.0
  H  H12  1  0.72855000  0.81888000  0.44000000  1.0
  H  H13  1  0.64866000  0.36902000  0.59258000  1.0
  H  H14  1  0.68845000  0.54666000  0.72371000  1.0
  H  H15  1  0.73678000  0.37689000  0.73446000  1.0
  H  H16  1  0.84635000  0.56516000  0.78061000  1.0
  H  H17  1  0.09792000  0.30187000  0.91816000  1.0
  H  H18  1  0.37569000  0.62261000  0.34440000  1.0
  H  H19  1  0.31727000  0.44541000  0.19623000  1.0
  H  H20  1  0.30161000  0.64267000  0.21625000  1.0
  H  H21  1  0.17391000  0.45480000  0.15658000  1.0
  H  H22  1  0.91407000  0.26532000  0.68552000  1.0
  H  H23  1  0.88518000  0.11373000  0.64584000  1.0
  H  H24  1  0.87482000  0.19925000  0.76014000  1.0
  H  H25  1  0.10158000  0.18766000  0.82863000  1.0
  H  H26  1  0.16266000  0.25605000  0.80176000  1.0
  H  H27  1  0.93678000  0.06822000  0.92444000  1.0
  H  H28  1  0.93506000  0.08212000  0.71756000  1.0
  H  H29  1  0.90977000  0.14503000  0.97471000  1.0
  H  H30  1  0.82770000  0.03532000  0.90034000  1.0
  H  H31  1  0.82041000  0.12725000  0.82965000  1.0
  H  H32  1  0.84634000  0.05015000  0.77910000  1.0
  H  H33  1  0.00436000  0.16406000  0.86963000  1.0
  H  H34  1  0.97586000  0.23966000  0.91895000  1.0
  H  H35  1  0.12616000  0.84674000  0.51307000  1.0
  H  H36  1  0.97909000  0.46639000  0.79589000  1.0
  H  H37  1  0.27346000  0.40403000  0.85530000  1.0
  H  H38  1  0.21857000  0.40247000  0.52251000  1.0
  H  H39  1  0.27800000  0.27586000  0.44736000  1.0
  H  H40  1  0.08662000  0.25539000  0.46311000  1.0
  H  H41  1  0.23427000  0.21623000  0.53148000  1.0
  H  H42  1  0.02493000  0.73376000  0.16741000  1.0
  H  H43  1  0.91868000  0.59595000  0.19933000  1.0
  C  C44  1  0.10148000  0.12538000  0.48772000  1.0
  C  C45  1  0.95338000  0.62581000  0.17185000  1.0
  C  C46  1  0.00589000  0.78085000  0.27614000  1.0
  C  C47  1  0.03214000  0.11564000  0.64526000  1.0
  C  C48  1  0.02351000  0.79579000  0.35705000  1.0
  C  C49  1  0.73406000  0.70693000  0.50248000  1.0
  C  C50  1  0.67743000  0.72087000  0.52595000  1.0
  C  C51  1  0.80258000  0.77115000  0.50222000  1.0
  C  C52  1  0.79180000  0.82416000  0.47119000  1.0
  C  C53  1  0.89105000  0.50982000  0.86004000  1.0
  C  C54  1  0.98621000  0.36341000  0.86971000  1.0
  C  C55  1  0.00494000  0.29963000  0.81284000  1.0
  C  C56  1  0.13157000  0.52280000  0.09498000  1.0
  C  C57  1  0.95246000  0.56725000  0.09577000  1.0
  C  C58  1  0.59293000  0.48349000  0.58748000  1.0
  C  C59  1  0.86400000  0.88739000  0.47198000  1.0
  C  C60  1  0.35293000  0.41033000  0.48688000  1.0
  C  C61  1  0.39712000  0.48962000  0.33426000  1.0
  C  C62  1  0.60784000  0.65033000  0.52151000  1.0
  C  C63  1  0.68343000  0.42833000  0.65503000  1.0
  C  C64  1  0.66051000  0.48986000  0.66129000  1.0
  C  C65  1  0.74933000  0.43507000  0.72839000  1.0
  C  C66  1  0.93895000  0.20387000  0.78423000  1.0
  C  C67  1  0.82639000  0.50761000  0.78756000  1.0
  C  C68  1  0.33805000  0.56932000  0.27751000  1.0
  C  C69  1  0.34622000  0.49792000  0.26177000  1.0
  C  C70  1  0.28038000  0.57967000  0.21324000  1.0
  C  C71  1  0.03122000  0.87700000  0.41757000  1.0
  C  C72  1  0.19802000  0.51567000  0.15582000  1.0
  C  C73  1  0.02208000  0.25009000  0.68054000  1.0
  C  C74  1  0.98521000  0.29948000  0.72553000  1.0
  C  C75  1  0.94004000  0.13844000  0.70927000  1.0
  C  C76  1  0.10142000  0.23174000  0.80246000  1.0
  C  C77  1  0.09545000  0.30778000  0.86133000  1.0
  C  C78  1  0.02564000  0.18356000  0.70988000  1.0
  C  C79  1  0.95344000  0.18252000  0.85841000  1.0
  C  C80  1  0.87124000  0.10873000  0.83995000  1.0
  C  C81  1  0.88700000  0.08801000  0.91373000  1.0
  C  C82  1  0.21990000  0.34176000  0.49858000  1.0
  C  C83  1  0.28120000  0.33807000  0.47790000  1.0
  C  C84  1  0.15221000  0.26445000  0.48534000  1.0
  C  C85  1  0.16814000  0.20488000  0.50138000  1.0
  C  C86  1  0.99667000  0.71211000  0.20376000  1.0
  S  S87  1  0.03745000  0.72691000  0.40065000  1.0
  S  S88  1  0.01381000  0.39608000  0.71352000  1.0
  S  S89  1  0.20128000  0.40628000  0.92058000  1.0
  O  O90  1  0.02147000  0.09476000  0.43187000  1.0
  O  O91  1  0.57128000  0.42989000  0.51020000  1.0
  O  O92  1  0.37454000  0.48940000  0.53505000  1.0
  O  O93  1  0.12707000  0.09145000  0.53203000  1.0
  O  O94  1  0.38997000  0.38749000  0.44522000  1.0
  O  O95  1  0.41068000  0.53645000  0.40898000  1.0
  O  O96  1  0.42403000  0.43432000  0.31728000  1.0
  O  O97  1  0.56878000  0.67238000  0.56254000  1.0
  O  O98  1  0.59037000  0.57310000  0.47759000  1.0
  O  O99  1  0.98229000  0.08624000  0.56579000  1.0
  O  O100  1  0.08555000  0.08968000  0.67292000  1.0
  O  O101  1  0.86582000  0.45471000  0.88348000  1.0
  O  O102  1  0.84281000  0.91635000  0.41912000  1.0
  O  O103  1  0.94147000  0.90996000  0.52276000  1.0
  O  O104  1  0.98860000  0.90891000  0.38658000  1.0
  O  O105  1  0.08279000  0.91033000  0.50000000  1.0
  O  O106  1  0.97132000  0.56820000  0.89384000  1.0
  O  O107  1  0.97016000  0.70438000  0.42316000  1.0
  O  O108  1  0.04784000  0.66095000  0.34750000  1.0
  O  O109  1  0.12963000  0.79301000  0.48563000  1.0
  O  O110  1  0.10251000  0.46219000  0.77464000  1.0
  O  O111  1  0.98093000  0.36216000  0.62197000  1.0
  O  O112  1  0.02635000  0.44258000  0.89193000  1.0
  O  O113  1  0.95035000  0.42943000  0.73256000  1.0
  O  O114  1  0.19820000  0.48208000  0.96552000  1.0
  O  O115  1  0.26052000  0.38393000  0.96737000  1.0
  O  O116  1  0.22397000  0.41388000  0.84649000  1.0
  O  O117  1  0.92874000  0.33166000  0.88962000  1.0
  O  O118  1  0.15330000  0.58693000  0.08041000  1.0
  O  O119  1  0.05363000  0.46254000  0.05975000  1.0
  O  O120  1  0.99768000  0.60080000  0.06628000  1.0
  O  O121  1  0.90622000  0.48491000  0.06454000  1.0
  O  O122  1  0.56136000  0.53272000  0.60624000  1.0
