# generated using pymatgen
data_ZnH12C22S3NO14
_symmetry_space_group_name_H-M   'P 1'
_cell_length_a   13.95470000
_cell_length_b   15.12770000
_cell_length_c   15.31890000
_cell_angle_alpha   90.76400000
_cell_angle_beta   89.98990000
_cell_angle_gamma   89.99540000
_symmetry_Int_Tables_number   1
_chemical_formula_structural   ZnH12C22S3NO14
_chemical_formula_sum   'Zn2 H24 C44 S6 N2 O28'
_cell_volume   3233.57076650
_cell_formula_units_Z   2
loop_
 _symmetry_equiv_pos_site_id
 _symmetry_equiv_pos_as_xyz
  1  'x, y, z'
loop_
 _atom_site_type_symbol
 _atom_site_label
 _atom_site_symmetry_multiplicity
 _atom_site_fract_x
 _atom_site_fract_y
 _atom_site_fract_z
 _atom_site_occupancy
  Zn  Zn0  1  0.60458000  0.50003000  0.49998000  1.0
  Zn  Zn1  1  0.39650000  0.49999000  0.49998000  1.0
  H  H2  1  0.50958000  0.36258000  0.77434000  1.0
  H  H3  1  0.50907000  0.63740000  0.22562000  1.0
  H  H4  1  0.51638000  0.64632000  0.78309000  1.0
  H  H5  1  0.51702000  0.35368000  0.21685000  1.0
  H  H6  1  0.62949000  0.94117000  0.57152000  1.0
  H  H7  1  0.36583000  0.06264000  0.57566000  1.0
  H  H8  1  0.62953000  0.05885000  0.42854000  1.0
  H  H9  1  0.36576000  0.93744000  0.42454000  1.0
  H  H10  1  0.06788000  0.50822000  0.35921000  1.0
  H  H11  1  0.93225000  0.40034000  0.60012000  1.0
  H  H12  1  0.06787000  0.49182000  0.64083000  1.0
  H  H13  1  0.93227000  0.59970000  0.39994000  1.0
  H  H14  1  0.24653000  0.50828000  0.36508000  1.0
  H  H15  1  0.75344000  0.40317000  0.59455000  1.0
  H  H16  1  0.24652000  0.49174000  0.63492000  1.0
  H  H17  1  0.75345000  0.59688000  0.40552000  1.0
  H  H18  1  0.46361000  0.79983000  0.94632000  1.0
  H  H19  1  0.46502000  0.19999000  0.05384000  1.0
  H  H20  1  0.66952000  0.81845000  0.04430000  1.0
  H  H21  1  0.67077000  0.18211000  0.95578000  1.0
  H  H22  1  0.61453000  0.64066000  0.64510000  1.0
  H  H23  1  0.39385000  0.36614000  0.65412000  1.0
  H  H24  1  0.61477000  0.35935000  0.35501000  1.0
  H  H25  1  0.39374000  0.63392000  0.34610000  1.0
  C  C26  1  0.50165000  0.66488000  0.49541000  1.0
  C  C27  1  0.50169000  0.33517000  0.50464000  1.0
  C  C28  1  0.53065000  0.66185000  0.04939000  1.0
  C  C29  1  0.53138000  0.33821000  0.95053000  1.0
  C  C30  1  0.57250000  0.90538000  0.53778000  1.0
  C  C31  1  0.42371000  0.09672000  0.54229000  1.0
  C  C32  1  0.57253000  0.09465000  0.46229000  1.0
  C  C33  1  0.42366000  0.90336000  0.45788000  1.0
  C  C34  1  0.57444000  0.81327000  0.53673000  1.0
  C  C35  1  0.42623000  0.18892000  0.54479000  1.0
  C  C36  1  0.57450000  0.18676000  0.46337000  1.0
  C  C37  1  0.42616000  0.81115000  0.45536000  1.0
  C  C38  1  0.50110000  0.76409000  0.49546000  1.0
  C  C39  1  0.50117000  0.23597000  0.50466000  1.0
  C  C40  1  0.49692000  0.95110000  0.49912000  1.0
  C  C41  1  0.49693000  0.04897000  0.50097000  1.0
  C  C42  1  0.10452000  0.50531000  0.42186000  1.0
  C  C43  1  0.89563000  0.44552000  0.55653000  1.0
  C  C44  1  0.10451000  0.49472000  0.57817000  1.0
  C  C45  1  0.89564000  0.55454000  0.44354000  1.0
  C  C46  1  0.20380000  0.50482000  0.42446000  1.0
  C  C47  1  0.79634000  0.44662000  0.55407000  1.0
  C  C48  1  0.20379000  0.49522000  0.57555000  1.0
  C  C49  1  0.79635000  0.55343000  0.44600000  1.0
  C  C50  1  0.05278000  0.50002000  0.50002000  1.0
  C  C51  1  0.94717000  0.50003000  0.50004000  1.0
  C  C52  1  0.50260000  0.49489000  0.32680000  1.0
  C  C53  1  0.50250000  0.50510000  0.67316000  1.0
  C  C54  1  0.51390000  0.42334000  0.81283000  1.0
  C  C55  1  0.51361000  0.57666000  0.18711000  1.0
  C  C56  1  0.50966000  0.50432000  0.77073000  1.0
  C  C57  1  0.50973000  0.49566000  0.22921000  1.0
  C  C58  1  0.51549000  0.58391000  0.81745000  1.0
  C  C59  1  0.51586000  0.41608000  0.18249000  1.0
  C  C60  1  0.52086000  0.58393000  0.90905000  1.0
  C  C61  1  0.52124000  0.41609000  0.09089000  1.0
  C  C62  1  0.52370000  0.50109000  0.95355000  1.0
  C  C63  1  0.52373000  0.49895000  0.04640000  1.0
  C  C64  1  0.52422000  0.42014000  0.90390000  1.0
  C  C65  1  0.52388000  0.57992000  0.09604000  1.0
  C  C66  1  0.52445000  0.66545000  0.95978000  1.0
  C  C67  1  0.52523000  0.33457000  0.04014000  1.0
  C  C68  1  0.51429000  0.75282000  0.91425000  1.0
  C  C69  1  0.51561000  0.24720000  0.08570000  1.0
  S  S70  1  0.55247000  0.76055000  0.11393000  1.0
  S  S71  1  0.55376000  0.23969000  0.88589000  1.0
  S  S72  1  0.67416000  0.76637000  0.59635000  1.0
  S  S73  1  0.33110000  0.23980000  0.60875000  1.0
  S  S74  1  0.67431000  0.23364000  0.40386000  1.0
  S  S75  1  0.33098000  0.76030000  0.39148000  1.0
  N  N76  1  0.25264000  0.50001000  0.50000000  1.0
  N  N77  1  0.74786000  0.50002000  0.50004000  1.0
  O  O78  1  0.57544000  0.62592000  0.46536000  1.0
  O  O79  1  0.42777000  0.37259000  0.47392000  1.0
  O  O80  1  0.57543000  0.37418000  0.53469000  1.0
  O  O81  1  0.42771000  0.62741000  0.52604000  1.0
  O  O82  1  0.57262000  0.46147000  0.36850000  1.0
  O  O83  1  0.42848000  0.47148000  0.63674000  1.0
  O  O84  1  0.57248000  0.53857000  0.63144000  1.0
  O  O85  1  0.42856000  0.52848000  0.36324000  1.0
  O  O86  1  0.55315000  0.77067000  0.84541000  1.0
  O  O87  1  0.55484000  0.22948000  0.15439000  1.0
  O  O88  1  0.46273000  0.79953000  0.13810000  1.0
  O  O89  1  0.62564000  0.74064000  0.17703000  1.0
  O  O90  1  0.59992000  0.82717000  0.04432000  1.0
  O  O91  1  0.46424000  0.20051000  0.86137000  1.0
  O  O92  1  0.62712000  0.25997000  0.82306000  1.0
  O  O93  1  0.60122000  0.17308000  0.95549000  1.0
  O  O94  1  0.73467000  0.71478000  0.53901000  1.0
  O  O95  1  0.71449000  0.83752000  0.64710000  1.0
  O  O96  1  0.62159000  0.70434000  0.66370000  1.0
  O  O97  1  0.26878000  0.29211000  0.55509000  1.0
  O  O98  1  0.29216000  0.17102000  0.66164000  1.0
  O  O99  1  0.38982000  0.30296000  0.67331000  1.0
  O  O100  1  0.73469000  0.28525000  0.46129000  1.0
  O  O101  1  0.71475000  0.16250000  0.35318000  1.0
  O  O102  1  0.62186000  0.29567000  0.33644000  1.0
  O  O103  1  0.26865000  0.70807000  0.44520000  1.0
  O  O104  1  0.29207000  0.82908000  0.33857000  1.0
  O  O105  1  0.38968000  0.69708000  0.32690000  1.0
