# generated using pymatgen
data_MnH10(C2N3)4
_symmetry_space_group_name_H-M   'P 1'
_cell_length_a   3.39239000
_cell_length_b   7.78934000
_cell_length_c   11.97720000
_cell_angle_alpha   103.09900000
_cell_angle_beta   95.24250000
_cell_angle_gamma   94.32220000
_symmetry_Int_Tables_number   1
_chemical_formula_structural   MnH10(C2N3)4
_chemical_formula_sum   'Mn1 H10 C8 N12'
_cell_volume   305.45703535
_cell_formula_units_Z   1
loop_
 _symmetry_equiv_pos_site_id
 _symmetry_equiv_pos_as_xyz
  1  'x, y, z'
loop_
 _atom_site_type_symbol
 _atom_site_label
 _atom_site_symmetry_multiplicity
 _atom_site_fract_x
 _atom_site_fract_y
 _atom_site_fract_z
 _atom_site_occupancy
  Mn  Mn0  1  0.50001000  0.50000000  0.00000000  1.0
  H  H1  1  0.30744000  0.10208000  0.29198000  1.0
  H  H2  1  0.69256000  0.89792000  0.70802000  1.0
  H  H3  1  0.41628000  0.10413000  0.43884000  1.0
  H  H4  1  0.58371000  0.89587000  0.56116000  1.0
  H  H5  1  0.43078000  0.86320000  0.13734000  1.0
  H  H6  1  0.56922000  0.13680000  0.86266000  1.0
  H  H7  1  0.76858000  0.55218000  0.43509000  1.0
  H  H8  1  0.23142000  0.44781000  0.56491000  1.0
  H  H9  1  0.69437000  0.39389000  0.22852000  1.0
  H  H10  1  0.30564000  0.60611000  0.77148000  1.0
  C  C11  1  0.50297000  0.79202000  0.20340000  1.0
  C  C12  1  0.49704000  0.20798000  0.79660000  1.0
  C  C13  1  0.52636000  0.87991000  0.32166000  1.0
  C  C14  1  0.47364000  0.12009000  0.67834000  1.0
  C  C15  1  0.68722000  0.62269000  0.36849000  1.0
  C  C16  1  0.31278000  0.37731000  0.63151000  1.0
  C  C17  1  0.65038000  0.53330000  0.25375000  1.0
  C  C18  1  0.34962000  0.46670000  0.74626000  1.0
  N  N19  1  0.01000000  0.34273000  0.02534000  1.0
  N  N20  1  0.98997000  0.65728000  0.97466000  1.0
  N  N21  1  0.01622000  0.22936000  0.07967000  1.0
  N  N22  1  0.98376000  0.77065000  0.92033000  1.0
  N  N23  1  0.01544000  0.11795000  0.13013000  1.0
  N  N24  1  0.98456000  0.88206000  0.86986000  1.0
  N  N25  1  0.55858000  0.62033000  0.16925000  1.0
  N  N26  1  0.44143000  0.37967000  0.83075000  1.0
  N  N27  1  0.62598000  0.79344000  0.40475000  1.0
  N  N28  1  0.37402000  0.20656000  0.59525000  1.0
  N  N29  1  0.45366000  0.05128000  0.35322000  1.0
  N  N30  1  0.54634000  0.94872000  0.64678000  1.0
