# generated using pymatgen
data_MgH4(CO3)2
_symmetry_space_group_name_H-M   'P 1'
_cell_length_a   5.48991000
_cell_length_b   6.87441000
_cell_length_c   8.06168000
_cell_angle_alpha   82.19610000
_cell_angle_beta   70.11590000
_cell_angle_gamma   66.47980000
_symmetry_Int_Tables_number   1
_chemical_formula_structural   MgH4(CO3)2
_chemical_formula_sum   'Mg2 H8 C4 O12'
_cell_volume   262.33845070
_cell_formula_units_Z   2
loop_
 _symmetry_equiv_pos_site_id
 _symmetry_equiv_pos_as_xyz
  1  'x, y, z'
loop_
 _atom_site_type_symbol
 _atom_site_label
 _atom_site_symmetry_multiplicity
 _atom_site_fract_x
 _atom_site_fract_y
 _atom_site_fract_z
 _atom_site_occupancy
  Mg  Mg0  1  0.12495000  0.25000000  0.24995000  1.0
  Mg  Mg1  1  0.87505000  0.75000000  0.75005000  1.0
  H  H2  1  0.29983000  0.83652000  0.35655000  1.0
  H  H3  1  0.99294000  0.66351000  0.14349000  1.0
  H  H4  1  0.36370000  0.83642000  0.14345000  1.0
  H  H5  1  0.84353000  0.66352000  0.35656000  1.0
  H  H6  1  0.70017000  0.16348000  0.64346000  1.0
  H  H7  1  0.00705000  0.33649000  0.85651000  1.0
  H  H8  1  0.63629000  0.16358000  0.85655000  1.0
  H  H9  1  0.15646000  0.33648000  0.64345000  1.0
  C  C10  1  0.57348000  0.25009000  0.35288000  1.0
  C  C11  1  0.67635000  0.25013000  0.14695000  1.0
  C  C12  1  0.42652000  0.74991000  0.64712000  1.0
  C  C13  1  0.32365000  0.74987000  0.85305000  1.0
  O  O14  1  0.33150000  0.24693000  0.42798000  1.0
  O  O15  1  0.50620000  0.25334000  0.07185000  1.0
  O  O16  1  0.92157000  0.24685000  0.07187000  1.0
  O  O17  1  0.74051000  0.25315000  0.42798000  1.0
  O  O18  1  0.66852000  0.75307000  0.57201000  1.0
  O  O19  1  0.49381000  0.74667000  0.92815000  1.0
  O  O20  1  0.07843000  0.75315000  0.92813000  1.0
  O  O21  1  0.25949000  0.74684000  0.57202000  1.0
  O  O22  1  0.28722000  0.92538000  0.24998000  1.0
  O  O23  1  0.96256000  0.57461000  0.25002000  1.0
  O  O24  1  0.71277000  0.07463000  0.75002000  1.0
  O  O25  1  0.03742000  0.42540000  0.74998000  1.0
