# generated using pymatgen
data_Co2H20C32N3O10
_symmetry_space_group_name_H-M   'P 1'
_cell_length_a   10.94210000
_cell_length_b   15.06320000
_cell_length_c   16.69570000
_cell_angle_alpha   89.99990000
_cell_angle_beta   95.85310000
_cell_angle_gamma   90.00000000
_symmetry_Int_Tables_number   1
_chemical_formula_structural   Co2H20C32N3O10
_chemical_formula_sum   'Co8 H80 C128 N12 O40'
_cell_volume   2737.48968955
_cell_formula_units_Z   4
loop_
 _symmetry_equiv_pos_site_id
 _symmetry_equiv_pos_as_xyz
  1  'x, y, z'
loop_
 _atom_site_type_symbol
 _atom_site_label
 _atom_site_symmetry_multiplicity
 _atom_site_fract_x
 _atom_site_fract_y
 _atom_site_fract_z
 _atom_site_occupancy
  Co  Co0  1  0.78219000  0.38218000  0.53122000  1.0
  Co  Co1  1  0.71782000  0.88218000  0.96879000  1.0
  Co  Co2  1  0.21781000  0.61782000  0.46879000  1.0
  Co  Co3  1  0.28219000  0.11782000  0.03122000  1.0
  Co  Co4  1  0.62124000  0.63732000  0.63940000  1.0
  Co  Co5  1  0.87876000  0.13732000  0.86060000  1.0
  Co  Co6  1  0.37876000  0.36268000  0.36060000  1.0
  Co  Co7  1  0.12124000  0.86268000  0.13940000  1.0
  H  H8  1  0.75530000  0.63510000  0.78415000  1.0
  H  H9  1  0.74470000  0.13510000  0.71585000  1.0
  H  H10  1  0.24470000  0.36489000  0.21585000  1.0
  H  H11  1  0.25530000  0.86490000  0.28415000  1.0
  H  H12  1  0.73783000  0.72986000  0.74858000  1.0
  H  H13  1  0.76216000  0.22986000  0.75142000  1.0
  H  H14  1  0.26217000  0.27014000  0.25142000  1.0
  H  H15  1  0.23783000  0.77014000  0.24858000  1.0
  H  H16  1  0.84713000  0.75599000  0.30671000  1.0
  H  H17  1  0.65288000  0.25600000  0.19329000  1.0
  H  H18  1  0.15287000  0.24401000  0.69328000  1.0
  H  H19  1  0.34713000  0.74401000  0.80671000  1.0
  H  H20  1  0.87761000  0.62555000  0.39925000  1.0
  H  H21  1  0.62238000  0.12556000  0.10075000  1.0
  H  H22  1  0.12238000  0.37445000  0.60075000  1.0
  H  H23  1  0.37762000  0.87445000  0.89925000  1.0
  H  H24  1  0.48014000  0.78715000  0.37458000  1.0
  H  H25  1  0.01985000  0.28715000  0.12542000  1.0
  H  H26  1  0.51985000  0.21285000  0.62541000  1.0
  H  H27  1  0.98015000  0.71285000  0.87458000  1.0
  H  H28  1  0.62211000  0.93000000  0.43332000  1.0
  H  H29  1  0.87789000  0.43000000  0.06669000  1.0
  H  H30  1  0.37789000  0.07000000  0.56669000  1.0
  H  H31  1  0.12211000  0.57000000  0.93332000  1.0
  H  H32  1  0.53759000  0.07900000  0.46052000  1.0
  H  H33  1  0.96241000  0.57900000  0.03948000  1.0
  H  H34  1  0.46241000  0.92100000  0.53948000  1.0
  H  H35  1  0.03759000  0.42100000  0.96052000  1.0
  H  H36  1  0.52576000  0.96981000  0.17911000  1.0
  H  H37  1  0.97424000  0.46981000  0.32089000  1.0
  H  H38  1  0.47424000  0.03019000  0.82089000  1.0
  H  H39  1  0.02575000  0.53019000  0.67911000  1.0
  H  H40  1  0.01716000  0.34758000  0.46477000  1.0
  H  H41  1  0.48284000  0.84759000  0.03523000  1.0
  H  H42  1  0.98284000  0.65242000  0.53523000  1.0
  H  H43  1  0.51716000  0.15242000  0.96477000  1.0
  H  H44  1  0.09720000  0.24314000  0.36996000  1.0
  H  H45  1  0.40280000  0.74314000  0.13004000  1.0
  H  H46  1  0.90280000  0.75686000  0.63004000  1.0
  H  H47  1  0.59720000  0.25686000  0.86996000  1.0
  H  H48  1  0.73708000  0.11937000  0.34457000  1.0
  H  H49  1  0.76292000  0.61937000  0.15544000  1.0
  H  H50  1  0.26292000  0.88063000  0.65543000  1.0
  H  H51  1  0.23707000  0.38063000  0.84457000  1.0
  H  H52  1  0.67270000  0.23024000  0.43980000  1.0
  H  H53  1  0.82730000  0.73024000  0.06021000  1.0
  H  H54  1  0.32730000  0.76976000  0.56020000  1.0
  H  H55  1  0.17270000  0.26976000  0.93980000  1.0
  H  H56  1  0.22393000  0.02574000  0.21622000  1.0
  H  H57  1  0.27607000  0.52574000  0.28378000  1.0
  H  H58  1  0.77607000  0.97426000  0.78378000  1.0
  H  H59  1  0.72393000  0.47426000  0.71622000  1.0
  H  H60  1  0.15891000  0.14519000  0.30269000  1.0
  H  H61  1  0.34108000  0.64519000  0.19730000  1.0
  H  H62  1  0.84108000  0.85481000  0.69730000  1.0
  H  H63  1  0.65891000  0.35481000  0.80270000  1.0
  H  H64  1  0.78856000  0.03990000  0.25839000  1.0
  H  H65  1  0.71144000  0.53991000  0.24162000  1.0
  H  H66  1  0.21144000  0.96009000  0.74162000  1.0
  H  H67  1  0.28856000  0.46010000  0.75838000  1.0
  H  H68  1  0.87104000  0.92509000  0.17472000  1.0
  H  H69  1  0.62897000  0.42509000  0.32528000  1.0
  H  H70  1  0.12897000  0.07491000  0.82528000  1.0
  H  H71  1  0.37103000  0.57491000  0.67472000  1.0
  H  H72  1  0.17509000  0.50876000  0.09162000  1.0
  H  H73  1  0.32491000  0.00877000  0.40838000  1.0
  H  H74  1  0.82492000  0.49123000  0.90838000  1.0
  H  H75  1  0.67509000  0.99123000  0.59162000  1.0
  H  H76  1  0.31314000  0.58007000  0.00432000  1.0
  H  H77  1  0.18685000  0.08007000  0.49569000  1.0
  H  H78  1  0.68686000  0.41993000  0.99569000  1.0
  H  H79  1  0.81314000  0.91993000  0.50431000  1.0
  H  H80  1  0.57033000  0.36550000  0.06474000  1.0
  H  H81  1  0.92967000  0.86550000  0.43526000  1.0
  H  H82  1  0.42967000  0.63450000  0.93526000  1.0
  H  H83  1  0.07033000  0.13450000  0.56473000  1.0
  H  H84  1  0.41995000  0.30463000  0.15094000  1.0
  H  H85  1  0.08006000  0.80463000  0.34906000  1.0
  H  H86  1  0.58005000  0.69537000  0.84906000  1.0
  H  H87  1  0.91995000  0.19537000  0.65094000  1.0
  C  C88  1  0.77576000  0.73564000  0.34408000  1.0
  C  C89  1  0.72424000  0.23565000  0.15592000  1.0
  C  C90  1  0.22424000  0.26436000  0.65592000  1.0
  C  C91  1  0.27576000  0.76436000  0.84408000  1.0
  C  C92  1  0.79192000  0.66305000  0.39515000  1.0
  C  C93  1  0.70808000  0.16305000  0.10486000  1.0
  C  C94  1  0.20808000  0.33695000  0.60485000  1.0
  C  C95  1  0.29192000  0.83695000  0.89515000  1.0
  C  C96  1  0.69847000  0.63623000  0.44181000  1.0
  C  C97  1  0.80153000  0.13623000  0.05819000  1.0
  C  C98  1  0.30153000  0.36377000  0.55819000  1.0
  C  C99  1  0.19847000  0.86377000  0.94181000  1.0
  C  C100  1  0.58424000  0.68042000  0.43329000  1.0
  C  C101  1  0.91576000  0.18042000  0.06671000  1.0
  C  C102  1  0.41576000  0.31958000  0.56671000  1.0
  C  C103  1  0.08424000  0.81958000  0.93329000  1.0
  C  C104  1  0.56949000  0.75438000  0.38223000  1.0
  C  C105  1  0.93051000  0.25439000  0.11777000  1.0
  C  C106  1  0.43051000  0.24561000  0.61777000  1.0
  C  C107  1  0.06949000  0.74561000  0.88223000  1.0
  C  C108  1  0.66506000  0.78358000  0.33916000  1.0
  C  C109  1  0.83494000  0.28358000  0.16084000  1.0
  C  C110  1  0.33494000  0.21642000  0.66084000  1.0
  C  C111  1  0.16506000  0.71642000  0.83916000  1.0
  C  C112  1  0.65111000  0.86048000  0.28316000  1.0
  C  C113  1  0.84888000  0.36048000  0.21684000  1.0
  C  C114  1  0.34889000  0.13952000  0.71684000  1.0
  C  C115  1  0.15112000  0.63952000  0.78316000  1.0
  C  C116  1  0.58188000  0.94094000  0.30410000  1.0
  C  C117  1  0.91811000  0.44095000  0.19590000  1.0
  C  C118  1  0.41812000  0.05905000  0.69590000  1.0
  C  C119  1  0.08189000  0.55906000  0.80410000  1.0
  C  C120  1  0.58134000  0.97076000  0.38366000  1.0
  C  C121  1  0.91866000  0.47076000  0.11634000  1.0
  C  C122  1  0.41866000  0.02924000  0.61634000  1.0
  C  C123  1  0.08134000  0.52924000  0.88366000  1.0
  C  C124  1  0.53292000  0.05402000  0.39894000  1.0
  C  C125  1  0.96708000  0.55402000  0.10106000  1.0
  C  C126  1  0.46708000  0.94598000  0.60107000  1.0
  C  C127  1  0.03292000  0.44598000  0.89894000  1.0
  C  C128  1  0.47911000  0.10677000  0.33581000  1.0
  C  C129  1  0.02089000  0.60677000  0.16419000  1.0
  C  C130  1  0.52089000  0.89323000  0.66419000  1.0
  C  C131  1  0.97911000  0.39323000  0.83581000  1.0
  C  C132  1  0.47280000  0.07447000  0.25601000  1.0
  C  C133  1  0.02719000  0.57447000  0.24399000  1.0
  C  C134  1  0.52720000  0.92553000  0.74399000  1.0
  C  C135  1  0.97280000  0.42553000  0.75601000  1.0
  C  C136  1  0.52720000  0.99330000  0.24091000  1.0
  C  C137  1  0.97279000  0.49331000  0.25909000  1.0
  C  C138  1  0.47280000  0.00670000  0.75909000  1.0
  C  C139  1  0.02720000  0.50670000  0.74091000  1.0
  C  C140  1  0.72974000  0.55927000  0.49712000  1.0
  C  C141  1  0.77026000  0.05927000  0.00288000  1.0
  C  C142  1  0.27026000  0.44073000  0.50288000  1.0
  C  C143  1  0.22974000  0.94073000  0.99712000  1.0
  C  C144  1  0.47435000  0.64951000  0.47294000  1.0
  C  C145  1  0.02565000  0.14951000  0.02706000  1.0
  C  C146  1  0.52565000  0.35049000  0.52706000  1.0
  C  C147  1  0.97435000  0.85049000  0.97294000  1.0
  C  C148  1  0.43283000  0.19758000  0.35407000  1.0
  C  C149  1  0.06718000  0.69758000  0.14592000  1.0
  C  C150  1  0.56718000  0.80242000  0.64593000  1.0
  C  C151  1  0.93282000  0.30242000  0.85408000  1.0
  C  C152  1  0.39961000  0.12265000  0.18849000  1.0
  C  C153  1  0.10039000  0.62265000  0.31151000  1.0
  C  C154  1  0.60039000  0.87735000  0.81151000  1.0
  C  C155  1  0.89960000  0.37735000  0.68849000  1.0
  C  C156  1  0.95849000  0.29516000  0.43714000  1.0
  C  C157  1  0.54152000  0.79516000  0.06286000  1.0
  C  C158  1  0.04151000  0.70484000  0.56286000  1.0
  C  C159  1  0.45849000  0.20484000  0.93714000  1.0
  C  C160  1  0.00250000  0.23576000  0.38359000  1.0
  C  C161  1  0.49750000  0.73575000  0.11642000  1.0
  C  C162  1  0.99750000  0.76425000  0.61642000  1.0
  C  C163  1  0.50249000  0.26425000  0.88359000  1.0
  C  C164  1  0.92437000  0.16930000  0.34776000  1.0
  C  C165  1  0.57563000  0.66930000  0.15224000  1.0
  C  C166  1  0.07563000  0.83070000  0.65224000  1.0
  C  C167  1  0.42437000  0.33070000  0.84776000  1.0
  C  C168  1  0.80385000  0.16791000  0.36954000  1.0
  C  C169  1  0.69615000  0.66791000  0.13046000  1.0
  C  C170  1  0.19615000  0.83209000  0.63046000  1.0
  C  C171  1  0.30385000  0.33209000  0.86954000  1.0
  C  C172  1  0.76651000  0.22943000  0.42360000  1.0
  C  C173  1  0.73349000  0.72943000  0.07640000  1.0
  C  C174  1  0.23349000  0.77057000  0.57640000  1.0
  C  C175  1  0.26651000  0.27057000  0.92360000  1.0
  C  C176  1  0.12819000  0.03182000  0.22752000  1.0
  C  C177  1  0.37181000  0.53182000  0.27248000  1.0
  C  C178  1  0.87180000  0.96818000  0.77248000  1.0
  C  C179  1  0.62819000  0.46818000  0.72752000  1.0
  C  C180  1  0.09017000  0.09902000  0.27578000  1.0
  C  C181  1  0.40983000  0.59902000  0.22422000  1.0
  C  C182  1  0.90983000  0.90098000  0.72422000  1.0
  C  C183  1  0.59017000  0.40098000  0.77578000  1.0
  C  C184  1  0.96653000  0.10337000  0.29126000  1.0
  C  C185  1  0.53347000  0.60337000  0.20874000  1.0
  C  C186  1  0.03347000  0.89663000  0.70874000  1.0
  C  C187  1  0.46653000  0.39663000  0.79126000  1.0
  C  C188  1  0.88656000  0.04017000  0.25222000  1.0
  C  C189  1  0.61345000  0.54017000  0.24778000  1.0
  C  C190  1  0.11345000  0.95983000  0.74778000  1.0
  C  C191  1  0.38656000  0.45983000  0.75222000  1.0
  C  C192  1  0.93162000  0.97495000  0.20443000  1.0
  C  C193  1  0.56838000  0.47495000  0.29557000  1.0
  C  C194  1  0.06838000  0.02505000  0.79557000  1.0
  C  C195  1  0.43162000  0.52505000  0.70443000  1.0
  C  C196  1  0.26281000  0.47789000  0.08310000  1.0
  C  C197  1  0.23719000  0.97790000  0.41690000  1.0
  C  C198  1  0.73719000  0.52210000  0.91690000  1.0
  C  C199  1  0.76281000  0.02210000  0.58310000  1.0
  C  C200  1  0.34134000  0.51773000  0.03352000  1.0
  C  C201  1  0.15866000  0.01773000  0.46648000  1.0
  C  C202  1  0.65867000  0.48227000  0.96648000  1.0
  C  C203  1  0.84133000  0.98227000  0.53351000  1.0
  C  C204  1  0.45606000  0.47928000  0.02512000  1.0
  C  C205  1  0.04394000  0.97928000  0.47488000  1.0
  C  C206  1  0.54394000  0.52072000  0.97488000  1.0
  C  C207  1  0.95606000  0.02072000  0.52512000  1.0
  C  C208  1  0.48368000  0.40018000  0.06769000  1.0
  C  C209  1  0.01633000  0.90018000  0.43230000  1.0
  C  C210  1  0.51632000  0.59982000  0.93231000  1.0
  C  C211  1  0.98368000  0.09982000  0.56769000  1.0
  C  C212  1  0.39976000  0.36514000  0.11619000  1.0
  C  C213  1  0.10024000  0.86515000  0.38381000  1.0
  C  C214  1  0.60024000  0.63485000  0.88381000  1.0
  C  C215  1  0.89976000  0.13485000  0.61618000  1.0
  N  N216  1  0.84219000  0.29255000  0.45773000  1.0
  N  N217  1  0.65781000  0.79255000  0.04227000  1.0
  N  N218  1  0.15781000  0.70745000  0.54227000  1.0
  N  N219  1  0.34219000  0.20745000  0.95774000  1.0
  N  N220  1  0.05184000  0.96923000  0.19364000  1.0
  N  N221  1  0.44816000  0.46923000  0.30636000  1.0
  N  N222  1  0.94816000  0.03077000  0.80636000  1.0
  N  N223  1  0.55184000  0.53078000  0.69364000  1.0
  N  N224  1  0.29061000  0.40314000  0.12474000  1.0
  N  N225  1  0.20939000  0.90314000  0.37526000  1.0
  N  N226  1  0.70939000  0.59686000  0.87526000  1.0
  N  N227  1  0.79061000  0.09686000  0.62473000  1.0
  O  O228  1  0.76868000  0.48921000  0.46434000  1.0
  O  O229  1  0.73132000  0.98921000  0.03567000  1.0
  O  O230  1  0.23132000  0.51079000  0.53567000  1.0
  O  O231  1  0.26868000  0.01079000  0.96434000  1.0
  O  O232  1  0.75860000  0.66885000  0.73209000  1.0
  O  O233  1  0.74140000  0.16885000  0.76791000  1.0
  O  O234  1  0.24140000  0.33115000  0.26791000  1.0
  O  O235  1  0.25860000  0.83115000  0.23209000  1.0
  O  O236  1  0.72550000  0.56637000  0.57242000  1.0
  O  O237  1  0.77450000  0.06636000  0.92758000  1.0
  O  O238  1  0.27450000  0.43364000  0.42758000  1.0
  O  O239  1  0.22550000  0.93363000  0.07242000  1.0
  O  O240  1  0.48339000  0.61758000  0.54311000  1.0
  O  O241  1  0.01661000  0.11757000  0.95690000  1.0
  O  O242  1  0.51661000  0.38243000  0.45689000  1.0
  O  O243  1  0.98339000  0.88243000  0.04311000  1.0
  O  O244  1  0.37044000  0.65849000  0.42993000  1.0
  O  O245  1  0.12956000  0.15849000  0.07007000  1.0
  O  O246  1  0.62956000  0.34151000  0.57007000  1.0
  O  O247  1  0.87044000  0.84151000  0.92993000  1.0
  O  O248  1  0.34429000  0.20716000  0.39638000  1.0
  O  O249  1  0.15571000  0.70716000  0.10362000  1.0
  O  O250  1  0.65571000  0.79284000  0.60362000  1.0
  O  O251  1  0.84429000  0.29284000  0.89638000  1.0
  O  O252  1  0.49100000  0.26365000  0.32744000  1.0
  O  O253  1  0.00900000  0.76365000  0.17256000  1.0
  O  O254  1  0.50900000  0.73635000  0.67256000  1.0
  O  O255  1  0.99100000  0.23635000  0.82744000  1.0
  O  O256  1  0.32552000  0.18215000  0.20358000  1.0
  O  O257  1  0.17448000  0.68216000  0.29642000  1.0
  O  O258  1  0.67448000  0.81784000  0.79642000  1.0
  O  O259  1  0.82552000  0.31785000  0.70358000  1.0
  O  O260  1  0.41341000  0.09480000  0.11650000  1.0
  O  O261  1  0.08659000  0.59481000  0.38350000  1.0
  O  O262  1  0.58659000  0.90519000  0.88350000  1.0
  O  O263  1  0.91340000  0.40519000  0.61650000  1.0
  O  O264  1  0.70128000  0.85988000  0.22011000  1.0
  O  O265  1  0.79872000  0.35987000  0.27989000  1.0
  O  O266  1  0.29872000  0.14013000  0.77989000  1.0
  O  O267  1  0.20128000  0.64012000  0.72011000  1.0
