# generated using pymatgen
data_ZnPH20C16N7(ClO)2
_symmetry_space_group_name_H-M   'P 1'
_cell_length_a   9.22624000
_cell_length_b   11.97450000
_cell_length_c   12.06420000
_cell_angle_alpha   112.57280000
_cell_angle_beta   110.49470000
_cell_angle_gamma   90.09580000
_symmetry_Int_Tables_number   1
_chemical_formula_structural   ZnPH20C16N7(ClO)2
_chemical_formula_sum   'Zn2 P2 H40 C32 N14 Cl4 O4'
_cell_volume   1138.48719586
_cell_formula_units_Z   2
loop_
 _symmetry_equiv_pos_site_id
 _symmetry_equiv_pos_as_xyz
  1  'x, y, z'
loop_
 _atom_site_type_symbol
 _atom_site_label
 _atom_site_symmetry_multiplicity
 _atom_site_fract_x
 _atom_site_fract_y
 _atom_site_fract_z
 _atom_site_occupancy
  Zn  Zn0  1  0.27760000  0.71078000  0.80205000  1.0
  Zn  Zn1  1  0.72240000  0.28922000  0.19795000  1.0
  P  P2  1  0.81993000  0.18523000  0.76435000  1.0
  P  P3  1  0.18007000  0.81477000  0.23565000  1.0
  H  H4  1  0.45868000  0.32250000  0.84938000  1.0
  H  H5  1  0.54132000  0.67749000  0.15062000  1.0
  H  H6  1  0.30159000  0.37793000  0.76026000  1.0
  H  H7  1  0.69841000  0.62207000  0.23974000  1.0
  H  H8  1  0.49720000  0.45141000  0.81770000  1.0
  H  H9  1  0.50280000  0.54859000  0.18230000  1.0
  H  H10  1  0.33493000  0.31604000  0.48727000  1.0
  H  H11  1  0.66508000  0.68396000  0.51273000  1.0
  H  H12  1  0.19902000  0.29382000  0.55482000  1.0
  H  H13  1  0.80098000  0.70618000  0.44518000  1.0
  H  H14  1  0.27212000  0.16580000  0.46659000  1.0
  H  H15  1  0.72788000  0.83420000  0.53341000  1.0
  H  H16  1  0.43223000  0.01935000  0.30607000  1.0
  H  H17  1  0.56777000  0.98064000  0.69393000  1.0
  H  H18  1  0.53761000  0.95643000  0.20343000  1.0
  H  H19  1  0.46240000  0.04356000  0.79657000  1.0
  H  H20  1  0.54873000  0.11966000  0.28185000  1.0
  H  H21  1  0.45127000  0.88033000  0.71814000  1.0
  H  H22  1  0.88100000  0.03740000  0.36450000  1.0
  H  H23  1  0.11900000  0.96261000  0.63551000  1.0
  H  H24  1  0.75898000  0.89196000  0.28807000  1.0
  H  H25  1  0.24103000  0.10804000  0.71193000  1.0
  H  H26  1  0.87409000  0.95520000  0.45839000  1.0
  H  H27  1  0.12591000  0.04480000  0.54161000  1.0
  H  H28  1  0.16193000  0.15254000  0.95261000  1.0
  H  H29  1  0.83807000  0.84746000  0.04740000  1.0
  H  H30  1  0.32766000  0.98872000  0.94136000  1.0
  H  H31  1  0.67233000  0.01128000  0.05864000  1.0
  H  H32  1  0.75482000  0.87002000  0.75436000  1.0
  H  H33  1  0.24518000  0.12998000  0.24564000  1.0
  H  H34  1  0.93811000  0.71579000  0.74747000  1.0
  H  H35  1  0.06189000  0.28421000  0.25253000  1.0
  H  H36  1  0.30027000  0.63682000  0.01487000  1.0
  H  H37  1  0.69972000  0.36318000  0.98513000  1.0
  H  H38  1  0.19520000  0.46022000  0.04038000  1.0
  H  H39  1  0.80479000  0.53978000  0.95962000  1.0
  H  H40  1  0.89136000  0.31921000  0.63285000  1.0
  H  H41  1  0.10864000  0.68079000  0.36715000  1.0
  H  H42  1  0.01453000  0.49606000  0.62229000  1.0
  H  H43  1  0.98546000  0.50394000  0.37771000  1.0
  C  C44  1  0.55820000  0.22689000  0.65220000  1.0
  C  C45  1  0.44180000  0.77311000  0.34780000  1.0
  C  C46  1  0.68226000  0.09986000  0.52429000  1.0
  C  C47  1  0.31774000  0.90014000  0.47571000  1.0
  C  C48  1  0.42253000  0.36228000  0.77759000  1.0
  C  C49  1  0.57747000  0.63772000  0.22241000  1.0
  C  C50  1  0.30188000  0.26267000  0.53390000  1.0
  C  C51  1  0.69812000  0.73734000  0.46610000  1.0
  C  C52  1  0.54061000  0.03244000  0.29187000  1.0
  C  C53  1  0.45940000  0.96756000  0.70813000  1.0
  C  C54  1  0.80423000  0.97652000  0.37714000  1.0
  C  C55  1  0.19577000  0.02348000  0.62286000  1.0
  C  C56  1  0.94518000  0.02224000  0.85071000  1.0
  C  C57  1  0.05482000  0.97776000  0.14930000  1.0
  C  C58  1  0.10736000  0.05711000  0.90651000  1.0
  C  C59  1  0.89264000  0.94289000  0.09350000  1.0
  C  C60  1  0.20031000  0.96535000  0.89988000  1.0
  C  C61  1  0.79969000  0.03465000  0.10011000  1.0
  C  C62  1  0.88103000  0.89870000  0.79570000  1.0
  C  C63  1  0.11896000  0.10130000  0.20430000  1.0
  C  C64  1  0.98287000  0.81353000  0.79250000  1.0
  C  C65  1  0.01713000  0.18647000  0.20749000  1.0
  C  C66  1  0.21172000  0.56358000  0.93226000  1.0
  C  C67  1  0.78828000  0.43642000  0.06774000  1.0
  C  C68  1  0.15225000  0.46605000  0.94680000  1.0
  C  C69  1  0.84774000  0.53395000  0.05320000  1.0
  C  C70  1  0.03603000  0.37574000  0.83882000  1.0
  C  C71  1  0.96396000  0.62426000  0.16118000  1.0
  C  C72  1  0.98154000  0.38647000  0.72017000  1.0
  C  C73  1  0.01846000  0.61353000  0.27983000  1.0
  C  C74  1  0.04987000  0.48642000  0.71409000  1.0
  C  C75  1  0.95012000  0.51358000  0.28591000  1.0
  N  N76  1  0.67597000  0.25553000  0.77106000  1.0
  N  N77  1  0.32403000  0.74447000  0.22894000  1.0
  N  N78  1  0.55781000  0.15576000  0.53456000  1.0
  N  N79  1  0.44219000  0.84424000  0.46544000  1.0
  N  N80  1  0.81637000  0.10392000  0.62385000  1.0
  N  N81  1  0.18363000  0.89608000  0.37616000  1.0
  N  N82  1  0.67349000  0.03306000  0.40200000  1.0
  N  N83  1  0.32651000  0.96694000  0.59800000  1.0
  N  N84  1  0.42825000  0.27861000  0.65483000  1.0
  N  N85  1  0.57175000  0.72139000  0.34517000  1.0
  N  N86  1  0.13975000  0.84563000  0.84196000  1.0
  N  N87  1  0.86025000  0.15437000  0.15804000  1.0
  N  N88  1  0.16298000  0.57322000  0.81752000  1.0
  N  N89  1  0.83701000  0.42678000  0.18248000  1.0
  Cl  Cl90  1  0.23904000  0.64684000  0.59333000  1.0
  Cl  Cl91  1  0.76096000  0.35315000  0.40666000  1.0
  Cl  Cl92  1  0.51693000  0.77068000  0.95793000  1.0
  Cl  Cl93  1  0.48307000  0.22932000  0.04206000  1.0
  O  O94  1  0.84377000  0.10721000  0.85198000  1.0
  O  O95  1  0.15623000  0.89280000  0.14802000  1.0
  O  O96  1  0.98459000  0.27965000  0.85791000  1.0
  O  O97  1  0.01541000  0.72035000  0.14209000  1.0
