# generated using pymatgen
data_GdH10(CO2)5
_symmetry_space_group_name_H-M   'P 1'
_cell_length_a   6.64437000
_cell_length_b   11.45150000
_cell_length_c   12.40700000
_cell_angle_alpha   95.53680000
_cell_angle_beta   90.00000000
_cell_angle_gamma   90.00000000
_symmetry_Int_Tables_number   1
_chemical_formula_structural   GdH10(CO2)5
_chemical_formula_sum   'Gd4 H40 C20 O40'
_cell_volume   939.61944749
_cell_formula_units_Z   4
loop_
 _symmetry_equiv_pos_site_id
 _symmetry_equiv_pos_as_xyz
  1  'x, y, z'
loop_
 _atom_site_type_symbol
 _atom_site_label
 _atom_site_symmetry_multiplicity
 _atom_site_fract_x
 _atom_site_fract_y
 _atom_site_fract_z
 _atom_site_occupancy
  Gd  Gd0  1  0.00505000  0.16844000  0.80662000  1.0
  Gd  Gd1  1  0.50505000  0.33156000  0.19338000  1.0
  Gd  Gd2  1  0.99495000  0.83156000  0.19338000  1.0
  Gd  Gd3  1  0.49495000  0.66844000  0.80662000  1.0
  H  H4  1  0.45786000  0.02978000  0.66157000  1.0
  H  H5  1  0.95786000  0.47022000  0.33843000  1.0
  H  H6  1  0.54214000  0.97022000  0.33843000  1.0
  H  H7  1  0.04214000  0.52978000  0.66157000  1.0
  H  H8  1  0.55739000  0.14519000  0.58925000  1.0
  H  H9  1  0.05739000  0.35481000  0.41075000  1.0
  H  H10  1  0.44261000  0.85481000  0.41075000  1.0
  H  H11  1  0.94261000  0.64519000  0.58925000  1.0
  H  H12  1  0.98296000  0.19299000  0.54813000  1.0
  H  H13  1  0.48296000  0.30701000  0.45187000  1.0
  H  H14  1  0.01704000  0.80701000  0.45187000  1.0
  H  H15  1  0.51704000  0.69299000  0.54813000  1.0
  H  H16  1  0.88669000  0.33304000  0.00763000  1.0
  H  H17  1  0.38669000  0.16696000  0.99237000  1.0
  H  H18  1  0.11331000  0.66696000  0.99237000  1.0
  H  H19  1  0.61331000  0.83304000  0.00763000  1.0
  H  H20  1  0.13882000  0.42266000  0.79037000  1.0
  H  H21  1  0.63881000  0.07734000  0.20963000  1.0
  H  H22  1  0.86118000  0.57734000  0.20963000  1.0
  H  H23  1  0.36119000  0.92266000  0.79037000  1.0
  H  H24  1  0.80385000  0.96927000  0.52792000  1.0
  H  H25  1  0.30386000  0.53073000  0.47208000  1.0
  H  H26  1  0.19614000  0.03073000  0.47208000  1.0
  H  H27  1  0.69614000  0.46927000  0.52792000  1.0
  H  H28  1  0.72569000  0.88250000  0.63323000  1.0
  H  H29  1  0.22569000  0.61750000  0.36678000  1.0
  H  H30  1  0.27431000  0.11750000  0.36678000  1.0
  H  H31  1  0.77431000  0.38250000  0.63322000  1.0
  H  H32  1  0.05618000  0.25224000  0.04920000  1.0
  H  H33  1  0.55618000  0.24776000  0.95080000  1.0
  H  H34  1  0.94382000  0.74776000  0.95080000  1.0
  H  H35  1  0.44382000  0.75224000  0.04920000  1.0
  H  H36  1  0.16099000  0.27128000  0.60527000  1.0
  H  H37  1  0.66099000  0.22872000  0.39473000  1.0
  H  H38  1  0.83901000  0.72872000  0.39473000  1.0
  H  H39  1  0.33901000  0.77128000  0.60527000  1.0
  H  H40  1  0.92028000  0.43797000  0.84502000  1.0
  H  H41  1  0.42028000  0.06203000  0.15498000  1.0
  H  H42  1  0.07972000  0.56203000  0.15498000  1.0
  H  H43  1  0.57973000  0.93798000  0.84502000  1.0
  C  C44  1  0.56743000  0.10186000  0.66484000  1.0
  C  C45  1  0.06743000  0.39814000  0.33516000  1.0
  C  C46  1  0.43257000  0.89814000  0.33516000  1.0
  C  C47  1  0.93257000  0.60186000  0.66484000  1.0
  C  C48  1  0.51947000  0.19089000  0.76045000  1.0
  C  C49  1  0.01946000  0.30911000  0.23955000  1.0
  C  C50  1  0.48053000  0.80911000  0.23955000  1.0
  C  C51  1  0.98054000  0.69089000  0.76045000  1.0
  C  C52  1  0.04093000  0.92830000  0.63727000  1.0
  C  C53  1  0.54092000  0.57170000  0.36273000  1.0
  C  C54  1  0.95908000  0.07171000  0.36272000  1.0
  C  C55  1  0.45907000  0.42829000  0.63727000  1.0
  C  C56  1  0.82191000  0.95651000  0.61422000  1.0
  C  C57  1  0.32191000  0.54349000  0.38578000  1.0
  C  C58  1  0.17810000  0.04349000  0.38578000  1.0
  C  C59  1  0.67809000  0.45651000  0.61422000  1.0
  C  C60  1  0.11299000  0.01347000  0.01123000  1.0
  C  C61  1  0.61299000  0.48653000  0.98877000  1.0
  C  C62  1  0.88702000  0.98653000  0.98878000  1.0
  C  C63  1  0.38701000  0.51347000  0.01122000  1.0
  O  O64  1  0.76690000  0.06019000  0.68058000  1.0
  O  O65  1  0.26690000  0.43981000  0.31943000  1.0
  O  O66  1  0.23310000  0.93981000  0.31943000  1.0
  O  O67  1  0.73310000  0.56019000  0.68057000  1.0
  O  O68  1  0.33881000  0.21593000  0.78176000  1.0
  O  O69  1  0.83881000  0.28407000  0.21824000  1.0
  O  O70  1  0.66118000  0.78407000  0.21824000  1.0
  O  O71  1  0.16118000  0.71593000  0.78175000  1.0
  O  O72  1  0.20264000  0.07199000  0.94340000  1.0
  O  O73  1  0.70263000  0.42801000  0.05660000  1.0
  O  O74  1  0.79737000  0.92802000  0.05660000  1.0
  O  O75  1  0.29737000  0.57198000  0.94340000  1.0
  O  O76  1  0.04624000  0.21904000  0.61921000  1.0
  O  O77  1  0.54624000  0.28096000  0.38080000  1.0
  O  O78  1  0.95375000  0.78096000  0.38080000  1.0
  O  O79  1  0.45375000  0.71904000  0.61920000  1.0
  O  O80  1  0.97696000  0.26607000  0.98443000  1.0
  O  O81  1  0.47696000  0.23393000  0.01557000  1.0
  O  O82  1  0.02304000  0.73393000  0.01558000  1.0
  O  O83  1  0.52304000  0.76607000  0.98443000  1.0
  O  O84  1  0.66726000  0.23616000  0.81536000  1.0
  O  O85  1  0.16726000  0.26384000  0.18464000  1.0
  O  O86  1  0.33273000  0.76384000  0.18464000  1.0
  O  O87  1  0.83273000  0.73616000  0.81536000  1.0
  O  O88  1  0.00776000  0.38459000  0.79873000  1.0
  O  O89  1  0.50775000  0.11541000  0.20127000  1.0
  O  O90  1  0.99224000  0.61541000  0.20127000  1.0
  O  O91  1  0.49225000  0.88459000  0.79873000  1.0
  O  O92  1  0.12598000  0.98465000  0.71809000  1.0
  O  O93  1  0.62598000  0.51535000  0.28191000  1.0
  O  O94  1  0.87402000  0.01535000  0.28191000  1.0
  O  O95  1  0.37402000  0.48465000  0.71809000  1.0
  O  O96  1  0.12403000  0.84899000  0.57377000  1.0
  O  O97  1  0.62403000  0.65102000  0.42623000  1.0
  O  O98  1  0.87597000  0.15102000  0.42623000  1.0
  O  O99  1  0.37597000  0.34898000  0.57377000  1.0
  O  O100  1  0.80986000  0.02314000  0.90540000  1.0
  O  O101  1  0.30986000  0.47686000  0.09460000  1.0
  O  O102  1  0.19014000  0.97687000  0.09460000  1.0
  O  O103  1  0.69014000  0.52313000  0.90540000  1.0
