# generated using pymatgen
data_AgH11C13SeN4O3
_symmetry_space_group_name_H-M   'P 1'
_cell_length_a   9.11602000
_cell_length_b   10.66010000
_cell_length_c   14.79500000
_cell_angle_alpha   91.26320000
_cell_angle_beta   90.00000000
_cell_angle_gamma   90.00000000
_symmetry_Int_Tables_number   1
_chemical_formula_structural   AgH11C13SeN4O3
_chemical_formula_sum   'Ag4 H44 C52 Se4 N16 O12'
_cell_volume   1437.39443860
_cell_formula_units_Z   4
loop_
 _symmetry_equiv_pos_site_id
 _symmetry_equiv_pos_as_xyz
  1  'x, y, z'
loop_
 _atom_site_type_symbol
 _atom_site_label
 _atom_site_symmetry_multiplicity
 _atom_site_fract_x
 _atom_site_fract_y
 _atom_site_fract_z
 _atom_site_occupancy
  Ag  Ag0  1  0.12752000  0.86297000  0.77370000  1.0
  Ag  Ag1  1  0.62752000  0.63703000  0.72630000  1.0
  Ag  Ag2  1  0.87248000  0.13703000  0.22630000  1.0
  Ag  Ag3  1  0.37248000  0.36296000  0.27370000  1.0
  H  H4  1  0.29492000  0.97802000  0.91844000  1.0
  H  H5  1  0.79492000  0.52198000  0.58156000  1.0
  H  H6  1  0.70508000  0.02198000  0.08156000  1.0
  H  H7  1  0.20509000  0.47802000  0.41844000  1.0
  H  H8  1  0.15269000  0.95463000  0.24237000  1.0
  H  H9  1  0.65268000  0.54538000  0.25763000  1.0
  H  H10  1  0.84732000  0.04538000  0.75763000  1.0
  H  H11  1  0.34732000  0.45463000  0.74237000  1.0
  H  H12  1  0.36612000  0.08296000  0.19857000  1.0
  H  H13  1  0.86612000  0.41704000  0.30143000  1.0
  H  H14  1  0.63388000  0.91704000  0.80143000  1.0
  H  H15  1  0.13388000  0.58296000  0.69857000  1.0
  H  H16  1  0.12227000  0.61640000  0.02057000  1.0
  H  H17  1  0.62227000  0.88359000  0.47943000  1.0
  H  H18  1  0.87773000  0.38359000  0.97943000  1.0
  H  H19  1  0.37773000  0.11640000  0.52057000  1.0
  H  H20  1  0.09336000  0.57002000  0.90321000  1.0
  H  H21  1  0.59337000  0.92998000  0.59679000  1.0
  H  H22  1  0.90663000  0.42997000  0.09679000  1.0
  H  H23  1  0.40664000  0.07002000  0.40321000  1.0
  H  H24  1  0.00988000  0.83519000  0.12562000  1.0
  H  H25  1  0.50988000  0.66481000  0.37439000  1.0
  H  H26  1  0.99011000  0.16481000  0.87439000  1.0
  H  H27  1  0.49012000  0.33519000  0.62562000  1.0
  H  H28  1  0.43759000  0.09434000  0.03597000  1.0
  H  H29  1  0.93759000  0.40566000  0.46403000  1.0
  H  H30  1  0.56241000  0.90566000  0.96403000  1.0
  H  H31  1  0.06241000  0.59434000  0.53597000  1.0
  H  H32  1  0.31391000  0.69646000  0.13099000  1.0
  H  H33  1  0.81391000  0.80353000  0.36901000  1.0
  H  H34  1  0.68609000  0.30353000  0.86901000  1.0
  H  H35  1  0.18610000  0.19647000  0.63099000  1.0
  H  H36  1  0.77620000  0.65477000  0.94327000  1.0
  H  H37  1  0.27621000  0.84523000  0.55673000  1.0
  H  H38  1  0.22379000  0.34523000  0.05673000  1.0
  H  H39  1  0.72380000  0.15477000  0.44327000  1.0
  H  H40  1  0.56011000  0.72378000  0.20023000  1.0
  H  H41  1  0.06011000  0.77622000  0.29977000  1.0
  H  H42  1  0.43989000  0.27621000  0.79977000  1.0
  H  H43  1  0.93990000  0.22379000  0.70023000  1.0
  H  H44  1  0.78675000  0.69487000  0.11119000  1.0
  H  H45  1  0.28675000  0.80513000  0.38881000  1.0
  H  H46  1  0.21325000  0.30512000  0.88881000  1.0
  H  H47  1  0.71325000  0.19487000  0.61119000  1.0
  C  C48  1  0.40935000  0.66283000  0.99684000  1.0
  C  C49  1  0.90935000  0.83717000  0.50316000  1.0
  C  C50  1  0.59065000  0.33718000  0.00316000  1.0
  C  C51  1  0.09065000  0.16283000  0.49684000  1.0
  C  C52  1  0.26506000  0.97173000  0.98965000  1.0
  C  C53  1  0.76506000  0.52828000  0.51035000  1.0
  C  C54  1  0.73494000  0.02828000  0.01035000  1.0
  C  C55  1  0.23494000  0.47172000  0.48965000  1.0
  C  C56  1  0.14586000  0.89862000  0.01537000  1.0
  C  C57  1  0.64586000  0.60138000  0.48463000  1.0
  C  C58  1  0.85414000  0.10138000  0.98463000  1.0
  C  C59  1  0.35414000  0.39862000  0.51537000  1.0
  C  C60  1  0.18410000  0.95847000  0.17160000  1.0
  C  C61  1  0.68410000  0.54154000  0.32841000  1.0
  C  C62  1  0.81590000  0.04154000  0.82841000  1.0
  C  C63  1  0.31590000  0.45846000  0.67159000  1.0
  C  C64  1  0.30465000  0.03096000  0.14678000  1.0
  C  C65  1  0.80464000  0.46905000  0.35322000  1.0
  C  C66  1  0.69535000  0.96905000  0.85322000  1.0
  C  C67  1  0.19535000  0.53095000  0.64678000  1.0
  C  C68  1  0.14343000  0.63921000  0.94989000  1.0
  C  C69  1  0.64343000  0.86079000  0.55011000  1.0
  C  C70  1  0.85657000  0.36078000  0.05011000  1.0
  C  C71  1  0.35657000  0.13921000  0.44989000  1.0
  C  C72  1  0.10355000  0.89212000  0.10611000  1.0
  C  C73  1  0.60355000  0.60788000  0.39389000  1.0
  C  C74  1  0.89645000  0.10788000  0.89389000  1.0
  C  C75  1  0.39645000  0.39212000  0.60611000  1.0
  C  C76  1  0.34443000  0.03767000  0.05602000  1.0
  C  C77  1  0.84443000  0.46233000  0.44398000  1.0
  C  C78  1  0.65556000  0.96233000  0.94398000  1.0
  C  C79  1  0.15557000  0.53767000  0.55602000  1.0
  C  C80  1  0.41280000  0.68675000  0.09025000  1.0
  C  C81  1  0.91280000  0.81325000  0.40975000  1.0
  C  C82  1  0.58720000  0.31325000  0.90975000  1.0
  C  C83  1  0.08721000  0.18676000  0.59025000  1.0
  C  C84  1  0.67741000  0.66237000  0.98435000  1.0
  C  C85  1  0.17741000  0.83763000  0.51565000  1.0
  C  C86  1  0.32259000  0.33764000  0.01565000  1.0
  C  C87  1  0.82259000  0.16237000  0.48435000  1.0
  C  C88  1  0.53831000  0.65362000  0.94419000  1.0
  C  C89  1  0.03832000  0.84638000  0.55581000  1.0
  C  C90  1  0.46169000  0.34639000  0.05581000  1.0
  C  C91  1  0.96169000  0.15362000  0.44419000  1.0
  C  C92  1  0.55112000  0.69978000  0.12849000  1.0
  C  C93  1  0.05112000  0.80021000  0.37151000  1.0
  C  C94  1  0.44888000  0.30021000  0.87151000  1.0
  C  C95  1  0.94888000  0.19979000  0.62849000  1.0
  C  C96  1  0.68133000  0.68571000  0.07687000  1.0
  C  C97  1  0.18134000  0.81429000  0.42313000  1.0
  C  C98  1  0.31867000  0.31429000  0.92313000  1.0
  C  C99  1  0.81867000  0.18571000  0.57687000  1.0
  Se  Se100  1  0.03734000  0.79953000  0.92688000  1.0
  Se  Se101  1  0.53734000  0.70047000  0.57312000  1.0
  Se  Se102  1  0.96267000  0.20047000  0.07312000  1.0
  Se  Se103  1  0.46267000  0.29953000  0.42688000  1.0
  N  N104  1  0.29820000  0.64598000  0.93503000  1.0
  N  N105  1  0.79820000  0.85402000  0.56497000  1.0
  N  N106  1  0.70179000  0.35402000  0.06497000  1.0
  N  N107  1  0.20180000  0.14598000  0.43503000  1.0
  N  N108  1  0.37087000  0.01678000  0.70896000  1.0
  N  N109  1  0.87087000  0.48322000  0.79103000  1.0
  N  N110  1  0.62913000  0.98322000  0.29104000  1.0
  N  N111  1  0.12913000  0.51678000  0.20897000  1.0
  N  N112  1  0.35265000  0.63249000  0.85042000  1.0
  N  N113  1  0.85265000  0.86751000  0.64958000  1.0
  N  N114  1  0.64735000  0.36751000  0.14958000  1.0
  N  N115  1  0.14735000  0.13248000  0.35042000  1.0
  N  N116  1  0.49614000  0.63687000  0.85523000  1.0
  N  N117  1  0.99614000  0.86313000  0.64477000  1.0
  N  N118  1  0.50385000  0.36314000  0.14477000  1.0
  N  N119  1  0.00386000  0.13687000  0.35523000  1.0
  O  O120  1  0.27217000  0.07045000  0.75635000  1.0
  O  O121  1  0.77217000  0.42955000  0.74364000  1.0
  O  O122  1  0.72783000  0.92955000  0.24364000  1.0
  O  O123  1  0.22783000  0.57045000  0.25636000  1.0
  O  O124  1  0.46358000  0.07956000  0.66576000  1.0
  O  O125  1  0.96358000  0.42044000  0.83424000  1.0
  O  O126  1  0.53643000  0.92044000  0.33424000  1.0
  O  O127  1  0.03643000  0.57956000  0.16576000  1.0
  O  O128  1  0.37404000  0.89625000  0.70463000  1.0
  O  O129  1  0.87404000  0.60375000  0.79537000  1.0
  O  O130  1  0.62596000  0.10375000  0.29537000  1.0
  O  O131  1  0.12596000  0.39625000  0.20463000  1.0
