# generated using pymatgen
data_Mn2H18C12O11
_symmetry_space_group_name_H-M   'P 1'
_cell_length_a   8.08962000
_cell_length_b   10.04560000
_cell_length_c   10.54607957
_cell_angle_alpha   82.82119598
_cell_angle_beta   67.45565762
_cell_angle_gamma   89.98210000
_symmetry_Int_Tables_number   1
_chemical_formula_structural   Mn2H18C12O11
_chemical_formula_sum   'Mn4 H36 C24 O22'
_cell_volume   784.27153790
_cell_formula_units_Z   2
loop_
 _symmetry_equiv_pos_site_id
 _symmetry_equiv_pos_as_xyz
  1  'x, y, z'
loop_
 _atom_site_type_symbol
 _atom_site_label
 _atom_site_symmetry_multiplicity
 _atom_site_fract_x
 _atom_site_fract_y
 _atom_site_fract_z
 _atom_site_occupancy
  Mn  Mn0  1  0.83481000  0.42979000  0.95418000  1.0
  Mn  Mn1  1  0.21113000  0.92972000  0.95404000  1.0
  Mn  Mn2  1  0.16519000  0.57021000  0.04582000  1.0
  Mn  Mn3  1  0.78887000  0.07029000  0.04597000  1.0
  H  H4  1  0.49285000  0.46406000  0.14238000  1.0
  H  H5  1  0.36496000  0.96409000  0.14223000  1.0
  H  H6  1  0.50714000  0.53594000  0.85762000  1.0
  H  H7  1  0.63504000  0.03592000  0.85777000  1.0
  H  H8  1  0.60064000  0.58264000  0.15599000  1.0
  H  H9  1  0.24344000  0.08263000  0.15587000  1.0
  H  H10  1  0.39936000  0.41736000  0.84401000  1.0
  H  H11  1  0.75655000  0.91737000  0.84414000  1.0
  H  H12  1  0.60459000  0.24904000  0.91847000  1.0
  H  H13  1  0.47707000  0.74888000  0.91827000  1.0
  H  H14  1  0.39541000  0.75096000  0.08153000  1.0
  H  H15  1  0.52293000  0.25112000  0.08173000  1.0
  H  H16  1  0.01825000  0.51743000  0.61349000  1.0
  H  H17  1  0.36811000  0.01746000  0.61365000  1.0
  H  H18  1  0.98175000  0.48258000  0.38651000  1.0
  H  H19  1  0.63189000  0.98254000  0.38635000  1.0
  H  H20  1  0.22200000  0.60567000  0.58892000  1.0
  H  H21  1  0.18873000  0.10560000  0.58918000  1.0
  H  H22  1  0.77800000  0.39433000  0.41108000  1.0
  H  H23  1  0.81127000  0.89440000  0.41082000  1.0
  H  H24  1  0.95305000  0.70251000  0.45953000  1.0
  H  H25  1  0.58692000  0.20259000  0.45970000  1.0
  H  H26  1  0.04695000  0.29749000  0.54047000  1.0
  H  H27  1  0.41308000  0.79741000  0.54029000  1.0
  H  H28  1  0.18670000  0.74563000  0.38688000  1.0
  H  H29  1  0.42583000  0.24563000  0.38707000  1.0
  H  H30  1  0.81330000  0.25437000  0.61312000  1.0
  H  H31  1  0.57416000  0.75437000  0.61293000  1.0
  H  H32  1  0.14789000  0.88734000  0.57704000  1.0
  H  H33  1  0.27448000  0.38741000  0.57728000  1.0
  H  H34  1  0.85210000  0.11267000  0.42296000  1.0
  H  H35  1  0.72552000  0.61259000  0.42272000  1.0
  H  H36  1  0.92036000  0.89683000  0.59413000  1.0
  H  H37  1  0.48498000  0.39684000  0.59429000  1.0
  H  H38  1  0.07964000  0.10317000  0.40587000  1.0
  H  H39  1  0.51502000  0.60315000  0.40571000  1.0
  C  C40  1  0.98446000  0.71114000  0.70715000  1.0
  C  C41  1  0.30804000  0.21115000  0.70734000  1.0
  C  C42  1  0.01554000  0.28886000  0.29285000  1.0
  C  C43  1  0.69196000  0.78884000  0.29266000  1.0
  C  C44  1  0.08366000  0.61695000  0.59709000  1.0
  C  C45  1  0.31892000  0.11694000  0.59728000  1.0
  C  C46  1  0.91634000  0.38306000  0.40291000  1.0
  C  C47  1  0.68108000  0.88306000  0.40272000  1.0
  C  C48  1  0.06922000  0.72485000  0.48415000  1.0
  C  C49  1  0.44610000  0.22485000  0.48434000  1.0
  C  C50  1  0.93078000  0.27515000  0.51585000  1.0
  C  C51  1  0.55390000  0.77514000  0.51566000  1.0
  C  C52  1  0.02824000  0.82870000  0.58765000  1.0
  C  C53  1  0.38358000  0.32875000  0.58784000  1.0
  C  C54  1  0.97177000  0.17130000  0.41234000  1.0
  C  C55  1  0.61641000  0.67125000  0.41216000  1.0
  C  C56  1  0.78462000  0.67401000  0.78259000  1.0
  C  C57  1  0.43257000  0.17405000  0.78272000  1.0
  C  C58  1  0.21539000  0.32599000  0.21740000  1.0
  C  C59  1  0.56743000  0.82595000  0.21727000  1.0
  C  C60  1  0.06101000  0.71777000  0.81778000  1.0
  C  C61  1  0.12090000  0.21774000  0.81794000  1.0
  C  C62  1  0.93899000  0.28223000  0.18222000  1.0
  C  C63  1  0.87910000  0.78226000  0.18206000  1.0
  O  O64  1  0.61741000  0.48994000  0.13150000  1.0
  O  O65  1  0.25125000  0.98996000  0.13135000  1.0
  O  O66  1  0.38259000  0.51006000  0.86850000  1.0
  O  O67  1  0.74876000  0.01004000  0.86865000  1.0
  O  O68  1  0.64267000  0.25011000  0.00010000  1.0
  O  O69  1  0.35734000  0.74989000  0.99990000  1.0
  O  O70  1  0.73249000  0.54964000  0.81991000  1.0
  O  O71  1  0.44751000  0.04968000  0.82000000  1.0
  O  O72  1  0.26751000  0.45036000  0.18009000  1.0
  O  O73  1  0.55249000  0.95032000  0.18000000  1.0
  O  O74  1  0.67838000  0.76891000  0.80865000  1.0
  O  O75  1  0.51279000  0.26894000  0.80871000  1.0
  O  O76  1  0.32162000  0.23109000  0.19134000  1.0
  O  O77  1  0.48721000  0.73106000  0.19129000  1.0
  O  O78  1  0.01919000  0.61543000  0.91381000  1.0
  O  O79  1  0.06670000  0.11536000  0.91388000  1.0
  O  O80  1  0.98082000  0.38457000  0.08618000  1.0
  O  O81  1  0.93331000  0.88464000  0.08612000  1.0
  O  O82  1  0.16089000  0.81701000  0.81001000  1.0
  O  O83  1  0.02877000  0.31704000  0.81020000  1.0
  O  O84  1  0.83911000  0.18298000  0.18999000  1.0
  O  O85  1  0.97122000  0.68296000  0.18980000  1.0
