# generated using pymatgen
data_SmH11C17O6
_symmetry_space_group_name_H-M   'P 1'
_cell_length_a   6.77402000
_cell_length_b   13.04070000
_cell_length_c   17.14200000
_cell_angle_alpha   90.00000000
_cell_angle_beta   93.81500000
_cell_angle_gamma   90.00000000
_symmetry_Int_Tables_number   1
_chemical_formula_structural   SmH11C17O6
_chemical_formula_sum   'Sm4 H44 C68 O24'
_cell_volume   1510.93381656
_cell_formula_units_Z   4
loop_
 _symmetry_equiv_pos_site_id
 _symmetry_equiv_pos_as_xyz
  1  'x, y, z'
loop_
 _atom_site_type_symbol
 _atom_site_label
 _atom_site_symmetry_multiplicity
 _atom_site_fract_x
 _atom_site_fract_y
 _atom_site_fract_z
 _atom_site_occupancy
  Sm  Sm0  1  0.61663000  0.62745000  0.54816000  1.0
  Sm  Sm1  1  0.88336000  0.12745000  0.45184000  1.0
  Sm  Sm2  1  0.38337000  0.37255000  0.45184000  1.0
  Sm  Sm3  1  0.11663000  0.87255000  0.54816000  1.0
  H  H4  1  0.11624000  0.78571000  0.79253000  1.0
  H  H5  1  0.38377000  0.28572000  0.20747000  1.0
  H  H6  1  0.88376000  0.21429000  0.20747000  1.0
  H  H7  1  0.61623000  0.71429000  0.79253000  1.0
  H  H8  1  0.04761000  0.75521000  0.93062000  1.0
  H  H9  1  0.45240000  0.25521000  0.06938000  1.0
  H  H10  1  0.95239000  0.24479000  0.06938000  1.0
  H  H11  1  0.54761000  0.74479000  0.93062000  1.0
  H  H12  1  0.75737000  0.47105000  0.86298000  1.0
  H  H13  1  0.74262000  0.97105000  0.13702000  1.0
  H  H14  1  0.24263000  0.52895000  0.13702000  1.0
  H  H15  1  0.25738000  0.02895000  0.86298000  1.0
  H  H16  1  0.82650000  0.50379000  0.72458000  1.0
  H  H17  1  0.67349000  0.00379000  0.27542000  1.0
  H  H18  1  0.17350000  0.49621000  0.27542000  1.0
  H  H19  1  0.32650000  0.99622000  0.72458000  1.0
  H  H20  1  0.76739000  0.51700000  0.99334000  1.0
  H  H21  1  0.73261000  0.01700000  0.00666000  1.0
  H  H22  1  0.23261000  0.48300000  0.00666000  1.0
  H  H23  1  0.26739000  0.98300000  0.99334000  1.0
  H  H24  1  0.92250000  0.73164000  0.04122000  1.0
  H  H25  1  0.57751000  0.23164000  0.95877000  1.0
  H  H26  1  0.07751000  0.26836000  0.95878000  1.0
  H  H27  1  0.42250000  0.76836000  0.04122000  1.0
  H  H28  1  0.93210000  0.76771000  0.17753000  1.0
  H  H29  1  0.56790000  0.26771000  0.82247000  1.0
  H  H30  1  0.06790000  0.23229000  0.82247000  1.0
  H  H31  1  0.43210000  0.73229000  0.17753000  1.0
  H  H32  1  0.84928000  0.72469000  0.31303000  1.0
  H  H33  1  0.65072000  0.22469000  0.68697000  1.0
  H  H34  1  0.15072000  0.27531000  0.68698000  1.0
  H  H35  1  0.34928000  0.77531000  0.31302000  1.0
  H  H36  1  0.56206000  0.44889000  0.22892000  1.0
  H  H37  1  0.93794000  0.94889000  0.77108000  1.0
  H  H38  1  0.43794000  0.55111000  0.77108000  1.0
  H  H39  1  0.06206000  0.05111000  0.22892000  1.0
  H  H40  1  0.63702000  0.49111000  0.09374000  1.0
  H  H41  1  0.86299000  0.99111000  0.90626000  1.0
  H  H42  1  0.36299000  0.50889000  0.90626000  1.0
  H  H43  1  0.13701000  0.00889000  0.09374000  1.0
  H  H44  1  0.54850000  0.87019000  0.45104000  1.0
  H  H45  1  0.95149000  0.37019000  0.54896000  1.0
  H  H46  1  0.45150000  0.12981000  0.54896000  1.0
  H  H47  1  0.04850000  0.62981000  0.45104000  1.0
  C  C48  1  0.00058000  0.67337000  0.66666667  1.0
  C  C49  1  0.49943000  0.17338000  0.33333333  1.0
  C  C50  1  0.99943000  0.32662000  0.33333333  1.0
  C  C51  1  0.50057000  0.82663000  0.66666667  1.0
  C  C52  1  0.97480000  0.64736000  0.75003000  1.0
  C  C53  1  0.52520000  0.14736000  0.24997000  1.0
  C  C54  1  0.02520000  0.35264000  0.24998000  1.0
  C  C55  1  0.47480000  0.85264000  0.75002000  1.0
  C  C56  1  0.03831000  0.71692000  0.80896000  1.0
  C  C57  1  0.46169000  0.21692000  0.19104000  1.0
  C  C58  1  0.96169000  0.28308000  0.19104000  1.0
  C  C59  1  0.53831000  0.78308000  0.80896000  1.0
  C  C60  1  0.99832000  0.69954000  0.88607000  1.0
  C  C61  1  0.50168000  0.19954000  0.11393000  1.0
  C  C62  1  0.00168000  0.30046000  0.11394000  1.0
  C  C63  1  0.49832000  0.80046000  0.88606000  1.0
  C  C64  1  0.89245000  0.61162000  0.90677000  1.0
  C  C65  1  0.60755000  0.11162000  0.09323000  1.0
  C  C66  1  0.10756000  0.38838000  0.09323000  1.0
  C  C67  1  0.39245000  0.88838000  0.90677000  1.0
  C  C68  1  0.83622000  0.54028000  0.84753000  1.0
  C  C69  1  0.66377000  0.04028000  0.15247000  1.0
  C  C70  1  0.16378000  0.45972000  0.15248000  1.0
  C  C71  1  0.33623000  0.95972000  0.84752000  1.0
  C  C72  1  0.87508000  0.55805000  0.77017000  1.0
  C  C73  1  0.62492000  0.05805000  0.22983000  1.0
  C  C74  1  0.12493000  0.44195000  0.22984000  1.0
  C  C75  1  0.37508000  0.94195000  0.77016000  1.0
  C  C76  1  0.83441000  0.59222000  0.98545000  1.0
  C  C77  1  0.66559000  0.09223000  0.01455000  1.0
  C  C78  1  0.16560000  0.40777000  0.01455000  1.0
  C  C79  1  0.33441000  0.90778000  0.98545000  1.0
  C  C80  1  0.85315000  0.65660000  0.04760000  1.0
  C  C81  1  0.64685000  0.15660000  0.95240000  1.0
  C  C82  1  0.14685000  0.34340000  0.95241000  1.0
  C  C83  1  0.35315000  0.84340000  0.04759000  1.0
  C  C84  1  0.79336000  0.63243000  0.12543000  1.0
  C  C85  1  0.70665000  0.13243000  0.87457000  1.0
  C  C86  1  0.20665000  0.36757000  0.87457000  1.0
  C  C87  1  0.29335000  0.86757000  0.12543000  1.0
  C  C88  1  0.84930000  0.69805000  0.18857000  1.0
  C  C89  1  0.65070000  0.19805000  0.81143000  1.0
  C  C90  1  0.15070000  0.30195000  0.81143000  1.0
  C  C91  1  0.34930000  0.80195000  0.18857000  1.0
  C  C92  1  0.80422000  0.67403000  0.26447000  1.0
  C  C93  1  0.69578000  0.17402000  0.73553000  1.0
  C  C94  1  0.19578000  0.32598000  0.73553000  1.0
  C  C95  1  0.30422000  0.82597000  0.26447000  1.0
  C  C96  1  0.70119000  0.58356000  0.27917000  1.0
  C  C97  1  0.79881000  0.08356000  0.72083000  1.0
  C  C98  1  0.29881000  0.41644000  0.72083000  1.0
  C  C99  1  0.20119000  0.91644000  0.27917000  1.0
  C  C100  1  0.64159000  0.51884000  0.21648000  1.0
  C  C101  1  0.85841000  0.01884000  0.78353000  1.0
  C  C102  1  0.35841000  0.48116000  0.78353000  1.0
  C  C103  1  0.14159000  0.98115000  0.21647000  1.0
  C  C104  1  0.68485000  0.54315000  0.14101000  1.0
  C  C105  1  0.81515000  0.04315000  0.85899000  1.0
  C  C106  1  0.31515000  0.45685000  0.85899000  1.0
  C  C107  1  0.18485000  0.95685000  0.14101000  1.0
  C  C108  1  0.65201000  0.55348000  0.35945000  1.0
  C  C109  1  0.84799000  0.05348000  0.64055000  1.0
  C  C110  1  0.34799000  0.44652000  0.64056000  1.0
  C  C111  1  0.15200000  0.94652000  0.35944000  1.0
  C  C112  1  0.70405000  0.86984000  0.47499000  1.0
  C  C113  1  0.79594000  0.36984000  0.52501000  1.0
  C  C114  1  0.29595000  0.13016000  0.52501000  1.0
  C  C115  1  0.20405000  0.63016000  0.47499000  1.0
  O  O116  1  0.92410000  0.61313000  0.61348000  1.0
  O  O117  1  0.57590000  0.11313000  0.38651000  1.0
  O  O118  1  0.07590000  0.38687000  0.38652000  1.0
  O  O119  1  0.42409000  0.88687000  0.61348000  1.0
  O  O120  1  0.09001000  0.75567000  0.65186000  1.0
  O  O121  1  0.41000000  0.25568000  0.34814000  1.0
  O  O122  1  0.90999000  0.24432000  0.34814000  1.0
  O  O123  1  0.59001000  0.74433000  0.65186000  1.0
  O  O124  1  0.69394000  0.61634000  0.41541000  1.0
  O  O125  1  0.80607000  0.11634000  0.58459000  1.0
  O  O126  1  0.30606000  0.38366000  0.58460000  1.0
  O  O127  1  0.19393000  0.88366000  0.41540000  1.0
  O  O128  1  0.56913000  0.46667000  0.36666000  1.0
  O  O129  1  0.93087000  0.96667000  0.63334000  1.0
  O  O130  1  0.43087000  0.53333000  0.63334000  1.0
  O  O131  1  0.06913000  0.03333000  0.36666000  1.0
  O  O132  1  0.77766000  0.78960000  0.50793000  1.0
  O  O133  1  0.72233000  0.28960000  0.49207000  1.0
  O  O134  1  0.22233000  0.21039000  0.49207000  1.0
  O  O135  1  0.27767000  0.71040000  0.50793000  1.0
  O  O136  1  0.80870000  0.94957000  0.46885000  1.0
  O  O137  1  0.69129000  0.44957000  0.53115000  1.0
  O  O138  1  0.19129000  0.05043000  0.53115000  1.0
  O  O139  1  0.30871000  0.55043000  0.46885000  1.0
