# generated using pymatgen
data_Co4H40C37O30
_symmetry_space_group_name_H-M   'P 1'
_cell_length_a   11.42400000
_cell_length_b   20.19440000
_cell_length_c   20.19430000
_cell_angle_alpha   90.00480000
_cell_angle_beta   89.99970000
_cell_angle_gamma   89.99980000
_symmetry_Int_Tables_number   1
_chemical_formula_structural   Co4H40C37O30
_chemical_formula_sum   'Co8 H80 C74 O60'
_cell_volume   4658.84166597
_cell_formula_units_Z   2
loop_
 _symmetry_equiv_pos_site_id
 _symmetry_equiv_pos_as_xyz
  1  'x, y, z'
loop_
 _atom_site_type_symbol
 _atom_site_label
 _atom_site_symmetry_multiplicity
 _atom_site_fract_x
 _atom_site_fract_y
 _atom_site_fract_z
 _atom_site_occupancy
  Co  Co0  1  0.52312000  0.73796000  0.76204000  1.0
  Co  Co1  1  0.47690000  0.23802000  0.73802000  1.0
  Co  Co2  1  0.52312000  0.26205000  0.23794000  1.0
  Co  Co3  1  0.47689000  0.76198000  0.26198000  1.0
  Co  Co4  1  0.42276000  0.63585000  0.86415000  1.0
  Co  Co5  1  0.57718000  0.13586000  0.63586000  1.0
  Co  Co6  1  0.42269000  0.36417000  0.13583000  1.0
  Co  Co7  1  0.57716000  0.86413000  0.36413000  1.0
  H  H8  1  0.33129000  0.68413000  0.75273000  1.0
  H  H9  1  0.66871000  0.24727000  0.68413000  1.0
  H  H10  1  0.33130000  0.31588000  0.24727000  1.0
  H  H11  1  0.66869000  0.75273000  0.31587000  1.0
  H  H12  1  0.66871000  0.18413000  0.74726000  1.0
  H  H13  1  0.66869000  0.81587000  0.25273000  1.0
  H  H14  1  0.33130000  0.25274000  0.18412000  1.0
  H  H15  1  0.33130000  0.74728000  0.81587000  1.0
  H  H16  1  0.72231000  0.73430000  0.71149000  1.0
  H  H17  1  0.27775000  0.28851000  0.73431000  1.0
  H  H18  1  0.72231000  0.26570000  0.28850000  1.0
  H  H19  1  0.27773000  0.71149000  0.26570000  1.0
  H  H20  1  0.27775000  0.23431000  0.78852000  1.0
  H  H21  1  0.27773000  0.76569000  0.21149000  1.0
  H  H22  1  0.72230000  0.21150000  0.23430000  1.0
  H  H23  1  0.72231000  0.78850000  0.76570000  1.0
  H  H24  1  0.51949000  0.58983000  0.96450000  1.0
  H  H25  1  0.48053000  0.03551000  0.58985000  1.0
  H  H26  1  0.51951000  0.41017000  0.03549000  1.0
  H  H27  1  0.48053000  0.96450000  0.41017000  1.0
  H  H28  1  0.48052000  0.08984000  0.53551000  1.0
  H  H29  1  0.48053000  0.91016000  0.46450000  1.0
  H  H30  1  0.51950000  0.46451000  0.08982000  1.0
  H  H31  1  0.51948000  0.53549000  0.91017000  1.0
  H  H32  1  0.26647000  0.72258000  0.91203000  1.0
  H  H33  1  0.73352000  0.08797000  0.72261000  1.0
  H  H34  1  0.26646000  0.27741000  0.08798000  1.0
  H  H35  1  0.73353000  0.91201000  0.27741000  1.0
  H  H36  1  0.73355000  0.22258000  0.58798000  1.0
  H  H37  1  0.73351000  0.77739000  0.41202000  1.0
  H  H38  1  0.26644000  0.41203000  0.22257000  1.0
  H  H39  1  0.26650000  0.58797000  0.77740000  1.0
  H  H40  1  0.31948000  0.68754000  0.97298000  1.0
  H  H41  1  0.68057000  0.02702000  0.68753000  1.0
  H  H42  1  0.31947000  0.31246000  0.02702000  1.0
  H  H43  1  0.68055000  0.97297000  0.31246000  1.0
  H  H44  1  0.68056000  0.18752000  0.52703000  1.0
  H  H45  1  0.68056000  0.81246000  0.47298000  1.0
  H  H46  1  0.31947000  0.47299000  0.18753000  1.0
  H  H47  1  0.31946000  0.52702000  0.81247000  1.0
  H  H48  1  0.74914000  0.83806000  0.89435000  1.0
  H  H49  1  0.25091000  0.10564000  0.83807000  1.0
  H  H50  1  0.74914000  0.16193000  0.10565000  1.0
  H  H51  1  0.25092000  0.89436000  0.16194000  1.0
  H  H52  1  0.25091000  0.33807000  0.60564000  1.0
  H  H53  1  0.25091000  0.66194000  0.39436000  1.0
  H  H54  1  0.74914000  0.39435000  0.33806000  1.0
  H  H55  1  0.74913000  0.60565000  0.66193000  1.0
  H  H56  1  0.78690000  0.88441000  0.10220000  1.0
  H  H57  1  0.21311000  0.89780000  0.88441000  1.0
  H  H58  1  0.78690000  0.11558000  0.89780000  1.0
  H  H59  1  0.21311000  0.10220000  0.11559000  1.0
  H  H60  1  0.21310000  0.38441000  0.39780000  1.0
  H  H61  1  0.21311000  0.61558000  0.60220000  1.0
  H  H62  1  0.78690000  0.60220000  0.38442000  1.0
  H  H63  1  0.78689000  0.39780000  0.61558000  1.0
  H  H64  1  0.54537000  0.73443000  0.04194000  1.0
  H  H65  1  0.45468000  0.95807000  0.73443000  1.0
  H  H66  1  0.54536000  0.26556000  0.95806000  1.0
  H  H67  1  0.45467000  0.04194000  0.26558000  1.0
  H  H68  1  0.45467000  0.23443000  0.45807000  1.0
  H  H69  1  0.45467000  0.76558000  0.54193000  1.0
  H  H70  1  0.54535000  0.54194000  0.23444000  1.0
  H  H71  1  0.54537000  0.45806000  0.76557000  1.0
  H  H72  1  0.97550000  0.90871000  0.05602000  1.0
  H  H73  1  0.02448000  0.94399000  0.90870000  1.0
  H  H74  1  0.97549000  0.09129000  0.94398000  1.0
  H  H75  1  0.02447000  0.05600000  0.09130000  1.0
  H  H76  1  0.02447000  0.40870000  0.44399000  1.0
  H  H77  1  0.02447000  0.59130000  0.55601000  1.0
  H  H78  1  0.97550000  0.55602000  0.40871000  1.0
  H  H79  1  0.97549000  0.44398000  0.59129000  1.0
  H  H80  1  0.86155000  0.96897000  0.06481000  1.0
  H  H81  1  0.13842000  0.93518000  0.96897000  1.0
  H  H82  1  0.86154000  0.03102000  0.93520000  1.0
  H  H83  1  0.13840000  0.06482000  0.03103000  1.0
  H  H84  1  0.13841000  0.46897000  0.43518000  1.0
  H  H85  1  0.13841000  0.53103000  0.56482000  1.0
  H  H86  1  0.86155000  0.56481000  0.46897000  1.0
  H  H87  1  0.86154000  0.43519000  0.53102000  1.0
  C  C88  1  0.59016000  0.74045000  0.90808000  1.0
  C  C89  1  0.40983000  0.09191000  0.74046000  1.0
  C  C90  1  0.59014000  0.25955000  0.09192000  1.0
  C  C91  1  0.40982000  0.90809000  0.25954000  1.0
  C  C92  1  0.40983000  0.24047000  0.59191000  1.0
  C  C93  1  0.40982000  0.75953000  0.40809000  1.0
  C  C94  1  0.59014000  0.40808000  0.24045000  1.0
  C  C95  1  0.59016000  0.59191000  0.75955000  1.0
  C  C96  1  0.64352000  0.78105000  0.96236000  1.0
  C  C97  1  0.35648000  0.03763000  0.78105000  1.0
  C  C98  1  0.64351000  0.21895000  0.03764000  1.0
  C  C99  1  0.35648000  0.96238000  0.21896000  1.0
  C  C100  1  0.35648000  0.28105000  0.53762000  1.0
  C  C101  1  0.35649000  0.71895000  0.46237000  1.0
  C  C102  1  0.64351000  0.46236000  0.28104000  1.0
  C  C103  1  0.64353000  0.53764000  0.71895000  1.0
  C  C104  1  0.72577000  0.82976000  0.94592000  1.0
  C  C105  1  0.27426000  0.05407000  0.82978000  1.0
  C  C106  1  0.72577000  0.17024000  0.05408000  1.0
  C  C107  1  0.27426000  0.94594000  0.17023000  1.0
  C  C108  1  0.27425000  0.32978000  0.55407000  1.0
  C  C109  1  0.27426000  0.67023000  0.44594000  1.0
  C  C110  1  0.72577000  0.44592000  0.32976000  1.0
  C  C111  1  0.72578000  0.55409000  0.67024000  1.0
  C  C112  1  0.77835000  0.86751000  0.99583000  1.0
  C  C113  1  0.22169000  0.00417000  0.86752000  1.0
  C  C114  1  0.77834000  0.13249000  0.00418000  1.0
  C  C115  1  0.22168000  0.99584000  0.13248000  1.0
  C  C116  1  0.22168000  0.36752000  0.50417000  1.0
  C  C117  1  0.22168000  0.63248000  0.49584000  1.0
  C  C118  1  0.77835000  0.49583000  0.36751000  1.0
  C  C119  1  0.77834000  0.50418000  0.63249000  1.0
  C  C120  1  0.74757000  0.85701000  0.06170000  1.0
  C  C121  1  0.25246000  0.93829000  0.85701000  1.0
  C  C122  1  0.74756000  0.14299000  0.93830000  1.0
  C  C123  1  0.25246000  0.06172000  0.14300000  1.0
  C  C124  1  0.25246000  0.35701000  0.43829000  1.0
  C  C125  1  0.25246000  0.64299000  0.56172000  1.0
  C  C126  1  0.74755000  0.56170000  0.35701000  1.0
  C  C127  1  0.74756000  0.43830000  0.64299000  1.0
  C  C128  1  0.66224000  0.81008000  0.07793000  1.0
  C  C129  1  0.33777000  0.92205000  0.81006000  1.0
  C  C130  1  0.66223000  0.18992000  0.92207000  1.0
  C  C131  1  0.33777000  0.07795000  0.18994000  1.0
  C  C132  1  0.33777000  0.31007000  0.42205000  1.0
  C  C133  1  0.33777000  0.68993000  0.57795000  1.0
  C  C134  1  0.66223000  0.57793000  0.31008000  1.0
  C  C135  1  0.66224000  0.42207000  0.68993000  1.0
  C  C136  1  0.61048000  0.77144000  0.02870000  1.0
  C  C137  1  0.38953000  0.97129000  0.77143000  1.0
  C  C138  1  0.61047000  0.22855000  0.97130000  1.0
  C  C139  1  0.38952000  0.02872000  0.22857000  1.0
  C  C140  1  0.38952000  0.27143000  0.47128000  1.0
  C  C141  1  0.38953000  0.72857000  0.52872000  1.0
  C  C142  1  0.61047000  0.52869000  0.27145000  1.0
  C  C143  1  0.61048000  0.47131000  0.72856000  1.0
  C  C144  1  0.63105000  0.80418000  0.14976000  1.0
  C  C145  1  0.36896000  0.85022000  0.80418000  1.0
  C  C146  1  0.63105000  0.19581000  0.85024000  1.0
  C  C147  1  0.36895000  0.14979000  0.19582000  1.0
  C  C148  1  0.36896000  0.30418000  0.35021000  1.0
  C  C149  1  0.36895000  0.69582000  0.64978000  1.0
  C  C150  1  0.63104000  0.64976000  0.30419000  1.0
  C  C151  1  0.63105000  0.35024000  0.69582000  1.0
  C  C152  1  0.92252000  0.94571000  0.02951000  1.0
  C  C153  1  0.07748000  0.97049000  0.94571000  1.0
  C  C154  1  0.92252000  0.05428000  0.97049000  1.0
  C  C155  1  0.07747000  0.02951000  0.05429000  1.0
  C  C156  1  0.07747000  0.44571000  0.47049000  1.0
  C  C157  1  0.07747000  0.55429000  0.52951000  1.0
  C  C158  1  0.92252000  0.52951000  0.44571000  1.0
  C  C159  1  0.92252000  0.47049000  0.55428000  1.0
  C  C160  1  0.00000000  0.00000000  0.00000000  1.0
  C  C161  1  0.99999000  0.50000000  0.50000000  1.0
  O  O162  1  0.60999000  0.75805000  0.84846000  1.0
  O  O163  1  0.39002000  0.15154000  0.75804000  1.0
  O  O164  1  0.60998000  0.24195000  0.15154000  1.0
  O  O165  1  0.39001000  0.84846000  0.24195000  1.0
  O  O166  1  0.39001000  0.25804000  0.65154000  1.0
  O  O167  1  0.39000000  0.74195000  0.34846000  1.0
  O  O168  1  0.60998000  0.34846000  0.25804000  1.0
  O  O169  1  0.60999000  0.65154000  0.74196000  1.0
  O  O170  1  0.52709000  0.69072000  0.92468000  1.0
  O  O171  1  0.47292000  0.07530000  0.69074000  1.0
  O  O172  1  0.52707000  0.30929000  0.07533000  1.0
  O  O173  1  0.47291000  0.92470000  0.30926000  1.0
  O  O174  1  0.47292000  0.19074000  0.57530000  1.0
  O  O175  1  0.47291000  0.80926000  0.42470000  1.0
  O  O176  1  0.52706000  0.42467000  0.19071000  1.0
  O  O177  1  0.52710000  0.57531000  0.80929000  1.0
  O  O178  1  0.54503000  0.76783000  0.16627000  1.0
  O  O179  1  0.45497000  0.83370000  0.76782000  1.0
  O  O180  1  0.54504000  0.23218000  0.83373000  1.0
  O  O181  1  0.45496000  0.16631000  0.23217000  1.0
  O  O182  1  0.45497000  0.26784000  0.33368000  1.0
  O  O183  1  0.45497000  0.73217000  0.66630000  1.0
  O  O184  1  0.54502000  0.66627000  0.26783000  1.0
  O  O185  1  0.54504000  0.33373000  0.73218000  1.0
  O  O186  1  0.69554000  0.83731000  0.19016000  1.0
  O  O187  1  0.30445000  0.80983000  0.83730000  1.0
  O  O188  1  0.69553000  0.16268000  0.80985000  1.0
  O  O189  1  0.30444000  0.19018000  0.16269000  1.0
  O  O190  1  0.30444000  0.33731000  0.30983000  1.0
  O  O191  1  0.30444000  0.66269000  0.69017000  1.0
  O  O192  1  0.69552000  0.69016000  0.33732000  1.0
  O  O193  1  0.69554000  0.30984000  0.66269000  1.0
  O  O194  1  0.85903000  0.91408000  0.97683000  1.0
  O  O195  1  0.14099000  0.02317000  0.91409000  1.0
  O  O196  1  0.85902000  0.08592000  0.02317000  1.0
  O  O197  1  0.14099000  0.97683000  0.08591000  1.0
  O  O198  1  0.14098000  0.41409000  0.52317000  1.0
  O  O199  1  0.14098000  0.58591000  0.47683000  1.0
  O  O200  1  0.85902000  0.47683000  0.41407000  1.0
  O  O201  1  0.85902000  0.52318000  0.58592000  1.0
  O  O202  1  0.36525000  0.70070000  0.79930000  1.0
  O  O203  1  0.63471000  0.20072000  0.70072000  1.0
  O  O204  1  0.36523000  0.29932000  0.20068000  1.0
  O  O205  1  0.63468000  0.79928000  0.29928000  1.0
  O  O206  1  0.69085000  0.77812000  0.72188000  1.0
  O  O207  1  0.30907000  0.27816000  0.77817000  1.0
  O  O208  1  0.69085000  0.22189000  0.27812000  1.0
  O  O209  1  0.30906000  0.72184000  0.22184000  1.0
  O  O210  1  0.46746000  0.56112000  0.93889000  1.0
  O  O211  1  0.53254000  0.06113000  0.56113000  1.0
  O  O212  1  0.46748000  0.43888000  0.06111000  1.0
  O  O213  1  0.53255000  0.93886000  0.43887000  1.0
  O  O214  1  0.28127000  0.67868000  0.93076000  1.0
  O  O215  1  0.71871000  0.06926000  0.67870000  1.0
  O  O216  1  0.28131000  0.32131000  0.06926000  1.0
  O  O217  1  0.71871000  0.93073000  0.32131000  1.0
  O  O218  1  0.71872000  0.17867000  0.56926000  1.0
  O  O219  1  0.71871000  0.82130000  0.43073000  1.0
  O  O220  1  0.28130000  0.43076000  0.17867000  1.0
  O  O221  1  0.28127000  0.56925000  0.82130000  1.0
