# generated using pymatgen
data_Cu2H14C14I2N4O
_symmetry_space_group_name_H-M   'P 1'
_cell_length_a   4.20629000
_cell_length_b   18.88590000
_cell_length_c   21.41310000
_cell_angle_alpha   105.51100000
_cell_angle_beta   90.00000000
_cell_angle_gamma   90.00000000
_symmetry_Int_Tables_number   1
_chemical_formula_structural   Cu2H14C14I2N4O
_chemical_formula_sum   'Cu8 H56 C56 I8 N16 O4'
_cell_volume   1639.09387470
_cell_formula_units_Z   4
loop_
 _symmetry_equiv_pos_site_id
 _symmetry_equiv_pos_as_xyz
  1  'x, y, z'
loop_
 _atom_site_type_symbol
 _atom_site_label
 _atom_site_symmetry_multiplicity
 _atom_site_fract_x
 _atom_site_fract_y
 _atom_site_fract_z
 _atom_site_occupancy
  Cu  Cu0  1  0.02439000  0.94233000  0.29534000  1.0
  Cu  Cu1  1  0.52439000  0.55767000  0.70466000  1.0
  Cu  Cu2  1  0.97561000  0.05768000  0.70466000  1.0
  Cu  Cu3  1  0.47562000  0.44232000  0.29534000  1.0
  Cu  Cu4  1  0.47347000  0.01405000  0.18392000  1.0
  Cu  Cu5  1  0.97347000  0.48595000  0.81608000  1.0
  Cu  Cu6  1  0.52653000  0.98595000  0.81608000  1.0
  Cu  Cu7  1  0.02653000  0.51405000  0.18392000  1.0
  H  H8  1  0.10454000  0.96162000  0.42459000  1.0
  H  H9  1  0.60455000  0.53838000  0.57541000  1.0
  H  H10  1  0.89546000  0.03838000  0.57541000  1.0
  H  H11  1  0.39546000  0.46162000  0.42459000  1.0
  H  H12  1  0.36049000  0.96263000  0.53041000  1.0
  H  H13  1  0.86049000  0.53737000  0.46959000  1.0
  H  H14  1  0.63951000  0.03737000  0.46959000  1.0
  H  H15  1  0.13951000  0.46263000  0.53041000  1.0
  H  H16  1  0.63508000  0.85220000  0.54419000  1.0
  H  H17  1  0.13508000  0.64780000  0.45581000  1.0
  H  H18  1  0.36492000  0.14780000  0.45581000  1.0
  H  H19  1  0.86492000  0.35220000  0.54419000  1.0
  H  H20  1  0.63127000  0.73604000  0.45490000  1.0
  H  H21  1  0.13128000  0.76396000  0.54510000  1.0
  H  H22  1  0.36872000  0.26396000  0.54510000  1.0
  H  H23  1  0.86872000  0.23604000  0.45490000  1.0
  H  H24  1  0.43579000  0.66579000  0.34511000  1.0
  H  H25  1  0.93579000  0.83421000  0.65488000  1.0
  H  H26  1  0.56421000  0.33421000  0.65488000  1.0
  H  H27  1  0.06420000  0.16579000  0.34512000  1.0
  H  H28  1  0.11953000  0.66654000  0.24675000  1.0
  H  H29  1  0.61953000  0.83346000  0.75325000  1.0
  H  H30  1  0.88047000  0.33346000  0.75325000  1.0
  H  H31  1  0.38047000  0.16654000  0.24675000  1.0
  H  H32  1  0.80609000  0.72959000  0.18743000  1.0
  H  H33  1  0.30610000  0.77041000  0.81257000  1.0
  H  H34  1  0.19391000  0.27041000  0.81257000  1.0
  H  H35  1  0.69391000  0.22959000  0.18744000  1.0
  H  H36  1  0.64788000  0.81811000  0.22818000  1.0
  H  H37  1  0.14789000  0.68189000  0.77183000  1.0
  H  H38  1  0.35212000  0.18189000  0.77183000  1.0
  H  H39  1  0.85212000  0.31811000  0.22818000  1.0
  H  H40  1  0.19168000  0.73586000  0.09199000  1.0
  H  H41  1  0.69168000  0.76414000  0.90801000  1.0
  H  H42  1  0.80832000  0.26414000  0.90801000  1.0
  H  H43  1  0.30832000  0.23586000  0.09199000  1.0
  H  H44  1  0.71382000  0.80394000  0.03294000  1.0
  H  H45  1  0.21382000  0.69606000  0.96706000  1.0
  H  H46  1  0.28618000  0.19606000  0.96706000  1.0
  H  H47  1  0.78618000  0.30394000  0.03294000  1.0
  H  H48  1  0.80534000  0.89460000  0.07883000  1.0
  H  H49  1  0.30535000  0.60540000  0.92117000  1.0
  H  H50  1  0.19465000  0.10541000  0.92117000  1.0
  H  H51  1  0.69465000  0.39459000  0.07883000  1.0
  H  H52  1  0.31545000  0.93966000  0.03077000  1.0
  H  H53  1  0.81545000  0.56034000  0.96923000  1.0
  H  H54  1  0.68455000  0.06034000  0.96923000  1.0
  H  H55  1  0.18455000  0.43966000  0.03077000  1.0
  H  H56  1  0.64285000  0.90774000  0.97805000  1.0
  H  H57  1  0.14285000  0.59226000  0.02195000  1.0
  H  H58  1  0.35715000  0.09226000  0.02195000  1.0
  H  H59  1  0.85715000  0.40774000  0.97805000  1.0
  H  H60  1  0.16993000  0.85794000  0.93222000  1.0
  H  H61  1  0.66993000  0.64206000  0.06778000  1.0
  H  H62  1  0.83007000  0.14206000  0.06778000  1.0
  H  H63  1  0.33007000  0.35794000  0.93222000  1.0
  C  C64  1  0.21974000  0.91278000  0.43212000  1.0
  C  C65  1  0.71975000  0.58721000  0.56788000  1.0
  C  C66  1  0.78025000  0.08722000  0.56788000  1.0
  C  C67  1  0.28026000  0.41279000  0.43212000  1.0
  C  C68  1  0.36359000  0.91314000  0.49009000  1.0
  C  C69  1  0.86360000  0.58686000  0.50991000  1.0
  C  C70  1  0.63641000  0.08686000  0.50991000  1.0
  C  C71  1  0.13641000  0.41314000  0.49009000  1.0
  C  C72  1  0.51800000  0.84971000  0.49823000  1.0
  C  C73  1  0.01800000  0.65029000  0.50177000  1.0
  C  C74  1  0.48201000  0.15029000  0.50177000  1.0
  C  C75  1  0.98200000  0.34971000  0.49823000  1.0
  C  C76  1  0.51634000  0.78557000  0.44897000  1.0
  C  C77  1  0.01634000  0.71443000  0.55103000  1.0
  C  C78  1  0.48365000  0.21443000  0.55103000  1.0
  C  C79  1  0.98366000  0.28557000  0.44897000  1.0
  C  C80  1  0.35781000  0.78233000  0.38988000  1.0
  C  C81  1  0.85782000  0.71766000  0.61012000  1.0
  C  C82  1  0.64218000  0.21767000  0.61012000  1.0
  C  C83  1  0.14218000  0.28234000  0.38988000  1.0
  C  C84  1  0.21388000  0.84766000  0.38079000  1.0
  C  C85  1  0.71389000  0.65234000  0.61921000  1.0
  C  C86  1  0.78612000  0.15234000  0.61921000  1.0
  C  C87  1  0.28612000  0.34766000  0.38079000  1.0
  C  C88  1  0.32796000  0.71647000  0.33988000  1.0
  C  C89  1  0.82796000  0.78353000  0.66012000  1.0
  C  C90  1  0.67204000  0.28353000  0.66012000  1.0
  C  C91  1  0.17204000  0.21647000  0.33988000  1.0
  C  C92  1  0.15724000  0.71691000  0.28510000  1.0
  C  C93  1  0.65724000  0.78309000  0.71490000  1.0
  C  C94  1  0.84276000  0.28309000  0.71490000  1.0
  C  C95  1  0.34276000  0.21691000  0.28510000  1.0
  C  C96  1  0.03524000  0.78377000  0.27816000  1.0
  C  C97  1  0.53525000  0.71623000  0.72184000  1.0
  C  C98  1  0.96476000  0.21623000  0.72184000  1.0
  C  C99  1  0.46476000  0.28377000  0.27816000  1.0
  C  C100  1  0.86579000  0.78527000  0.21623000  1.0
  C  C101  1  0.36580000  0.71473000  0.78377000  1.0
  C  C102  1  0.13420000  0.21474000  0.78377000  1.0
  C  C103  1  0.63420000  0.28526000  0.21623000  1.0
  C  C104  1  0.22267000  0.79220000  0.12038000  1.0
  C  C105  1  0.72267000  0.70780000  0.87962000  1.0
  C  C106  1  0.77732000  0.20780000  0.87962000  1.0
  C  C107  1  0.27733000  0.29220000  0.12038000  1.0
  C  C108  1  0.39449000  0.85081000  0.11015000  1.0
  C  C109  1  0.89449000  0.64919000  0.88985000  1.0
  C  C110  1  0.60551000  0.14920000  0.88985000  1.0
  C  C111  1  0.10551000  0.35080000  0.11015000  1.0
  C  C112  1  0.61006000  0.85760000  0.05692000  1.0
  C  C113  1  0.11006000  0.64240000  0.94308000  1.0
  C  C114  1  0.38993000  0.14240000  0.94308000  1.0
  C  C115  1  0.88993000  0.35759000  0.05692000  1.0
  C  C116  1  0.45460000  0.89032000  0.00663000  1.0
  C  C117  1  0.95460000  0.60968000  0.99337000  1.0
  C  C118  1  0.54540000  0.10968000  0.99337000  1.0
  C  C119  1  0.04540000  0.39032000  0.00663000  1.0
  I  I120  1  0.53972000  0.02756000  0.31670000  1.0
  I  I121  1  0.03972000  0.47244000  0.68330000  1.0
  I  I122  1  0.46028000  0.97245000  0.68331000  1.0
  I  I123  1  0.96029000  0.52755000  0.31669000  1.0
  I  I124  1  0.95515000  0.07511000  0.14954000  1.0
  I  I125  1  0.45515000  0.42489000  0.85046000  1.0
  I  I126  1  0.04485000  0.92489000  0.85046000  1.0
  I  I127  1  0.54485000  0.57511000  0.14954000  1.0
  N  N128  1  0.06729000  0.84792000  0.32338000  1.0
  N  N129  1  0.56730000  0.65208000  0.67662000  1.0
  N  N130  1  0.93271000  0.15208000  0.67662000  1.0
  N  N131  1  0.43271000  0.34792000  0.32338000  1.0
  N  N132  1  0.06245000  0.82013000  0.17669000  1.0
  N  N133  1  0.56246000  0.67987000  0.82331000  1.0
  N  N134  1  0.93755000  0.17987000  0.82331000  1.0
  N  N135  1  0.43755000  0.32013000  0.17669000  1.0
  N  N136  1  0.12892000  0.89170000  0.20122000  1.0
  N  N137  1  0.62892000  0.60830000  0.79878000  1.0
  N  N138  1  0.87109000  0.10830000  0.79878000  1.0
  N  N139  1  0.37108000  0.39170000  0.20122000  1.0
  N  N140  1  0.33319000  0.91034000  0.16141000  1.0
  N  N141  1  0.83319000  0.58966000  0.83859000  1.0
  N  N142  1  0.66681000  0.08967000  0.83859000  1.0
  N  N143  1  0.16681000  0.41033000  0.16141000  1.0
  O  O144  1  0.25672000  0.83548000  0.96522000  1.0
  O  O145  1  0.75672000  0.66452000  0.03478000  1.0
  O  O146  1  0.74328000  0.16452000  0.03478000  1.0
  O  O147  1  0.24328000  0.33548000  0.96522000  1.0
