# generated using pymatgen
data_CuH9C7SN2Cl
_symmetry_space_group_name_H-M   'P 1'
_cell_length_a   7.62243000
_cell_length_b   7.87153000
_cell_length_c   15.53700000
_cell_angle_alpha   90.00010000
_cell_angle_beta   90.00000000
_cell_angle_gamma   109.16200000
_symmetry_Int_Tables_number   1
_chemical_formula_structural   CuH9C7SN2Cl
_chemical_formula_sum   'Cu4 H36 C28 S4 N8 Cl4'
_cell_volume   880.57241107
_cell_formula_units_Z   4
loop_
 _symmetry_equiv_pos_site_id
 _symmetry_equiv_pos_as_xyz
  1  'x, y, z'
loop_
 _atom_site_type_symbol
 _atom_site_label
 _atom_site_symmetry_multiplicity
 _atom_site_fract_x
 _atom_site_fract_y
 _atom_site_fract_z
 _atom_site_occupancy
  Cu  Cu0  1  0.13377000  0.51784000  0.75496000  1.0
  Cu  Cu1  1  0.36623000  0.48216000  0.25496000  1.0
  Cu  Cu2  1  0.86623000  0.48216000  0.24504000  1.0
  Cu  Cu3  1  0.63377000  0.51784000  0.74504000  1.0
  H  H4  1  0.61100000  0.00000000  0.87302000  1.0
  H  H5  1  0.88900000  0.00000000  0.37302000  1.0
  H  H6  1  0.38900000  0.00000000  0.12698000  1.0
  H  H7  1  0.11100000  0.00000000  0.62698000  1.0
  H  H8  1  0.48690000  0.14033000  0.83591000  1.0
  H  H9  1  0.01310000  0.85967000  0.33591000  1.0
  H  H10  1  0.51310000  0.85967000  0.16410000  1.0
  H  H11  1  0.98690000  0.14033000  0.66409000  1.0
  H  H12  1  0.55336000  0.14512000  0.94712000  1.0
  H  H13  1  0.94664000  0.85488000  0.44712000  1.0
  H  H14  1  0.44664000  0.85487000  0.05289000  1.0
  H  H15  1  0.05337000  0.14512000  0.55288000  1.0
  H  H16  1  0.07935000  0.55513000  0.56519000  1.0
  H  H17  1  0.42065000  0.44487000  0.06519000  1.0
  H  H18  1  0.92066000  0.44488000  0.43481000  1.0
  H  H19  1  0.57935000  0.55512000  0.93481000  1.0
  H  H20  1  0.24986000  0.75030000  0.44808000  1.0
  H  H21  1  0.25014000  0.24971000  0.94808000  1.0
  H  H22  1  0.75015000  0.24971000  0.55192000  1.0
  H  H23  1  0.74985000  0.75029000  0.05192000  1.0
  H  H24  1  0.61048000  0.08058000  0.64366000  1.0
  H  H25  1  0.88951000  0.91942000  0.14366000  1.0
  H  H26  1  0.38951000  0.91942000  0.35634000  1.0
  H  H27  1  0.11048000  0.08057000  0.85634000  1.0
  H  H28  1  0.42875000  0.86380000  0.75093000  1.0
  H  H29  1  0.07125000  0.13620000  0.25093000  1.0
  H  H30  1  0.57125000  0.13621000  0.24906000  1.0
  H  H31  1  0.92875000  0.86379000  0.74907000  1.0
  H  H32  1  0.84442000  0.31889000  0.98793000  1.0
  H  H33  1  0.65558000  0.68111000  0.48793000  1.0
  H  H34  1  0.15558000  0.68111000  0.01207000  1.0
  H  H35  1  0.34443000  0.31889000  0.51207000  1.0
  H  H36  1  0.01372000  0.44594000  0.91279000  1.0
  H  H37  1  0.48627000  0.55406000  0.41280000  1.0
  H  H38  1  0.98628000  0.55405000  0.08721000  1.0
  H  H39  1  0.51373000  0.44594000  0.58720000  1.0
  C  C40  1  0.77647000  0.27543000  0.86042000  1.0
  C  C41  1  0.72353000  0.72457000  0.36043000  1.0
  C  C42  1  0.22353000  0.72457000  0.13958000  1.0
  C  C43  1  0.27647000  0.27543000  0.63957000  1.0
  C  C44  1  0.59589000  0.13348000  0.88044000  1.0
  C  C45  1  0.90411000  0.86652000  0.38045000  1.0
  C  C46  1  0.40411000  0.86652000  0.11956000  1.0
  C  C47  1  0.09589000  0.13348000  0.61955000  1.0
  C  C48  1  0.19959000  0.67227000  0.57948000  1.0
  C  C49  1  0.30041000  0.32773000  0.07948000  1.0
  C  C50  1  0.80042000  0.32774000  0.42052000  1.0
  C  C51  1  0.69958000  0.67226000  0.92052000  1.0
  C  C52  1  0.29503000  0.78514000  0.51411000  1.0
  C  C53  1  0.20497000  0.21486000  0.01412000  1.0
  C  C54  1  0.70498000  0.21487000  0.48588000  1.0
  C  C55  1  0.79503000  0.78513000  0.98588000  1.0
  C  C56  1  0.44741000  0.93839000  0.53380000  1.0
  C  C57  1  0.05259000  0.06162000  0.03380000  1.0
  C  C58  1  0.55261000  0.06162000  0.46620000  1.0
  C  C59  1  0.94740000  0.93838000  0.96620000  1.0
  C  C60  1  0.49467000  0.96644000  0.62135000  1.0
  C  C61  1  0.00532000  0.03356000  0.12135000  1.0
  C  C62  1  0.50533000  0.03357000  0.37865000  1.0
  C  C63  1  0.99467000  0.96643000  0.87865000  1.0
  C  C64  1  0.39328000  0.84643000  0.68282000  1.0
  C  C65  1  0.10671000  0.15356000  0.18282000  1.0
  C  C66  1  0.60672000  0.15357000  0.31718000  1.0
  C  C67  1  0.89328000  0.84643000  0.81718000  1.0
  S  S68  1  0.83718000  0.34093000  0.75660000  1.0
  S  S69  1  0.66282000  0.65907000  0.25660000  1.0
  S  S70  1  0.16282000  0.65907000  0.24340000  1.0
  S  S71  1  0.33718000  0.34093000  0.74340000  1.0
  N  N72  1  0.88763000  0.34740000  0.92496000  1.0
  N  N73  1  0.61236000  0.65260000  0.42496000  1.0
  N  N74  1  0.11237000  0.65260000  0.07505000  1.0
  N  N75  1  0.38764000  0.34740000  0.57504000  1.0
  N  N76  1  0.24621000  0.70046000  0.66340000  1.0
  N  N77  1  0.25379000  0.29954000  0.16340000  1.0
  N  N78  1  0.75380000  0.29955000  0.33659000  1.0
  N  N79  1  0.74620000  0.70045000  0.83660000  1.0
  Cl  Cl80  1  0.26222000  0.66501000  0.88449000  1.0
  Cl  Cl81  1  0.23778000  0.33498000  0.38449000  1.0
  Cl  Cl82  1  0.73778000  0.33499000  0.11551000  1.0
  Cl  Cl83  1  0.76222000  0.66502000  0.61551000  1.0
