# generated using pymatgen
data_CuH8C9SN5O2
_symmetry_space_group_name_H-M   'P 1'
_cell_length_a   5.79623000
_cell_length_b   5.79625000
_cell_length_c   17.01940000
_cell_angle_alpha   90.00080000
_cell_angle_beta   90.00120000
_cell_angle_gamma   78.32800000
_symmetry_Int_Tables_number   1
_chemical_formula_structural   CuH8C9SN5O2
_chemical_formula_sum   'Cu2 H16 C18 S2 N10 O4'
_cell_volume   559.96693591
_cell_formula_units_Z   2
loop_
 _symmetry_equiv_pos_site_id
 _symmetry_equiv_pos_as_xyz
  1  'x, y, z'
loop_
 _atom_site_type_symbol
 _atom_site_label
 _atom_site_symmetry_multiplicity
 _atom_site_fract_x
 _atom_site_fract_y
 _atom_site_fract_z
 _atom_site_occupancy
  Cu  Cu0  1  0.81382000  0.79258000  0.25000000  1.0
  Cu  Cu1  1  0.20743000  0.18618000  0.75001000  1.0
  H  H2  1  0.19962000  0.77952000  0.12758000  1.0
  H  H3  1  0.22049000  0.80039000  0.87242000  1.0
  H  H4  1  0.22053000  0.80036000  0.62758000  1.0
  H  H5  1  0.19963000  0.77950000  0.37241000  1.0
  H  H6  1  0.96057000  0.68559000  0.96233000  1.0
  H  H7  1  0.31440000  0.03944000  0.03766000  1.0
  H  H8  1  0.31442000  0.03942000  0.46233000  1.0
  H  H9  1  0.96059000  0.68558000  0.53767000  1.0
  H  H10  1  0.67407000  0.53522000  0.07407000  1.0
  H  H11  1  0.46475000  0.32593000  0.92593000  1.0
  H  H12  1  0.46477000  0.32590000  0.57408000  1.0
  H  H13  1  0.67408000  0.53523000  0.42593000  1.0
  H  H14  1  0.55956000  0.23914000  0.16610000  1.0
  H  H15  1  0.76084000  0.44045000  0.83390000  1.0
  H  H16  1  0.76085000  0.44041000  0.66611000  1.0
  H  H17  1  0.55957000  0.23916000  0.33390000  1.0
  C  C18  1  0.36110000  0.59812000  0.25000000  1.0
  C  C19  1  0.40183000  0.63890000  0.75000000  1.0
  C  C20  1  0.08084000  0.94839000  0.11812000  1.0
  C  C21  1  0.05161000  0.91919000  0.88188000  1.0
  C  C22  1  0.05160000  0.91915000  0.61812000  1.0
  C  C23  1  0.08083000  0.94839000  0.38188000  1.0
  C  C24  1  0.01981000  0.31946000  0.05047000  1.0
  C  C25  1  0.68056000  0.98021000  0.94953000  1.0
  C  C26  1  0.68057000  0.98015000  0.55048000  1.0
  C  C27  1  0.01980000  0.31942000  0.44954000  1.0
  C  C28  1  0.79234000  0.36829000  0.08692000  1.0
  C  C29  1  0.63171000  0.20765000  0.91307000  1.0
  C  C30  1  0.63174000  0.20764000  0.58693000  1.0
  C  C31  1  0.79237000  0.36829000  0.41308000  1.0
  C  C32  1  0.73113000  0.20612000  0.13723000  1.0
  C  C33  1  0.79390000  0.26888000  0.86277000  1.0
  C  C34  1  0.79389000  0.26885000  0.63724000  1.0
  C  C35  1  0.73113000  0.20612000  0.36277000  1.0
  S  S36  1  0.13402000  0.47047000  0.25000000  1.0
  S  S37  1  0.52951000  0.86594000  0.75000000  1.0
  N  N38  1  0.52624000  0.69015000  0.25000000  1.0
  N  N39  1  0.30984000  0.47378000  0.75000000  1.0
  N  N40  1  0.87711000  0.99521000  0.15548000  1.0
  N  N41  1  0.00482000  0.12292000  0.84450000  1.0
  N  N42  1  0.00484000  0.12290000  0.65550000  1.0
  N  N43  1  0.87711000  0.99519000  0.34450000  1.0
  N  N44  1  0.15277000  0.09787000  0.06791000  1.0
  N  N45  1  0.90213000  0.84722000  0.93208000  1.0
  N  N46  1  0.90212000  0.84723000  0.56790000  1.0
  N  N47  1  0.15280000  0.09786000  0.43209000  1.0
  O  O48  1  0.10597000  0.45175000  0.00520000  1.0
  O  O49  1  0.54823000  0.89401000  0.99479000  1.0
  O  O50  1  0.54828000  0.89401000  0.50520000  1.0
  O  O51  1  0.10600000  0.45175000  0.49480000  1.0
