# generated using pymatgen
data_CuH8C4N2Cl2O
_symmetry_space_group_name_H-M   'P 1'
_cell_length_a   5.74285000
_cell_length_b   10.41100000
_cell_length_c   13.43170000
_cell_angle_alpha   97.78900000
_cell_angle_beta   93.92430000
_cell_angle_gamma   102.29500000
_symmetry_Int_Tables_number   1
_chemical_formula_structural   CuH8C4N2Cl2O
_chemical_formula_sum   'Cu4 H32 C16 N8 Cl8 O4'
_cell_volume   773.47046724
_cell_formula_units_Z   4
loop_
 _symmetry_equiv_pos_site_id
 _symmetry_equiv_pos_as_xyz
  1  'x, y, z'
loop_
 _atom_site_type_symbol
 _atom_site_label
 _atom_site_symmetry_multiplicity
 _atom_site_fract_x
 _atom_site_fract_y
 _atom_site_fract_z
 _atom_site_occupancy
  Cu  Cu0  1  0.77113000  0.58033000  0.99469000  1.0
  Cu  Cu1  1  0.22886000  0.41969000  0.00531000  1.0
  Cu  Cu2  1  0.23189000  0.90894000  0.48559000  1.0
  Cu  Cu3  1  0.76811000  0.09106000  0.51441000  1.0
  H  H4  1  0.64018000  0.42682000  0.77455000  1.0
  H  H5  1  0.35983000  0.57319000  0.22546000  1.0
  H  H6  1  0.17104000  0.65382000  0.84996000  1.0
  H  H7  1  0.82897000  0.34618000  0.15003000  1.0
  H  H8  1  0.35911000  0.40882000  0.60068000  1.0
  H  H9  1  0.64089000  0.59118000  0.39933000  1.0
  H  H10  1  0.66830000  0.48884000  0.61370000  1.0
  H  H11  1  0.33171000  0.51116000  0.38630000  1.0
  H  H12  1  0.38535000  0.63200000  0.55375000  1.0
  H  H13  1  0.61463000  0.36798000  0.44624000  1.0
  H  H14  1  0.58091000  0.70674000  0.66344000  1.0
  H  H15  1  0.41907000  0.29325000  0.33654000  1.0
  H  H16  1  0.17400000  0.73548000  0.69402000  1.0
  H  H17  1  0.82599000  0.26452000  0.30596000  1.0
  H  H18  1  0.05180000  0.56319000  0.65478000  1.0
  H  H19  1  0.94819000  0.43680000  0.34522000  1.0
  H  H20  1  0.77918000  0.82035000  0.32395000  1.0
  H  H21  1  0.22083000  0.17966000  0.67606000  1.0
  H  H22  1  0.30422000  0.04990000  0.29426000  1.0
  H  H23  1  0.69579000  0.95010000  0.70574000  1.0
  H  H24  1  0.58610000  0.75322000  0.12837000  1.0
  H  H25  1  0.41388000  0.24678000  0.87164000  1.0
  H  H26  1  0.89353000  0.82857000  0.16285000  1.0
  H  H27  1  0.10646000  0.17143000  0.83714000  1.0
  H  H28  1  0.81804000  0.05130000  0.15575000  1.0
  H  H29  1  0.18196000  0.94870000  0.84425000  1.0
  H  H30  1  0.67962000  0.94706000  0.04314000  1.0
  H  H31  1  0.32037000  0.05294000  0.95686000  1.0
  H  H32  1  0.41278000  0.09049000  0.13018000  1.0
  H  H33  1  0.58722000  0.90950000  0.86982000  1.0
  H  H34  1  0.28329000  0.91629000  0.10818000  1.0
  H  H35  1  0.71670000  0.08372000  0.89182000  1.0
  C  C36  1  0.40834000  0.53790000  0.81965000  1.0
  C  C37  1  0.59165000  0.46210000  0.18034000  1.0
  C  C38  1  0.49580000  0.49278000  0.64289000  1.0
  C  C39  1  0.50422000  0.50722000  0.35712000  1.0
  C  C40  1  0.42769000  0.62458000  0.63337000  1.0
  C  C41  1  0.57232000  0.37542000  0.36662000  1.0
  C  C42  1  0.21277000  0.63643000  0.69140000  1.0
  C  C43  1  0.78724000  0.36357000  0.30859000  1.0
  C  C44  1  0.53941000  0.93655000  0.31607000  1.0
  C  C45  1  0.46060000  0.06345000  0.68393000  1.0
  C  C46  1  0.71143000  0.84329000  0.16898000  1.0
  C  C47  1  0.28857000  0.15671000  0.83102000  1.0
  C  C48  1  0.67267000  0.96504000  0.12501000  1.0
  C  C49  1  0.32734000  0.03496000  0.87499000  1.0
  C  C50  1  0.43220000  0.99400000  0.14982000  1.0
  C  C51  1  0.56781000  0.00600000  0.85018000  1.0
  N  N52  1  0.51790000  0.47637000  0.74935000  1.0
  N  N53  1  0.48210000  0.52364000  0.25066000  1.0
  N  N54  1  0.26242000  0.61439000  0.79485000  1.0
  N  N55  1  0.73757000  0.38562000  0.20515000  1.0
  N  N56  1  0.67337000  0.85786000  0.27585000  1.0
  N  N57  1  0.32663000  0.14214000  0.72415000  1.0
  N  N58  1  0.41774000  0.00009000  0.25860000  1.0
  N  N59  1  0.58226000  0.99991000  0.74141000  1.0
  Cl  Cl60  1  0.10128000  0.62919000  0.10313000  1.0
  Cl  Cl61  1  0.89873000  0.37082000  0.89688000  1.0
  Cl  Cl62  1  0.88814000  0.74986000  0.91077000  1.0
  Cl  Cl63  1  0.11186000  0.25015000  0.08923000  1.0
  Cl  Cl64  1  0.94152000  0.87953000  0.58779000  1.0
  Cl  Cl65  1  0.05849000  0.12047000  0.41222000  1.0
  Cl  Cl66  1  0.08285000  0.72923000  0.37305000  1.0
  Cl  Cl67  1  0.91715000  0.27077000  0.62695000  1.0
  O  O68  1  0.44676000  0.52351000  0.91477000  1.0
  O  O69  1  0.55324000  0.47650000  0.08524000  1.0
  O  O70  1  0.53000000  0.95414000  0.41455000  1.0
  O  O71  1  0.47000000  0.04585000  0.58546000  1.0
