# generated using pymatgen
data_HgH11C10BrN10
_symmetry_space_group_name_H-M   'P 1'
_cell_length_a   9.99803000
_cell_length_b   12.09950000
_cell_length_c   13.00730000
_cell_angle_alpha   90.00000000
_cell_angle_beta   90.00000000
_cell_angle_gamma   101.67800000
_symmetry_Int_Tables_number   1
_chemical_formula_structural   HgH11C10BrN10
_chemical_formula_sum   'Hg4 H44 C40 Br4 N40'
_cell_volume   1540.93755021
_cell_formula_units_Z   4
loop_
 _symmetry_equiv_pos_site_id
 _symmetry_equiv_pos_as_xyz
  1  'x, y, z'
loop_
 _atom_site_type_symbol
 _atom_site_label
 _atom_site_symmetry_multiplicity
 _atom_site_fract_x
 _atom_site_fract_y
 _atom_site_fract_z
 _atom_site_occupancy
  Hg  Hg0  1  0.35261000  0.59772000  0.91356000  1.0
  Hg  Hg1  1  0.14739000  0.90227000  0.41356000  1.0
  Hg  Hg2  1  0.64739000  0.40227000  0.08644000  1.0
  Hg  Hg3  1  0.85261000  0.09773000  0.58644000  1.0
  H  H4  1  0.04484000  0.63258000  0.66960000  1.0
  H  H5  1  0.45516000  0.86742000  0.16960000  1.0
  H  H6  1  0.95516000  0.36742000  0.33040000  1.0
  H  H7  1  0.54484000  0.13258000  0.83040000  1.0
  H  H8  1  0.16061000  0.65149000  0.77276000  1.0
  H  H9  1  0.33939000  0.84851000  0.27276000  1.0
  H  H10  1  0.83940000  0.34851000  0.22724000  1.0
  H  H11  1  0.66060000  0.15149000  0.72724000  1.0
  H  H12  1  0.92806000  0.51979000  0.57775000  1.0
  H  H13  1  0.57194000  0.98021000  0.07775000  1.0
  H  H14  1  0.07194000  0.48021000  0.42225000  1.0
  H  H15  1  0.42806000  0.01979000  0.92225000  1.0
  H  H16  1  0.89837000  0.37585000  0.54037000  1.0
  H  H17  1  0.60163000  0.12415000  0.04037000  1.0
  H  H18  1  0.10163000  0.62415000  0.45963000  1.0
  H  H19  1  0.39837000  0.87585000  0.95963000  1.0
  H  H20  1  0.67783000  0.43903000  0.56008000  1.0
  H  H21  1  0.82217000  0.06097000  0.06008000  1.0
  H  H22  1  0.32217000  0.56097000  0.43992000  1.0
  H  H23  1  0.17783000  0.93903000  0.93992000  1.0
  H  H24  1  0.71606000  0.47487000  0.69131000  1.0
  H  H25  1  0.78394000  0.02513000  0.19131000  1.0
  H  H26  1  0.28394000  0.52513000  0.30869000  1.0
  H  H27  1  0.21606000  0.97487000  0.80869000  1.0
  H  H28  1  0.69086000  0.33248000  0.65068000  1.0
  H  H29  1  0.80914000  0.16752000  0.15068000  1.0
  H  H30  1  0.30914000  0.66752000  0.34932000  1.0
  H  H31  1  0.19086000  0.83248000  0.84932000  1.0
  H  H32  1  0.95888000  0.74101000  0.80828000  1.0
  H  H33  1  0.54112000  0.75899000  0.30828000  1.0
  H  H34  1  0.04112000  0.25899000  0.19172000  1.0
  H  H35  1  0.45888000  0.24101000  0.69172000  1.0
  H  H36  1  0.96979000  0.63245000  0.89925000  1.0
  H  H37  1  0.53021000  0.86755000  0.39926000  1.0
  H  H38  1  0.03021000  0.36755000  0.10075000  1.0
  H  H39  1  0.46979000  0.13245000  0.60074000  1.0
  H  H40  1  0.84711000  0.60678000  0.79886000  1.0
  H  H41  1  0.65289000  0.89322000  0.29886000  1.0
  H  H42  1  0.15289000  0.39322000  0.20114000  1.0
  H  H43  1  0.34711000  0.10678000  0.70114000  1.0
  H  H44  1  0.11855000  0.14626000  0.99107000  1.0
  H  H45  1  0.38145000  0.35374000  0.49107000  1.0
  H  H46  1  0.88145000  0.85374000  0.00893000  1.0
  H  H47  1  0.61855000  0.64626000  0.50893000  1.0
  C  C48  1  0.10714000  0.33731000  0.85341000  1.0
  C  C49  1  0.39286000  0.16269000  0.35342000  1.0
  C  C50  1  0.89286000  0.66269000  0.14659000  1.0
  C  C51  1  0.60714000  0.83731000  0.64659000  1.0
  C  C52  1  0.20287000  0.31220000  0.93141000  1.0
  C  C53  1  0.29712000  0.18780000  0.43141000  1.0
  C  C54  1  0.79712000  0.68780000  0.06859000  1.0
  C  C55  1  0.70288000  0.81220000  0.56859000  1.0
  C  C56  1  0.04724000  0.48387000  0.75937000  1.0
  C  C57  1  0.45276000  0.01613000  0.25937000  1.0
  C  C58  1  0.95276000  0.51613000  0.24063000  1.0
  C  C59  1  0.54724000  0.98387000  0.74063000  1.0
  C  C60  1  0.01451000  0.25800000  0.79480000  1.0
  C  C61  1  0.48549000  0.24200000  0.29480000  1.0
  C  C62  1  0.98549000  0.74200000  0.20520000  1.0
  C  C63  1  0.51451000  0.75800000  0.70520000  1.0
  C  C64  1  0.97792000  0.13627000  0.81192000  1.0
  C  C65  1  0.52208000  0.36373000  0.31193000  1.0
  C  C66  1  0.02208000  0.86373000  0.18808000  1.0
  C  C67  1  0.47792000  0.63627000  0.68808000  1.0
  C  C68  1  0.05709000  0.60876000  0.74987000  1.0
  C  C69  1  0.44291000  0.89124000  0.24988000  1.0
  C  C70  1  0.94291000  0.39124000  0.25012000  1.0
  C  C71  1  0.55709000  0.10876000  0.75012000  1.0
  C  C72  1  0.96455000  0.40362000  0.69413000  1.0
  C  C73  1  0.53545000  0.09638000  0.19413000  1.0
  C  C74  1  0.03545000  0.59638000  0.30587000  1.0
  C  C75  1  0.46455000  0.90362000  0.80587000  1.0
  C  C76  1  0.88638000  0.43351000  0.60358000  1.0
  C  C77  1  0.61362000  0.06650000  0.10358000  1.0
  C  C78  1  0.11361000  0.56649000  0.39642000  1.0
  C  C79  1  0.38638000  0.93350000  0.89642000  1.0
  C  C80  1  0.73384000  0.41968000  0.62787000  1.0
  C  C81  1  0.76616000  0.08032000  0.12787000  1.0
  C  C82  1  0.26616000  0.58032000  0.37213000  1.0
  C  C83  1  0.23384000  0.91968000  0.87213000  1.0
  C  C84  1  0.95164000  0.64989000  0.81813000  1.0
  C  C85  1  0.54836000  0.85011000  0.31813000  1.0
  C  C86  1  0.04836000  0.35011000  0.18187000  1.0
  C  C87  1  0.45164000  0.14989000  0.68187000  1.0
  Br  Br88  1  0.26303000  0.66584000  0.07300000  1.0
  Br  Br89  1  0.23697000  0.83416000  0.57300000  1.0
  Br  Br90  1  0.73697000  0.33416000  0.92700000  1.0
  Br  Br91  1  0.76303000  0.16584000  0.42700000  1.0
  N  N92  1  0.98573000  0.08079000  0.90005000  1.0
  N  N93  1  0.51426000  0.41921000  0.40006000  1.0
  N  N94  1  0.01426000  0.91921000  0.09995000  1.0
  N  N95  1  0.48574000  0.58079000  0.59994000  1.0
  N  N96  1  0.37851000  0.33250000  0.03056000  1.0
  N  N97  1  0.12149000  0.16750000  0.53056000  1.0
  N  N98  1  0.62149000  0.66750000  0.96944000  1.0
  N  N99  1  0.87851000  0.83250000  0.46944000  1.0
  N  N100  1  0.88795000  0.95985000  0.78457000  1.0
  N  N101  1  0.61205000  0.54014000  0.28457000  1.0
  N  N102  1  0.11205000  0.04014000  0.21543000  1.0
  N  N103  1  0.38795000  0.45986000  0.71543000  1.0
  N  N104  1  0.92881000  0.97188000  0.88072000  1.0
  N  N105  1  0.57119000  0.52812000  0.38072000  1.0
  N  N106  1  0.07119000  0.02812000  0.11928000  1.0
  N  N107  1  0.42881000  0.47188000  0.61928000  1.0
  N  N108  1  0.94906000  0.29399000  0.71515000  1.0
  N  N109  1  0.55094000  0.20601000  0.21515000  1.0
  N  N110  1  0.05094000  0.70601000  0.28485000  1.0
  N  N111  1  0.44906000  0.79399000  0.78485000  1.0
  N  N112  1  0.31788000  0.38441000  0.95804000  1.0
  N  N113  1  0.18212000  0.11559000  0.45804000  1.0
  N  N114  1  0.68212000  0.61559000  0.04196000  1.0
  N  N115  1  0.81788000  0.88441000  0.54196000  1.0
  N  N116  1  0.19723000  0.21849000  0.98888000  1.0
  N  N117  1  0.30277000  0.28151000  0.48888000  1.0
  N  N118  1  0.80277000  0.78151000  0.01112000  1.0
  N  N119  1  0.69723000  0.71849000  0.51112000  1.0
  N  N120  1  0.11816000  0.44809000  0.83488000  1.0
  N  N121  1  0.38184000  0.05191000  0.33488000  1.0
  N  N122  1  0.88184000  0.55191000  0.16512000  1.0
  N  N123  1  0.61816000  0.94809000  0.66512000  1.0
  N  N124  1  0.30696000  0.23175000  0.05024000  1.0
  N  N125  1  0.19304000  0.26825000  0.55024000  1.0
  N  N126  1  0.69304000  0.76825000  0.94976000  1.0
  N  N127  1  0.80696000  0.73175000  0.44975000  1.0
  N  N128  1  0.91775000  0.06186000  0.73994000  1.0
  N  N129  1  0.58225000  0.43813000  0.23994000  1.0
  N  N130  1  0.08225000  0.93814000  0.26006000  1.0
  N  N131  1  0.41775000  0.56187000  0.76006000  1.0
