# generated using pymatgen
data_Ti2H4C2O9
_symmetry_space_group_name_H-M   'P 1'
_cell_length_a   9.41572000
_cell_length_b   9.41571000
_cell_length_c   9.66627000
_cell_angle_alpha   90.00000000
_cell_angle_beta   90.00040000
_cell_angle_gamma   112.05600000
_symmetry_Int_Tables_number   1
_chemical_formula_structural   Ti2H4C2O9
_chemical_formula_sum   'Ti8 H16 C8 O36'
_cell_volume   794.25444119
_cell_formula_units_Z   4
loop_
 _symmetry_equiv_pos_site_id
 _symmetry_equiv_pos_as_xyz
  1  'x, y, z'
loop_
 _atom_site_type_symbol
 _atom_site_label
 _atom_site_symmetry_multiplicity
 _atom_site_fract_x
 _atom_site_fract_y
 _atom_site_fract_z
 _atom_site_occupancy
  Ti  Ti0  1  0.82803000  0.46048000  0.39722000  1.0
  Ti  Ti1  1  0.67197000  0.03952000  0.89722000  1.0
  Ti  Ti2  1  0.53954000  0.17198000  0.60280000  1.0
  Ti  Ti3  1  0.96047000  0.32803000  0.10279000  1.0
  Ti  Ti4  1  0.17197000  0.53952000  0.60278000  1.0
  Ti  Ti5  1  0.32803000  0.96048000  0.10278000  1.0
  Ti  Ti6  1  0.46047000  0.82803000  0.39721000  1.0
  Ti  Ti7  1  0.03954000  0.67197000  0.89721000  1.0
  H  H8  1  0.92301000  0.70129000  0.20124000  1.0
  H  H9  1  0.57699000  0.79870000  0.70124000  1.0
  H  H10  1  0.29871000  0.07701000  0.79877000  1.0
  H  H11  1  0.20129000  0.42300000  0.29877000  1.0
  H  H12  1  0.07699000  0.29871000  0.79875000  1.0
  H  H13  1  0.42301000  0.20129000  0.29875000  1.0
  H  H14  1  0.70128000  0.92300000  0.20124000  1.0
  H  H15  1  0.79871000  0.57700000  0.70124000  1.0
  H  H16  1  0.06000000  0.73918000  0.31008000  1.0
  H  H17  1  0.43999000  0.76082000  0.81008000  1.0
  H  H18  1  0.26081000  0.94000000  0.68992000  1.0
  H  H19  1  0.23918000  0.56001000  0.18993000  1.0
  H  H20  1  0.94000000  0.26083000  0.68993000  1.0
  H  H21  1  0.56000000  0.23919000  0.18992000  1.0
  H  H22  1  0.73917000  0.06001000  0.31007000  1.0
  H  H23  1  0.76081000  0.44000000  0.81007000  1.0
  C  C24  1  0.60560000  0.60561000  0.34004000  1.0
  C  C25  1  0.89439000  0.89439000  0.84004000  1.0
  C  C26  1  0.39440000  0.39439000  0.65996000  1.0
  C  C27  1  0.10561000  0.10561000  0.15997000  1.0
  C  C28  1  0.67153000  0.67153000  0.48244000  1.0
  C  C29  1  0.82848000  0.82847000  0.98244000  1.0
  C  C30  1  0.32848000  0.32847000  0.51756000  1.0
  C  C31  1  0.17153000  0.17153000  0.01756000  1.0
  O  O32  1  0.65141000  0.50667000  0.28911000  1.0
  O  O33  1  0.84858000  0.99332000  0.78911000  1.0
  O  O34  1  0.49333000  0.34859000  0.71089000  1.0
  O  O35  1  0.00668000  0.15142000  0.21089000  1.0
  O  O36  1  0.34859000  0.49333000  0.71088000  1.0
  O  O37  1  0.15142000  0.00667000  0.21089000  1.0
  O  O38  1  0.50667000  0.65142000  0.28911000  1.0
  O  O39  1  0.99332000  0.84858000  0.78911000  1.0
  O  O40  1  0.76546000  0.61992000  0.53493000  1.0
  O  O41  1  0.73453000  0.88006000  0.03493000  1.0
  O  O42  1  0.38010000  0.23455000  0.46507000  1.0
  O  O43  1  0.11992000  0.26546000  0.96507000  1.0
  O  O44  1  0.23454000  0.38008000  0.46507000  1.0
  O  O45  1  0.26546000  0.11992000  0.96507000  1.0
  O  O46  1  0.61991000  0.76546000  0.53493000  1.0
  O  O47  1  0.88010000  0.73454000  0.03493000  1.0
  O  O48  1  0.84601000  0.34601000  0.25000000  1.0
  O  O49  1  0.65399000  0.15398000  0.75001000  1.0
  O  O50  1  0.15399000  0.65398000  0.75000000  1.0
  O  O51  1  0.34602000  0.84602000  0.25000000  1.0
  O  O52  1  0.00000000  0.50000000  0.50000000  1.0
  O  O53  1  0.50000000  0.00000000  0.00000000  1.0
  O  O54  1  0.50000000  0.00000000  0.50000000  1.0
  O  O55  1  0.00000000  0.50000000  0.00000000  1.0
  O  O56  1  0.69210000  0.30791000  0.50001000  1.0
  O  O57  1  0.80791000  0.19208000  0.00000000  1.0
  O  O58  1  0.30791000  0.69209000  0.49999000  1.0
  O  O59  1  0.19210000  0.80791000  0.99999000  1.0
  O  O60  1  0.95212000  0.67711000  0.29455000  1.0
  O  O61  1  0.54788000  0.82289000  0.79455000  1.0
  O  O62  1  0.32290000  0.04789000  0.70544000  1.0
  O  O63  1  0.17710000  0.45211000  0.20545000  1.0
  O  O64  1  0.04788000  0.32289000  0.70546000  1.0
  O  O65  1  0.45213000  0.17712000  0.20545000  1.0
  O  O66  1  0.67710000  0.95212000  0.29455000  1.0
  O  O67  1  0.82290000  0.54788000  0.79454000  1.0
