# generated using pymatgen
data_CdH18C24(N3O2)2
_symmetry_space_group_name_H-M   'P 1'
_cell_length_a   10.19730000
_cell_length_b   11.11730000
_cell_length_c   22.44400000
_cell_angle_alpha   89.99890000
_cell_angle_beta   89.99920000
_cell_angle_gamma   76.62400000
_symmetry_Int_Tables_number   1
_chemical_formula_structural   CdH18C24(N3O2)2
_chemical_formula_sum   'Cd4 H72 C96 N24 O16'
_cell_volume   2475.37427214
_cell_formula_units_Z   4
loop_
 _symmetry_equiv_pos_site_id
 _symmetry_equiv_pos_as_xyz
  1  'x, y, z'
loop_
 _atom_site_type_symbol
 _atom_site_label
 _atom_site_symmetry_multiplicity
 _atom_site_fract_x
 _atom_site_fract_y
 _atom_site_fract_z
 _atom_site_occupancy
  Cd  Cd0  1  0.14802000  0.18740000  0.91479000  1.0
  Cd  Cd1  1  0.35199000  0.81259000  0.41479000  1.0
  Cd  Cd2  1  0.85200000  0.81260000  0.08521000  1.0
  Cd  Cd3  1  0.64800000  0.18741000  0.58521000  1.0
  H  H4  1  0.30849000  0.08030000  0.21670000  1.0
  H  H5  1  0.19151000  0.91969000  0.71671000  1.0
  H  H6  1  0.69153000  0.91970000  0.78330000  1.0
  H  H7  1  0.80846000  0.08031000  0.28330000  1.0
  H  H8  1  0.07023000  0.39952000  0.12568000  1.0
  H  H9  1  0.42977000  0.60048000  0.62568000  1.0
  H  H10  1  0.92978000  0.60047000  0.87432000  1.0
  H  H11  1  0.57022000  0.39953000  0.37432000  1.0
  H  H12  1  0.10275000  0.39949000  0.31731000  1.0
  H  H13  1  0.39727000  0.60051000  0.81731000  1.0
  H  H14  1  0.89725000  0.60051000  0.68269000  1.0
  H  H15  1  0.60273000  0.39951000  0.18269000  1.0
  H  H16  1  0.07120000  0.28192000  0.05094000  1.0
  H  H17  1  0.42881000  0.71808000  0.55094000  1.0
  H  H18  1  0.92881000  0.71808000  0.94906000  1.0
  H  H19  1  0.57118000  0.28191000  0.44906000  1.0
  H  H20  1  0.38592000  0.97543000  0.01096000  1.0
  H  H21  1  0.11407000  0.02456000  0.51095000  1.0
  H  H22  1  0.61408000  0.02456000  0.98904000  1.0
  H  H23  1  0.88592000  0.97544000  0.48903000  1.0
  H  H24  1  0.40163000  0.02290000  0.13013000  1.0
  H  H25  1  0.09835000  0.97710000  0.63012000  1.0
  H  H26  1  0.59838000  0.97710000  0.86987000  1.0
  H  H27  1  0.90163000  0.02292000  0.36987000  1.0
  H  H28  1  0.06062000  0.59770000  0.13891000  1.0
  H  H29  1  0.43940000  0.40231000  0.63891000  1.0
  H  H30  1  0.93941000  0.40231000  0.86110000  1.0
  H  H31  1  0.56059000  0.59770000  0.36109000  1.0
  H  H32  1  0.76545000  0.77405000  0.26148000  1.0
  H  H33  1  0.73454000  0.22595000  0.76148000  1.0
  H  H34  1  0.23455000  0.22595000  0.73852000  1.0
  H  H35  1  0.26544000  0.77406000  0.23852000  1.0
  H  H36  1  0.88025000  0.54012000  0.30377000  1.0
  H  H37  1  0.61976000  0.45988000  0.80377000  1.0
  H  H38  1  0.11974000  0.45988000  0.69622000  1.0
  H  H39  1  0.38025000  0.54013000  0.19622000  1.0
  H  H40  1  0.21782000  0.99164000  0.30455000  1.0
  H  H41  1  0.28218000  0.00835000  0.80456000  1.0
  H  H42  1  0.78218000  0.00837000  0.69544000  1.0
  H  H43  1  0.71780000  0.99164000  0.19543000  1.0
  H  H44  1  0.39465000  0.11095000  0.45651000  1.0
  H  H45  1  0.10535000  0.88902000  0.95652000  1.0
  H  H46  1  0.60534000  0.88905000  0.54348000  1.0
  H  H47  1  0.89465000  0.11098000  0.04348000  1.0
  H  H48  1  0.32471000  0.30872000  0.37658000  1.0
  H  H49  1  0.17528000  0.69126000  0.87658000  1.0
  H  H50  1  0.67528000  0.69128000  0.62342000  1.0
  H  H51  1  0.82471000  0.30874000  0.12342000  1.0
  H  H52  1  0.53275000  0.72363000  0.89288000  1.0
  H  H53  1  0.96727000  0.27635000  0.39289000  1.0
  H  H54  1  0.46725000  0.27637000  0.10712000  1.0
  H  H55  1  0.03275000  0.72363000  0.60712000  1.0
  H  H56  1  0.60225000  0.70772000  0.96566000  1.0
  H  H57  1  0.89776000  0.29226000  0.46567000  1.0
  H  H58  1  0.39775000  0.29228000  0.03434000  1.0
  H  H59  1  0.10225000  0.70773000  0.53434000  1.0
  H  H60  1  0.42821000  0.71317000  0.95474000  1.0
  H  H61  1  0.07181000  0.28680000  0.45475000  1.0
  H  H62  1  0.57180000  0.28682000  0.04525000  1.0
  H  H63  1  0.92820000  0.71319000  0.54526000  1.0
  H  H64  1  0.64803000  0.18197000  0.90643000  1.0
  H  H65  1  0.85197000  0.81801000  0.40643000  1.0
  H  H66  1  0.35197000  0.81803000  0.09358000  1.0
  H  H67  1  0.14802000  0.18198000  0.59357000  1.0
  H  H68  1  0.35468000  0.52710000  0.91768000  1.0
  H  H69  1  0.14534000  0.47289000  0.41770000  1.0
  H  H70  1  0.64533000  0.47291000  0.08232000  1.0
  H  H71  1  0.85467000  0.52711000  0.58232000  1.0
  H  H72  1  0.77445000  0.51390000  0.94978000  1.0
  H  H73  1  0.72557000  0.48608000  0.44979000  1.0
  H  H74  1  0.22557000  0.48610000  0.05022000  1.0
  H  H75  1  0.27444000  0.51391000  0.55023000  1.0
  C  C76  1  0.24355000  0.17291000  0.21735000  1.0
  C  C77  1  0.25644000  0.82709000  0.71735000  1.0
  C  C78  1  0.75646000  0.82709000  0.78265000  1.0
  C  C79  1  0.74353000  0.17291000  0.28265000  1.0
  C  C80  1  0.19295000  0.23245000  0.16455000  1.0
  C  C81  1  0.30704000  0.76755000  0.66455000  1.0
  C  C82  1  0.80706000  0.76755000  0.83545000  1.0
  C  C83  1  0.69294000  0.23246000  0.33544000  1.0
  C  C84  1  0.11010000  0.35183000  0.16643000  1.0
  C  C85  1  0.38989000  0.64817000  0.66643000  1.0
  C  C86  1  0.88989000  0.64817000  0.83357000  1.0
  C  C87  1  0.61009000  0.35184000  0.33357000  1.0
  C  C88  1  0.07847000  0.41106000  0.22135000  1.0
  C  C89  1  0.42153000  0.58895000  0.72136000  1.0
  C  C90  1  0.92152000  0.58895000  0.77864000  1.0
  C  C91  1  0.57846000  0.41106000  0.27864000  1.0
  C  C92  1  0.12765000  0.35298000  0.27466000  1.0
  C  C93  1  0.37236000  0.64702000  0.77466000  1.0
  C  C94  1  0.87235000  0.64702000  0.72534000  1.0
  C  C95  1  0.62764000  0.35299000  0.22534000  1.0
  C  C96  1  0.20957000  0.23393000  0.27156000  1.0
  C  C97  1  0.29043000  0.76606000  0.77157000  1.0
  C  C98  1  0.79043000  0.76607000  0.72844000  1.0
  C  C99  1  0.70956000  0.23394000  0.22843000  1.0
  C  C100  1  0.15855000  0.20584000  0.05655000  1.0
  C  C101  1  0.34145000  0.79417000  0.55655000  1.0
  C  C102  1  0.84146000  0.79416000  0.94345000  1.0
  C  C103  1  0.65854000  0.20583000  0.44345000  1.0
  C  C104  1  0.32206000  0.04710000  0.03753000  1.0
  C  C105  1  0.17794000  0.95290000  0.53752000  1.0
  C  C106  1  0.67794000  0.95290000  0.96247000  1.0
  C  C107  1  0.82207000  0.04710000  0.46247000  1.0
  C  C108  1  0.33016000  0.06995000  0.09721000  1.0
  C  C109  1  0.16983000  0.93005000  0.59720000  1.0
  C  C110  1  0.66985000  0.93005000  0.90279000  1.0
  C  C111  1  0.83016000  0.06996000  0.40279000  1.0
  C  C112  1  0.99661000  0.61727000  0.17793000  1.0
  C  C113  1  0.50340000  0.38274000  0.67793000  1.0
  C  C114  1  0.00341000  0.38274000  0.82207000  1.0
  C  C115  1  0.49659000  0.61727000  0.32207000  1.0
  C  C116  1  0.84531000  0.70356000  0.24184000  1.0
  C  C117  1  0.65469000  0.29644000  0.74185000  1.0
  C  C118  1  0.15469000  0.29645000  0.75815000  1.0
  C  C119  1  0.34529000  0.70356000  0.25815000  1.0
  C  C120  1  0.89991000  0.58733000  0.26366000  1.0
  C  C121  1  0.60009000  0.41268000  0.76366000  1.0
  C  C122  1  0.10008000  0.41267000  0.73634000  1.0
  C  C123  1  0.39991000  0.58733000  0.23634000  1.0
  C  C124  1  0.25907000  0.04890000  0.33507000  1.0
  C  C125  1  0.24092000  0.95108000  0.83508000  1.0
  C  C126  1  0.74092000  0.95110000  0.66493000  1.0
  C  C127  1  0.75906000  0.04891000  0.16492000  1.0
  C  C128  1  0.34782000  0.11593000  0.41287000  1.0
  C  C129  1  0.15218000  0.88404000  0.91288000  1.0
  C  C130  1  0.65218000  0.88406000  0.58713000  1.0
  C  C131  1  0.84781000  0.11595000  0.08712000  1.0
  C  C132  1  0.31392000  0.21415000  0.37423000  1.0
  C  C133  1  0.18607000  0.78583000  0.87423000  1.0
  C  C134  1  0.68608000  0.78585000  0.62577000  1.0
  C  C135  1  0.81391000  0.21417000  0.12577000  1.0
  C  C136  1  0.86829000  0.26744000  0.93350000  1.0
  C  C137  1  0.63171000  0.73254000  0.43350000  1.0
  C  C138  1  0.13171000  0.73256000  0.06650000  1.0
  C  C139  1  0.36828000  0.26745000  0.56650000  1.0
  C  C140  1  0.37712000  0.28319000  0.90308000  1.0
  C  C141  1  0.12289000  0.71680000  0.40308000  1.0
  C  C142  1  0.62289000  0.71682000  0.09693000  1.0
  C  C143  1  0.87710000  0.28319000  0.59692000  1.0
  C  C144  1  0.52954000  0.67823000  0.93634000  1.0
  C  C145  1  0.97047000  0.32176000  0.43635000  1.0
  C  C146  1  0.47046000  0.32178000  0.06365000  1.0
  C  C147  1  0.02954000  0.67823000  0.56366000  1.0
  C  C148  1  0.72527000  0.34104000  0.92818000  1.0
  C  C149  1  0.77474000  0.65894000  0.42819000  1.0
  C  C150  1  0.27474000  0.65896000  0.07182000  1.0
  C  C151  1  0.22526000  0.34105000  0.57182000  1.0
  C  C152  1  0.62311000  0.28148000  0.91335000  1.0
  C  C153  1  0.87690000  0.71850000  0.41335000  1.0
  C  C154  1  0.37691000  0.71852000  0.08665000  1.0
  C  C155  1  0.12309000  0.28149000  0.58665000  1.0
  C  C156  1  0.48960000  0.34883000  0.90994000  1.0
  C  C157  1  0.01042000  0.65115000  0.40995000  1.0
  C  C158  1  0.51042000  0.65116000  0.09006000  1.0
  C  C159  1  0.98958000  0.34884000  0.59006000  1.0
  C  C160  1  0.46026000  0.47729000  0.91809000  1.0
  C  C161  1  0.03976000  0.52269000  0.41810000  1.0
  C  C162  1  0.53976000  0.52271000  0.08191000  1.0
  C  C163  1  0.96024000  0.47730000  0.58191000  1.0
  C  C164  1  0.56187000  0.53992000  0.92976000  1.0
  C  C165  1  0.93814000  0.46006000  0.42977000  1.0
  C  C166  1  0.43814000  0.46008000  0.07023000  1.0
  C  C167  1  0.06186000  0.53993000  0.57024000  1.0
  C  C168  1  0.69408000  0.46967000  0.93637000  1.0
  C  C169  1  0.80593000  0.53031000  0.43638000  1.0
  C  C170  1  0.30593000  0.53033000  0.06362000  1.0
  C  C171  1  0.19407000  0.46968000  0.56363000  1.0
  N  N172  1  0.21487000  0.13182000  0.01308000  1.0
  N  N173  1  0.28514000  0.86818000  0.51309000  1.0
  N  N174  1  0.78513000  0.86818000  0.98692000  1.0
  N  N175  1  0.71487000  0.13181000  0.48691000  1.0
  N  N176  1  0.22515000  0.17205000  0.10930000  1.0
  N  N177  1  0.27485000  0.82795000  0.60930000  1.0
  N  N178  1  0.77486000  0.82795000  0.89070000  1.0
  N  N179  1  0.72514000  0.17205000  0.39070000  1.0
  N  N180  1  0.90706000  0.72152000  0.18855000  1.0
  N  N181  1  0.59295000  0.27848000  0.68856000  1.0
  N  N182  1  0.09296000  0.27849000  0.81145000  1.0
  N  N183  1  0.40703000  0.72152000  0.31144000  1.0
  N  N184  1  0.99621000  0.53221000  0.22194000  1.0
  N  N185  1  0.50380000  0.46780000  0.72194000  1.0
  N  N186  1  0.00379000  0.46780000  0.77806000  1.0
  N  N187  1  0.49620000  0.53221000  0.27805000  1.0
  N  N188  1  0.31213000  0.01475000  0.38775000  1.0
  N  N189  1  0.18788000  0.98523000  0.88775000  1.0
  N  N190  1  0.68787000  0.98525000  0.61225000  1.0
  N  N191  1  0.81212000  0.01477000  0.11225000  1.0
  N  N192  1  0.25835000  0.16999000  0.32458000  1.0
  N  N193  1  0.24165000  0.83000000  0.82458000  1.0
  N  N194  1  0.74165000  0.83001000  0.67542000  1.0
  N  N195  1  0.75834000  0.17000000  0.17542000  1.0
  O  O196  1  0.89816000  0.15548000  0.91760000  1.0
  O  O197  1  0.60184000  0.84450000  0.41761000  1.0
  O  O198  1  0.10185000  0.84452000  0.08240000  1.0
  O  O199  1  0.39815000  0.15549000  0.58240000  1.0
  O  O200  1  0.95638000  0.32637000  0.95141000  1.0
  O  O201  1  0.54363000  0.67360000  0.45140000  1.0
  O  O202  1  0.04364000  0.67362000  0.04860000  1.0
  O  O203  1  0.45636000  0.32639000  0.54860000  1.0
  O  O204  1  0.40253000  0.17089000  0.88667000  1.0
  O  O205  1  0.09747000  0.82910000  0.38667000  1.0
  O  O206  1  0.59747000  0.82912000  0.11333000  1.0
  O  O207  1  0.90252000  0.17089000  0.61333000  1.0
  O  O208  1  0.25905000  0.34553000  0.91752000  1.0
  O  O209  1  0.24096000  0.65446000  0.41753000  1.0
  O  O210  1  0.74096000  0.65447000  0.08248000  1.0
  O  O211  1  0.75904000  0.34553000  0.58247000  1.0
