# generated using pymatgen
data_KCuPH14C8N2O7
_symmetry_space_group_name_H-M   'P 1'
_cell_length_a   7.97092000
_cell_length_b   8.42829000
_cell_length_c   11.08900000
_cell_angle_alpha   100.48600000
_cell_angle_beta   104.31300000
_cell_angle_gamma   110.12100000
_symmetry_Int_Tables_number   1
_chemical_formula_structural   KCuPH14C8N2O7
_chemical_formula_sum   'K2 Cu2 P2 H28 C16 N4 O14'
_cell_volume   647.94058078
_cell_formula_units_Z   2
loop_
 _symmetry_equiv_pos_site_id
 _symmetry_equiv_pos_as_xyz
  1  'x, y, z'
loop_
 _atom_site_type_symbol
 _atom_site_label
 _atom_site_symmetry_multiplicity
 _atom_site_fract_x
 _atom_site_fract_y
 _atom_site_fract_z
 _atom_site_occupancy
  K  K0  1  0.51730000  0.77093000  0.94909000  1.0
  K  K1  1  0.48270000  0.22907000  0.05092000  1.0
  Cu  Cu2  1  0.62229000  0.09882000  0.67292000  1.0
  Cu  Cu3  1  0.37771000  0.90118000  0.32708000  1.0
  P  P4  1  0.80291000  0.19495000  0.46849000  1.0
  P  P5  1  0.19710000  0.80505000  0.53151000  1.0
  H  H6  1  0.04850000  0.12968000  0.59075000  1.0
  H  H7  1  0.95149000  0.87032000  0.40924000  1.0
  H  H8  1  0.10448000  0.35717000  0.64907000  1.0
  H  H9  1  0.89552000  0.64283000  0.35093000  1.0
  H  H10  1  0.11180000  0.43483000  0.86811000  1.0
  H  H11  1  0.88820000  0.56517000  0.13189000  1.0
  H  H12  1  0.89563000  0.32278000  0.89692000  1.0
  H  H13  1  0.10437000  0.67722000  0.10308000  1.0
  H  H14  1  0.84203000  0.55580000  0.82557000  1.0
  H  H15  1  0.15797000  0.44420000  0.17443000  1.0
  H  H16  1  0.96056000  0.54790000  0.71197000  1.0
  H  H17  1  0.03944000  0.45210000  0.28803000  1.0
  H  H18  1  0.78550000  0.48294000  0.51816000  1.0
  H  H19  1  0.21450000  0.51706000  0.48184000  1.0
  H  H20  1  0.55756000  0.29939000  0.44479000  1.0
  H  H21  1  0.44244000  0.70061000  0.55521000  1.0
  H  H22  1  0.39806000  0.31906000  0.58264000  1.0
  H  H23  1  0.60195000  0.68094000  0.41735000  1.0
  H  H24  1  0.56303000  0.53845000  0.67970000  1.0
  H  H25  1  0.43697000  0.46155000  0.32030000  1.0
  H  H26  1  0.08734000  0.14332000  0.88293000  1.0
  H  H27  1  0.91266000  0.85668000  0.11707000  1.0
  H  H28  1  0.03418000  0.00148000  0.72749000  1.0
  H  H29  1  0.96582000  0.99852000  0.27252000  1.0
  H  H30  1  0.90099000  0.14168000  0.09423000  1.0
  H  H31  1  0.09901000  0.85832000  0.90577000  1.0
  H  H32  1  0.80338000  0.15758000  0.19750000  1.0
  H  H33  1  0.19662000  0.84242000  0.80250000  1.0
  C  C34  1  0.98863000  0.22472000  0.61782000  1.0
  C  C35  1  0.01137000  0.77528000  0.38218000  1.0
  C  C36  1  0.95730000  0.35914000  0.82251000  1.0
  C  C37  1  0.04270000  0.64086000  0.17749000  1.0
  C  C38  1  0.86653000  0.46545000  0.75459000  1.0
  C  C39  1  0.13347000  0.53455000  0.24541000  1.0
  C  C40  1  0.69876000  0.34916000  0.51828000  1.0
  C  C41  1  0.30124000  0.65084000  0.48172000  1.0
  C  C42  1  0.48295000  0.35124000  0.78814000  1.0
  C  C43  1  0.51705000  0.64876000  0.21186000  1.0
  C  C44  1  0.52641000  0.39676000  0.66811000  1.0
  C  C45  1  0.47359000  0.60324000  0.33189000  1.0
  C  C46  1  0.97541000  0.07024000  0.78808000  1.0
  C  C47  1  0.02459000  0.92976000  0.21192000  1.0
  C  C48  1  0.81199000  0.92771000  0.80627000  1.0
  C  C49  1  0.18801000  0.07229000  0.19373000  1.0
  N  N50  1  0.91650000  0.19185000  0.72608000  1.0
  N  N51  1  0.08350000  0.80815000  0.27392000  1.0
  N  N52  1  0.68083000  0.34912000  0.64781000  1.0
  N  N53  1  0.31917000  0.65088000  0.35219000  1.0
  O  O54  1  0.89269000  0.24236000  0.36775000  1.0
  O  O55  1  0.10731000  0.75764000  0.63225000  1.0
  O  O56  1  0.65389000  0.00668000  0.43812000  1.0
  O  O57  1  0.34611000  0.99332000  0.56188000  1.0
  O  O58  1  0.54628000  0.24508000  0.83048000  1.0
  O  O59  1  0.45371000  0.75492000  0.16952000  1.0
  O  O60  1  0.38657000  0.42065000  0.83455000  1.0
  O  O61  1  0.61342000  0.57935000  0.16544000  1.0
  O  O62  1  0.84922000  0.83282000  0.87466000  1.0
  O  O63  1  0.15078000  0.16718000  0.12534000  1.0
  O  O64  1  0.64078000  0.90775000  0.74798000  1.0
  O  O65  1  0.35922000  0.09225000  0.25202000  1.0
  O  O66  1  0.77581000  0.12692000  0.10173000  1.0
  O  O67  1  0.22419000  0.87308000  0.89827000  1.0
