# generated using pymatgen
data_CdH14C6(IN)2
_symmetry_space_group_name_H-M   'P 1'
_cell_length_a   9.50185000
_cell_length_b   10.94440000
_cell_length_c   12.01680000
_cell_angle_alpha   89.99990000
_cell_angle_beta   90.00000000
_cell_angle_gamma   109.24800000
_symmetry_Int_Tables_number   1
_chemical_formula_structural   CdH14C6(IN)2
_chemical_formula_sum   'Cd4 H56 C24 I8 N8'
_cell_volume   1179.79676589
_cell_formula_units_Z   4
loop_
 _symmetry_equiv_pos_site_id
 _symmetry_equiv_pos_as_xyz
  1  'x, y, z'
loop_
 _atom_site_type_symbol
 _atom_site_label
 _atom_site_symmetry_multiplicity
 _atom_site_fract_x
 _atom_site_fract_y
 _atom_site_fract_z
 _atom_site_occupancy
  Cd  Cd0  1  0.73156000  0.49978000  0.85583000  1.0
  Cd  Cd1  1  0.26844000  0.50022000  0.35583000  1.0
  Cd  Cd2  1  0.70485000  0.45572000  0.48885000  1.0
  Cd  Cd3  1  0.29516000  0.54428000  0.98885000  1.0
  H  H4  1  0.73461000  0.80367000  0.87209000  1.0
  H  H5  1  0.26539000  0.19633000  0.37209000  1.0
  H  H6  1  0.63497000  0.89413000  0.71817000  1.0
  H  H7  1  0.36503000  0.10587000  0.21817000  1.0
  H  H8  1  0.75695000  0.85825000  0.62213000  1.0
  H  H9  1  0.24305000  0.14175000  0.12213000  1.0
  H  H10  1  0.85119000  0.09154000  0.66371000  1.0
  H  H11  1  0.14881000  0.90846000  0.16371000  1.0
  H  H12  1  0.85160000  0.06205000  0.80774000  1.0
  H  H13  1  0.14840000  0.93795000  0.30774000  1.0
  H  H14  1  0.04085000  0.97895000  0.63584000  1.0
  H  H15  1  0.95915000  0.02106000  0.13584000  1.0
  H  H16  1  0.10721000  0.10924000  0.73102000  1.0
  H  H17  1  0.89279000  0.89076000  0.23102000  1.0
  H  H18  1  0.02564000  0.95525000  0.89083000  1.0
  H  H19  1  0.97436000  0.04475000  0.39083000  1.0
  H  H20  1  0.15375000  0.91193000  0.80611000  1.0
  H  H21  1  0.84625000  0.08807000  0.30611000  1.0
  H  H22  1  0.95062000  0.74494000  0.71065000  1.0
  H  H23  1  0.04938000  0.25506000  0.21065000  1.0
  H  H24  1  0.66761000  0.17806000  0.82693000  1.0
  H  H25  1  0.33239000  0.82194000  0.32693000  1.0
  H  H26  1  0.38206000  0.09734000  0.96738000  1.0
  H  H27  1  0.61794000  0.90266000  0.46738000  1.0
  H  H28  1  0.40254000  0.03645000  0.83455000  1.0
  H  H29  1  0.59747000  0.96355000  0.33455000  1.0
  H  H30  1  0.57703000  0.93197000  0.90783000  1.0
  H  H31  1  0.42297000  0.06802000  0.40783000  1.0
  H  H32  1  0.41271000  0.88308000  0.98697000  1.0
  H  H33  1  0.58729000  0.11692000  0.48697000  1.0
  H  H34  1  0.53476000  0.03878000  0.13708000  1.0
  H  H35  1  0.46524000  0.96122000  0.63708000  1.0
  H  H36  1  0.64543000  0.94102000  0.10586000  1.0
  H  H37  1  0.35457000  0.05898000  0.60586000  1.0
  H  H38  1  0.81072000  0.11602000  0.98568000  1.0
  H  H39  1  0.18928000  0.88397000  0.48568000  1.0
  H  H40  1  0.80105000  0.17641000  0.12062000  1.0
  H  H41  1  0.19895000  0.82359000  0.62062000  1.0
  H  H42  1  0.60822000  0.26987000  0.05654000  1.0
  H  H43  1  0.39178000  0.73013000  0.55654000  1.0
  H  H44  1  0.67541000  0.64242000  0.67110000  1.0
  H  H45  1  0.32460000  0.35758000  0.17110000  1.0
  H  H46  1  0.55689000  0.64793000  0.76871000  1.0
  H  H47  1  0.44311000  0.35207000  0.26871000  1.0
  H  H48  1  0.93662000  0.72826000  0.95511000  1.0
  H  H49  1  0.06338000  0.27174000  0.45511000  1.0
  H  H50  1  0.03759000  0.67371000  0.86917000  1.0
  H  H51  1  0.96241000  0.32629000  0.36917000  1.0
  H  H52  1  0.44437000  0.30106000  0.88118000  1.0
  H  H53  1  0.55563000  0.69894000  0.38118000  1.0
  H  H54  1  0.51274000  0.28285000  0.75962000  1.0
  H  H55  1  0.48726000  0.71715000  0.25962000  1.0
  H  H56  1  0.89715000  0.34421000  0.94367000  1.0
  H  H57  1  0.10285000  0.65578000  0.44367000  1.0
  H  H58  1  0.84421000  0.41145000  0.05030000  1.0
  H  H59  1  0.15579000  0.58854000  0.55031000  1.0
  C  C60  1  0.76654000  0.78581000  0.78672000  1.0
  C  C61  1  0.23346000  0.21419000  0.28672000  1.0
  C  C62  1  0.74851000  0.89001000  0.70819000  1.0
  C  C63  1  0.25149000  0.10999000  0.20819000  1.0
  C  C64  1  0.86604000  0.02274000  0.72559000  1.0
  C  C65  1  0.13396000  0.97726000  0.22559000  1.0
  C  C66  1  0.02280000  0.01350000  0.71914000  1.0
  C  C67  1  0.97720000  0.98650000  0.21913000  1.0
  C  C68  1  0.04095000  0.91915000  0.80731000  1.0
  C  C69  1  0.95905000  0.08085000  0.30731000  1.0
  C  C70  1  0.92758000  0.78386000  0.79096000  1.0
  C  C71  1  0.07242000  0.21614000  0.29096000  1.0
  C  C72  1  0.59193000  0.19705000  0.88918000  1.0
  C  C73  1  0.40807000  0.80295000  0.38918000  1.0
  C  C74  1  0.46198000  0.07244000  0.91279000  1.0
  C  C75  1  0.53802000  0.92756000  0.41279000  1.0
  C  C76  1  0.51123000  0.96705000  0.96768000  1.0
  C  C77  1  0.48877000  0.03294000  0.46768000  1.0
  C  C78  1  0.60441000  0.01646000  0.07192000  1.0
  C  C79  1  0.39559000  0.98353000  0.57192000  1.0
  C  C80  1  0.73471000  0.13842000  0.04568000  1.0
  C  C81  1  0.26529000  0.86158000  0.54568000  1.0
  C  C82  1  0.68216000  0.24492000  0.99624000  1.0
  C  C83  1  0.31784000  0.75508000  0.49624000  1.0
  I  I84  1  0.88204000  0.39746000  0.65580000  1.0
  I  I85  1  0.11797000  0.60254000  0.15580000  1.0
  I  I86  1  0.41050000  0.40197000  0.56844000  1.0
  I  I87  1  0.58951000  0.59803000  0.06844000  1.0
  I  I88  1  0.83900000  0.71902000  0.44013000  1.0
  I  I89  1  0.16100000  0.28099000  0.94013000  1.0
  I  I90  1  0.70437000  0.32329000  0.29205000  1.0
  I  I91  1  0.29563000  0.67671000  0.79205000  1.0
  N  N92  1  0.66634000  0.65527000  0.75507000  1.0
  N  N93  1  0.33366000  0.34473000  0.25508000  1.0
  N  N94  1  0.93788000  0.69076000  0.87716000  1.0
  N  N95  1  0.06212000  0.30924000  0.37716000  1.0
  N  N96  1  0.54028000  0.29986000  0.84192000  1.0
  N  N97  1  0.45972000  0.70014000  0.34192000  1.0
  N  N98  1  0.80772000  0.36541000  0.97618000  1.0
  N  N99  1  0.19228000  0.63459000  0.47618000  1.0
