# generated using pymatgen
data_AgH25C30(NO)4
_symmetry_space_group_name_H-M   'P 1'
_cell_length_a   8.42263000
_cell_length_b   12.00320000
_cell_length_c   14.21080000
_cell_angle_alpha   80.55550000
_cell_angle_beta   80.05210000
_cell_angle_gamma   70.71750000
_symmetry_Int_Tables_number   1
_chemical_formula_structural   AgH25C30(NO)4
_chemical_formula_sum   'Ag2 H50 C60 N8 O8'
_cell_volume   1326.82344175
_cell_formula_units_Z   2
loop_
 _symmetry_equiv_pos_site_id
 _symmetry_equiv_pos_as_xyz
  1  'x, y, z'
loop_
 _atom_site_type_symbol
 _atom_site_label
 _atom_site_symmetry_multiplicity
 _atom_site_fract_x
 _atom_site_fract_y
 _atom_site_fract_z
 _atom_site_occupancy
  Ag  Ag0  1  0.95408000  0.24374000  0.23512000  1.0
  Ag  Ag1  1  0.04592000  0.75626000  0.76488000  1.0
  H  H2  1  0.24104000  0.34421000  0.10030000  1.0
  H  H3  1  0.75896000  0.65579000  0.89969000  1.0
  H  H4  1  0.94437000  0.78884000  0.06318000  1.0
  H  H5  1  0.05562000  0.21116000  0.93682000  1.0
  H  H6  1  0.64522000  0.86193000  0.14099000  1.0
  H  H7  1  0.35477000  0.13807000  0.85901000  1.0
  H  H8  1  0.49048000  0.72401000  0.22312000  1.0
  H  H9  1  0.50951000  0.27599000  0.77688000  1.0
  H  H10  1  0.63360000  0.50295000  0.23656000  1.0
  H  H11  1  0.36639000  0.49705000  0.76344000  1.0
  H  H12  1  0.26880000  0.64536000  0.07262000  1.0
  H  H13  1  0.73120000  0.35464000  0.92738000  1.0
  H  H14  1  0.22844000  0.61936000  0.96117000  1.0
  H  H15  1  0.77156000  0.38064000  0.03883000  1.0
  H  H16  1  0.41886000  0.40807000  0.98559000  1.0
  H  H17  1  0.58114000  0.59193000  0.01441000  1.0
  H  H18  1  0.45729000  0.43340000  0.09800000  1.0
  H  H19  1  0.54271000  0.56660000  0.90200000  1.0
  H  H20  1  0.17946000  0.96974000  0.02871000  1.0
  H  H21  1  0.82054000  0.03026000  0.97128000  1.0
  H  H22  1  0.23758000  0.07991000  0.14524000  1.0
  H  H23  1  0.76243000  0.92009000  0.85476000  1.0
  H  H24  1  0.43139000  0.16149000  0.20267000  1.0
  H  H25  1  0.56862000  0.83851000  0.79733000  1.0
  H  H26  1  0.12655000  0.18670000  0.43909000  1.0
  H  H27  1  0.87345000  0.81330000  0.56092000  1.0
  H  H28  1  0.00911000  0.96749000  0.20154000  1.0
  H  H29  1  0.99089000  0.03251000  0.79846000  1.0
  H  H30  1  0.08057000  0.74586000  0.23287000  1.0
  H  H31  1  0.91943000  0.25414000  0.76714000  1.0
  H  H32  1  0.21967000  0.63454000  0.37453000  1.0
  H  H33  1  0.78033000  0.36547000  0.62547000  1.0
  H  H34  1  0.28999000  0.73786000  0.49251000  1.0
  H  H35  1  0.71001000  0.26214000  0.50749000  1.0
  H  H36  1  0.25017000  0.89962000  0.59632000  1.0
  H  H37  1  0.74983000  0.10038000  0.40368000  1.0
  H  H38  1  0.22350000  0.05337000  0.58853000  1.0
  H  H39  1  0.77650000  0.94664000  0.41147000  1.0
  H  H40  1  0.52903000  0.86825000  0.49114000  1.0
  H  H41  1  0.47097000  0.13176000  0.50886000  1.0
  H  H42  1  0.52320000  0.92558000  0.59897000  1.0
  H  H43  1  0.47680000  0.07442000  0.40103000  1.0
  H  H44  1  0.54550000  0.26915000  0.24082000  1.0
  H  H45  1  0.45450000  0.73084000  0.75919000  1.0
  H  H46  1  0.87293000  0.60635000  0.66925000  1.0
  H  H47  1  0.12708000  0.39365000  0.33075000  1.0
  H  H48  1  0.18660000  0.52965000  0.63296000  1.0
  H  H49  1  0.81341000  0.47035000  0.36704000  1.0
  H  H50  1  0.44167000  0.42426000  0.52795000  1.0
  H  H51  1  0.55833000  0.57574000  0.47204000  1.0
  C  C52  1  0.12760000  0.41878000  0.11287000  1.0
  C  C53  1  0.87240000  0.58122000  0.88713000  1.0
  C  C54  1  0.95683000  0.60430000  0.11222000  1.0
  C  C55  1  0.04317000  0.39570000  0.88779000  1.0
  C  C56  1  0.87894000  0.72728000  0.10279000  1.0
  C  C57  1  0.12106000  0.27272000  0.89722000  1.0
  C  C58  1  0.71075000  0.76692000  0.14494000  1.0
  C  C59  1  0.28924000  0.23308000  0.85506000  1.0
  C  C60  1  0.62222000  0.68792000  0.19202000  1.0
  C  C61  1  0.37778000  0.31207000  0.80798000  1.0
  C  C62  1  0.69964000  0.56532000  0.19970000  1.0
  C  C63  1  0.30035000  0.43468000  0.80030000  1.0
  C  C64  1  0.86958000  0.52394000  0.15992000  1.0
  C  C65  1  0.13042000  0.47606000  0.84008000  1.0
  C  C66  1  0.26044000  0.57634000  0.03297000  1.0
  C  C67  1  0.73956000  0.42366000  0.96703000  1.0
  C  C68  1  0.42830000  0.47636000  0.02561000  1.0
  C  C69  1  0.57170000  0.52364000  0.97439000  1.0
  C  C70  1  0.30811000  0.95743000  0.99220000  1.0
  C  C71  1  0.69190000  0.04257000  0.00779000  1.0
  C  C72  1  0.41659000  0.00653000  0.02535000  1.0
  C  C73  1  0.58341000  0.99347000  0.97464000  1.0
  C  C74  1  0.36504000  0.06913000  0.10745000  1.0
  C  C75  1  0.63496000  0.93087000  0.89255000  1.0
  C  C76  1  0.47334000  0.11568000  0.13852000  1.0
  C  C77  1  0.52666000  0.88432000  0.86147000  1.0
  C  C78  1  0.63900000  0.10290000  0.08842000  1.0
  C  C79  1  0.36101000  0.89710000  0.91157000  1.0
  C  C80  1  0.76105000  0.15087000  0.12156000  1.0
  C  C81  1  0.23895000  0.84912000  0.87844000  1.0
  C  C82  1  0.13353000  0.10439000  0.41381000  1.0
  C  C83  1  0.86647000  0.89561000  0.58619000  1.0
  C  C84  1  0.10854000  0.97590000  0.33041000  1.0
  C  C85  1  0.89145000  0.02410000  0.66960000  1.0
  C  C86  1  0.06993000  0.91750000  0.26403000  1.0
  C  C87  1  0.93007000  0.08250000  0.73598000  1.0
  C  C88  1  0.11171000  0.79427000  0.28192000  1.0
  C  C89  1  0.88829000  0.20573000  0.71808000  1.0
  C  C90  1  0.19053000  0.73072000  0.36297000  1.0
  C  C91  1  0.80947000  0.26928000  0.63703000  1.0
  C  C92  1  0.23107000  0.78745000  0.42932000  1.0
  C  C93  1  0.76893000  0.21255000  0.57068000  1.0
  C  C94  1  0.18839000  0.91110000  0.41135000  1.0
  C  C95  1  0.81161000  0.08890000  0.58865000  1.0
  C  C96  1  0.28191000  0.97416000  0.55034000  1.0
  C  C97  1  0.71809000  0.02584000  0.44966000  1.0
  C  C98  1  0.47383000  0.94811000  0.52911000  1.0
  C  C99  1  0.52617000  0.05189000  0.47089000  1.0
  C  C100  1  0.86082000  0.57795000  0.60243000  1.0
  C  C101  1  0.13918000  0.42205000  0.39757000  1.0
  C  C102  1  0.00873000  0.51974000  0.54336000  1.0
  C  C103  1  0.99127000  0.48026000  0.45664000  1.0
  C  C104  1  0.17350000  0.49846000  0.56781000  1.0
  C  C105  1  0.82650000  0.50154000  0.43219000  1.0
  C  C106  1  0.31506000  0.44084000  0.50948000  1.0
  C  C107  1  0.68494000  0.55916000  0.49052000  1.0
  C  C108  1  0.29860000  0.40313000  0.42299000  1.0
  C  C109  1  0.70141000  0.59688000  0.57700000  1.0
  C  C110  1  0.45559000  0.34787000  0.35878000  1.0
  C  C111  1  0.54441000  0.65213000  0.64122000  1.0
  N  N112  1  0.98061000  0.40877000  0.15877000  1.0
  N  N113  1  0.01938000  0.59123000  0.84123000  1.0
  N  N114  1  0.12082000  0.53389000  0.08319000  1.0
  N  N115  1  0.87918000  0.46611000  0.91681000  1.0
  N  N116  1  0.20157000  0.99601000  0.46297000  1.0
  N  N117  1  0.79843000  0.00399000  0.53703000  1.0
  N  N118  1  0.07580000  0.09675000  0.33458000  1.0
  N  N119  1  0.92420000  0.90325000  0.66543000  1.0
  O  O120  1  0.91209000  0.12585000  0.08284000  1.0
  O  O121  1  0.08791000  0.87416000  0.91716000  1.0
  O  O122  1  0.70500000  0.21700000  0.19149000  1.0
  O  O123  1  0.29501000  0.78298000  0.80853000  1.0
  O  O124  1  0.59877000  0.33850000  0.37664000  1.0
  O  O125  1  0.40123000  0.66150000  0.62335000  1.0
  O  O126  1  0.42724000  0.31193000  0.28160000  1.0
  O  O127  1  0.57276000  0.68806000  0.71840000  1.0
