# generated using pymatgen
data_NiH6C8(NO2)2
_symmetry_space_group_name_H-M   'P 1'
_cell_length_a   6.87427000
_cell_length_b   7.15598000
_cell_length_c   8.62115000
_cell_angle_alpha   89.99910000
_cell_angle_beta   67.15800000
_cell_angle_gamma   89.99900000
_symmetry_Int_Tables_number   1
_chemical_formula_structural   NiH6C8(NO2)2
_chemical_formula_sum   'Ni2 H12 C16 N4 O8'
_cell_volume   390.83495619
_cell_formula_units_Z   2
loop_
 _symmetry_equiv_pos_site_id
 _symmetry_equiv_pos_as_xyz
  1  'x, y, z'
loop_
 _atom_site_type_symbol
 _atom_site_label
 _atom_site_symmetry_multiplicity
 _atom_site_fract_x
 _atom_site_fract_y
 _atom_site_fract_z
 _atom_site_occupancy
  Ni  Ni0  1  0.50000000  0.00000000  0.50000000  1.0
  Ni  Ni1  1  0.50000000  0.50000000  1.00000000  1.0
  H  H2  1  0.99309000  0.54698000  0.37370000  1.0
  H  H3  1  0.00691000  0.04698000  0.12630000  1.0
  H  H4  1  0.00691000  0.45302000  0.62631000  1.0
  H  H5  1  0.99309000  0.95302000  0.87369000  1.0
  H  H6  1  0.84221000  0.67302000  0.28146000  1.0
  H  H7  1  0.15779000  0.17302000  0.21854000  1.0
  H  H8  1  0.15779000  0.32698000  0.71854000  1.0
  H  H9  1  0.84221000  0.82698000  0.78146000  1.0
  H  H10  1  0.72448000  0.61505000  0.49571000  1.0
  H  H11  1  0.27553000  0.11506000  0.00430000  1.0
  H  H12  1  0.27552000  0.38494000  0.50430000  1.0
  H  H13  1  0.72448000  0.88495000  0.99570000  1.0
  C  C14  1  0.15433000  0.87856000  0.41813000  1.0
  C  C15  1  0.84567000  0.37856000  0.08188000  1.0
  C  C16  1  0.84567000  0.12144000  0.58187000  1.0
  C  C17  1  0.15434000  0.62145000  0.91812000  1.0
  C  C18  1  0.94414000  0.83648000  0.44263000  1.0
  C  C19  1  0.05586000  0.33649000  0.05738000  1.0
  C  C20  1  0.05587000  0.16352000  0.55737000  1.0
  C  C21  1  0.94414000  0.66352000  0.94262000  1.0
  C  C22  1  0.34360000  0.76608000  0.30854000  1.0
  C  C23  1  0.65641000  0.26609000  0.19146000  1.0
  C  C24  1  0.65641000  0.23391000  0.69145000  1.0
  C  C25  1  0.34359000  0.73391000  0.80854000  1.0
  C  C26  1  0.87439000  0.65589000  0.39546000  1.0
  C  C27  1  0.12562000  0.15588000  0.10454000  1.0
  C  C28  1  0.12561000  0.34412000  0.60454000  1.0
  C  C29  1  0.87438000  0.84412000  0.89546000  1.0
  N  N30  1  0.20577000  0.03575000  0.47890000  1.0
  N  N31  1  0.79422000  0.53575000  0.02110000  1.0
  N  N32  1  0.79423000  0.96425000  0.52110000  1.0
  N  N33  1  0.20578000  0.46425000  0.97889000  1.0
  O  O34  1  0.51434000  0.79226000  0.32940000  1.0
  O  O35  1  0.48566000  0.29225000  0.17060000  1.0
  O  O36  1  0.48566000  0.20773000  0.67060000  1.0
  O  O37  1  0.51434000  0.70774000  0.82940000  1.0
  O  O38  1  0.31735000  0.66539000  0.19746000  1.0
  O  O39  1  0.68265000  0.16540000  0.30255000  1.0
  O  O40  1  0.68266000  0.33462000  0.80255000  1.0
  O  O41  1  0.31735000  0.83460000  0.69745000  1.0
