# generated using pymatgen
data_ZnH20C20BrN9O4
_symmetry_space_group_name_H-M   'P 1'
_cell_length_a   11.03020000
_cell_length_b   16.61440000
_cell_length_c   17.67560000
_cell_angle_alpha   95.19580000
_cell_angle_beta   90.81770000
_cell_angle_gamma   92.04750000
_symmetry_Int_Tables_number   1
_chemical_formula_structural   ZnH20C20BrN9O4
_chemical_formula_sum   'Zn2 H40 C40 Br2 N18 O8'
_cell_volume   3223.36493867
_cell_formula_units_Z   2
loop_
 _symmetry_equiv_pos_site_id
 _symmetry_equiv_pos_as_xyz
  1  'x, y, z'
loop_
 _atom_site_type_symbol
 _atom_site_label
 _atom_site_symmetry_multiplicity
 _atom_site_fract_x
 _atom_site_fract_y
 _atom_site_fract_z
 _atom_site_occupancy
  Zn  Zn0  1  0.49554000  0.41816000  0.49686000  1.0
  Zn  Zn1  1  0.50366000  0.59997000  0.50620000  1.0
  H  H2  1  0.53452000  0.00887000  0.59309000  1.0
  H  H3  1  0.45723000  0.00862000  0.42534000  1.0
  H  H4  1  0.41092000  0.42628000  0.00398000  1.0
  H  H5  1  0.59958000  0.56623000  0.00220000  1.0
  H  H6  1  0.77173000  0.52239000  0.36366000  1.0
  H  H7  1  0.88292000  0.52478000  0.24398000  1.0
  H  H8  1  0.22298000  0.50713000  0.36323000  1.0
  H  H9  1  0.10915000  0.51519000  0.24366000  1.0
  H  H10  1  0.69574000  0.67315000  0.57224000  1.0
  H  H11  1  0.75362000  0.76611000  0.60771000  1.0
  H  H12  1  0.69845000  0.87425000  0.66093000  1.0
  H  H13  1  0.75253000  0.92132000  0.58824000  1.0
  H  H14  1  0.31222000  0.66236000  0.44823000  1.0
  H  H15  1  0.25992000  0.74962000  0.41750000  1.0
  H  H16  1  0.32131000  0.86253000  0.37875000  1.0
  H  H17  1  0.24633000  0.88740000  0.45752000  1.0
  H  H18  1  0.67622000  0.07810000  0.56504000  1.0
  H  H19  1  0.75219000  0.16785000  0.56854000  1.0
  H  H20  1  0.68741000  0.27683000  0.62712000  1.0
  H  H21  1  0.65403000  0.36151000  0.58669000  1.0
  H  H22  1  0.29843000  0.06122000  0.41575000  1.0
  H  H23  1  0.29134000  0.13505000  0.35751000  1.0
  H  H24  1  0.29953000  0.34503000  0.43632000  1.0
  H  H25  1  0.23568000  0.25241000  0.40990000  1.0
  H  H26  1  0.49432000  0.35303000  0.31793000  1.0
  H  H27  1  0.57234000  0.31245000  0.24280000  1.0
  H  H28  1  0.53998000  0.32888000  0.06359000  1.0
  H  H29  1  0.47330000  0.29205000  0.13957000  1.0
  H  H30  1  0.49056000  0.64607000  0.32464000  1.0
  H  H31  1  0.41695000  0.67792000  0.24942000  1.0
  H  H32  1  0.45683000  0.63063000  0.06162000  1.0
  H  H33  1  0.49042000  0.68463000  0.14661000  1.0
  H  H34  1  0.51964000  0.36869000  0.93031000  1.0
  H  H35  1  0.52305000  0.32391000  0.84080000  1.0
  H  H36  1  0.45650000  0.37242000  0.67012000  1.0
  H  H37  1  0.39720000  0.33656000  0.74965000  1.0
  H  H38  1  0.60132000  0.66722000  0.95198000  1.0
  H  H39  1  0.55516000  0.71315000  0.87517000  1.0
  H  H40  1  0.53978000  0.66358000  0.69409000  1.0
  H  H41  1  0.63292000  0.69432000  0.76775000  1.0
  C  C42  1  0.49495000  0.50308000  0.35399000  1.0
  C  C43  1  0.26180000  0.50506000  0.50440000  1.0
  C  C44  1  0.50413000  0.51848000  0.64954000  1.0
  C  C45  1  0.73538000  0.51002000  0.50230000  1.0
  C  C46  1  0.41952000  0.76529000  0.47493000  1.0
  C  C47  1  0.41979000  0.85043000  0.47606000  1.0
  C  C48  1  0.50551000  0.89667000  0.52329000  1.0
  C  C49  1  0.59056000  0.85614000  0.56453000  1.0
  C  C50  1  0.59115000  0.77078000  0.55521000  1.0
  C  C51  1  0.50899000  0.98515000  0.53514000  1.0
  C  C52  1  0.48438000  0.03585000  0.48185000  1.0
  C  C53  1  0.39811000  0.16384000  0.45245000  1.0
  C  C54  1  0.48687000  0.12398000  0.49167000  1.0
  C  C55  1  0.57645000  0.17120000  0.53483000  1.0
  C  C56  1  0.57434000  0.25624000  0.53663000  1.0
  C  C57  1  0.40146000  0.24880000  0.45677000  1.0
  C  C58  1  0.49423000  0.49688000  0.26993000  1.0
  C  C59  1  0.49226000  0.56807000  0.23007000  1.0
  C  C60  1  0.49471000  0.56190000  0.14992000  1.0
  C  C61  1  0.48944000  0.48496000  0.10825000  1.0
  C  C62  1  0.48909000  0.41479000  0.14761000  1.0
  C  C63  1  0.49542000  0.41948000  0.22753000  1.0
  C  C64  1  0.47648000  0.47433000  0.02540000  1.0
  C  C65  1  0.53494000  0.51995000  0.97633000  1.0
  C  C66  1  0.53656000  0.59038000  0.85986000  1.0
  C  C67  1  0.52234000  0.51662000  0.89396000  1.0
  C  C68  1  0.50016000  0.44408000  0.84705000  1.0
  C  C69  1  0.48945000  0.44466000  0.76748000  1.0
  C  C70  1  0.50754000  0.51845000  0.73313000  1.0
  C  C71  1  0.53233000  0.59171000  0.78040000  1.0
  C  C72  1  0.87169000  0.51077000  0.50395000  1.0
  C  C73  1  0.93345000  0.51341000  0.43394000  1.0
  C  C74  1  0.93513000  0.50802000  0.57158000  1.0
  C  C75  1  0.87030000  0.51892000  0.36406000  1.0
  C  C76  1  0.93273000  0.52030000  0.29709000  1.0
  C  C77  1  0.12586000  0.50742000  0.50483000  1.0
  C  C78  1  0.06381000  0.50689000  0.57225000  1.0
  C  C79  1  0.06303000  0.51071000  0.43422000  1.0
  C  C80  1  0.12451000  0.51095000  0.36403000  1.0
  C  C81  1  0.06055000  0.51550000  0.29699000  1.0
  Br  Br82  1  0.15302000  0.50732000  0.66499000  1.0
  Br  Br83  1  0.84692000  0.50463000  0.66315000  1.0
  N  N84  1  0.50525000  0.72604000  0.51236000  1.0
  N  N85  1  0.48975000  0.29388000  0.49724000  1.0
  N  N86  1  0.67825000  0.73156000  0.59204000  1.0
  N  N87  1  0.67613000  0.90163000  0.61373000  1.0
  N  N88  1  0.33315000  0.71913000  0.43252000  1.0
  N  N89  1  0.32989000  0.88832000  0.43326000  1.0
  N  N90  1  0.67044000  0.13904000  0.57593000  1.0
  N  N91  1  0.66482000  0.30079000  0.57805000  1.0
  N  N92  1  0.29943000  0.12211000  0.41265000  1.0
  N  N93  1  0.31428000  0.28638000  0.41734000  1.0
  N  N94  1  0.50008000  0.34552000  0.26019000  1.0
  N  N95  1  0.47983000  0.33852000  0.10607000  1.0
  N  N96  1  0.48867000  0.64669000  0.26689000  1.0
  N  N97  1  0.50040000  0.63281000  0.11288000  1.0
  N  N98  1  0.48692000  0.36847000  0.87620000  1.0
  N  N99  1  0.46567000  0.36903000  0.72713000  1.0
  N  N100  1  0.54602000  0.66423000  0.90535000  1.0
  N  N101  1  0.55064000  0.66762000  0.75180000  1.0
  O  O102  1  0.46633000  0.43942000  0.38720000  1.0
  O  O103  1  0.52310000  0.57132000  0.39160000  1.0
  O  O104  1  0.31871000  0.57101000  0.49409000  1.0
  O  O105  1  0.30839000  0.43786000  0.51231000  1.0
  O  O106  1  0.48664000  0.58447000  0.61928000  1.0
  O  O107  1  0.52005000  0.45102000  0.60949000  1.0
  O  O108  1  0.68103000  0.44293000  0.48350000  1.0
  O  O109  1  0.68700000  0.57778000  0.51811000  1.0
