# generated using pymatgen
data_ZnH12C18NO4
_symmetry_space_group_name_H-M   'P 1'
_cell_length_a   10.33270000
_cell_length_b   10.35850000
_cell_length_c   15.23400000
_cell_angle_alpha   75.53730000
_cell_angle_beta   75.50040000
_cell_angle_gamma   81.73270000
_symmetry_Int_Tables_number   1
_chemical_formula_structural   ZnH12C18NO4
_chemical_formula_sum   'Zn4 H48 C72 N4 O16'
_cell_volume   1522.80365664
_cell_formula_units_Z   4
loop_
 _symmetry_equiv_pos_site_id
 _symmetry_equiv_pos_as_xyz
  1  'x, y, z'
loop_
 _atom_site_type_symbol
 _atom_site_label
 _atom_site_symmetry_multiplicity
 _atom_site_fract_x
 _atom_site_fract_y
 _atom_site_fract_z
 _atom_site_occupancy
  Zn  Zn0  1  0.82132000  0.51614000  0.02559000  1.0
  Zn  Zn1  1  0.48435000  0.17856000  0.47442000  1.0
  Zn  Zn2  1  0.17868000  0.48386000  0.97441000  1.0
  Zn  Zn3  1  0.51565000  0.82144000  0.52558000  1.0
  H  H4  1  0.59246000  0.43768000  0.17200000  1.0
  H  H5  1  0.56224000  0.40731000  0.32804000  1.0
  H  H6  1  0.40755000  0.56232000  0.82801000  1.0
  H  H7  1  0.43776000  0.59269000  0.67196000  1.0
  H  H8  1  0.42712000  0.27207000  0.21486000  1.0
  H  H9  1  0.72771000  0.57278000  0.28527000  1.0
  H  H10  1  0.57288000  0.72792000  0.78514000  1.0
  H  H11  1  0.27229000  0.42722000  0.71473000  1.0
  H  H12  1  0.54599000  0.22270000  0.93000000  1.0
  H  H13  1  0.77743000  0.45414000  0.57000000  1.0
  H  H14  1  0.45400000  0.77730000  0.07000000  1.0
  H  H15  1  0.22256000  0.54585000  0.43000000  1.0
  H  H16  1  0.71406000  0.38702000  0.90161000  1.0
  H  H17  1  0.61321000  0.28604000  0.59829000  1.0
  H  H18  1  0.28594000  0.61298000  0.09839000  1.0
  H  H19  1  0.38679000  0.71396000  0.40171000  1.0
  H  H20  1  0.36581000  0.09015000  0.03986000  1.0
  H  H21  1  0.90995000  0.63425000  0.46018000  1.0
  H  H22  1  0.63419000  0.90985000  0.96014000  1.0
  H  H23  1  0.09005000  0.36575000  0.53982000  1.0
  H  H24  1  0.35913000  0.08406000  0.24439000  1.0
  H  H25  1  0.91598000  0.64082000  0.25567000  1.0
  H  H26  1  0.64087000  0.91594000  0.75561000  1.0
  H  H27  1  0.08402000  0.35917000  0.74433000  1.0
  H  H28  1  0.23119000  0.93820000  0.36206000  1.0
  H  H29  1  0.06187000  0.76887000  0.13793000  1.0
  H  H30  1  0.76881000  0.06180000  0.63794000  1.0
  H  H31  1  0.93813000  0.23113000  0.86207000  1.0
  H  H32  1  0.22863000  0.93578000  0.07980000  1.0
  H  H33  1  0.06427000  0.77144000  0.42019000  1.0
  H  H34  1  0.77137000  0.06422000  0.92020000  1.0
  H  H35  1  0.93573000  0.22856000  0.57981000  1.0
  H  H36  1  0.82117000  0.24972000  0.28729000  1.0
  H  H37  1  0.75017000  0.17823000  0.21262000  1.0
  H  H38  1  0.17883000  0.75028000  0.71271000  1.0
  H  H39  1  0.24983000  0.82177000  0.78738000  1.0
  H  H40  1  0.85277000  0.10652000  0.43733000  1.0
  H  H41  1  0.89354000  0.14672000  0.06243000  1.0
  H  H42  1  0.14723000  0.89349000  0.56267000  1.0
  H  H43  1  0.10647000  0.85328000  0.93757000  1.0
  H  H44  1  0.06858000  0.10536000  0.48679000  1.0
  H  H45  1  0.89479000  0.93139000  0.01300000  1.0
  H  H46  1  0.93142000  0.89464000  0.51322000  1.0
  H  H47  1  0.10521000  0.06861000  0.98700000  1.0
  H  H48  1  0.20878000  0.39485000  0.23644000  1.0
  H  H49  1  0.60509000  0.79138000  0.26370000  1.0
  H  H50  1  0.79123000  0.60515000  0.76356000  1.0
  H  H51  1  0.39491000  0.20862000  0.73629000  1.0
  C  C52  1  0.58065000  0.38417000  0.12182000  1.0
  C  C53  1  0.61585000  0.41918000  0.37819000  1.0
  C  C54  1  0.41935000  0.61583000  0.87818000  1.0
  C  C55  1  0.38415000  0.58082000  0.62181000  1.0
  C  C56  1  0.48829000  0.29071000  0.14430000  1.0
  C  C57  1  0.70921000  0.51162000  0.35577000  1.0
  C  C58  1  0.51171000  0.70929000  0.85570000  1.0
  C  C59  1  0.29079000  0.48838000  0.64423000  1.0
  C  C60  1  0.47549000  0.22448000  0.07700000  1.0
  C  C61  1  0.77556000  0.52451000  0.42305000  1.0
  C  C62  1  0.52451000  0.77552000  0.92300000  1.0
  C  C63  1  0.22444000  0.47549000  0.57695000  1.0
  C  C64  1  0.55491000  0.26495000  0.98674000  1.0
  C  C65  1  0.73517000  0.44515000  0.51326000  1.0
  C  C66  1  0.44509000  0.73505000  0.01326000  1.0
  C  C67  1  0.26483000  0.55485000  0.48674000  1.0
  C  C68  1  0.64763000  0.35775000  0.96978000  1.0
  C  C69  1  0.64244000  0.35238000  0.53017000  1.0
  C  C70  1  0.35237000  0.64224000  0.03022000  1.0
  C  C71  1  0.35756000  0.64762000  0.46983000  1.0
  C  C72  1  0.38643000  0.11888000  0.09897000  1.0
  C  C73  1  0.88119000  0.61359000  0.40108000  1.0
  C  C74  1  0.61357000  0.88111000  0.90103000  1.0
  C  C75  1  0.11881000  0.38641000  0.59892000  1.0
  C  C76  1  0.33252000  0.05548000  0.18722000  1.0
  C  C77  1  0.94459000  0.66749000  0.31282000  1.0
  C  C78  1  0.66748000  0.94452000  0.81278000  1.0
  C  C79  1  0.05541000  0.33250000  0.68719000  1.0
  C  C80  1  0.24036000  0.95195000  0.21674000  1.0
  C  C81  1  0.04813000  0.75969000  0.28325000  1.0
  C  C82  1  0.75964000  0.04805000  0.78326000  1.0
  C  C83  1  0.95187000  0.24031000  0.71675000  1.0
  C  C84  1  0.19319000  0.90118000  0.31305000  1.0
  C  C85  1  0.09889000  0.80687000  0.18695000  1.0
  C  C86  1  0.80681000  0.09881000  0.68695000  1.0
  C  C87  1  0.90111000  0.19313000  0.81305000  1.0
  C  C88  1  0.19249000  0.90079000  0.15445000  1.0
  C  C89  1  0.09928000  0.80758000  0.34554000  1.0
  C  C90  1  0.80751000  0.09921000  0.84555000  1.0
  C  C91  1  0.90072000  0.19242000  0.65446000  1.0
  C  C92  1  0.01408000  0.32883000  0.25046000  1.0
  C  C93  1  0.67110000  0.98570000  0.24953000  1.0
  C  C94  1  0.98592000  0.67118000  0.74954000  1.0
  C  C95  1  0.32890000  0.01430000  0.75047000  1.0
  C  C96  1  0.91360000  0.24919000  0.30885000  1.0
  C  C97  1  0.75075000  0.08600000  0.19106000  1.0
  C  C98  1  0.08640000  0.75081000  0.69115000  1.0
  C  C99  1  0.24926000  0.91401000  0.80894000  1.0
  C  C100  1  0.93144000  0.16942000  0.39400000  1.0
  C  C101  1  0.83059000  0.06818000  0.10584000  1.0
  C  C102  1  0.06856000  0.83058000  0.60600000  1.0
  C  C103  1  0.16941000  0.93182000  0.89416000  1.0
  C  C104  1  0.05020000  0.16923000  0.42177000  1.0
  C  C105  1  0.83081000  0.94966000  0.07808000  1.0
  C  C106  1  0.94980000  0.83077000  0.57823000  1.0
  C  C107  1  0.16919000  0.05034000  0.92192000  1.0
  C  C108  1  0.14959000  0.25198000  0.36569000  1.0
  C  C109  1  0.74804000  0.85041000  0.13426000  1.0
  C  C110  1  0.85041000  0.74803000  0.63431000  1.0
  C  C111  1  0.25196000  0.14959000  0.86573000  1.0
  C  C112  1  0.13092000  0.33174000  0.28024000  1.0
  C  C113  1  0.66822000  0.86908000  0.21980000  1.0
  C  C114  1  0.86908000  0.66827000  0.71976000  1.0
  C  C115  1  0.33178000  0.13092000  0.78020000  1.0
  C  C116  1  0.99892000  0.40633000  0.15603000  1.0
  C  C117  1  0.59356000  0.00087000  0.34403000  1.0
  C  C118  1  0.00108000  0.59367000  0.84397000  1.0
  C  C119  1  0.40645000  0.99913000  0.65597000  1.0
  C  C120  1  0.27801000  0.25231000  0.39422000  1.0
  C  C121  1  0.74770000  0.72216000  0.10584000  1.0
  C  C122  1  0.72199000  0.74769000  0.60578000  1.0
  C  C123  1  0.25230000  0.27783000  0.89416000  1.0
  N  N124  1  0.66260000  0.41550000  0.03650000  1.0
  N  N125  1  0.58471000  0.33725000  0.46343000  1.0
  N  N126  1  0.33740000  0.58450000  0.96350000  1.0
  N  N127  1  0.41529000  0.66275000  0.53657000  1.0
  O  O128  1  0.89560000  0.39142000  0.12918000  1.0
  O  O129  1  0.60877000  0.10388000  0.37086000  1.0
  O  O130  1  0.10440000  0.60858000  0.87082000  1.0
  O  O131  1  0.39123000  0.89612000  0.62914000  1.0
  O  O132  1  0.09103000  0.48197000  0.10765000  1.0
  O  O133  1  0.51763000  0.90909000  0.39244000  1.0
  O  O134  1  0.90897000  0.51803000  0.89235000  1.0
  O  O135  1  0.48237000  0.09091000  0.60756000  1.0
  O  O136  1  0.36210000  0.33319000  0.34611000  1.0
  O  O137  1  0.66662000  0.63833000  0.15408000  1.0
  O  O138  1  0.63790000  0.66681000  0.65389000  1.0
  O  O139  1  0.33333333  0.36167000  0.84592000  1.0
  O  O140  1  0.29738000  0.16478000  0.46847000  1.0
  O  O141  1  0.83536000  0.70264000  0.03155000  1.0
  O  O142  1  0.70262000  0.83522000  0.53153000  1.0
  O  O143  1  0.16463000  0.29735000  0.96845000  1.0
