# generated using pymatgen
data_CaH12(C2O5)2
_symmetry_space_group_name_H-M   'P 1'
_cell_length_a   5.63786000
_cell_length_b   7.17925000
_cell_length_c   12.49870000
_cell_angle_alpha   90.00030000
_cell_angle_beta   90.00050000
_cell_angle_gamma   89.99980000
_symmetry_Int_Tables_number   1
_chemical_formula_structural   CaH12(C2O5)2
_chemical_formula_sum   'Ca2 H24 C8 O20'
_cell_volume   505.89246174
_cell_formula_units_Z   2
loop_
 _symmetry_equiv_pos_site_id
 _symmetry_equiv_pos_as_xyz
  1  'x, y, z'
loop_
 _atom_site_type_symbol
 _atom_site_label
 _atom_site_symmetry_multiplicity
 _atom_site_fract_x
 _atom_site_fract_y
 _atom_site_fract_z
 _atom_site_occupancy
  Ca  Ca0  1  0.74007000  0.00001000  0.50000000  1.0
  Ca  Ca1  1  0.25993000  0.49999000  1.00000000  1.0
  H  H2  1  0.15145000  0.17705000  0.58935000  1.0
  H  H3  1  0.15146000  0.82298000  0.41065000  1.0
  H  H4  1  0.84854000  0.67702000  0.91065000  1.0
  H  H5  1  0.84855000  0.32296000  0.08935000  1.0
  H  H6  1  0.19733000  0.96223000  0.59724000  1.0
  H  H7  1  0.19732000  0.03779000  0.40276000  1.0
  H  H8  1  0.80268000  0.46221000  0.90276000  1.0
  H  H9  1  0.80267000  0.53777000  0.09724000  1.0
  H  H10  1  0.43875000  0.10985000  0.69081000  1.0
  H  H11  1  0.43874000  0.89019000  0.30919000  1.0
  H  H12  1  0.56126000  0.60981000  0.80919000  1.0
  H  H13  1  0.56125000  0.39017000  0.19081000  1.0
  H  H14  1  0.69461000  0.08411000  0.73714000  1.0
  H  H15  1  0.69460000  0.91591000  0.26286000  1.0
  H  H16  1  0.30540000  0.58409000  0.76286000  1.0
  H  H17  1  0.30539000  0.41591000  0.23713000  1.0
  H  H18  1  0.68162000  0.56012000  0.38364000  1.0
  H  H19  1  0.68163000  0.43991000  0.61635000  1.0
  H  H20  1  0.31838000  0.06009000  0.11636000  1.0
  H  H21  1  0.31837000  0.93988000  0.88364000  1.0
  H  H22  1  0.99084000  0.37121000  0.41421000  1.0
  H  H23  1  0.99085000  0.62881000  0.58579000  1.0
  H  H24  1  0.00916000  0.87118000  0.08580000  1.0
  H  H25  1  0.00915000  0.12879000  0.91421000  1.0
  C  C26  1  0.41444000  0.35770000  0.42406000  1.0
  C  C27  1  0.41444000  0.64232000  0.57594000  1.0
  C  C28  1  0.58556000  0.85768000  0.07594000  1.0
  C  C29  1  0.58557000  0.14227000  0.92406000  1.0
  C  C30  1  0.65381000  0.45098000  0.44424000  1.0
  C  C31  1  0.65382000  0.54904000  0.55575000  1.0
  C  C32  1  0.34619000  0.95096000  0.05576000  1.0
  C  C33  1  0.34618000  0.04902000  0.94424000  1.0
  O  O34  1  0.08826000  0.06366000  0.62218000  1.0
  O  O35  1  0.08825000  0.93637000  0.37782000  1.0
  O  O36  1  0.91174000  0.56363000  0.87782000  1.0
  O  O37  1  0.91174000  0.43635000  0.12218000  1.0
  O  O38  1  0.39571000  0.18764000  0.45178000  1.0
  O  O39  1  0.39571000  0.81240000  0.54821000  1.0
  O  O40  1  0.60429000  0.68760000  0.04821000  1.0
  O  O41  1  0.60429000  0.31237000  0.95178000  1.0
  O  O42  1  0.24889000  0.45489000  0.38344000  1.0
  O  O43  1  0.24891000  0.54513000  0.61656000  1.0
  O  O44  1  0.75109000  0.95487000  0.11657000  1.0
  O  O45  1  0.75109000  0.04510000  0.88344000  1.0
  O  O46  1  0.83657000  0.31416000  0.44003000  1.0
  O  O47  1  0.83658000  0.68587000  0.55997000  1.0
  O  O48  1  0.16342000  0.81412000  0.05997000  1.0
  O  O49  1  0.16343000  0.18585000  0.94003000  1.0
  O  O50  1  0.60661000  0.12323000  0.67283000  1.0
  O  O51  1  0.60660000  0.87681000  0.32717000  1.0
  O  O52  1  0.39340000  0.62318000  0.82717000  1.0
  O  O53  1  0.39339000  0.37678000  0.17283000  1.0
