# generated using pymatgen
data_ZnH17C22NO6
_symmetry_space_group_name_H-M   'P 1'
_cell_length_a   11.03850000
_cell_length_b   16.33390000
_cell_length_c   17.85110000
_cell_angle_alpha   95.95990000
_cell_angle_beta   90.10800000
_cell_angle_gamma   91.94570000
_symmetry_Int_Tables_number   1
_chemical_formula_structural   ZnH17C22NO6
_chemical_formula_sum   'Zn2 H34 C44 N2 O12'
_cell_volume   3199.29457081
_cell_formula_units_Z   2
loop_
 _symmetry_equiv_pos_site_id
 _symmetry_equiv_pos_as_xyz
  1  'x, y, z'
loop_
 _atom_site_type_symbol
 _atom_site_label
 _atom_site_symmetry_multiplicity
 _atom_site_fract_x
 _atom_site_fract_y
 _atom_site_fract_z
 _atom_site_occupancy
  Zn  Zn0  1  0.49617000  0.41485000  0.49439000  1.0
  Zn  Zn1  1  0.50396000  0.58429000  0.50532000  1.0
  H  H2  1  0.37520000  0.71057000  0.42862000  1.0
  H  H3  1  0.37895000  0.86198000  0.42905000  1.0
  H  H4  1  0.66803000  0.86919000  0.59671000  1.0
  H  H5  1  0.65000000  0.71988000  0.58704000  1.0
  H  H6  1  0.33344000  0.12997000  0.40183000  1.0
  H  H7  1  0.61861000  0.13710000  0.57196000  1.0
  H  H8  1  0.62244000  0.28877000  0.57254000  1.0
  H  H9  1  0.35116000  0.27934000  0.41192000  1.0
  H  H10  1  0.50626000  0.61945000  0.26320000  1.0
  H  H11  1  0.50660000  0.61202000  0.12494000  1.0
  H  H12  1  0.49134000  0.34497000  0.11632000  1.0
  H  H13  1  0.49100000  0.35615000  0.25202000  1.0
  H  H14  1  0.50880000  0.65581000  0.88376000  1.0
  H  H15  1  0.49317000  0.38870000  0.87447000  1.0
  H  H16  1  0.49392000  0.38177000  0.73615000  1.0
  H  H17  1  0.50962000  0.64507000  0.74812000  1.0
  H  H18  1  0.78065000  0.59841000  0.40218000  1.0
  H  H19  1  0.22938000  0.59457000  0.40014000  1.0
  H  H20  1  0.65638000  0.96871000  0.59513000  1.0
  H  H21  1  0.34293000  0.03046000  0.40473000  1.0
  H  H22  1  0.49048000  0.35230000  0.02784000  1.0
  H  H23  1  0.50962000  0.64817000  0.97187000  1.0
  H  H24  1  0.09264000  0.41680000  0.66101000  1.0
  H  H25  1  0.22282000  0.40842000  0.60250000  1.0
  H  H26  1  0.10156000  0.33464000  0.58923000  1.0
  H  H27  1  0.87866000  0.33540000  0.58845000  1.0
  H  H28  1  0.76879000  0.41192000  0.60467000  1.0
  H  H29  1  0.90225000  0.41610000  0.66106000  1.0
  H  H30  1  0.90145000  0.76452000  0.31947000  1.0
  H  H31  1  0.77815000  0.69087000  0.31249000  1.0
  H  H32  1  0.89838000  0.68316000  0.24621000  1.0
  H  H33  1  0.11833000  0.68348000  0.24584000  1.0
  H  H34  1  0.24181000  0.68765000  0.31018000  1.0
  H  H35  1  0.12881000  0.76347000  0.32017000  1.0
  C  C36  1  0.49745000  0.49206000  0.35111000  1.0
  C  C37  1  0.26309000  0.49720000  0.50007000  1.0
  C  C38  1  0.50310000  0.50966000  0.64871000  1.0
  C  C39  1  0.73692000  0.49897000  0.50077000  1.0
  C  C40  1  0.43834000  0.74942000  0.46482000  1.0
  C  C41  1  0.44089000  0.83442000  0.46545000  1.0
  C  C42  1  0.52299000  0.88350000  0.51335000  1.0
  C  C43  1  0.59936000  0.83974000  0.55769000  1.0
  C  C44  1  0.59137000  0.75451000  0.55355000  1.0
  C  C45  1  0.53284000  0.97375000  0.51974000  1.0
  C  C46  1  0.46671000  0.02538000  0.47997000  1.0
  C  C47  1  0.40109000  0.15942000  0.44155000  1.0
  C  C48  1  0.47653000  0.11564000  0.48644000  1.0
  C  C49  1  0.55762000  0.16474000  0.53505000  1.0
  C  C50  1  0.56028000  0.24976000  0.53574000  1.0
  C  C51  1  0.40908000  0.24465000  0.44581000  1.0
  C  C52  1  0.49782000  0.48834000  0.26705000  1.0
  C  C53  1  0.50252000  0.55964000  0.22970000  1.0
  C  C54  1  0.50282000  0.55539000  0.15157000  1.0
  C  C55  1  0.49844000  0.47870000  0.10626000  1.0
  C  C56  1  0.49427000  0.40743000  0.14542000  1.0
  C  C57  1  0.49395000  0.41196000  0.22345000  1.0
  C  C58  1  0.49802000  0.46932000  0.02354000  1.0
  C  C59  1  0.50196000  0.53118000  0.97619000  1.0
  C  C60  1  0.50595000  0.59342000  0.85455000  1.0
  C  C61  1  0.50159000  0.52198000  0.89349000  1.0
  C  C62  1  0.49715000  0.44541000  0.84797000  1.0
  C  C63  1  0.49768000  0.44144000  0.76985000  1.0
  C  C64  1  0.50269000  0.51293000  0.73274000  1.0
  C  C65  1  0.50653000  0.58916000  0.77655000  1.0
  C  C66  1  0.87276000  0.49918000  0.50140000  1.0
  C  C67  1  0.93771000  0.54851000  0.45211000  1.0
  C  C68  1  0.93285000  0.45184000  0.54930000  1.0
  C  C69  1  0.87931000  0.59771000  0.40256000  1.0
  C  C70  1  0.94299000  0.64598000  0.35594000  1.0
  C  C71  1  0.12725000  0.49783000  0.50066000  1.0
  C  C72  1  0.06246000  0.45121000  0.54903000  1.0
  C  C73  1  0.06730000  0.54763000  0.45164000  1.0
  C  C74  1  0.13078000  0.59587000  0.40153000  1.0
  C  C75  1  0.07242000  0.64510000  0.35546000  1.0
  C  C76  1  0.12417000  0.40077000  0.60310000  1.0
  C  C77  1  0.86611000  0.40178000  0.60358000  1.0
  C  C78  1  0.87662000  0.69864000  0.30610000  1.0
  C  C79  1  0.14425000  0.69737000  0.30553000  1.0
  N  N80  1  0.51168000  0.70973000  0.50798000  1.0
  N  N81  1  0.48795000  0.28943000  0.49196000  1.0
  O  O82  1  0.49408000  0.42360000  0.37928000  1.0
  O  O83  1  0.50071000  0.56338000  0.38838000  1.0
  O  O84  1  0.32019000  0.56659000  0.51007000  1.0
  O  O85  1  0.31194000  0.42740000  0.48965000  1.0
  O  O86  1  0.50675000  0.57833000  0.62094000  1.0
  O  O87  1  0.49949000  0.43849000  0.61115000  1.0
  O  O88  1  0.68085000  0.42923000  0.49053000  1.0
  O  O89  1  0.68706000  0.56850000  0.51016000  1.0
  O  O90  1  0.61646000  0.01095000  0.57053000  1.0
  O  O91  1  0.38340000  0.98818000  0.42897000  1.0
  O  O92  1  0.49315000  0.38970000  0.98888000  1.0
  O  O93  1  0.50689000  0.61081000  0.01086000  1.0
