# generated using pymatgen
data_CdH10(C2N)8
_symmetry_space_group_name_H-M   'P 1'
_cell_length_a   9.16483000
_cell_length_b   12.52840000
_cell_length_c   14.58890000
_cell_angle_alpha   89.99990000
_cell_angle_beta   90.00020000
_cell_angle_gamma   89.99980000
_symmetry_Int_Tables_number   1
_chemical_formula_structural   CdH10(C2N)8
_chemical_formula_sum   'Cd4 H40 C64 N32'
_cell_volume   1675.10707080
_cell_formula_units_Z   4
loop_
 _symmetry_equiv_pos_site_id
 _symmetry_equiv_pos_as_xyz
  1  'x, y, z'
loop_
 _atom_site_type_symbol
 _atom_site_label
 _atom_site_symmetry_multiplicity
 _atom_site_fract_x
 _atom_site_fract_y
 _atom_site_fract_z
 _atom_site_occupancy
  Cd  Cd0  1  0.12040000  0.32673000  0.81461000  1.0
  Cd  Cd1  1  0.37960000  0.67328000  0.31461000  1.0
  Cd  Cd2  1  0.87960000  0.82673000  0.68539000  1.0
  Cd  Cd3  1  0.62040000  0.17328000  0.18538000  1.0
  H  H4  1  0.98615000  0.21985000  0.64477000  1.0
  H  H5  1  0.51385000  0.78015000  0.14477000  1.0
  H  H6  1  0.01385000  0.71985000  0.85523000  1.0
  H  H7  1  0.48615000  0.28015000  0.35523000  1.0
  H  H8  1  0.93287000  0.01661000  0.40527000  1.0
  H  H9  1  0.56713000  0.98339000  0.90527000  1.0
  H  H10  1  0.06713000  0.51661000  0.09473000  1.0
  H  H11  1  0.43287000  0.48339000  0.59473000  1.0
  H  H12  1  0.38508000  0.21037000  0.49398000  1.0
  H  H13  1  0.11492000  0.78963000  0.99399000  1.0
  H  H14  1  0.61492000  0.71037000  0.00601000  1.0
  H  H15  1  0.88508000  0.28963000  0.50601000  1.0
  H  H16  1  0.96811000  0.07403000  0.56624000  1.0
  H  H17  1  0.53189000  0.92598000  0.06624000  1.0
  H  H18  1  0.03189000  0.57402000  0.93376000  1.0
  H  H19  1  0.46811000  0.42597000  0.43376000  1.0
  H  H20  1  0.12437000  0.05405000  0.28852000  1.0
  H  H21  1  0.37563000  0.94594000  0.78852000  1.0
  H  H22  1  0.87563000  0.55405000  0.21148000  1.0
  H  H23  1  0.62437000  0.44594000  0.71148000  1.0
  H  H24  1  0.44001000  0.06929000  0.59827000  1.0
  H  H25  1  0.05999000  0.93071000  0.09827000  1.0
  H  H26  1  0.55999000  0.56929000  0.90173000  1.0
  H  H27  1  0.94001000  0.43071000  0.40173000  1.0
  H  H28  1  0.68305000  0.18290000  0.83201000  1.0
  H  H29  1  0.81695000  0.81710000  0.33201000  1.0
  H  H30  1  0.31695000  0.68290000  0.66799000  1.0
  H  H31  1  0.18305000  0.31710000  0.16799000  1.0
  H  H32  1  0.46456000  0.29593000  0.87266000  1.0
  H  H33  1  0.03544000  0.70408000  0.37266000  1.0
  H  H34  1  0.53544000  0.79593000  0.62734000  1.0
  H  H35  1  0.96455000  0.20407000  0.12734000  1.0
  H  H36  1  0.66798000  0.06580000  0.69322000  1.0
  H  H37  1  0.83201000  0.93420000  0.19322000  1.0
  H  H38  1  0.33202000  0.56580000  0.80678000  1.0
  H  H39  1  0.16798000  0.43420000  0.30678000  1.0
  H  H40  1  0.34845000  0.14816000  0.33205000  1.0
  H  H41  1  0.15155000  0.85184000  0.83205000  1.0
  H  H42  1  0.65155000  0.64816000  0.16795000  1.0
  H  H43  1  0.84846000  0.35183000  0.66795000  1.0
  C  C44  1  0.03091000  0.06031000  0.42455000  1.0
  C  C45  1  0.46910000  0.93969000  0.92456000  1.0
  C  C46  1  0.96909000  0.56031000  0.07544000  1.0
  C  C47  1  0.53091000  0.43969000  0.57545000  1.0
  C  C48  1  0.28580000  0.16810000  0.47450000  1.0
  C  C49  1  0.21420000  0.83190000  0.97450000  1.0
  C  C50  1  0.71420000  0.66810000  0.02549000  1.0
  C  C51  1  0.78581000  0.33190000  0.52549000  1.0
  C  C52  1  0.17773000  0.14840000  0.54078000  1.0
  C  C53  1  0.32227000  0.85160000  0.04078000  1.0
  C  C54  1  0.82227000  0.64840000  0.95922000  1.0
  C  C55  1  0.67773000  0.35160000  0.45922000  1.0
  C  C56  1  0.05004000  0.09397000  0.51474000  1.0
  C  C57  1  0.44997000  0.90603000  0.01474000  1.0
  C  C58  1  0.94996000  0.59397000  0.98526000  1.0
  C  C59  1  0.55004000  0.40603000  0.48526000  1.0
  C  C60  1  0.13845000  0.08070000  0.35910000  1.0
  C  C61  1  0.36155000  0.91930000  0.85910000  1.0
  C  C62  1  0.86155000  0.58070000  0.14090000  1.0
  C  C63  1  0.63845000  0.41929000  0.64090000  1.0
  C  C64  1  0.33519000  0.18623000  0.68506000  1.0
  C  C65  1  0.16481000  0.81378000  0.18506000  1.0
  C  C66  1  0.66481000  0.68623000  0.81494000  1.0
  C  C67  1  0.83519000  0.31377000  0.31494000  1.0
  C  C68  1  0.45080000  0.12042000  0.65816000  1.0
  C  C69  1  0.04920000  0.87958000  0.15816000  1.0
  C  C70  1  0.54920000  0.62042000  0.84184000  1.0
  C  C71  1  0.95080000  0.37958000  0.34185000  1.0
  C  C72  1  0.58548000  0.18183000  0.78939000  1.0
  C  C73  1  0.91452000  0.81817000  0.28939000  1.0
  C  C74  1  0.41452000  0.68184000  0.71061000  1.0
  C  C75  1  0.08548000  0.31816000  0.21061000  1.0
  C  C76  1  0.46511000  0.24504000  0.81201000  1.0
  C  C77  1  0.03489000  0.75496000  0.31201000  1.0
  C  C78  1  0.53489000  0.74504000  0.68799000  1.0
  C  C79  1  0.96511000  0.25496000  0.18799000  1.0
  C  C80  1  0.19157000  0.18727000  0.63626000  1.0
  C  C81  1  0.30843000  0.81273000  0.13626000  1.0
  C  C82  1  0.80843000  0.68727000  0.86374000  1.0
  C  C83  1  0.69157000  0.31273000  0.36374000  1.0
  C  C84  1  0.57754000  0.11818000  0.71140000  1.0
  C  C85  1  0.92246000  0.88182000  0.21140000  1.0
  C  C86  1  0.42246000  0.61818000  0.78860000  1.0
  C  C87  1  0.07754000  0.38182000  0.28860000  1.0
  C  C88  1  0.14043000  0.14578000  0.98211000  1.0
  C  C89  1  0.35956000  0.85422000  0.48212000  1.0
  C  C90  1  0.85957000  0.64578000  0.51788000  1.0
  C  C91  1  0.64043000  0.35422000  0.01787000  1.0
  C  C92  1  0.28987000  0.11327000  0.10617000  1.0
  C  C93  1  0.21013000  0.88674000  0.60618000  1.0
  C  C94  1  0.71013000  0.61326000  0.39383000  1.0
  C  C95  1  0.78987000  0.38674000  0.89382000  1.0
  C  C96  1  0.13767000  0.47749000  0.63179000  1.0
  C  C97  1  0.36233000  0.52251000  0.13179000  1.0
  C  C98  1  0.86233000  0.97748000  0.86821000  1.0
  C  C99  1  0.63767000  0.02251000  0.36821000  1.0
  C  C100  1  0.19467000  0.53273000  0.48483000  1.0
  C  C101  1  0.30533000  0.46727000  0.98483000  1.0
  C  C102  1  0.80533000  0.03273000  0.01517000  1.0
  C  C103  1  0.69467000  0.96727000  0.51517000  1.0
  C  C104  1  0.26560000  0.13453000  0.38428000  1.0
  C  C105  1  0.23440000  0.86547000  0.88428000  1.0
  C  C106  1  0.73440000  0.63453000  0.11572000  1.0
  C  C107  1  0.76560000  0.36547000  0.61572000  1.0
  N  N108  1  0.08067000  0.22190000  0.68205000  1.0
  N  N109  1  0.41933000  0.77810000  0.18205000  1.0
  N  N110  1  0.91933000  0.72190000  0.81795000  1.0
  N  N111  1  0.58067000  0.27810000  0.31795000  1.0
  N  N112  1  0.13845000  0.47352000  0.71272000  1.0
  N  N113  1  0.36155000  0.52648000  0.21272000  1.0
  N  N114  1  0.86155000  0.97352000  0.78728000  1.0
  N  N115  1  0.63845000  0.02648000  0.28727000  1.0
  N  N116  1  0.34386000  0.24704000  0.76132000  1.0
  N  N117  1  0.15614000  0.75296000  0.26132000  1.0
  N  N118  1  0.65614000  0.74704000  0.73868000  1.0
  N  N119  1  0.84385000  0.25296000  0.23868000  1.0
  N  N120  1  0.38351000  0.12442000  0.16090000  1.0
  N  N121  1  0.11649000  0.87559000  0.66090000  1.0
  N  N122  1  0.61649000  0.62441000  0.33910000  1.0
  N  N123  1  0.88352000  0.37559000  0.83910000  1.0
  N  N124  1  0.09031000  0.18777000  0.91706000  1.0
  N  N125  1  0.40968000  0.81223000  0.41707000  1.0
  N  N126  1  0.90969000  0.68777000  0.58294000  1.0
  N  N127  1  0.59032000  0.31223000  0.08293000  1.0
  N  N128  1  0.24760000  0.58136000  0.42406000  1.0
  N  N129  1  0.25239000  0.41863000  0.92406000  1.0
  N  N130  1  0.75240000  0.08137000  0.07594000  1.0
  N  N131  1  0.74760000  0.91863000  0.57594000  1.0
  N  N132  1  0.12923000  0.47266000  0.54346000  1.0
  N  N133  1  0.37077000  0.52734000  0.04346000  1.0
  N  N134  1  0.87077000  0.97265000  0.95654000  1.0
  N  N135  1  0.62923000  0.02735000  0.45653000  1.0
  N  N136  1  0.18112000  0.09223000  0.05335000  1.0
  N  N137  1  0.31888000  0.90777000  0.55335000  1.0
  N  N138  1  0.81888000  0.59223000  0.44665000  1.0
  N  N139  1  0.68112000  0.40777000  0.94665000  1.0
