# generated using pymatgen
data_ZnH28C34N4(ClO2)2
_symmetry_space_group_name_H-M   'P 1'
_cell_length_a   8.75868000
_cell_length_b   11.63030000
_cell_length_c   15.35440000
_cell_angle_alpha   79.34880000
_cell_angle_beta   89.66150000
_cell_angle_gamma   76.46560000
_symmetry_Int_Tables_number   1
_chemical_formula_structural   ZnH28C34N4(ClO2)2
_chemical_formula_sum   'Zn2 H56 C68 N8 Cl4 O8'
_cell_volume   1493.31484100
_cell_formula_units_Z   2
loop_
 _symmetry_equiv_pos_site_id
 _symmetry_equiv_pos_as_xyz
  1  'x, y, z'
loop_
 _atom_site_type_symbol
 _atom_site_label
 _atom_site_symmetry_multiplicity
 _atom_site_fract_x
 _atom_site_fract_y
 _atom_site_fract_z
 _atom_site_occupancy
  Zn  Zn0  1  0.40281000  0.64200000  0.73746000  1.0
  Zn  Zn1  1  0.59720000  0.35800000  0.26254000  1.0
  H  H2  1  0.44959000  0.36724000  0.75159000  1.0
  H  H3  1  0.55040000  0.63276000  0.24841000  1.0
  H  H4  1  0.74892000  0.69416000  0.70639000  1.0
  H  H5  1  0.25108000  0.30584000  0.29361000  1.0
  H  H6  1  0.67955000  0.96821000  0.73017000  1.0
  H  H7  1  0.32045000  0.03179000  0.26982000  1.0
  H  H8  1  0.82116000  0.29101000  0.50288000  1.0
  H  H9  1  0.17885000  0.70899000  0.49713000  1.0
  H  H10  1  0.96959000  0.83308000  0.61714000  1.0
  H  H11  1  0.03041000  0.16692000  0.38287000  1.0
  H  H12  1  0.59977000  0.71264000  0.55274000  1.0
  H  H13  1  0.40023000  0.28736000  0.44726000  1.0
  H  H14  1  0.99327000  0.74309000  0.76172000  1.0
  H  H15  1  0.00674000  0.25691000  0.23828000  1.0
  H  H16  1  0.00301000  0.75724000  0.87302000  1.0
  H  H17  1  0.99699000  0.24277000  0.12698000  1.0
  H  H18  1  0.31557000  0.73218000  0.92141000  1.0
  H  H19  1  0.68443000  0.26783000  0.07859000  1.0
  H  H20  1  0.62343000  0.18120000  0.58749000  1.0
  H  H21  1  0.37657000  0.81880000  0.41250000  1.0
  H  H22  1  0.52498000  0.17815000  0.68781000  1.0
  H  H23  1  0.47502000  0.82186000  0.31219000  1.0
  H  H24  1  0.81007000  0.85654000  0.98443000  1.0
  H  H25  1  0.18992000  0.14347000  0.01557000  1.0
  H  H26  1  0.15840000  0.91258000  0.82460000  1.0
  H  H27  1  0.84159000  0.08742000  0.17540000  1.0
  H  H28  1  0.74521000  0.44584000  0.98691000  1.0
  H  H29  1  0.25479000  0.55416000  0.01308000  1.0
  H  H30  1  0.90545000  0.26375000  0.69112000  1.0
  H  H31  1  0.09455000  0.73626000  0.30888000  1.0
  H  H32  1  0.71951000  0.79035000  0.42245000  1.0
  H  H33  1  0.28049000  0.20965000  0.57755000  1.0
  H  H34  1  0.77159000  0.69811000  0.34053000  1.0
  H  H35  1  0.22841000  0.30189000  0.65947000  1.0
  H  H36  1  0.91383000  0.70309000  0.41938000  1.0
  H  H37  1  0.08617000  0.29691000  0.58062000  1.0
  H  H38  1  0.02204000  0.49736000  0.38844000  1.0
  H  H39  1  0.97796000  0.50264000  0.61156000  1.0
  H  H40  1  0.85879000  0.50555000  0.31881000  1.0
  H  H41  1  0.14121000  0.49445000  0.68119000  1.0
  H  H42  1  0.95899000  0.36409000  0.38190000  1.0
  H  H43  1  0.04101000  0.63590000  0.61810000  1.0
  H  H44  1  0.14623000  0.12948000  0.76804000  1.0
  H  H45  1  0.85376000  0.87052000  0.23197000  1.0
  H  H46  1  0.20455000  0.79477000  0.04923000  1.0
  H  H47  1  0.79545000  0.20523000  0.95077000  1.0
  H  H48  1  0.26844000  0.91273000  0.08607000  1.0
  H  H49  1  0.73156000  0.08727000  0.91393000  1.0
  H  H50  1  0.34196000  0.76221000  0.13946000  1.0
  H  H51  1  0.65804000  0.23779000  0.86054000  1.0
  H  H52  1  0.62267000  0.81298000  0.16946000  1.0
  H  H53  1  0.37733000  0.18702000  0.83054000  1.0
  H  H54  1  0.49286000  0.95439000  0.12480000  1.0
  H  H55  1  0.50714000  0.04561000  0.87520000  1.0
  H  H56  1  0.69764000  0.93126000  0.10798000  1.0
  H  H57  1  0.30236000  0.06874000  0.89202000  1.0
  C  C58  1  0.13405000  0.92604000  0.55248000  1.0
  C  C59  1  0.86596000  0.07397000  0.44753000  1.0
  C  C60  1  0.67367000  0.40526000  0.58272000  1.0
  C  C61  1  0.32633000  0.59474000  0.41728000  1.0
  C  C62  1  0.61395000  0.52296000  0.59859000  1.0
  C  C63  1  0.38605000  0.47704000  0.40141000  1.0
  C  C64  1  0.51986000  0.39987000  0.69791000  1.0
  C  C65  1  0.48013000  0.60013000  0.30209000  1.0
  C  C66  1  0.70061000  0.71786000  0.76773000  1.0
  C  C67  1  0.29939000  0.28214000  0.23227000  1.0
  C  C68  1  0.78285000  0.00289000  0.73874000  1.0
  C  C69  1  0.21715000  0.99711000  0.26125000  1.0
  C  C70  1  0.77356000  0.38231000  0.51372000  1.0
  C  C71  1  0.22644000  0.61769000  0.48628000  1.0
  C  C72  1  0.98305000  0.90688000  0.56533000  1.0
  C  C73  1  0.01696000  0.09313000  0.43468000  1.0
  C  C74  1  0.65021000  0.62138000  0.54247000  1.0
  C  C75  1  0.34979000  0.37862000  0.45753000  1.0
  C  C76  1  0.91929000  0.92597000  0.78128000  1.0
  C  C77  1  0.08070000  0.07404000  0.21872000  1.0
  C  C78  1  0.54468000  0.74937000  0.87656000  1.0
  C  C79  1  0.45532000  0.25063000  0.12344000  1.0
  C  C80  1  0.85109000  0.97776000  0.51522000  1.0
  C  C81  1  0.14891000  0.02225000  0.48478000  1.0
  C  C82  1  0.26766000  0.84039000  0.60998000  1.0
  C  C83  1  0.73235000  0.15961000  0.39002000  1.0
  C  C84  1  0.74796000  0.59995000  0.47213000  1.0
  C  C85  1  0.25205000  0.40005000  0.52787000  1.0
  C  C86  1  0.77691000  0.12425000  0.70480000  1.0
  C  C87  1  0.22308000  0.87575000  0.29520000  1.0
  C  C88  1  0.93138000  0.79249000  0.81115000  1.0
  C  C89  1  0.06862000  0.20751000  0.18885000  1.0
  C  C90  1  0.68298000  0.78444000  0.89464000  1.0
  C  C91  1  0.31702000  0.21556000  0.10536000  1.0
  C  C92  1  0.10554000  0.49444000  0.92931000  1.0
  C  C93  1  0.89446000  0.50556000  0.07069000  1.0
  C  C94  1  0.42152000  0.76073000  0.93501000  1.0
  C  C95  1  0.57847000  0.23927000  0.06499000  1.0
  C  C96  1  0.81149000  0.48028000  0.45825000  1.0
  C  C97  1  0.18851000  0.51971000  0.54175000  1.0
  C  C98  1  0.62853000  0.20079000  0.65483000  1.0
  C  C99  1  0.37147000  0.79921000  0.34516000  1.0
  C  C100  1  0.22334000  0.48952000  0.85685000  1.0
  C  C101  1  0.77666000  0.51047000  0.14315000  1.0
  C  C102  1  0.70253000  0.83016000  0.97053000  1.0
  C  C103  1  0.29747000  0.16984000  0.02947000  1.0
  C  C104  1  0.96053000  0.46370000  0.92342000  1.0
  C  C105  1  0.03947000  0.53629000  0.07657000  1.0
  C  C106  1  0.05083000  0.97203000  0.79185000  1.0
  C  C107  1  0.94916000  0.02797000  0.20815000  1.0
  C  C108  1  0.85762000  0.46917000  0.99300000  1.0
  C  C109  1  0.14239000  0.53083000  0.00699000  1.0
  C  C110  1  0.90843000  0.16923000  0.71587000  1.0
  C  C111  1  0.09157000  0.83078000  0.28413000  1.0
  C  C112  1  0.43861000  0.80703000  0.01101000  1.0
  C  C113  1  0.56139000  0.19297000  0.98899000  1.0
  C  C114  1  0.57965000  0.84139000  0.02910000  1.0
  C  C115  1  0.42035000  0.15861000  0.97089000  1.0
  C  C116  1  0.78902000  0.70373000  0.41041000  1.0
  C  C117  1  0.21098000  0.29627000  0.58959000  1.0
  C  C118  1  0.91864000  0.46032000  0.38304000  1.0
  C  C119  1  0.08136000  0.53968000  0.61696000  1.0
  C  C120  1  0.04458000  0.09319000  0.75951000  1.0
  C  C121  1  0.95542000  0.90682000  0.24050000  1.0
  C  C122  1  0.30670000  0.82005000  0.07420000  1.0
  C  C123  1  0.69330000  0.17995000  0.92580000  1.0
  C  C124  1  0.59847000  0.88814000  0.11228000  1.0
  C  C125  1  0.40153000  0.11186000  0.88772000  1.0
  N  N126  1  0.61050000  0.32993000  0.64657000  1.0
  N  N127  1  0.38949000  0.67007000  0.35342000  1.0
  N  N128  1  0.55996000  0.70775000  0.79661000  1.0
  N  N129  1  0.44004000  0.29225000  0.20339000  1.0
  N  N130  1  0.51856000  0.51590000  0.67187000  1.0
  N  N131  1  0.48143000  0.48410000  0.32813000  1.0
  N  N132  1  0.77974000  0.76258000  0.82437000  1.0
  N  N133  1  0.22026000  0.23742000  0.17563000  1.0
  Cl  Cl134  1  0.67531000  0.94043000  0.54207000  1.0
  Cl  Cl135  1  0.32470000  0.05957000  0.45793000  1.0
  Cl  Cl136  1  0.90036000  0.42183000  0.82897000  1.0
  Cl  Cl137  1  0.09964000  0.57817000  0.17102000  1.0
  O  O138  1  0.22436000  0.76333000  0.67204000  1.0
  O  O139  1  0.77564000  0.23667000  0.32796000  1.0
  O  O140  1  0.28211000  0.58315000  0.84019000  1.0
  O  O141  1  0.71790000  0.41685000  0.15980000  1.0
  O  O142  1  0.25465000  0.39978000  0.82062000  1.0
  O  O143  1  0.74535000  0.60022000  0.17937000  1.0
  O  O144  1  0.40723000  0.84315000  0.59607000  1.0
  O  O145  1  0.59278000  0.15685000  0.40393000  1.0
