# generated using pymatgen
data_CdH38C44(NO)8
_symmetry_space_group_name_H-M   'P 1'
_cell_length_a   9.47892000
_cell_length_b   10.53010000
_cell_length_c   20.03420000
_cell_angle_alpha   84.36220000
_cell_angle_beta   79.11530000
_cell_angle_gamma   83.28060000
_symmetry_Int_Tables_number   1
_chemical_formula_structural   CdH38C44(NO)8
_chemical_formula_sum   'Cd2 H76 C88 N16 O16'
_cell_volume   1944.27517522
_cell_formula_units_Z   2
loop_
 _symmetry_equiv_pos_site_id
 _symmetry_equiv_pos_as_xyz
  1  'x, y, z'
loop_
 _atom_site_type_symbol
 _atom_site_label
 _atom_site_symmetry_multiplicity
 _atom_site_fract_x
 _atom_site_fract_y
 _atom_site_fract_z
 _atom_site_occupancy
  Cd  Cd0  1  0.02614000  0.64552000  0.26327000  1.0
  Cd  Cd1  1  0.97386000  0.35448000  0.73673000  1.0
  H  H2  1  0.56034000  0.91162000  0.27090000  1.0
  H  H3  1  0.43966000  0.08838000  0.72910000  1.0
  H  H4  1  0.50575000  0.63212000  0.26209000  1.0
  H  H5  1  0.49426000  0.36788000  0.73791000  1.0
  H  H6  1  0.88632000  0.72536000  0.95420000  1.0
  H  H7  1  0.11368000  0.27464000  0.04580000  1.0
  H  H8  1  0.84211000  0.67521000  0.14207000  1.0
  H  H9  1  0.15789000  0.32478000  0.85793000  1.0
  H  H10  1  0.28206000  0.59634000  0.14040000  1.0
  H  H11  1  0.71795000  0.40366000  0.85960000  1.0
  H  H12  1  0.33315000  0.59060000  0.01255000  1.0
  H  H13  1  0.66686000  0.40940000  0.98745000  1.0
  H  H14  1  0.12848000  0.63849000  0.94861000  1.0
  H  H15  1  0.87152000  0.36151000  0.05139000  1.0
  H  H16  1  0.66840000  0.72694000  0.92503000  1.0
  H  H17  1  0.33160000  0.27306000  0.07497000  1.0
  H  H18  1  0.52348000  0.67322000  0.98657000  1.0
  H  H19  1  0.47651000  0.32678000  0.01343000  1.0
  H  H20  1  0.52251000  0.84457000  0.10005000  1.0
  H  H21  1  0.47749000  0.15543000  0.89995000  1.0
  H  H22  1  0.57075000  0.92810000  0.88308000  1.0
  H  H23  1  0.42925000  0.07191000  0.11692000  1.0
  H  H24  1  0.17264000  0.74202000  0.56015000  1.0
  H  H25  1  0.82737000  0.25798000  0.43985000  1.0
  H  H26  1  0.20119000  0.70013000  0.37721000  1.0
  H  H27  1  0.79881000  0.29987000  0.62279000  1.0
  H  H28  1  0.78073000  0.60691000  0.39690000  1.0
  H  H29  1  0.21927000  0.39310000  0.60310000  1.0
  H  H30  1  0.74453000  0.60585000  0.52484000  1.0
  H  H31  1  0.25547000  0.39416000  0.47516000  1.0
  H  H32  1  0.94515000  0.66053000  0.57847000  1.0
  H  H33  1  0.05485000  0.33947000  0.42153000  1.0
  H  H34  1  0.54445000  0.66731000  0.52288000  1.0
  H  H35  1  0.45556000  0.33270000  0.47712000  1.0
  H  H36  1  0.39386000  0.71562000  0.58573000  1.0
  H  H37  1  0.60615000  0.28438000  0.41426000  1.0
  H  H38  1  0.45069000  0.91019000  0.62009000  1.0
  H  H39  1  0.54931000  0.08982000  0.37991000  1.0
  H  H40  1  0.49933000  0.86354000  0.40560000  1.0
  H  H41  1  0.50066000  0.13647000  0.59439000  1.0
  H  H42  1  0.20283000  0.02455000  0.23155000  1.0
  H  H43  1  0.79717000  0.97545000  0.76845000  1.0
  H  H44  1  0.03736000  0.36439000  0.20776000  1.0
  H  H45  1  0.96264000  0.63561000  0.79225000  1.0
  H  H46  1  0.27645000  0.49837000  0.33484000  1.0
  H  H47  1  0.72355000  0.50163000  0.66517000  1.0
  H  H48  1  0.41286000  0.28237000  0.35010000  1.0
  H  H49  1  0.58713000  0.71763000  0.64990000  1.0
  H  H50  1  0.35344000  0.09971000  0.29124000  1.0
  H  H51  1  0.64656000  0.90028000  0.70876000  1.0
  H  H52  1  0.17596000  0.92614000  0.13784000  1.0
  H  H53  1  0.82404000  0.07386000  0.86216000  1.0
  H  H54  1  0.99197000  0.94781000  0.17379000  1.0
  H  H55  1  0.00803000  0.05219000  0.82621000  1.0
  H  H56  1  0.24936000  0.92160000  0.01629000  1.0
  H  H57  1  0.75064000  0.07840000  0.98371000  1.0
  H  H58  1  0.81529000  0.07180000  0.09727000  1.0
  H  H59  1  0.18471000  0.92820000  0.90273000  1.0
  H  H60  1  0.79858000  0.00033000  0.26978000  1.0
  H  H61  1  0.20142000  0.99967000  0.73022000  1.0
  H  H62  1  0.64028000  0.05100000  0.19399000  1.0
  H  H63  1  0.35972000  0.94900000  0.80601000  1.0
  H  H64  1  0.53200000  0.42614000  0.12330000  1.0
  H  H65  1  0.46799000  0.57386000  0.87670000  1.0
  H  H66  1  0.66956000  0.51025000  0.20104000  1.0
  H  H67  1  0.33045000  0.48975000  0.79896000  1.0
  H  H68  1  0.79079000  0.35836000  0.28073000  1.0
  H  H69  1  0.20921000  0.64163000  0.71927000  1.0
  H  H70  1  0.86253000  0.90751000  0.36631000  1.0
  H  H71  1  0.13748000  0.09249000  0.63368000  1.0
  H  H72  1  0.03273000  0.95564000  0.32919000  1.0
  H  H73  1  0.96728000  0.04436000  0.67080000  1.0
  H  H74  1  0.18303000  0.04547000  0.39689000  1.0
  H  H75  1  0.81698000  0.95453000  0.60311000  1.0
  H  H76  1  0.76173000  0.93826000  0.48846000  1.0
  H  H77  1  0.23827000  0.06174000  0.51154000  1.0
  C  C78  1  0.73949000  0.75657000  0.26605000  1.0
  C  C79  1  0.26051000  0.24343000  0.73395000  1.0
  C  C80  1  0.58627000  0.80824000  0.26849000  1.0
  C  C81  1  0.41373000  0.19176000  0.73151000  1.0
  C  C82  1  0.48157000  0.73537000  0.26504000  1.0
  C  C83  1  0.51843000  0.26463000  0.73496000  1.0
  C  C84  1  0.32911000  0.78896000  0.26245000  1.0
  C  C85  1  0.67089000  0.21104000  0.73755000  1.0
  C  C86  1  0.96864000  0.66105000  0.04045000  1.0
  C  C87  1  0.03136000  0.33895000  0.95955000  1.0
  C  C88  1  0.94928000  0.65834000  0.11176000  1.0
  C  C89  1  0.05072000  0.34166000  0.88824000  1.0
  C  C90  1  0.19610000  0.61226000  0.11034000  1.0
  C  C91  1  0.80390000  0.38774000  0.88966000  1.0
  C  C92  1  0.22326000  0.61111000  0.03969000  1.0
  C  C93  1  0.77674000  0.38888000  0.96031000  1.0
  C  C94  1  0.10947000  0.63655000  0.00407000  1.0
  C  C95  1  0.89053000  0.36345000  0.99592000  1.0
  C  C96  1  0.71197000  0.68025000  0.02817000  1.0
  C  C97  1  0.28803000  0.31975000  0.97183000  1.0
  C  C98  1  0.61351000  0.73333000  0.97820000  1.0
  C  C99  1  0.38649000  0.26667000  0.02180000  1.0
  C  C100  1  0.55481000  0.87115000  0.99006000  1.0
  C  C101  1  0.44518000  0.12885000  0.00994000  1.0
  C  C102  1  0.51271000  0.91250000  0.05597000  1.0
  C  C103  1  0.48729000  0.08750000  0.94403000  1.0
  C  C104  1  0.54118000  0.96028000  0.93441000  1.0
  C  C105  1  0.45881000  0.03973000  0.06560000  1.0
  C  C106  1  0.09024000  0.68110000  0.48193000  1.0
  C  C107  1  0.90976000  0.31890000  0.51807000  1.0
  C  C108  1  0.10174000  0.67939000  0.41122000  1.0
  C  C109  1  0.89826000  0.32061000  0.58878000  1.0
  C  C110  1  0.86563000  0.62846000  0.42273000  1.0
  C  C111  1  0.13437000  0.37155000  0.57727000  1.0
  C  C112  1  0.84594000  0.62995000  0.49336000  1.0
  C  C113  1  0.15406000  0.37006000  0.50664000  1.0
  C  C114  1  0.95795000  0.65774000  0.52342000  1.0
  C  C115  1  0.04205000  0.34227000  0.47658000  1.0
  C  C116  1  0.34757000  0.68620000  0.48695000  1.0
  C  C117  1  0.65243000  0.31379000  0.51304000  1.0
  C  C118  1  0.44311000  0.73035000  0.53163000  1.0
  C  C119  1  0.55689000  0.26965000  0.46837000  1.0
  C  C120  1  0.47240000  0.86951000  0.51483000  1.0
  C  C121  1  0.52760000  0.13049000  0.48516000  1.0
  C  C122  1  0.47313000  0.94893000  0.56703000  1.0
  C  C123  1  0.52687000  0.05107000  0.43297000  1.0
  C  C124  1  0.49995000  0.92277000  0.44729000  1.0
  C  C125  1  0.50005000  0.07723000  0.55271000  1.0
  C  C126  1  0.19223000  0.21803000  0.24436000  1.0
  C  C127  1  0.80777000  0.78197000  0.75564000  1.0
  C  C128  1  0.12041000  0.34219000  0.23897000  1.0
  C  C129  1  0.87959000  0.65780000  0.76103000  1.0
  C  C130  1  0.25415000  0.41669000  0.31048000  1.0
  C  C131  1  0.74585000  0.58331000  0.68953000  1.0
  C  C132  1  0.32969000  0.29640000  0.31858000  1.0
  C  C133  1  0.67031000  0.70360000  0.68142000  1.0
  C  C134  1  0.29808000  0.19584000  0.28580000  1.0
  C  C135  1  0.70192000  0.80416000  0.71420000  1.0
  C  C136  1  0.09360000  0.12034000  0.15800000  1.0
  C  C137  1  0.90640000  0.87966000  0.84200000  1.0
  C  C138  1  0.07638000  0.98996000  0.13519000  1.0
  C  C139  1  0.92362000  0.01004000  0.86481000  1.0
  C  C140  1  0.03698000  0.99533000  0.06551000  1.0
  C  C141  1  0.96302000  0.00467000  0.93449000  1.0
  C  C142  1  0.13962000  0.95635000  0.00954000  1.0
  C  C143  1  0.86037000  0.04365000  0.99046000  1.0
  C  C144  1  0.89707000  0.03938000  0.05489000  1.0
  C  C145  1  0.10293000  0.96062000  0.94511000  1.0
  C  C146  1  0.72638000  0.19120000  0.24349000  1.0
  C  C147  1  0.27362000  0.80879000  0.75651000  1.0
  C  C148  1  0.64685000  0.15316000  0.19749000  1.0
  C  C149  1  0.35315000  0.84683000  0.80251000  1.0
  C  C150  1  0.58680000  0.36037000  0.15807000  1.0
  C  C151  1  0.41320000  0.63963000  0.84193000  1.0
  C  C152  1  0.66265000  0.40785000  0.20183000  1.0
  C  C153  1  0.33735000  0.59215000  0.79818000  1.0
  C  C154  1  0.73233000  0.32330000  0.24585000  1.0
  C  C155  1  0.26768000  0.67670000  0.75415000  1.0
  C  C156  1  0.86308000  0.10826000  0.33548000  1.0
  C  C157  1  0.13692000  0.89173000  0.66452000  1.0
  C  C158  1  0.93317000  0.98336000  0.36526000  1.0
  C  C159  1  0.06683000  0.01664000  0.63473000  1.0
  C  C160  1  0.96792000  0.99198000  0.43465000  1.0
  C  C161  1  0.03209000  0.00802000  0.56535000  1.0
  C  C162  1  0.10217000  0.02609000  0.44213000  1.0
  C  C163  1  0.89783000  0.97392000  0.55787000  1.0
  C  C164  1  0.86623000  0.96609000  0.49334000  1.0
  C  C165  1  0.13377000  0.03391000  0.50665000  1.0
  N  N166  1  0.06084000  0.63560000  0.14515000  1.0
  N  N167  1  0.93916000  0.36440000  0.85485000  1.0
  N  N168  1  0.85538000  0.69173000  0.00445000  1.0
  N  N169  1  0.14462000  0.30827000  0.99555000  1.0
  N  N170  1  0.99177000  0.65394000  0.38273000  1.0
  N  N171  1  0.00822000  0.34607000  0.61727000  1.0
  N  N172  1  0.20301000  0.70760000  0.51224000  1.0
  N  N173  1  0.79699000  0.29239000  0.48776000  1.0
  N  N174  1  0.15060000  0.43766000  0.27199000  1.0
  N  N175  1  0.84939000  0.56233000  0.72801000  1.0
  N  N176  1  0.16158000  0.11448000  0.21255000  1.0
  N  N177  1  0.83843000  0.88552000  0.78745000  1.0
  N  N178  1  0.57818000  0.23462000  0.15599000  1.0
  N  N179  1  0.42181000  0.76538000  0.84401000  1.0
  N  N180  1  0.79611000  0.09434000  0.28259000  1.0
  N  N181  1  0.20389000  0.90565000  0.71741000  1.0
  O  O182  1  0.77394000  0.63596000  0.27304000  1.0
  O  O183  1  0.22606000  0.36404000  0.72696000  1.0
  O  O184  1  0.83429000  0.83752000  0.25599000  1.0
  O  O185  1  0.16572000  0.16248000  0.74401000  1.0
  O  O186  1  0.25177000  0.70930000  0.24619000  1.0
  O  O187  1  0.74823000  0.29070000  0.75381000  1.0
  O  O188  1  0.28839000  0.90401000  0.27560000  1.0
  O  O189  1  0.71161000  0.09599000  0.72439000  1.0
  O  O190  1  0.66314000  0.63400000  0.08613000  1.0
  O  O191  1  0.33685000  0.36600000  0.91387000  1.0
  O  O192  1  0.39857000  0.63638000  0.43290000  1.0
  O  O193  1  0.60143000  0.36361000  0.56710000  1.0
  O  O194  1  0.04794000  0.22391000  0.13001000  1.0
  O  O195  1  0.95206000  0.77609000  0.86999000  1.0
  O  O196  1  0.86839000  0.21441000  0.35715000  1.0
  O  O197  1  0.13161000  0.78559000  0.64285000  1.0
