# generated using pymatgen
data_MnH18C16N3O7
_symmetry_space_group_name_H-M   'P 1'
_cell_length_a   8.83493000
_cell_length_b   10.18650000
_cell_length_c   11.17580000
_cell_angle_alpha   89.78070000
_cell_angle_beta   79.78600000
_cell_angle_gamma   70.01400000
_symmetry_Int_Tables_number   1
_chemical_formula_structural   MnH18C16N3O7
_chemical_formula_sum   'Mn2 H36 C32 N6 O14'
_cell_volume   928.48200375
_cell_formula_units_Z   2
loop_
 _symmetry_equiv_pos_site_id
 _symmetry_equiv_pos_as_xyz
  1  'x, y, z'
loop_
 _atom_site_type_symbol
 _atom_site_label
 _atom_site_symmetry_multiplicity
 _atom_site_fract_x
 _atom_site_fract_y
 _atom_site_fract_z
 _atom_site_occupancy
  Mn  Mn0  1  0.28873000  0.86044000  0.90477000  1.0
  Mn  Mn1  1  0.71127000  0.13957000  0.09524000  1.0
  H  H2  1  0.65016000  0.45716000  0.85380000  1.0
  H  H3  1  0.34985000  0.54285000  0.14619000  1.0
  H  H4  1  0.56666000  0.81250000  0.01916000  1.0
  H  H5  1  0.43336000  0.18749000  0.98084000  1.0
  H  H6  1  0.57543000  0.67995000  0.93474000  1.0
  H  H7  1  0.42459000  0.32004000  0.06525000  1.0
  H  H8  1  0.12375000  0.04863000  0.10167000  1.0
  H  H9  1  0.87625000  0.95136000  0.89833000  1.0
  H  H10  1  0.05096000  0.93164000  0.11547000  1.0
  H  H11  1  0.94904000  0.06835000  0.88453000  1.0
  H  H12  1  0.74744000  0.79433000  0.39024000  1.0
  H  H13  1  0.25255000  0.20566000  0.60975000  1.0
  H  H14  1  0.67016000  0.66218000  0.36358000  1.0
  H  H15  1  0.32982000  0.33781000  0.63642000  1.0
  H  H16  1  0.62186000  0.50236000  0.44456000  1.0
  H  H17  1  0.37812000  0.49763000  0.55544000  1.0
  H  H18  1  0.70036000  0.35087000  0.52398000  1.0
  H  H19  1  0.29963000  0.64912000  0.47602000  1.0
  H  H20  1  0.76740000  0.34799000  0.36585000  1.0
  H  H21  1  0.23259000  0.65201000  0.63415000  1.0
  H  H22  1  0.15780000  0.13433000  0.47626000  1.0
  H  H23  1  0.84218000  0.86567000  0.52373000  1.0
  H  H24  1  0.97625000  0.18229000  0.41675000  1.0
  H  H25  1  0.02376000  0.81771000  0.58324000  1.0
  H  H26  1  0.96473000  0.17669000  0.57597000  1.0
  H  H27  1  0.03526000  0.82330000  0.42401000  1.0
  H  H28  1  0.20963000  0.96827000  0.63235000  1.0
  H  H29  1  0.79036000  0.03176000  0.36764000  1.0
  H  H30  1  0.65765000  0.68471000  0.69293000  1.0
  H  H31  1  0.34233000  0.31531000  0.30707000  1.0
  H  H32  1  0.31229000  0.37433000  0.88063000  1.0
  H  H33  1  0.68772000  0.62567000  0.11937000  1.0
  H  H34  1  0.89240000  0.26623000  0.83647000  1.0
  H  H35  1  0.10760000  0.73378000  0.16353000  1.0
  H  H36  1  0.86349000  0.69689000  0.83941000  1.0
  H  H37  1  0.13652000  0.30311000  0.16059000  1.0
  C  C38  1  0.85886000  0.60116000  0.47294000  1.0
  C  C39  1  0.14113000  0.39884000  0.52707000  1.0
  C  C40  1  0.87094000  0.45953000  0.47375000  1.0
  C  C41  1  0.12905000  0.54046000  0.52625000  1.0
  C  C42  1  0.01450000  0.35728000  0.49840000  1.0
  C  C43  1  0.98549000  0.64272000  0.50161000  1.0
  C  C44  1  0.71371000  0.70860000  0.43262000  1.0
  C  C45  1  0.28627000  0.29139000  0.56738000  1.0
  C  C46  1  0.73292000  0.41422000  0.45068000  1.0
  C  C47  1  0.26707000  0.58577000  0.54932000  1.0
  C  C48  1  0.02995000  0.20512000  0.49201000  1.0
  C  C49  1  0.97004000  0.79488000  0.50799000  1.0
  C  C50  1  0.33544000  0.89674000  0.61669000  1.0
  C  C51  1  0.66455000  0.10327000  0.38331000  1.0
  C  C52  1  0.56115000  0.75489000  0.65168000  1.0
  C  C53  1  0.43884000  0.24513000  0.34832000  1.0
  C  C54  1  0.09710000  0.54541000  0.85685000  1.0
  C  C55  1  0.90292000  0.45459000  0.14316000  1.0
  C  C56  1  0.18658000  0.40409000  0.86612000  1.0
  C  C57  1  0.81343000  0.59591000  0.13388000  1.0
  C  C58  1  0.11367000  0.30297000  0.85872000  1.0
  C  C59  1  0.88634000  0.69703000  0.14129000  1.0
  C  C60  1  0.95101000  0.34373000  0.84184000  1.0
  C  C61  1  0.04901000  0.65627000  0.15816000  1.0
  C  C62  1  0.86123000  0.48481000  0.83731000  1.0
  C  C63  1  0.13878000  0.51519000  0.16269000  1.0
  C  C64  1  0.93385000  0.58612000  0.84193000  1.0
  C  C65  1  0.06617000  0.41388000  0.15807000  1.0
  C  C66  1  0.17145000  0.65473000  0.87322000  1.0
  C  C67  1  0.82857000  0.34526000  0.12678000  1.0
  C  C68  1  0.20238000  0.15188000  0.87461000  1.0
  C  C69  1  0.79763000  0.84812000  0.12540000  1.0
  N  N70  1  0.57321000  0.77133000  0.53145000  1.0
  N  N71  1  0.42677000  0.22868000  0.46854000  1.0
  N  N72  1  0.42955000  0.86192000  0.50687000  1.0
  N  N73  1  0.57044000  0.13809000  0.49312000  1.0
  N  N74  1  0.41099000  0.83358000  0.70897000  1.0
  N  N75  1  0.58899000  0.16644000  0.29103000  1.0
  O  O76  1  0.08542000  0.78424000  0.86759000  1.0
  O  O77  1  0.91461000  0.21575000  0.13241000  1.0
  O  O78  1  0.31637000  0.61803000  0.89429000  1.0
  O  O79  1  0.68365000  0.38195000  0.10570000  1.0
  O  O80  1  0.33326000  0.11156000  0.91682000  1.0
  O  O81  1  0.66674000  0.88844000  0.08320000  1.0
  O  O82  1  0.13804000  0.06346000  0.84508000  1.0
  O  O83  1  0.86195000  0.93655000  0.15493000  1.0
  O  O84  1  0.69665000  0.53019000  0.83146000  1.0
  O  O85  1  0.30336000  0.46982000  0.16853000  1.0
  O  O86  1  0.50090000  0.76677000  0.98078000  1.0
  O  O87  1  0.49912000  0.23322000  0.01922000  1.0
  O  O88  1  0.15864000  0.94624000  0.09170000  1.0
  O  O89  1  0.84136000  0.05375000  0.90830000  1.0
