# generated using pymatgen
data_ZnH20C18S4(NO)2
_symmetry_space_group_name_H-M   'P 1'
_cell_length_a   6.50360000
_cell_length_b   10.97550000
_cell_length_c   15.33760000
_cell_angle_alpha   79.71130000
_cell_angle_beta   77.74750000
_cell_angle_gamma   72.75860000
_symmetry_Int_Tables_number   1
_chemical_formula_structural   ZnH20C18S4(NO)2
_chemical_formula_sum   'Zn2 H40 C36 S8 N4 O4'
_cell_volume   1013.90672193
_cell_formula_units_Z   2
loop_
 _symmetry_equiv_pos_site_id
 _symmetry_equiv_pos_as_xyz
  1  'x, y, z'
loop_
 _atom_site_type_symbol
 _atom_site_label
 _atom_site_symmetry_multiplicity
 _atom_site_fract_x
 _atom_site_fract_y
 _atom_site_fract_z
 _atom_site_occupancy
  Zn  Zn0  1  0.97578000  0.24995000  0.74991000  1.0
  Zn  Zn1  1  0.02421000  0.75005000  0.25008000  1.0
  H  H2  1  0.46214000  0.53331000  0.59855000  1.0
  H  H3  1  0.59432000  0.96657000  0.90119000  1.0
  H  H4  1  0.53785000  0.46670000  0.40146000  1.0
  H  H5  1  0.40567000  0.03343000  0.09881000  1.0
  H  H6  1  0.63799000  0.62712000  0.53385000  1.0
  H  H7  1  0.79885000  0.87300000  0.96615000  1.0
  H  H8  1  0.36200000  0.37289000  0.46615000  1.0
  H  H9  1  0.20115000  0.12700000  0.03385000  1.0
  H  H10  1  0.31697000  0.76592000  0.62499000  1.0
  H  H11  1  0.70896000  0.73376000  0.87494000  1.0
  H  H12  1  0.68302000  0.23409000  0.37502000  1.0
  H  H13  1  0.29104000  0.26624000  0.12506000  1.0
  H  H14  1  0.55817000  0.75483000  0.66710000  1.0
  H  H15  1  0.98115000  0.74510000  0.83295000  1.0
  H  H16  1  0.44182000  0.24518000  0.33290000  1.0
  H  H17  1  0.01884000  0.25490000  0.16705000  1.0
  H  H18  1  0.37363000  0.66286000  0.72510000  1.0
  H  H19  1  0.76271000  0.83687000  0.77486000  1.0
  H  H20  1  0.62636000  0.33716000  0.27490000  1.0
  H  H21  1  0.23728000  0.16314000  0.22515000  1.0
  H  H22  1  0.78624000  0.49936000  0.82359000  1.0
  H  H23  1  0.10907000  0.00057000  0.67637000  1.0
  H  H24  1  0.21377000  0.50063000  0.17641000  1.0
  H  H25  1  0.89092000  0.99942000  0.32363000  1.0
  H  H26  1  0.43182000  0.61753000  0.90947000  1.0
  H  H27  1  0.95877000  0.88231000  0.59061000  1.0
  H  H28  1  0.56819000  0.38246000  0.09053000  1.0
  H  H29  1  0.04123000  0.11768000  0.40939000  1.0
  H  H30  1  0.20612000  0.27869000  0.92777000  1.0
  H  H31  1  0.41224000  0.22115000  0.57236000  1.0
  H  H32  1  0.79388000  0.72130000  0.07223000  1.0
  H  H33  1  0.58776000  0.77885000  0.42763000  1.0
  H  H34  1  0.56564000  0.17600000  0.84508000  1.0
  H  H35  1  0.58649000  0.32385000  0.65489000  1.0
  H  H36  1  0.43436000  0.82400000  0.15492000  1.0
  H  H37  1  0.41352000  0.67615000  0.34511000  1.0
  H  H38  1  0.07187000  0.62572000  0.98570000  1.0
  H  H39  1  0.68346000  0.87424000  0.51417000  1.0
  H  H40  1  0.92813000  0.37427000  0.01430000  1.0
  H  H41  1  0.31654000  0.12576000  0.48583000  1.0
  C  C42  1  0.94603000  0.52657000  0.62544000  1.0
  C  C43  1  0.09844000  0.97338000  0.87438000  1.0
  C  C44  1  0.05396000  0.47343000  0.37456000  1.0
  C  C45  1  0.90157000  0.02662000  0.12562000  1.0
  C  C46  1  0.56872000  0.59252000  0.60207000  1.0
  C  C47  1  0.76366000  0.90740000  0.89787000  1.0
  C  C48  1  0.43127000  0.40749000  0.39794000  1.0
  C  C49  1  0.23634000  0.09260000  0.10213000  1.0
  C  C50  1  0.44843000  0.70033000  0.65862000  1.0
  C  C51  1  0.80829000  0.79947000  0.84137000  1.0
  C  C52  1  0.55156000  0.29969000  0.34139000  1.0
  C  C53  1  0.19170000  0.20053000  0.15863000  1.0
  C  C54  1  0.65311000  0.45429000  0.84972000  1.0
  C  C55  1  0.95707000  0.04564000  0.65022000  1.0
  C  C56  1  0.34691000  0.54570000  0.15028000  1.0
  C  C57  1  0.04293000  0.95436000  0.34978000  1.0
  C  C58  1  0.45646000  0.51885000  0.89726000  1.0
  C  C59  1  0.87251000  0.98102000  0.60275000  1.0
  C  C60  1  0.54355000  0.48114000  0.10275000  1.0
  C  C61  1  0.12749000  0.01898000  0.39725000  1.0
  C  C62  1  0.28762000  0.45782000  0.92877000  1.0
  C  C63  1  0.67407000  0.04202000  0.57126000  1.0
  C  C64  1  0.71238000  0.54218000  0.07123000  1.0
  C  C65  1  0.32593000  0.95798000  0.42873000  1.0
  C  C66  1  0.32923000  0.33194000  0.90842000  1.0
  C  C67  1  0.56935000  0.16788000  0.59163000  1.0
  C  C68  1  0.67077000  0.66806000  0.09158000  1.0
  C  C69  1  0.43065000  0.83212000  0.40836000  1.0
  C  C70  1  0.53052000  0.27346000  0.86115000  1.0
  C  C71  1  0.66496000  0.22641000  0.63881000  1.0
  C  C72  1  0.46949000  0.72654000  0.13885000  1.0
  C  C73  1  0.33504000  0.77358000  0.36119000  1.0
  C  C74  1  0.08356000  0.52575000  0.98018000  1.0
  C  C75  1  0.58950000  0.97418000  0.51980000  1.0
  C  C76  1  0.91645000  0.47425000  0.01982000  1.0
  C  C77  1  0.41050000  0.02582000  0.48019000  1.0
  S  S78  1  0.13320000  0.41602000  0.68531000  1.0
  S  S79  1  0.23491000  0.08387000  0.81440000  1.0
  S  S80  1  0.86679000  0.58398000  0.31469000  1.0
  S  S81  1  0.76509000  0.91613000  0.18559000  1.0
  S  S82  1  0.01033000  0.64737000  0.55340000  1.0
  S  S83  1  0.21136000  0.85268000  0.94651000  1.0
  S  S84  1  0.98967000  0.35263000  0.44660000  1.0
  S  S85  1  0.78865000  0.14732000  0.05349000  1.0
  N  N86  1  0.69131000  0.33288000  0.83188000  1.0
  N  N87  1  0.85598000  0.16705000  0.66803000  1.0
  N  N88  1  0.30869000  0.66711000  0.16812000  1.0
  N  N89  1  0.14402000  0.83294000  0.33197000  1.0
  O  O90  1  0.74773000  0.50369000  0.64384000  1.0
  O  O91  1  0.89558000  0.99624000  0.85607000  1.0
  O  O92  1  0.25226000  0.49632000  0.35617000  1.0
  O  O93  1  0.10442000  0.00376000  0.14393000  1.0
