# generated using pymatgen
data_Zr3H5C24S6O16F3
_symmetry_space_group_name_H-M   'P 1'
_cell_length_a   16.48470000
_cell_length_b   16.48450067
_cell_length_c   16.48430000
_cell_angle_alpha   90.00268469
_cell_angle_beta   119.99910000
_cell_angle_gamma   119.99960000
_symmetry_Int_Tables_number   1
_chemical_formula_structural   Zr3H5C24S6O16F3
_chemical_formula_sum   'Zr6 H10 C48 S12 O32 F6'
_cell_volume   3167.45690292
_cell_formula_units_Z   2
loop_
 _symmetry_equiv_pos_site_id
 _symmetry_equiv_pos_as_xyz
  1  'x, y, z'
loop_
 _atom_site_type_symbol
 _atom_site_label
 _atom_site_symmetry_multiplicity
 _atom_site_fract_x
 _atom_site_fract_y
 _atom_site_fract_z
 _atom_site_occupancy
  Zr  Zr0  1  0.78495000  0.89240000  0.39254000  1.0
  Zr  Zr1  1  0.21459000  0.10724000  0.60737000  1.0
  Zr  Zr2  1  0.00002000  0.10750000  0.39260000  1.0
  Zr  Zr3  1  0.00001000  0.89261000  0.60732000  1.0
  Zr  Zr4  1  0.99925000  0.10717000  0.60692000  1.0
  Zr  Zr5  1  0.99917000  0.89230000  0.39203000  1.0
  H  H6  1  0.83050000  0.08408000  0.41532000  1.0
  H  H7  1  0.16830000  0.08407000  0.75313000  1.0
  H  H8  1  0.16840000  0.08408000  0.41545000  1.0
  H  H9  1  0.83059000  0.74624000  0.41541000  1.0
  H  H10  1  0.73690000  0.12709000  0.62838000  1.0
  H  H11  1  0.73690000  0.60975000  0.10857000  1.0
  H  H12  1  0.99878000  0.87134000  0.89002000  1.0
  H  H13  1  0.00119000  0.60997000  0.62864000  1.0
  H  H14  1  0.48115000  0.87120000  0.10877000  1.0
  H  H15  1  0.48134000  0.60982000  0.37276000  1.0
  C  C16  1  0.72697000  0.99767000  0.50201000  1.0
  C  C17  1  0.26997000  0.27396000  0.76974000  1.0
  C  C18  1  0.26998000  0.99592000  0.50033000  1.0
  C  C19  1  0.72699000  0.72920000  0.22508000  1.0
  C  C20  1  0.72673000  0.99725000  0.22529000  1.0
  C  C21  1  0.72712000  0.72938000  0.50198000  1.0
  C  C22  1  0.27321000  0.99896000  0.76994000  1.0
  C  C23  1  0.27363000  0.27413000  0.50377000  1.0
  C  C24  1  0.00375000  0.27405000  0.50050000  1.0
  C  C25  1  0.99519000  0.99904000  0.22545000  1.0
  C  C26  1  0.00368000  0.72927000  0.50214000  1.0
  C  C27  1  0.99525000  0.99723000  0.77018000  1.0
  C  C28  1  0.34616000  0.93204000  0.43299000  1.0
  C  C29  1  0.65240000  0.06515000  0.56625000  1.0
  C  C30  1  0.35860000  0.99683000  0.49909000  1.0
  C  C31  1  0.63732000  0.99813000  0.50046000  1.0
  C  C32  1  0.54564000  0.04086000  0.54104000  1.0
  C  C33  1  0.45172000  0.95578000  0.45587000  1.0
  C  C34  1  0.34617000  0.41415000  0.91316000  1.0
  C  C35  1  0.65241000  0.58724000  0.08617000  1.0
  C  C36  1  0.35858000  0.36174000  0.85953000  1.0
  C  C37  1  0.63734000  0.63916000  0.13690000  1.0
  C  C38  1  0.54563000  0.50478000  0.00459000  1.0
  C  C39  1  0.45173000  0.49597000  0.99584000  1.0
  C  C40  1  0.99911000  0.06673000  0.08569000  1.0
  C  C41  1  0.99900000  0.93348000  0.91258000  1.0
  C  C42  1  0.99776000  0.00057000  0.13800000  1.0
  C  C43  1  0.99762000  0.99915000  0.86052000  1.0
  C  C44  1  0.99991000  0.95873000  0.99500000  1.0
  C  C45  1  0.99995000  0.04387000  0.00380000  1.0
  C  C46  1  0.00097000  0.41435000  0.43331000  1.0
  C  C47  1  0.00105000  0.58746000  0.56654000  1.0
  C  C48  1  0.00208000  0.36194000  0.49937000  1.0
  C  C49  1  0.00220000  0.63938000  0.50074000  1.0
  C  C50  1  0.00023000  0.50508000  0.54133000  1.0
  C  C51  1  0.00019000  0.49626000  0.45620000  1.0
  C  C52  1  0.48077000  0.06650000  0.91332000  1.0
  C  C53  1  0.52067000  0.93329000  0.08636000  1.0
  C  C54  1  0.36229000  0.00039000  0.85973000  1.0
  C  C55  1  0.63838000  0.99903000  0.13708000  1.0
  C  C56  1  0.46360000  0.95857000  0.00487000  1.0
  C  C57  1  0.53991000  0.04370000  0.99607000  1.0
  C  C58  1  0.48110000  0.41421000  0.56784000  1.0
  C  C59  1  0.52094000  0.58730000  0.43470000  1.0
  C  C60  1  0.36263000  0.36187000  0.50298000  1.0
  C  C61  1  0.63866000  0.63930000  0.50167000  1.0
  C  C62  1  0.46370000  0.50486000  0.45902000  1.0
  C  C63  1  0.54005000  0.49606000  0.54410000  1.0
  S  S64  1  0.50247000  0.08945000  0.59093000  1.0
  S  S65  1  0.49416000  0.90564000  0.40710000  1.0
  S  S66  1  0.50244000  0.41296000  0.91157000  1.0
  S  S67  1  0.49419000  0.58852000  0.08710000  1.0
  S  S68  1  0.99877000  0.90888000  0.08679000  1.0
  S  S69  1  0.99863000  0.09262000  0.91119000  1.0
  S  S70  1  0.00151000  0.41337000  0.59127000  1.0
  S  S71  1  0.00156000  0.58888000  0.40746000  1.0
  S  S72  1  0.32195000  0.90865000  0.91194000  1.0
  S  S73  1  0.68128000  0.09242000  0.08739000  1.0
  S  S74  1  0.32206000  0.41311000  0.41036000  1.0
  S  S75  1  0.68139000  0.58866000  0.59418000  1.0
  O  O76  1  0.69261000  0.92811000  0.43274000  1.0
  O  O77  1  0.30540000  0.23960000  0.73547000  1.0
  O  O78  1  0.30540000  0.06554000  0.57019000  1.0
  O  O79  1  0.69263000  0.76422000  0.26015000  1.0
  O  O80  1  0.83109000  0.06646000  0.26038000  1.0
  O  O81  1  0.83160000  0.76452000  0.57140000  1.0
  O  O82  1  0.16900000  0.92898000  0.73553000  1.0
  O  O83  1  0.16956000  0.23988000  0.43407000  1.0
  O  O84  1  0.00304000  0.23940000  0.56998000  1.0
  O  O85  1  0.99423000  0.92875000  0.25934000  1.0
  O  O86  1  0.00300000  0.76396000  0.43247000  1.0
  O  O87  1  0.99429000  0.06606000  0.73460000  1.0
  O  O88  1  0.99540000  0.06792000  0.26125000  1.0
  O  O89  1  0.00408000  0.76429000  0.57161000  1.0
  O  O90  1  0.99573000  0.92819000  0.73565000  1.0
  O  O91  1  0.00444000  0.23864000  0.43209000  1.0
  O  O92  1  0.69208000  0.92789000  0.25997000  1.0
  O  O93  1  0.30669000  0.23849000  0.57266000  1.0
  O  O94  1  0.30614000  0.06757000  0.73406000  1.0
  O  O95  1  0.69267000  0.76417000  0.43275000  1.0
  O  O96  1  0.83101000  0.76410000  0.25983000  1.0
  O  O97  1  0.83099000  0.06691000  0.57115000  1.0
  O  O98  1  0.16543000  0.23843000  0.73389000  1.0
  O  O99  1  0.16544000  0.92702000  0.43153000  1.0
  O  O100  1  0.87853000  0.81827000  0.43936000  1.0
  O  O101  1  0.12028000  0.06002000  0.43938000  1.0
  O  O102  1  0.12012000  0.05999000  0.68110000  1.0
  O  O103  1  0.87834000  0.05989000  0.43926000  1.0
  O  O104  1  0.08843000  0.13309000  0.54443000  1.0
  O  O105  1  0.91020000  0.95491000  0.54446000  1.0
  O  O106  1  0.08830000  0.95493000  0.54413000  1.0
  O  O107  1  0.91010000  0.95506000  0.36606000  1.0
  F  F108  1  0.24487000  0.85391000  0.35466000  1.0
  F  F109  1  0.24488000  0.39100000  0.89018000  1.0
  F  F110  1  0.99916000  0.14491000  0.10887000  1.0
  F  F111  1  0.00077000  0.39109000  0.35506000  1.0
  F  F112  1  0.53573000  0.14469000  0.89021000  1.0
  F  F113  1  0.53623000  0.39105000  0.64595000  1.0
