# generated using pymatgen
data_CoH16C24(NO2)2
_symmetry_space_group_name_H-M   'P 1'
_cell_length_a   9.39264000
_cell_length_b   11.28493635
_cell_length_c   26.03780000
_cell_angle_alpha   87.62594670
_cell_angle_beta   84.24980000
_cell_angle_gamma   65.42625935
_symmetry_Int_Tables_number   1
_chemical_formula_structural   CoH16C24(NO2)2
_chemical_formula_sum   'Co4 H64 C96 N8 O16'
_cell_volume   2497.28435963
_cell_formula_units_Z   4
loop_
 _symmetry_equiv_pos_site_id
 _symmetry_equiv_pos_as_xyz
  1  'x, y, z'
loop_
 _atom_site_type_symbol
 _atom_site_label
 _atom_site_symmetry_multiplicity
 _atom_site_fract_x
 _atom_site_fract_y
 _atom_site_fract_z
 _atom_site_occupancy
  Co  Co0  1  0.29559000  0.60851000  0.04345000  1.0
  Co  Co1  1  0.09594000  0.60825000  0.45658000  1.0
  Co  Co2  1  0.70441000  0.39148000  0.95655000  1.0
  Co  Co3  1  0.90405000  0.39176000  0.54342000  1.0
  H  H4  1  0.76999000  0.72276000  0.09863000  1.0
  H  H5  1  0.55512000  0.75056000  0.16571000  1.0
  H  H6  1  0.84541000  0.76502000  0.28181000  1.0
  H  H7  1  0.06218000  0.72823000  0.21434000  1.0
  H  H8  1  0.54669000  0.48877000  0.84500000  1.0
  H  H9  1  0.47308000  0.51658000  0.75506000  1.0
  H  H10  1  0.98317000  0.66532000  0.81153000  1.0
  H  H11  1  0.05655000  0.65063000  0.90148000  1.0
  H  H12  1  0.16255000  0.85654000  0.97837000  1.0
  H  H13  1  0.15292000  0.08014000  0.97764000  1.0
  H  H14  1  0.43999000  0.96131000  0.10695000  1.0
  H  H15  1  0.43704000  0.74368000  0.10068000  1.0
  H  H16  1  0.11620000  0.26599000  0.98990000  1.0
  H  H17  1  0.12717000  0.47925000  0.99373000  1.0
  H  H18  1  0.45400000  0.35075000  0.10152000  1.0
  H  H19  1  0.46968000  0.12821000  0.09996000  1.0
  H  H20  1  0.50637000  0.72275000  0.40122000  1.0
  H  H21  1  0.69357000  0.75074000  0.33420000  1.0
  H  H22  1  0.38938000  0.76451000  0.21801000  1.0
  H  H23  1  0.20956000  0.72727000  0.28539000  1.0
  H  H24  1  0.96415000  0.48904000  0.65493000  1.0
  H  H25  1  0.00950000  0.51684000  0.74494000  1.0
  H  H26  1  0.35145000  0.66505000  0.68874000  1.0
  H  H27  1  0.29325000  0.65042000  0.59872000  1.0
  H  H28  1  0.98086000  0.85675000  0.52161000  1.0
  H  H29  1  0.76689000  0.08024000  0.52232000  1.0
  H  H30  1  0.59881000  0.96077000  0.39308000  1.0
  H  H31  1  0.81963000  0.74338000  0.39929000  1.0
  H  H32  1  0.61751000  0.26585000  0.51009000  1.0
  H  H33  1  0.39331000  0.47900000  0.50629000  1.0
  H  H34  1  0.19519000  0.35017000  0.39846000  1.0
  H  H35  1  0.40221000  0.12774000  0.39996000  1.0
  H  H36  1  0.22999000  0.27725000  0.90137000  1.0
  H  H37  1  0.44486000  0.24945000  0.83429000  1.0
  H  H38  1  0.15459000  0.23497000  0.71820000  1.0
  H  H39  1  0.93782000  0.27177000  0.78566000  1.0
  H  H40  1  0.45331000  0.51123000  0.15500000  1.0
  H  H41  1  0.52694000  0.48342000  0.24494000  1.0
  H  H42  1  0.01684000  0.33468000  0.18847000  1.0
  H  H43  1  0.94345000  0.34936000  0.09852000  1.0
  H  H44  1  0.83744000  0.14345000  0.02163000  1.0
  H  H45  1  0.84708000  0.91985000  0.02237000  1.0
  H  H46  1  0.56002000  0.03869000  0.89304000  1.0
  H  H47  1  0.56298000  0.25631000  0.89932000  1.0
  H  H48  1  0.88382000  0.73400000  0.01009000  1.0
  H  H49  1  0.87285000  0.52074000  0.00626000  1.0
  H  H50  1  0.54601000  0.64924000  0.89847000  1.0
  H  H51  1  0.53032000  0.87178000  0.90003000  1.0
  H  H52  1  0.49361000  0.27725000  0.59878000  1.0
  H  H53  1  0.30642000  0.24926000  0.66580000  1.0
  H  H54  1  0.61061000  0.23551000  0.78199000  1.0
  H  H55  1  0.79044000  0.27274000  0.71460000  1.0
  H  H56  1  0.03585000  0.51097000  0.34507000  1.0
  H  H57  1  0.99052000  0.48315000  0.25507000  1.0
  H  H58  1  0.64855000  0.33495000  0.31126000  1.0
  H  H59  1  0.70675000  0.34958000  0.40129000  1.0
  H  H60  1  0.01913000  0.14326000  0.47839000  1.0
  H  H61  1  0.23309000  0.91977000  0.47769000  1.0
  H  H62  1  0.40118000  0.03923000  0.60692000  1.0
  H  H63  1  0.18035000  0.25663000  0.60072000  1.0
  H  H64  1  0.38248000  0.73416000  0.48991000  1.0
  H  H65  1  0.60668000  0.52101000  0.49371000  1.0
  H  H66  1  0.80480000  0.64984000  0.60154000  1.0
  H  H67  1  0.59780000  0.87226000  0.60004000  1.0
  C  C68  1  0.06690000  0.68768000  0.11248000  1.0
  C  C69  1  0.93101000  0.72218000  0.15221000  1.0
  C  C70  1  0.78507000  0.73317000  0.13893000  1.0
  C  C71  1  0.66366000  0.75011000  0.17703000  1.0
  C  C72  1  0.68123000  0.75922000  0.22963000  1.0
  C  C73  1  0.82558000  0.75640000  0.24191000  1.0
  C  C74  1  0.94879000  0.73620000  0.20409000  1.0
  C  C75  1  0.35017000  0.55182000  0.93301000  1.0
  C  C76  1  0.30570000  0.56870000  0.87899000  1.0
  C  C77  1  0.42298000  0.53150000  0.83751000  1.0
  C  C78  1  0.38150000  0.54677000  0.78709000  1.0
  C  C79  1  0.22327000  0.59212000  0.77680000  1.0
  C  C80  1  0.10670000  0.62874000  0.81870000  1.0
  C  C81  1  0.14708000  0.62009000  0.86911000  1.0
  C  C82  1  0.22196000  0.88519000  0.00611000  1.0
  C  C83  1  0.21780000  0.00976000  0.00609000  1.0
  C  C84  1  0.29645000  0.04263000  0.04256000  1.0
  C  C85  1  0.37680000  0.94418000  0.07728000  1.0
  C  C86  1  0.37554000  0.82225000  0.07452000  1.0
  C  C87  1  0.29436000  0.17381000  0.04448000  1.0
  C  C88  1  0.19616000  0.27719000  0.01494000  1.0
  C  C89  1  0.19945000  0.39861000  0.01721000  1.0
  C  C90  1  0.38268000  0.32738000  0.07669000  1.0
  C  C91  1  0.38918000  0.20233000  0.07598000  1.0
  C  C92  1  0.24518000  0.68707000  0.38731000  1.0
  C  C93  1  0.34638000  0.72176000  0.34757000  1.0
  C  C94  1  0.48113000  0.73306000  0.36089000  1.0
  C  C95  1  0.58561000  0.75011000  0.32284000  1.0
  C  C96  1  0.55903000  0.75915000  0.27023000  1.0
  C  C97  1  0.41768000  0.75604000  0.25792000  1.0
  C  C98  1  0.31470000  0.73566000  0.29569000  1.0
  C  C99  1  0.09805000  0.55202000  0.56702000  1.0
  C  C100  1  0.12555000  0.56880000  0.62107000  1.0
  C  C101  1  0.04518000  0.53168000  0.66249000  1.0
  C  C102  1  0.07114000  0.54695000  0.71296000  1.0
  C  C103  1  0.18414000  0.59212000  0.72332000  1.0
  C  C104  1  0.26447000  0.62856000  0.68148000  1.0
  C  C105  1  0.23295000  0.62001000  0.63104000  1.0
  C  C106  1  0.89287000  0.88526000  0.49387000  1.0
  C  C107  1  0.77243000  0.00975000  0.49388000  1.0
  C  C108  1  0.66091000  0.04241000  0.45743000  1.0
  C  C109  1  0.67909000  0.94383000  0.42273000  1.0
  C  C110  1  0.80242000  0.82200000  0.42547000  1.0
  C  C111  1  0.53169000  0.17348000  0.45552000  1.0
  C  C112  1  0.52635000  0.27692000  0.48508000  1.0
  C  C113  1  0.40166000  0.39829000  0.48281000  1.0
  C  C114  1  0.28977000  0.32685000  0.42332000  1.0
  C  C115  1  0.40840000  0.20186000  0.42401000  1.0
  C  C116  1  0.93312000  0.31232000  0.88751000  1.0
  C  C117  1  0.06900000  0.27783000  0.84779000  1.0
  C  C118  1  0.21493000  0.26684000  0.86107000  1.0
  C  C119  1  0.33634000  0.24989000  0.82298000  1.0
  C  C120  1  0.31877000  0.24078000  0.77038000  1.0
  C  C121  1  0.17442000  0.24359000  0.75809000  1.0
  C  C122  1  0.05120000  0.26380000  0.79590000  1.0
  C  C123  1  0.64980000  0.44819000  0.06700000  1.0
  C  C124  1  0.69429000  0.43130000  0.12102000  1.0
  C  C125  1  0.57702000  0.46850000  0.16249000  1.0
  C  C126  1  0.61852000  0.45323000  0.21292000  1.0
  C  C127  1  0.77674000  0.40788000  0.22320000  1.0
  C  C128  1  0.89331000  0.37126000  0.18130000  1.0
  C  C129  1  0.85292000  0.37990000  0.13089000  1.0
  C  C130  1  0.77804000  0.11478000  0.99389000  1.0
  C  C131  1  0.78220000  0.99022000  0.99392000  1.0
  C  C132  1  0.70356000  0.95736000  0.95744000  1.0
  C  C133  1  0.62321000  0.05580000  0.92271000  1.0
  C  C134  1  0.62447000  0.17773000  0.92548000  1.0
  C  C135  1  0.70565000  0.82619000  0.95552000  1.0
  C  C136  1  0.80387000  0.72280000  0.98505000  1.0
  C  C137  1  0.80056000  0.60139000  0.98279000  1.0
  C  C138  1  0.61733000  0.67262000  0.92331000  1.0
  C  C139  1  0.61082000  0.79768000  0.92401000  1.0
  C  C140  1  0.75481000  0.31294000  0.61269000  1.0
  C  C141  1  0.65362000  0.27824000  0.65242000  1.0
  C  C142  1  0.51885000  0.26695000  0.63910000  1.0
  C  C143  1  0.41437000  0.24990000  0.67716000  1.0
  C  C144  1  0.44096000  0.24086000  0.72977000  1.0
  C  C145  1  0.58231000  0.24397000  0.74208000  1.0
  C  C146  1  0.68529000  0.26435000  0.70431000  1.0
  C  C147  1  0.90194000  0.44798000  0.43298000  1.0
  C  C148  1  0.87446000  0.43120000  0.37893000  1.0
  C  C149  1  0.95483000  0.46831000  0.33751000  1.0
  C  C150  1  0.92887000  0.45304000  0.28704000  1.0
  C  C151  1  0.81588000  0.40787000  0.27668000  1.0
  C  C152  1  0.73555000  0.37142000  0.31852000  1.0
  C  C153  1  0.76706000  0.37999000  0.36897000  1.0
  C  C154  1  0.10712000  0.11475000  0.50614000  1.0
  C  C155  1  0.22755000  0.99026000  0.50612000  1.0
  C  C156  1  0.33909000  0.95759000  0.54257000  1.0
  C  C157  1  0.32090000  0.05618000  0.57727000  1.0
  C  C158  1  0.19757000  0.17801000  0.57454000  1.0
  C  C159  1  0.46831000  0.82652000  0.54448000  1.0
  C  C160  1  0.47364000  0.72308000  0.51492000  1.0
  C  C161  1  0.59832000  0.60172000  0.51719000  1.0
  C  C162  1  0.71022000  0.67315000  0.57668000  1.0
  C  C163  1  0.59158000  0.79815000  0.57599000  1.0
  N  N164  1  0.29944000  0.79192000  0.03966000  1.0
  N  N165  1  0.29109000  0.42521000  0.04736000  1.0
  N  N166  1  0.90879000  0.79186000  0.46033000  1.0
  N  N167  1  0.28345000  0.42476000  0.45267000  1.0
  N  N168  1  0.70057000  0.20805000  0.96034000  1.0
  N  N169  1  0.70891000  0.57479000  0.95264000  1.0
  N  N170  1  0.09120000  0.20816000  0.53967000  1.0
  N  N171  1  0.71654000  0.57524000  0.54733000  1.0
  O  O172  1  0.04367000  0.70289000  0.06449000  1.0
  O  O173  1  0.20708000  0.63849000  0.12586000  1.0
  O  O174  1  0.25158000  0.62623000  0.96783000  1.0
  O  O175  1  0.48306000  0.46275000  0.94210000  1.0
  O  O176  1  0.25342000  0.70231000  0.43528000  1.0
  O  O177  1  0.15416000  0.63786000  0.37396000  1.0
  O  O178  1  0.12240000  0.62644000  0.53224000  1.0
  O  O179  1  0.05428000  0.46293000  0.55784000  1.0
  O  O180  1  0.95638000  0.29710000  0.93550000  1.0
  O  O181  1  0.79295000  0.36150000  0.87412000  1.0
  O  O182  1  0.74843000  0.37377000  0.03219000  1.0
  O  O183  1  0.51691000  0.53724000  0.05790000  1.0
  O  O184  1  0.74658000  0.29770000  0.56471000  1.0
  O  O185  1  0.84585000  0.36214000  0.62603000  1.0
  O  O186  1  0.87761000  0.37356000  0.46777000  1.0
  O  O187  1  0.94571000  0.53707000  0.44216000  1.0
