# generated using pymatgen
data_Fe3H34C56(N3O5)2
_symmetry_space_group_name_H-M   'P 1'
_cell_length_a   6.99131000
_cell_length_b   16.52393092
_cell_length_c   17.09400000
_cell_angle_alpha   90.08417586
_cell_angle_beta   90.09140000
_cell_angle_gamma   78.10528549
_symmetry_Int_Tables_number   1
_chemical_formula_structural   Fe3H34C56(N3O5)2
_chemical_formula_sum   'Fe3 H34 C56 N6 O10'
_cell_volume   1932.36000877
_cell_formula_units_Z   1
loop_
 _symmetry_equiv_pos_site_id
 _symmetry_equiv_pos_as_xyz
  1  'x, y, z'
loop_
 _atom_site_type_symbol
 _atom_site_label
 _atom_site_symmetry_multiplicity
 _atom_site_fract_x
 _atom_site_fract_y
 _atom_site_fract_z
 _atom_site_occupancy
  Fe  Fe0  1  0.49905000  0.00207000  0.49317000  1.0
  Fe  Fe1  1  0.99938000  0.50141000  0.99533000  1.0
  Fe  Fe2  1  0.49926000  0.50135000  0.99536000  1.0
  H  H3  1  0.53960000  0.91805000  0.19807000  1.0
  H  H4  1  0.54082000  0.91721000  0.79144000  1.0
  H  H5  1  0.45776000  0.08574000  0.19803000  1.0
  H  H6  1  0.45821000  0.08499000  0.79137000  1.0
  H  H7  1  0.35731000  0.67179000  0.17651000  1.0
  H  H8  1  0.97037000  0.67322000  0.81335000  1.0
  H  H9  1  0.64018000  0.33099000  0.17604000  1.0
  H  H10  1  0.02985000  0.32812000  0.81355000  1.0
  H  H11  1  0.64250000  0.32900000  0.81540000  1.0
  H  H12  1  0.02728000  0.33050000  0.17791000  1.0
  H  H13  1  0.35767000  0.67257000  0.81466000  1.0
  H  H14  1  0.96999000  0.67270000  0.17865000  1.0
  H  H15  1  0.30159000  0.77893000  0.28275000  1.0
  H  H16  1  0.91885000  0.77723000  0.70548000  1.0
  H  H17  1  0.69578000  0.22478000  0.28282000  1.0
  H  H18  1  0.08244000  0.22271000  0.70590000  1.0
  H  H19  1  0.69718000  0.22345000  0.70784000  1.0
  H  H20  1  0.08089000  0.22429000  0.28465000  1.0
  H  H21  1  0.30331000  0.77666000  0.70679000  1.0
  H  H22  1  0.91620000  0.77975000  0.28494000  1.0
  H  H23  1  0.78773000  0.06989000  0.59767000  1.0
  H  H24  1  0.12593000  0.12313000  0.42655000  1.0
  H  H25  1  0.24803000  0.90205000  0.65543000  1.0
  H  H26  1  0.87330000  0.88003000  0.43730000  1.0
  H  H27  1  0.24405000  0.88018000  0.43732000  1.0
  H  H28  1  0.84847000  0.90223000  0.65557000  1.0
  H  H29  1  0.75326000  0.12298000  0.42654000  1.0
  H  H30  1  0.14476000  0.06986000  0.59780000  1.0
  H  H31  1  0.65446000  0.68839000  0.41496000  1.0
  H  H32  1  0.65498000  0.68826000  0.57378000  1.0
  H  H33  1  0.34317000  0.31556000  0.41642000  1.0
  H  H34  1  0.34386000  0.31461000  0.57522000  1.0
  H  H35  1  0.17103000  0.61438000  0.99737000  1.0
  H  H36  1  0.82765000  0.38854000  0.99654000  1.0
  C  C37  1  0.58540000  0.82627000  0.43030000  1.0
  C  C38  1  0.58598000  0.82610000  0.55915000  1.0
  C  C39  1  0.41245000  0.17764000  0.43056000  1.0
  C  C40  1  0.41306000  0.17681000  0.55948000  1.0
  C  C41  1  0.57258000  0.85143000  0.35224000  1.0
  C  C42  1  0.57404000  0.85018000  0.63740000  1.0
  C  C43  1  0.42468000  0.15273000  0.35235000  1.0
  C  C44  1  0.42580000  0.15154000  0.63755000  1.0
  C  C45  1  0.53184000  0.93399000  0.32860000  1.0
  C  C46  1  0.53321000  0.93293000  0.66098000  1.0
  C  C47  1  0.46534000  0.07014000  0.32858000  1.0
  C  C48  1  0.46646000  0.06892000  0.66092000  1.0
  C  C49  1  0.51919000  0.95985000  0.24778000  1.0
  C  C50  1  0.52039000  0.95884000  0.74170000  1.0
  C  C51  1  0.47803000  0.04409000  0.24776000  1.0
  C  C52  1  0.47885000  0.04318000  0.74168000  1.0
  C  C53  1  0.60528000  0.78639000  0.29032000  1.0
  C  C54  1  0.60688000  0.78516000  0.69953000  1.0
  C  C55  1  0.39185000  0.21765000  0.29045000  1.0
  C  C56  1  0.39335000  0.21614000  0.70003000  1.0
  C  C57  1  0.44820000  0.75543000  0.25992000  1.0
  C  C58  1  0.79496000  0.75486000  0.72953000  1.0
  C  C59  1  0.54908000  0.24820000  0.25991000  1.0
  C  C60  1  0.20527000  0.24612000  0.72989000  1.0
  C  C61  1  0.55070000  0.24655000  0.73099000  1.0
  C  C62  1  0.20340000  0.24798000  0.26097000  1.0
  C  C63  1  0.44984000  0.75452000  0.73030000  1.0
  C  C64  1  0.79379000  0.75590000  0.26115000  1.0
  C  C65  1  0.47830000  0.69609000  0.20082000  1.0
  C  C66  1  0.82488000  0.69675000  0.78957000  1.0
  C  C67  1  0.51909000  0.30702000  0.20046000  1.0
  C  C68  1  0.17522000  0.30458000  0.78975000  1.0
  C  C69  1  0.52120000  0.30509000  0.79085000  1.0
  C  C70  1  0.17284000  0.30678000  0.20156000  1.0
  C  C71  1  0.47915000  0.69637000  0.79036000  1.0
  C  C72  1  0.82440000  0.69661000  0.20207000  1.0
  C  C73  1  0.66652333  0.66681000  0.17109000  1.0
  C  C74  1  0.66689000  0.66749000  0.82080000  1.0
  C  C75  1  0.33087000  0.33623000  0.17055000  1.0
  C  C76  1  0.33319000  0.33425000  0.82086000  1.0
  C  C77  1  0.69834000  0.60549000  0.10535000  1.0
  C  C78  1  0.69855000  0.60641000  0.88668000  1.0
  C  C79  1  0.29924000  0.39720000  0.10466000  1.0
  C  C80  1  0.30118000  0.39608000  0.88624000  1.0
  C  C81  1  0.62828000  0.74084000  0.45462000  1.0
  C  C82  1  0.62860000  0.74078000  0.53432000  1.0
  C  C83  1  0.36971000  0.26283000  0.45564000  1.0
  C  C84  1  0.37011000  0.26231000  0.53539000  1.0
  C  C85  1  0.88188000  0.01443000  0.57344000  1.0
  C  C86  1  0.05856000  0.07526000  0.45081000  1.0
  C  C87  1  0.12544000  0.93943000  0.62532000  1.0
  C  C88  1  0.93907000  0.93004000  0.45790000  1.0
  C  C89  1  0.12942000  0.93011000  0.45789000  1.0
  C  C90  1  0.93444000  0.93951000  0.62536000  1.0
  C  C91  1  0.86770000  0.07520000  0.45080000  1.0
  C  C92  1  0.10466000  0.01441000  0.57345000  1.0
  N  N93  1  0.55957000  0.87863000  0.49483000  1.0
  N  N94  1  0.43887000  0.12491000  0.49474000  1.0
  N  N95  1  0.49864000  0.00211000  0.37788000  1.0
  N  N96  1  0.49998000  0.00074000  0.61142000  1.0
  N  N97  1  0.80953000  0.00408000  0.49011000  1.0
  N  N98  1  0.18660000  0.00421000  0.49014000  1.0
  O  O99  1  0.87265000  0.58406000  0.07986000  1.0
  O  O100  1  0.54775000  0.58327000  0.91275000  1.0
  O  O101  1  0.12421000  0.41961000  0.07990000  1.0
  O  O102  1  0.45148000  0.42058000  0.91144000  1.0
  O  O103  1  0.12671000  0.41802000  0.91140000  1.0
  O  O104  1  0.45013000  0.42015000  0.07843000  1.0
  O  O105  1  0.87360000  0.58389000  0.91133000  1.0
  O  O106  1  0.54788000  0.58127000  0.07996000  1.0
  O  O107  1  0.21190000  0.55442000  0.99559000  1.0
  O  O108  1  0.78674000  0.44850000  0.99504000  1.0
