# generated using pymatgen
data_CdH10(C7N4)2
_symmetry_space_group_name_H-M   'P 1'
_cell_length_a   7.82983000
_cell_length_b   7.92682000
_cell_length_c   7.92675000
_cell_angle_alpha   112.31300000
_cell_angle_beta   105.15000000
_cell_angle_gamma   105.15000000
_symmetry_Int_Tables_number   1
_chemical_formula_structural   CdH10(C7N4)2
_chemical_formula_sum   'Cd1 H10 C14 N8'
_cell_volume   401.91550405
_cell_formula_units_Z   1
loop_
 _symmetry_equiv_pos_site_id
 _symmetry_equiv_pos_as_xyz
  1  'x, y, z'
loop_
 _atom_site_type_symbol
 _atom_site_label
 _atom_site_symmetry_multiplicity
 _atom_site_fract_x
 _atom_site_fract_y
 _atom_site_fract_z
 _atom_site_occupancy
  Cd  Cd0  1  0.99998000  0.00000000  0.00000000  1.0
  H  H1  1  0.36416000  0.79024000  0.79025000  1.0
  H  H2  1  0.63587000  0.20976000  0.20975000  1.0
  H  H3  1  0.29325000  0.79088000  0.46233000  1.0
  H  H4  1  0.70677000  0.53767000  0.20912000  1.0
  H  H5  1  0.70678000  0.20911000  0.53767000  1.0
  H  H6  1  0.29324000  0.46232000  0.79089000  1.0
  H  H7  1  0.15355000  0.46375000  0.14956000  1.0
  H  H8  1  0.84646000  0.85044000  0.53625000  1.0
  H  H9  1  0.84647000  0.53625000  0.85044000  1.0
  H  H10  1  0.15354000  0.14955000  0.46375000  1.0
  C  C11  1  0.35253000  0.84206000  0.15890000  1.0
  C  C12  1  0.64743000  0.84111000  0.15795000  1.0
  C  C13  1  0.64744000  0.15795000  0.84110000  1.0
  C  C14  1  0.35253000  0.15890000  0.84206000  1.0
  C  C15  1  0.30481000  0.65130000  0.65131000  1.0
  C  C16  1  0.69521000  0.34870000  0.34869000  1.0
  C  C17  1  0.26570000  0.65265000  0.47000000  1.0
  C  C18  1  0.73432000  0.53000000  0.34734000  1.0
  C  C19  1  0.73433000  0.34735000  0.53000000  1.0
  C  C20  1  0.26570000  0.46999000  0.65265000  1.0
  C  C21  1  0.18792000  0.47173000  0.29562000  1.0
  C  C22  1  0.81209000  0.70437000  0.52826000  1.0
  C  C23  1  0.81210000  0.52827000  0.70438000  1.0
  C  C24  1  0.18791000  0.29562000  0.47173000  1.0
  N  N25  1  0.14970000  0.29699000  0.29699000  1.0
  N  N26  1  0.85031000  0.70300000  0.70300000  1.0
  N  N27  1  0.49998000  0.79792000  0.20209000  1.0
  N  N28  1  0.49999000  0.20210000  0.79792000  1.0
  N  N29  1  0.21022000  0.87160000  0.12980000  1.0
  N  N30  1  0.78973000  0.87021000  0.12839000  1.0
  N  N31  1  0.78974000  0.12840000  0.87020000  1.0
  N  N32  1  0.21024000  0.12980000  0.87161000  1.0
