# generated using pymatgen
data_GdH10C7O11
_symmetry_space_group_name_H-M   'P 1'
_cell_length_a   6.06256000
_cell_length_b   8.59752000
_cell_length_c   12.95770000
_cell_angle_alpha   99.06780000
_cell_angle_beta   101.93900000
_cell_angle_gamma   97.84540000
_symmetry_Int_Tables_number   1
_chemical_formula_structural   GdH10C7O11
_chemical_formula_sum   'Gd2 H20 C14 O22'
_cell_volume   642.45296222
_cell_formula_units_Z   2
loop_
 _symmetry_equiv_pos_site_id
 _symmetry_equiv_pos_as_xyz
  1  'x, y, z'
loop_
 _atom_site_type_symbol
 _atom_site_label
 _atom_site_symmetry_multiplicity
 _atom_site_fract_x
 _atom_site_fract_y
 _atom_site_fract_z
 _atom_site_occupancy
  Gd  Gd0  1  0.74584000  0.22111000  0.71731000  1.0
  Gd  Gd1  1  0.25416000  0.77889000  0.28269000  1.0
  H  H2  1  0.66757000  0.30126000  0.95032000  1.0
  H  H3  1  0.33243000  0.69874000  0.04967000  1.0
  H  H4  1  0.11727000  0.50972000  0.75250000  1.0
  H  H5  1  0.88274000  0.49028000  0.24751000  1.0
  H  H6  1  0.66272000  0.91102000  0.80874000  1.0
  H  H7  1  0.33729000  0.08899000  0.19126000  1.0
  H  H8  1  0.43683000  0.24975000  0.07059000  1.0
  H  H9  1  0.56317000  0.75025000  0.92941000  1.0
  H  H10  1  0.00944000  0.28316000  0.53693000  1.0
  H  H11  1  0.99057000  0.71683000  0.46306000  1.0
  H  H12  1  0.17230000  0.26133000  0.64584000  1.0
  H  H13  1  0.82770000  0.73866000  0.35416000  1.0
  H  H14  1  0.31404000  0.87568000  0.81735000  1.0
  H  H15  1  0.68596000  0.12431000  0.18265000  1.0
  H  H16  1  0.24327000  0.00859000  0.98072000  1.0
  H  H17  1  0.75673000  0.99141000  0.01928000  1.0
  H  H18  1  0.78205000  0.57248000  0.99697000  1.0
  H  H19  1  0.21796000  0.42752000  0.00303000  1.0
  H  H20  1  0.05653000  0.69897000  0.89628000  1.0
  H  H21  1  0.94348000  0.30102000  0.10372000  1.0
  C  C22  1  0.40129000  0.00073000  0.84672000  1.0
  C  C23  1  0.59871000  0.99927000  0.15328000  1.0
  C  C24  1  0.25816000  0.10546000  0.78612000  1.0
  C  C25  1  0.74185000  0.89453000  0.21388000  1.0
  C  C26  1  0.41573000  0.04395000  0.96779000  1.0
  C  C27  1  0.58427000  0.95605000  0.03221000  1.0
  C  C28  1  0.89204000  0.50332000  0.95756000  1.0
  C  C29  1  0.10796000  0.49668000  0.04243000  1.0
  C  C30  1  0.55262000  0.92912000  0.51954000  1.0
  C  C31  1  0.44735000  0.07088000  0.48046000  1.0
  C  C32  1  0.72198000  0.59219000  0.79022000  1.0
  C  C33  1  0.27802000  0.40783000  0.20978000  1.0
  C  C34  1  0.94974000  0.57998000  0.86534000  1.0
  C  C35  1  0.05026000  0.42002000  0.13466000  1.0
  O  O36  1  0.48670000  0.79359000  0.45834000  1.0
  O  O37  1  0.51328000  0.20641000  0.54166000  1.0
  O  O38  1  0.05701000  0.10519000  0.79705000  1.0
  O  O39  1  0.94298000  0.89481000  0.20295000  1.0
  O  O40  1  0.77586000  0.34474000  0.90810000  1.0
  O  O41  1  0.22414000  0.65526000  0.09190000  1.0
  O  O42  1  0.06893000  0.47036000  0.81253000  1.0
  O  O43  1  0.93108000  0.52964000  0.18747000  1.0
  O  O44  1  0.64130000  0.47986000  0.71070000  1.0
  O  O45  1  0.35871000  0.52015000  0.28930000  1.0
  O  O46  1  0.62209000  0.01923000  0.82343000  1.0
  O  O47  1  0.37791000  0.98077000  0.17658000  1.0
  O  O48  1  0.48624000  0.21343000  0.00208000  1.0
  O  O49  1  0.51377000  0.78657000  0.99792000  1.0
  O  O50  1  0.62579000  0.71037000  0.81690000  1.0
  O  O51  1  0.37422000  0.28964000  0.18310000  1.0
  O  O52  1  0.35454000  0.18556000  0.72740000  1.0
  O  O53  1  0.64546000  0.81443000  0.27260000  1.0
  O  O54  1  0.02581000  0.29711000  0.61412000  1.0
  O  O55  1  0.97419000  0.70288000  0.38588000  1.0
  O  O56  1  0.69637000  0.96189000  0.60958000  1.0
  O  O57  1  0.30360000  0.03811000  0.39042000  1.0
