# generated using pymatgen
data_MnH21C20(NO3)2
_symmetry_space_group_name_H-M   'P 1'
_cell_length_a   6.68865000
_cell_length_b   14.52730000
_cell_length_c   21.51970000
_cell_angle_alpha   89.99790000
_cell_angle_beta   89.99800000
_cell_angle_gamma   97.91200000
_symmetry_Int_Tables_number   1
_chemical_formula_structural   MnH21C20(NO3)2
_chemical_formula_sum   'Mn4 H84 C80 N8 O24'
_cell_volume   2071.12154300
_cell_formula_units_Z   4
loop_
 _symmetry_equiv_pos_site_id
 _symmetry_equiv_pos_as_xyz
  1  'x, y, z'
loop_
 _atom_site_type_symbol
 _atom_site_label
 _atom_site_symmetry_multiplicity
 _atom_site_fract_x
 _atom_site_fract_y
 _atom_site_fract_z
 _atom_site_occupancy
  Mn  Mn0  1  0.22879000  0.77239000  0.39355000  1.0
  Mn  Mn1  1  0.27122000  0.22762000  0.89356000  1.0
  Mn  Mn2  1  0.77117000  0.22761000  0.60645000  1.0
  Mn  Mn3  1  0.72879000  0.77239000  0.10645000  1.0
  H  H4  1  0.23969000  0.47150000  0.40071000  1.0
  H  H5  1  0.26031000  0.52849000  0.90071000  1.0
  H  H6  1  0.76030000  0.52849000  0.59929000  1.0
  H  H7  1  0.73970000  0.47151000  0.09929000  1.0
  H  H8  1  0.42660000  0.34576000  0.39822000  1.0
  H  H9  1  0.07340000  0.65424000  0.89823000  1.0
  H  H10  1  0.57340000  0.65425000  0.60177000  1.0
  H  H11  1  0.92660000  0.34576000  0.10177000  1.0
  H  H12  1  0.30886000  0.23528000  0.36999000  1.0
  H  H13  1  0.19114000  0.76472000  0.86999000  1.0
  H  H14  1  0.69114000  0.76472000  0.63001000  1.0
  H  H15  1  0.80885000  0.23528000  0.13001000  1.0
  H  H16  1  0.15674000  0.31715000  0.39992000  1.0
  H  H17  1  0.34326000  0.68285000  0.89992000  1.0
  H  H18  1  0.84326000  0.68286000  0.60007000  1.0
  H  H19  1  0.65674000  0.31715000  0.10008000  1.0
  H  H20  1  0.29014000  0.41748000  0.20372000  1.0
  H  H21  1  0.20986000  0.58253000  0.70372000  1.0
  H  H22  1  0.70987000  0.58252000  0.79627000  1.0
  H  H23  1  0.79014000  0.41747000  0.29628000  1.0
  H  H24  1  0.26485000  0.58402000  0.18218000  1.0
  H  H25  1  0.23513000  0.41599000  0.68218000  1.0
  H  H26  1  0.73515000  0.41598000  0.81782000  1.0
  H  H27  1  0.76485000  0.58401000  0.31782000  1.0
  H  H28  1  0.20628000  0.73183000  0.21280000  1.0
  H  H29  1  0.29366000  0.26817000  0.71280000  1.0
  H  H30  1  0.79372000  0.26817000  0.78719000  1.0
  H  H31  1  0.70628000  0.73182000  0.28720000  1.0
  H  H32  1  0.00065000  0.87438000  0.28951000  1.0
  H  H33  1  0.49936000  0.12562000  0.78950000  1.0
  H  H34  1  0.99935000  0.12563000  0.71050000  1.0
  H  H35  1  0.50065000  0.87438000  0.21050000  1.0
  H  H36  1  0.19651000  0.88417000  0.23238000  1.0
  H  H37  1  0.30349000  0.11584000  0.73237000  1.0
  H  H38  1  0.80348000  0.11583000  0.76763000  1.0
  H  H39  1  0.69650000  0.88416000  0.26762000  1.0
  H  H40  1  0.44198000  0.95535000  0.31135000  1.0
  H  H41  1  0.05802000  0.04466000  0.81135000  1.0
  H  H42  1  0.55802000  0.04464000  0.68865000  1.0
  H  H43  1  0.94198000  0.95534000  0.18865000  1.0
  H  H44  1  0.22400000  0.01296000  0.31948000  1.0
  H  H45  1  0.27600000  0.98703000  0.81948000  1.0
  H  H46  1  0.77601000  0.98703000  0.68052000  1.0
  H  H47  1  0.72401000  0.01296000  0.18052000  1.0
  H  H48  1  0.26528000  0.04190000  0.42341000  1.0
  H  H49  1  0.23470000  0.95809000  0.92341000  1.0
  H  H50  1  0.73471000  0.95810000  0.57660000  1.0
  H  H51  1  0.76529000  0.04190000  0.07658000  1.0
  H  H52  1  0.23941000  0.08558000  0.52418000  1.0
  H  H53  1  0.26059000  0.91441000  0.02419000  1.0
  H  H54  1  0.76059000  0.91441000  0.47582000  1.0
  H  H55  1  0.73941000  0.08558000  0.97581000  1.0
  H  H56  1  0.21681000  0.05590000  0.63660000  1.0
  H  H57  1  0.28319000  0.94410000  0.13661000  1.0
  H  H58  1  0.78319000  0.94411000  0.36340000  1.0
  H  H59  1  0.71681000  0.05590000  0.86340000  1.0
  H  H60  1  0.07731000  0.75828000  0.70259000  1.0
  H  H61  1  0.42269000  0.24171000  0.20258000  1.0
  H  H62  1  0.92268000  0.24172000  0.29741000  1.0
  H  H63  1  0.57731000  0.75829000  0.79741000  1.0
  H  H64  1  0.21869000  0.81645000  0.76501000  1.0
  H  H65  1  0.28131000  0.18354000  0.26500000  1.0
  H  H66  1  0.78132000  0.18355000  0.23500000  1.0
  H  H67  1  0.71869000  0.81646000  0.73499000  1.0
  H  H68  1  0.34840000  0.77760000  0.69961000  1.0
  H  H69  1  0.15161000  0.22240000  0.19961000  1.0
  H  H70  1  0.65161000  0.22240000  0.30039000  1.0
  H  H71  1  0.84840000  0.77761000  0.80039000  1.0
  H  H72  1  0.21695000  0.76152000  0.60057000  1.0
  H  H73  1  0.28306000  0.23848000  0.10055000  1.0
  H  H74  1  0.78306000  0.23848000  0.39944000  1.0
  H  H75  1  0.71695000  0.76152000  0.89943000  1.0
  H  H76  1  0.62058000  0.74484000  0.50094000  1.0
  H  H77  1  0.87941000  0.25518000  0.00096000  1.0
  H  H78  1  0.37941000  0.25517000  0.49904000  1.0
  H  H79  1  0.12059000  0.74485000  0.99906000  1.0
  H  H80  1  0.82483000  0.68154000  0.48084000  1.0
  H  H81  1  0.67519000  0.31847000  0.98087000  1.0
  H  H82  1  0.17518000  0.31845000  0.51916000  1.0
  H  H83  1  0.32484000  0.68154000  0.01916000  1.0
  H  H84  1  0.56738000  0.64173000  0.45787000  1.0
  H  H85  1  0.93260000  0.35828000  0.95789000  1.0
  H  H86  1  0.43259000  0.35827000  0.54211000  1.0
  H  H87  1  0.06739000  0.64174000  0.04213000  1.0
  C  C88  1  0.22920000  0.58896000  0.34138000  1.0
  C  C89  1  0.27081000  0.41104000  0.84139000  1.0
  C  C90  1  0.77077000  0.41104000  0.65861000  1.0
  C  C91  1  0.72920000  0.58895000  0.15862000  1.0
  C  C92  1  0.24644000  0.49451000  0.35256000  1.0
  C  C93  1  0.25355000  0.50549000  0.85256000  1.0
  C  C94  1  0.75355000  0.50549000  0.64744000  1.0
  C  C95  1  0.74645000  0.49451000  0.14744000  1.0
  C  C96  1  0.26766000  0.43462000  0.30334000  1.0
  C  C97  1  0.23234000  0.56539000  0.80335000  1.0
  C  C98  1  0.73234000  0.56539000  0.69665000  1.0
  C  C99  1  0.76766000  0.43461000  0.19666000  1.0
  C  C100  1  0.29453000  0.30935000  0.37365000  1.0
  C  C101  1  0.20547000  0.69065000  0.87366000  1.0
  C  C102  1  0.70547000  0.69065000  0.62634000  1.0
  C  C103  1  0.79453000  0.30935000  0.12635000  1.0
  C  C104  1  0.27243000  0.46595000  0.24120000  1.0
  C  C105  1  0.22757000  0.53405000  0.74121000  1.0
  C  C106  1  0.72757000  0.53405000  0.75879000  1.0
  C  C107  1  0.77243000  0.46595000  0.25880000  1.0
  C  C108  1  0.25946000  0.55815000  0.22984000  1.0
  C  C109  1  0.24053000  0.44185000  0.72984000  1.0
  C  C110  1  0.74053000  0.44185000  0.77015000  1.0
  C  C111  1  0.75946000  0.55814000  0.27016000  1.0
  C  C112  1  0.23934000  0.62187000  0.27847000  1.0
  C  C113  1  0.26065000  0.37813000  0.77848000  1.0
  C  C114  1  0.76063000  0.37813000  0.72152000  1.0
  C  C115  1  0.73934000  0.62186000  0.22153000  1.0
  C  C116  1  0.21736000  0.71520000  0.26239000  1.0
  C  C117  1  0.28263000  0.28481000  0.76239000  1.0
  C  C118  1  0.78262000  0.28481000  0.73761000  1.0
  C  C119  1  0.71736000  0.71519000  0.23761000  1.0
  C  C120  1  0.16259000  0.87281000  0.28197000  1.0
  C  C121  1  0.33742000  0.12720000  0.78197000  1.0
  C  C122  1  0.83740000  0.12719000  0.71803000  1.0
  C  C123  1  0.66259000  0.87281000  0.21803000  1.0
  C  C124  1  0.28079000  0.94560000  0.32370000  1.0
  C  C125  1  0.21922000  0.05440000  0.82371000  1.0
  C  C126  1  0.71922000  0.05439000  0.67630000  1.0
  C  C127  1  0.78079000  0.94560000  0.17629000  1.0
  C  C128  1  0.25581000  0.96728000  0.43370000  1.0
  C  C129  1  0.24418000  0.03271000  0.93371000  1.0
  C  C130  1  0.74419000  0.03271000  0.56629000  1.0
  C  C131  1  0.75582000  0.96728000  0.06629000  1.0
  C  C132  1  0.24023000  0.94251000  0.49778000  1.0
  C  C133  1  0.25976000  0.05748000  0.99778000  1.0
  C  C134  1  0.75976000  0.05748000  0.50223000  1.0
  C  C135  1  0.74025000  0.94251000  0.00222000  1.0
  C  C136  1  0.23409000  0.01471000  0.54140000  1.0
  C  C137  1  0.26591000  0.98528000  0.04140000  1.0
  C  C138  1  0.76590000  0.98528000  0.45860000  1.0
  C  C139  1  0.73409000  0.01471000  0.95859000  1.0
  C  C140  1  0.22081000  0.99863000  0.60430000  1.0
  C  C141  1  0.27919000  0.00136000  0.10430000  1.0
  C  C142  1  0.77919000  0.00137000  0.39570000  1.0
  C  C143  1  0.72081000  0.99864000  0.89570000  1.0
  C  C144  1  0.21618000  0.90666000  0.62591000  1.0
  C  C145  1  0.28382000  0.09333000  0.12591000  1.0
  C  C146  1  0.78382000  0.09334000  0.37409000  1.0
  C  C147  1  0.71618000  0.90667000  0.87409000  1.0
  C  C148  1  0.21295000  0.80666000  0.71470000  1.0
  C  C149  1  0.28705000  0.19334000  0.21470000  1.0
  C  C150  1  0.78705000  0.19334000  0.28530000  1.0
  C  C151  1  0.71295000  0.80666000  0.78530000  1.0
  C  C152  1  0.22180000  0.83293000  0.58467000  1.0
  C  C153  1  0.27820000  0.16706000  0.08467000  1.0
  C  C154  1  0.77820000  0.16707000  0.41534000  1.0
  C  C155  1  0.72181000  0.83294000  0.91533000  1.0
  C  C156  1  0.23204000  0.84874000  0.51961000  1.0
  C  C157  1  0.26796000  0.15125000  0.01961000  1.0
  C  C158  1  0.76796000  0.15125000  0.48039000  1.0
  C  C159  1  0.73205000  0.84875000  0.98038000  1.0
  C  C160  1  0.71200000  0.75897000  0.40577000  1.0
  C  C161  1  0.78800000  0.24105000  0.90580000  1.0
  C  C162  1  0.28805000  0.24104000  0.59421000  1.0
  C  C163  1  0.21201000  0.75898000  0.09423000  1.0
  C  C164  1  0.68198000  0.70252000  0.46516000  1.0
  C  C165  1  0.81801000  0.29749000  0.96519000  1.0
  C  C166  1  0.31802000  0.29748000  0.53482000  1.0
  C  C167  1  0.18199000  0.70253000  0.03483000  1.0
  N  N168  1  0.20597000  0.78172000  0.30213000  1.0
  N  N169  1  0.29404000  0.21828000  0.80214000  1.0
  N  N170  1  0.79399000  0.21827000  0.69786000  1.0
  N  N171  1  0.70596000  0.78172000  0.19787000  1.0
  N  N172  1  0.25973000  0.91048000  0.38738000  1.0
  N  N173  1  0.24028000  0.08952000  0.88739000  1.0
  N  N174  1  0.74030000  0.08952000  0.61262000  1.0
  N  N175  1  0.75974000  0.91048000  0.11261000  1.0
  O  O176  1  0.19889000  0.64094000  0.38965000  1.0
  O  O177  1  0.30111000  0.35905000  0.88965000  1.0
  O  O178  1  0.80103000  0.35905000  0.61035000  1.0
  O  O179  1  0.69889000  0.64094000  0.11035000  1.0
  O  O180  1  0.23478000  0.77701000  0.48264000  1.0
  O  O181  1  0.26522000  0.22298000  0.98263000  1.0
  O  O182  1  0.76523000  0.22298000  0.51737000  1.0
  O  O183  1  0.73480000  0.77701000  0.01736000  1.0
  O  O184  1  0.28460000  0.34248000  0.31127000  1.0
  O  O185  1  0.21540000  0.65752000  0.81127000  1.0
  O  O186  1  0.71541000  0.65753000  0.68872000  1.0
  O  O187  1  0.78460000  0.34247000  0.18873000  1.0
  O  O188  1  0.20704000  0.89710000  0.68901000  1.0
  O  O189  1  0.29296000  0.10290000  0.18900000  1.0
  O  O190  1  0.79297000  0.10291000  0.31099000  1.0
  O  O191  1  0.70704000  0.89710000  0.81099000  1.0
  O  O192  1  0.55722000  0.78114000  0.37767000  1.0
  O  O193  1  0.94275000  0.21887000  0.87769000  1.0
  O  O194  1  0.44280000  0.21881000  0.62229000  1.0
  O  O195  1  0.05722000  0.78114000  0.12233000  1.0
  O  O196  1  0.88918000  0.78357000  0.38536000  1.0
  O  O197  1  0.61085000  0.21646000  0.88538000  1.0
  O  O198  1  0.11092000  0.21650000  0.61467000  1.0
  O  O199  1  0.38918000  0.78357000  0.11463000  1.0
