# generated using pymatgen
data_CuH4C4SN2
_symmetry_space_group_name_H-M   'P 1'
_cell_length_a   7.45668000
_cell_length_b   7.61644000
_cell_length_c   11.05920000
_cell_angle_alpha   101.83500000
_cell_angle_beta   90.00290000
_cell_angle_gamma   119.30700000
_symmetry_Int_Tables_number   1
_chemical_formula_structural   CuH4C4SN2
_chemical_formula_sum   'Cu4 H16 C16 S4 N8'
_cell_volume   532.33164736
_cell_formula_units_Z   4
loop_
 _symmetry_equiv_pos_site_id
 _symmetry_equiv_pos_as_xyz
  1  'x, y, z'
loop_
 _atom_site_type_symbol
 _atom_site_label
 _atom_site_symmetry_multiplicity
 _atom_site_fract_x
 _atom_site_fract_y
 _atom_site_fract_z
 _atom_site_occupancy
  Cu  Cu0  1  0.05760000  0.35856000  0.52204000  1.0
  Cu  Cu1  1  0.30089000  0.35872000  0.02205000  1.0
  Cu  Cu2  1  0.94240000  0.64144000  0.47796000  1.0
  Cu  Cu3  1  0.69911000  0.64128000  0.97795000  1.0
  H  H4  1  0.65773000  0.10866000  0.35779000  1.0
  H  H5  1  0.45118000  0.10927000  0.85776000  1.0
  H  H6  1  0.34227000  0.89135000  0.64221000  1.0
  H  H7  1  0.54881000  0.89072000  0.14225000  1.0
  H  H8  1  0.29389000  0.21572000  0.47278000  1.0
  H  H9  1  0.92157000  0.21531000  0.97281000  1.0
  H  H10  1  0.70611000  0.78429000  0.52722000  1.0
  H  H11  1  0.07843000  0.78468000  0.02719000  1.0
  H  H12  1  0.40166000  0.23651000  0.32980000  1.0
  H  H13  1  0.83472000  0.23631000  0.82986000  1.0
  H  H14  1  0.59834000  0.76350000  0.67020000  1.0
  H  H15  1  0.16527000  0.76369000  0.17015000  1.0
  H  H16  1  0.29628000  0.99815000  0.37667000  1.0
  H  H17  1  0.70165000  0.99786000  0.87660000  1.0
  H  H18  1  0.70372000  0.00185000  0.62333000  1.0
  H  H19  1  0.29834000  0.00212000  0.12339000  1.0
  C  C20  1  0.24329000  0.52799000  0.28440000  1.0
  C  C21  1  0.28450000  0.52790000  0.78435000  1.0
  C  C22  1  0.75672000  0.47201000  0.71560000  1.0
  C  C23  1  0.71551000  0.47210000  0.21565000  1.0
  C  C24  1  0.07013000  0.06323000  0.31116000  1.0
  C  C25  1  0.99305000  0.06317000  0.81120000  1.0
  C  C26  1  0.92988000  0.93677000  0.68883000  1.0
  C  C27  1  0.00695000  0.93683000  0.18880000  1.0
  C  C28  1  0.75944000  0.06065000  0.30969000  1.0
  C  C29  1  0.30135000  0.06102000  0.80970000  1.0
  C  C30  1  0.24056000  0.93935000  0.69031000  1.0
  C  C31  1  0.69865000  0.93898000  0.19030000  1.0
  C  C32  1  0.27646000  0.13203000  0.37626000  1.0
  C  C33  1  0.85539000  0.13177000  0.87629000  1.0
  C  C34  1  0.72354000  0.86798000  0.62374000  1.0
  C  C35  1  0.14460000  0.86823000  0.12371000  1.0
  S  S36  1  0.26391000  0.64304000  0.42996000  1.0
  S  S37  1  0.37912000  0.64302000  0.92989000  1.0
  S  S38  1  0.73609000  0.35697000  0.57004000  1.0
  S  S39  1  0.62088000  0.35697000  0.07011000  1.0
  N  N40  1  0.23370000  0.44274000  0.18032000  1.0
  N  N41  1  0.20885000  0.44260000  0.68029000  1.0
  N  N42  1  0.76631000  0.55725000  0.81968000  1.0
  N  N43  1  0.79116000  0.55739000  0.31971000  1.0
  N  N44  1  0.94582000  0.12538000  0.37151000  1.0
  N  N45  1  0.17959000  0.12551000  0.87157000  1.0
  N  N46  1  0.05418000  0.87462000  0.62849000  1.0
  N  N47  1  0.82040000  0.87449000  0.12843000  1.0
