# generated using pymatgen
data_CuH10C14(BrO2)4
_symmetry_space_group_name_H-M   'P 1'
_cell_length_a   4.52683000
_cell_length_b   13.08040000
_cell_length_c   16.42040000
_cell_angle_alpha   107.06100000
_cell_angle_beta   97.88590000
_cell_angle_gamma   90.02460000
_symmetry_Int_Tables_number   1
_chemical_formula_structural   CuH10C14(BrO2)4
_chemical_formula_sum   'Cu2 H20 C28 Br8 O16'
_cell_volume   919.86885320
_cell_formula_units_Z   2
loop_
 _symmetry_equiv_pos_site_id
 _symmetry_equiv_pos_as_xyz
  1  'x, y, z'
loop_
 _atom_site_type_symbol
 _atom_site_label
 _atom_site_symmetry_multiplicity
 _atom_site_fract_x
 _atom_site_fract_y
 _atom_site_fract_z
 _atom_site_occupancy
  Cu  Cu0  1  0.50000000  0.50000000  0.00000000  1.0
  Cu  Cu1  1  0.50001000  0.00000000  0.00000000  1.0
  H  H2  1  0.65094000  0.67941000  0.10981000  1.0
  H  H3  1  0.54210000  0.82079000  0.89018000  1.0
  H  H4  1  0.34907000  0.32059000  0.89019000  1.0
  H  H5  1  0.45790000  0.17921000  0.10982000  1.0
  H  H6  1  0.89326000  0.63882000  0.04316000  1.0
  H  H7  1  0.85055000  0.86141000  0.95697000  1.0
  H  H8  1  0.10674000  0.36118000  0.95684000  1.0
  H  H9  1  0.14945000  0.13859000  0.04303000  1.0
  H  H10  1  0.76822000  0.30826000  0.08288000  1.0
  H  H11  1  0.68631000  0.19142000  0.91698000  1.0
  H  H12  1  0.23179000  0.69174000  0.91712000  1.0
  H  H13  1  0.31369000  0.80858000  0.08302000  1.0
  H  H14  1  0.88033000  0.44869000  0.42284000  1.0
  H  H15  1  0.45945000  0.05130000  0.57702000  1.0
  H  H16  1  0.11967000  0.55132000  0.57716000  1.0
  H  H17  1  0.54055000  0.94870000  0.42298000  1.0
  H  H18  1  0.33686000  0.57963000  0.25837000  1.0
  H  H19  1  0.07993000  0.92024000  0.74128000  1.0
  H  H20  1  0.66312000  0.42037000  0.74163000  1.0
  H  H21  1  0.92008000  0.07977000  0.25872000  1.0
  C  C22  1  0.10991000  0.43637000  0.10773000  1.0
  C  C23  1  0.00313000  0.06340000  0.89208000  1.0
  C  C24  1  0.89009000  0.56363000  0.89227000  1.0
  C  C25  1  0.99688000  0.93660000  0.10792000  1.0
  C  C26  1  0.03921000  0.44269000  0.19453000  1.0
  C  C27  1  0.84626000  0.05715000  0.80527000  1.0
  C  C28  1  0.96078000  0.55731000  0.80547000  1.0
  C  C29  1  0.15374000  0.94285000  0.19473000  1.0
  C  C30  1  0.83488000  0.36625000  0.20384000  1.0
  C  C31  1  0.63283000  0.13360000  0.79602000  1.0
  C  C32  1  0.16512000  0.63375000  0.79615000  1.0
  C  C33  1  0.36717000  0.86639000  0.20398000  1.0
  C  C34  1  0.78423000  0.36964000  0.28708000  1.0
  C  C35  1  0.49915000  0.13029000  0.71281000  1.0
  C  C36  1  0.21576000  0.63036000  0.71292000  1.0
  C  C37  1  0.50085000  0.86972000  0.28719000  1.0
  C  C38  1  0.92349000  0.44808000  0.35912000  1.0
  C  C39  1  0.56632000  0.05192000  0.64071000  1.0
  C  C40  1  0.07649000  0.55192000  0.64088000  1.0
  C  C41  1  0.43367000  0.94809000  0.35929000  1.0
  C  C42  1  0.12004000  0.52400000  0.34820000  1.0
  C  C43  1  0.77349000  0.97593000  0.65157000  1.0
  C  C44  1  0.87995000  0.47601000  0.65180000  1.0
  C  C45  1  0.22652000  0.02408000  0.34843000  1.0
  C  C46  1  0.18056000  0.52178000  0.26713000  1.0
  C  C47  1  0.91498000  0.97811000  0.73261000  1.0
  C  C48  1  0.81943000  0.47822000  0.73287000  1.0
  C  C49  1  0.08502000  0.02189000  0.26739000  1.0
  Br  Br50  1  0.31403000  0.63057000  0.44731000  1.0
  Br  Br51  1  0.86767000  0.86930000  0.55237000  1.0
  Br  Br52  1  0.68595000  0.36943000  0.55269000  1.0
  Br  Br53  1  0.13232000  0.13070000  0.44763000  1.0
  Br  Br54  1  0.53226000  0.26166000  0.30058000  1.0
  Br  Br55  1  0.23369000  0.23825000  0.69941000  1.0
  Br  Br56  1  0.46774000  0.73834000  0.69942000  1.0
  Br  Br57  1  0.76630000  0.76175000  0.30059000  1.0
  O  O58  1  0.32801000  0.49439000  0.10231000  1.0
  O  O59  1  0.22653000  0.00544000  0.89754000  1.0
  O  O60  1  0.67200000  0.50561000  0.89769000  1.0
  O  O61  1  0.77347000  0.99456000  0.10246000  1.0
  O  O62  1  0.94898000  0.37080000  0.04198000  1.0
  O  O63  1  0.90741000  0.12890000  0.95780000  1.0
  O  O64  1  0.05102000  0.62920000  0.95802000  1.0
  O  O65  1  0.09259000  0.87110000  0.04220000  1.0
  O  O66  1  0.76052000  0.61687000  0.08006000  1.0
  O  O67  1  0.68137000  0.88335000  0.91999000  1.0
  O  O68  1  0.23950000  0.38313000  0.91994000  1.0
  O  O69  1  0.31864000  0.11665000  0.08001000  1.0
  O  O70  1  0.69557000  0.29031000  0.13421000  1.0
  O  O71  1  0.56274000  0.20944000  0.86566000  1.0
  O  O72  1  0.30443000  0.70969000  0.86579000  1.0
  O  O73  1  0.43726000  0.79056000  0.13434000  1.0
