# generated using pymatgen
data_Mn2Sb2H8C12S5N2
_symmetry_space_group_name_H-M   'P 1'
_cell_length_a   12.08980000
_cell_length_b   12.17400000
_cell_length_c   12.63850000
_cell_angle_alpha   90.00000000
_cell_angle_beta   112.35100000
_cell_angle_gamma   90.00000000
_symmetry_Int_Tables_number   1
_chemical_formula_structural   Mn2Sb2H8C12S5N2
_chemical_formula_sum   'Mn8 Sb8 H32 C48 S20 N8'
_cell_volume   1720.39981143
_cell_formula_units_Z   4
loop_
 _symmetry_equiv_pos_site_id
 _symmetry_equiv_pos_as_xyz
  1  'x, y, z'
loop_
 _atom_site_type_symbol
 _atom_site_label
 _atom_site_symmetry_multiplicity
 _atom_site_fract_x
 _atom_site_fract_y
 _atom_site_fract_z
 _atom_site_occupancy
  Mn  Mn0  1  0.73406000  0.70954000  0.35658000  1.0
  Mn  Mn1  1  0.76594000  0.20954000  0.64341000  1.0
  Mn  Mn2  1  0.26594000  0.29046000  0.64342000  1.0
  Mn  Mn3  1  0.23406000  0.79046000  0.35658000  1.0
  Mn  Mn4  1  0.99053000  0.84588000  0.49123000  1.0
  Mn  Mn5  1  0.50948000  0.34588000  0.50877000  1.0
  Mn  Mn6  1  0.00948000  0.15412000  0.50877000  1.0
  Mn  Mn7  1  0.49053000  0.65412000  0.49123000  1.0
  Sb  Sb8  1  0.76725000  0.80899000  0.62568000  1.0
  Sb  Sb9  1  0.73274000  0.30899000  0.37432000  1.0
  Sb  Sb10  1  0.23275000  0.19101000  0.37432000  1.0
  Sb  Sb11  1  0.26725000  0.69101000  0.62568000  1.0
  Sb  Sb12  1  0.77212000  0.50003000  0.64267000  1.0
  Sb  Sb13  1  0.72789000  0.00003000  0.35732000  1.0
  Sb  Sb14  1  0.22788000  0.49997000  0.35733000  1.0
  Sb  Sb15  1  0.27212000  0.99997000  0.64268000  1.0
  H  H16  1  0.47346000  0.82398000  0.22179000  1.0
  H  H17  1  0.02653000  0.32398000  0.77820000  1.0
  H  H18  1  0.52653000  0.17602000  0.77820000  1.0
  H  H19  1  0.97347000  0.67602000  0.22180000  1.0
  H  H20  1  0.33966000  0.85068000  0.01511000  1.0
  H  H21  1  0.16033000  0.35069000  0.98488000  1.0
  H  H22  1  0.66033000  0.14932000  0.98489000  1.0
  H  H23  1  0.83967000  0.64930000  0.01511000  1.0
  H  H24  1  0.37792000  0.74393000  0.86552000  1.0
  H  H25  1  0.12208000  0.24394000  0.13447000  1.0
  H  H26  1  0.62207000  0.25607000  0.13448000  1.0
  H  H27  1  0.87792000  0.75606000  0.86553000  1.0
  H  H28  1  0.83932000  0.37726000  0.04578000  1.0
  H  H29  1  0.66068000  0.87726000  0.95421000  1.0
  H  H30  1  0.16067000  0.62273000  0.95422000  1.0
  H  H31  1  0.33932000  0.12273000  0.04578000  1.0
  H  H32  1  0.96845000  0.37799000  0.25682000  1.0
  H  H33  1  0.53155000  0.87799000  0.74318000  1.0
  H  H34  1  0.03155000  0.62201000  0.74318000  1.0
  H  H35  1  0.46845000  0.12200000  0.25682000  1.0
  H  H36  1  0.92396000  0.50978000  0.38494000  1.0
  H  H37  1  0.57604000  0.00978000  0.61506000  1.0
  H  H38  1  0.07604000  0.49022000  0.61506000  1.0
  H  H39  1  0.42396000  0.99021000  0.38494000  1.0
  H  H40  1  0.50016000  0.59433000  0.81794000  1.0
  H  H41  1  0.99984000  0.09433000  0.18205000  1.0
  H  H42  1  0.49984000  0.40567000  0.18206000  1.0
  H  H43  1  0.00016000  0.90567000  0.81795000  1.0
  H  H44  1  0.66423000  0.45994000  0.88378000  1.0
  H  H45  1  0.83578000  0.95994000  0.11622000  1.0
  H  H46  1  0.33578000  0.54006000  0.11622000  1.0
  H  H47  1  0.16422000  0.04005000  0.88379000  1.0
  C  C48  1  0.48870000  0.77893000  0.15393000  1.0
  C  C49  1  0.01130000  0.27893000  0.84607000  1.0
  C  C50  1  0.51130000  0.22107000  0.84607000  1.0
  C  C51  1  0.98870000  0.72106000  0.15393000  1.0
  C  C52  1  0.41429000  0.79365000  0.03843000  1.0
  C  C53  1  0.08571000  0.29365000  0.96156000  1.0
  C  C54  1  0.58570000  0.20636000  0.96157000  1.0
  C  C55  1  0.91430000  0.70635000  0.03844000  1.0
  C  C56  1  0.43596000  0.73394000  0.95541000  1.0
  C  C57  1  0.06404000  0.23394000  0.04459000  1.0
  C  C58  1  0.56403000  0.26606000  0.04459000  1.0
  C  C59  1  0.93597000  0.76605000  0.95541000  1.0
  C  C60  1  0.53119000  0.65792000  0.98808000  1.0
  C  C61  1  0.96880000  0.15793000  0.01192000  1.0
  C  C62  1  0.46880000  0.34208000  0.01192000  1.0
  C  C63  1  0.03120000  0.84207000  0.98808000  1.0
  C  C64  1  0.60300000  0.64998000  0.10675000  1.0
  C  C65  1  0.89700000  0.14998000  0.89325000  1.0
  C  C66  1  0.39700000  0.35003000  0.89325000  1.0
  C  C67  1  0.10300000  0.85002000  0.10675000  1.0
  C  C68  1  0.70229000  0.57530000  0.14480000  1.0
  C  C69  1  0.79771000  0.07530000  0.85520000  1.0
  C  C70  1  0.29771000  0.42470000  0.85520000  1.0
  C  C71  1  0.20229000  0.92470000  0.14480000  1.0
  C  C72  1  0.72273000  0.50540000  0.06382000  1.0
  C  C73  1  0.77727000  0.00540000  0.93618000  1.0
  C  C74  1  0.27727000  0.49460000  0.93618000  1.0
  C  C75  1  0.22273000  0.99459000  0.06382000  1.0
  C  C76  1  0.82091000  0.43257000  0.10508000  1.0
  C  C77  1  0.67909000  0.93257000  0.89492000  1.0
  C  C78  1  0.17909000  0.56743000  0.89492000  1.0
  C  C79  1  0.32091000  0.06743000  0.10508000  1.0
  C  C80  1  0.89262000  0.43331000  0.22017000  1.0
  C  C81  1  0.60738000  0.93331000  0.77983000  1.0
  C  C82  1  0.10738000  0.56669000  0.77983000  1.0
  C  C83  1  0.39262000  0.06669000  0.22017000  1.0
  C  C84  1  0.86671000  0.50625000  0.29419000  1.0
  C  C85  1  0.63329000  0.00625000  0.70581000  1.0
  C  C86  1  0.13328000  0.49375000  0.70581000  1.0
  C  C87  1  0.36671000  0.99375000  0.29419000  1.0
  C  C88  1  0.55593000  0.58806000  0.90881000  1.0
  C  C89  1  0.94407000  0.08806000  0.09119000  1.0
  C  C90  1  0.44407000  0.41195000  0.09119000  1.0
  C  C91  1  0.05593000  0.91194000  0.90881000  1.0
  C  C92  1  0.64712000  0.51345000  0.94536000  1.0
  C  C93  1  0.85288000  0.01345000  0.05464000  1.0
  C  C94  1  0.35289000  0.48655000  0.05464000  1.0
  C  C95  1  0.14712000  0.98655000  0.94537000  1.0
  S  S96  1  0.60264000  0.81033000  0.43943000  1.0
  S  S97  1  0.89736000  0.31034000  0.56056000  1.0
  S  S98  1  0.39736000  0.18966000  0.56057000  1.0
  S  S99  1  0.10264000  0.68966000  0.43943000  1.0
  S  S100  1  0.88557000  0.68999000  0.55223000  1.0
  S  S101  1  0.61443000  0.18999000  0.44777000  1.0
  S  S102  1  0.11444000  0.31001000  0.44777000  1.0
  S  S103  1  0.38556000  0.81001000  0.55223000  1.0
  S  S104  1  0.66130000  0.65448000  0.69254000  1.0
  S  S105  1  0.83870000  0.15448000  0.30746000  1.0
  S  S106  1  0.33870000  0.34552000  0.30746000  1.0
  S  S107  1  0.16130000  0.84552000  0.69255000  1.0
  S  S108  1  0.66308000  0.35382000  0.70274000  1.0
  S  S109  1  0.83692000  0.85382000  0.29727000  1.0
  S  S110  1  0.33692000  0.64618000  0.29727000  1.0
  S  S111  1  0.16308000  0.14618000  0.70274000  1.0
  S  S112  1  0.62099000  0.49924000  0.44608000  1.0
  S  S113  1  0.87901000  0.99923000  0.55392000  1.0
  S  S114  1  0.37901000  0.50076000  0.55392000  1.0
  S  S115  1  0.12099000  0.00076000  0.44608000  1.0
  N  N116  1  0.58167000  0.71030000  0.18748000  1.0
  N  N117  1  0.91833000  0.21030000  0.81252000  1.0
  N  N118  1  0.41833000  0.28971000  0.81252000  1.0
  N  N119  1  0.08167000  0.78970000  0.18748000  1.0
  N  N120  1  0.77441000  0.57608000  0.25804000  1.0
  N  N121  1  0.72559000  0.07608000  0.74196000  1.0
  N  N122  1  0.22559000  0.42392000  0.74196000  1.0
  N  N123  1  0.27441000  0.92392000  0.25804000  1.0
