# generated using pymatgen
data_CuH3C7N2
_symmetry_space_group_name_H-M   'P 1'
_cell_length_a   28.64750000
_cell_length_b   28.64870000
_cell_length_c   28.67990000
_cell_angle_alpha   90.03370000
_cell_angle_beta   89.88870000
_cell_angle_gamma   89.97720000
_symmetry_Int_Tables_number   1
_chemical_formula_structural   CuH3C7N2
_chemical_formula_sum   'Cu12 H36 C84 N24'
_cell_volume   23537.93457404
_cell_formula_units_Z   12
loop_
 _symmetry_equiv_pos_site_id
 _symmetry_equiv_pos_as_xyz
  1  'x, y, z'
loop_
 _atom_site_type_symbol
 _atom_site_label
 _atom_site_symmetry_multiplicity
 _atom_site_fract_x
 _atom_site_fract_y
 _atom_site_fract_z
 _atom_site_occupancy
  Cu  Cu0  1  0.62501000  0.33104000  0.41894000  1.0
  Cu  Cu1  1  0.67068000  0.42125000  0.37419000  1.0
  Cu  Cu2  1  0.57932000  0.37588000  0.32875000  1.0
  Cu  Cu3  1  0.37479000  0.83085000  0.08064000  1.0
  Cu  Cu4  1  0.32917000  0.92110000  0.12551000  1.0
  Cu  Cu5  1  0.42035000  0.87568000  0.17064000  1.0
  Cu  Cu6  1  0.12512000  0.16892000  0.58114000  1.0
  Cu  Cu7  1  0.17106000  0.07899000  0.62601000  1.0
  Cu  Cu8  1  0.07956000  0.12434000  0.67167000  1.0
  Cu  Cu9  1  0.87528000  0.66898000  0.91944000  1.0
  Cu  Cu10  1  0.82939000  0.57885000  0.87443000  1.0
  Cu  Cu11  1  0.92107000  0.62416000  0.82933000  1.0
  H  H12  1  0.69361000  0.31361000  0.50423000  1.0
  H  H13  1  0.75630000  0.43728000  0.44377000  1.0
  H  H14  1  0.49394000  0.30630000  0.31257000  1.0
  H  H15  1  0.55644000  0.24561000  0.43602000  1.0
  H  H16  1  0.68695000  0.50628000  0.30486000  1.0
  H  H17  1  0.56307000  0.44495000  0.24382000  1.0
  H  H18  1  0.30637000  0.81349000  0.99555000  1.0
  H  H19  1  0.24363000  0.93721000  0.05624000  1.0
  H  H20  1  0.50599000  0.80605000  0.18650000  1.0
  H  H21  1  0.44335000  0.74552000  0.06302000  1.0
  H  H22  1  0.31292000  0.00639000  0.19442000  1.0
  H  H23  1  0.43685000  0.94500000  0.25543000  1.0
  H  H24  1  0.19377000  0.18627000  0.49567000  1.0
  H  H25  1  0.25680000  0.06292000  0.55630000  1.0
  H  H26  1  0.99379000  0.19385000  0.68776000  1.0
  H  H27  1  0.05620000  0.25403000  0.56383000  1.0
  H  H28  1  0.18765000  0.99420000  0.69533000  1.0
  H  H29  1  0.06361000  0.05540000  0.75682000  1.0
  H  H30  1  0.80642000  0.68642000  0.00457000  1.0
  H  H31  1  0.74349000  0.56310000  0.94367000  1.0
  H  H32  1  0.00689000  0.69374000  0.81348000  1.0
  H  H33  1  0.94401000  0.75418000  0.93715000  1.0
  H  H34  1  0.81302000  0.49399000  0.80517000  1.0
  H  H35  1  0.93734000  0.55491000  0.74416000  1.0
  H  H36  1  0.18697000  0.93581000  0.87570000  1.0
  H  H37  1  0.06371000  0.87482000  0.81471000  1.0
  H  H38  1  0.12537000  0.81297000  0.93724000  1.0
  H  H39  1  0.81326000  0.43584000  0.62452000  1.0
  H  H40  1  0.93637000  0.37459000  0.68562000  1.0
  H  H41  1  0.87492000  0.31272000  0.56306000  1.0
  H  H42  1  0.62457000  0.68694000  0.06272000  1.0
  H  H43  1  0.56284000  0.62530000  0.18539000  1.0
  H  H44  1  0.68660000  0.56445000  0.12456000  1.0
  H  H45  1  0.31340000  0.06450000  0.37481000  1.0
  H  H46  1  0.43662000  0.12554000  0.31350000  1.0
  H  H47  1  0.37546000  0.18690000  0.43682000  1.0
  C  C48  1  0.70297000  0.34384000  0.48347000  1.0
  C  C49  1  0.74029000  0.37527000  0.48951000  1.0
  C  C50  1  0.73501000  0.40724000  0.45257000  1.0
  C  C51  1  0.51519000  0.29745000  0.34256000  1.0
  C  C52  1  0.50992000  0.26039000  0.37440000  1.0
  C  C53  1  0.54712000  0.26643000  0.40586000  1.0
  C  C54  1  0.65677000  0.48527000  0.29596000  1.0
  C  C55  1  0.62500000  0.49099000  0.25899000  1.0
  C  C56  1  0.59323000  0.45395000  0.26478000  1.0
  C  C57  1  0.29697000  0.84372000  0.01634000  1.0
  C  C58  1  0.25971000  0.87521000  0.01040000  1.0
  C  C59  1  0.26492000  0.90716000  0.04737000  1.0
  C  C60  1  0.48473000  0.79729000  0.15650000  1.0
  C  C61  1  0.49001000  0.76032000  0.12451000  1.0
  C  C62  1  0.45271000  0.76633000  0.09319000  1.0
  C  C63  1  0.34310000  0.98537000  0.20338000  1.0
  C  C64  1  0.37493000  0.99115000  0.24029000  1.0
  C  C65  1  0.40665000  0.95402000  0.23456000  1.0
  C  C66  1  0.20323000  0.15613000  0.51648000  1.0
  C  C67  1  0.24066000  0.12478000  0.51046000  1.0
  C  C68  1  0.23543000  0.09288000  0.54748000  1.0
  C  C69  1  0.01505000  0.20259000  0.65766000  1.0
  C  C70  1  0.00965000  0.23944000  0.62561000  1.0
  C  C71  1  0.04693000  0.23332000  0.59411000  1.0
  C  C72  1  0.15743000  0.01517000  0.70437000  1.0
  C  C73  1  0.12569000  0.00943000  0.74149000  1.0
  C  C74  1  0.09380000  0.04641000  0.73578000  1.0
  C  C75  1  0.79703000  0.65629000  0.98369000  1.0
  C  C76  1  0.75959000  0.62499000  0.98956000  1.0
  C  C77  1  0.76486000  0.59305000  0.95257000  1.0
  C  C78  1  0.98557000  0.70250000  0.84352000  1.0
  C  C79  1  0.99082000  0.73944000  0.87554000  1.0
  C  C80  1  0.95345000  0.73340000  0.90694000  1.0
  C  C81  1  0.84331000  0.51489000  0.79627000  1.0
  C  C82  1  0.87517000  0.50910000  0.75923000  1.0
  C  C83  1  0.90707000  0.54603000  0.76511000  1.0
  C  C84  1  0.16019000  0.87439000  0.91050000  1.0
  C  C85  1  0.16002000  0.90902000  0.87577000  1.0
  C  C86  1  0.12533000  0.90936000  0.84114000  1.0
  C  C87  1  0.09061000  0.87464000  0.84146000  1.0
  C  C88  1  0.09041000  0.83974000  0.87596000  1.0
  C  C89  1  0.12531000  0.83984000  0.91040000  1.0
  C  C90  1  0.83995000  0.37428000  0.58963000  1.0
  C  C91  1  0.84015000  0.40896000  0.62443000  1.0
  C  C92  1  0.87480000  0.40928000  0.65913000  1.0
  C  C93  1  0.90947000  0.37448000  0.65885000  1.0
  C  C94  1  0.90971000  0.33955000  0.62434000  1.0
  C  C95  1  0.87485000  0.33968000  0.58984000  1.0
  C  C96  1  0.65968000  0.62568000  0.08953000  1.0
  C  C97  1  0.62466000  0.66010000  0.08958000  1.0
  C  C98  1  0.58969000  0.66016000  0.12407000  1.0
  C  C99  1  0.58989000  0.62539000  0.15867000  1.0
  C  C100  1  0.62473000  0.59078000  0.15905000  1.0
  C  C101  1  0.65954000  0.59115000  0.12439000  1.0
  C  C102  1  0.34030000  0.12570000  0.41001000  1.0
  C  C103  1  0.34035000  0.09128000  0.37500000  1.0
  C  C104  1  0.37500000  0.09103000  0.34019000  1.0
  C  C105  1  0.40978000  0.12567000  0.34043000  1.0
  C  C106  1  0.41010000  0.16038000  0.37515000  1.0
  C  C107  1  0.37530000  0.16015000  0.40984000  1.0
  C  C108  1  0.22518000  0.87478000  0.97559000  1.0
  C  C109  1  0.19520000  0.87443000  0.94547000  1.0
  C  C110  1  0.77488000  0.37476000  0.52439000  1.0
  C  C111  1  0.80489000  0.37435000  0.55455000  1.0
  C  C112  1  0.72493000  0.62547000  0.02439000  1.0
  C  C113  1  0.69484000  0.62570000  0.05453000  1.0
  C  C114  1  0.27528000  0.12520000  0.47549000  1.0
  C  C115  1  0.30529000  0.12557000  0.44525000  1.0
  C  C116  1  0.02538000  0.77440000  0.87594000  1.0
  C  C117  1  0.05535000  0.80464000  0.87601000  1.0
  C  C118  1  0.47534000  0.22549000  0.37475000  1.0
  C  C119  1  0.44524000  0.19538000  0.37508000  1.0
  C  C120  1  0.97494000  0.27429000  0.62505000  1.0
  C  C121  1  0.94481000  0.30441000  0.62450000  1.0
  C  C122  1  0.52455000  0.72538000  0.12407000  1.0
  C  C123  1  0.55455000  0.69517000  0.12400000  1.0
  C  C124  1  0.12567000  0.97466000  0.77617000  1.0
  C  C125  1  0.12542000  0.94446000  0.80614000  1.0
  C  C126  1  0.62493000  0.52572000  0.22425000  1.0
  C  C127  1  0.62481000  0.55576000  0.19413000  1.0
  C  C128  1  0.37495000  0.02595000  0.27496000  1.0
  C  C129  1  0.37494000  0.05604000  0.30507000  1.0
  C  C130  1  0.87507000  0.47443000  0.72438000  1.0
  C  C131  1  0.87485000  0.44441000  0.69419000  1.0
  N  N132  1  0.69755000  0.39557000  0.42678000  1.0
  N  N133  1  0.67768000  0.35631000  0.44597000  1.0
  N  N134  1  0.57237000  0.30408000  0.39354000  1.0
  N  N135  1  0.55255000  0.32332000  0.35437000  1.0
  N  N136  1  0.60532000  0.42838000  0.30222000  1.0
  N  N137  1  0.64468000  0.44781000  0.32160000  1.0
  N  N138  1  0.30235000  0.89539000  0.07311000  1.0
  N  N139  1  0.32220000  0.85616000  0.05386000  1.0
  N  N140  1  0.42740000  0.80389000  0.10574000  1.0
  N  N141  1  0.44724000  0.82310000  0.14491000  1.0
  N  N142  1  0.39445000  0.92832000  0.19722000  1.0
  N  N143  1  0.35512000  0.94778000  0.17788000  1.0
  N  N144  1  0.19788000  0.10454000  0.57330000  1.0
  N  N145  1  0.17792000  0.14368000  0.55405000  1.0
  N  N146  1  0.07234000  0.19584000  0.60659000  1.0
  N  N147  1  0.05256000  0.17677000  0.64593000  1.0
  N  N148  1  0.10580000  0.07194000  0.69825000  1.0
  N  N149  1  0.14519000  0.05256000  0.67874000  1.0
  N  N150  1  0.80248000  0.60464000  0.92689000  1.0
  N  N151  1  0.82242000  0.64376000  0.94618000  1.0
  N  N152  1  0.92813000  0.69589000  0.89439000  1.0
  N  N153  1  0.94804000  0.67670000  0.85514000  1.0
  N  N154  1  0.89498000  0.57162000  0.80263000  1.0
  N  N155  1  0.85550000  0.55227000  0.82196000  1.0
