# generated using pymatgen
data_NaH6C6SNO3
_symmetry_space_group_name_H-M   'P 1'
_cell_length_a   4.89386000
_cell_length_b   11.33650000
_cell_length_c   14.06020000
_cell_angle_alpha   82.15730000
_cell_angle_beta   89.99970000
_cell_angle_gamma   89.99950000
_symmetry_Int_Tables_number   1
_chemical_formula_structural   NaH6C6SNO3
_chemical_formula_sum   'Na4 H24 C24 S4 N4 O12'
_cell_volume   772.75301370
_cell_formula_units_Z   4
loop_
 _symmetry_equiv_pos_site_id
 _symmetry_equiv_pos_as_xyz
  1  'x, y, z'
loop_
 _atom_site_type_symbol
 _atom_site_label
 _atom_site_symmetry_multiplicity
 _atom_site_fract_x
 _atom_site_fract_y
 _atom_site_fract_z
 _atom_site_occupancy
  Na  Na0  1  0.01493000  0.86656000  0.55347000  1.0
  Na  Na1  1  0.51493000  0.63344000  0.44653000  1.0
  Na  Na2  1  0.98504000  0.13344000  0.44654000  1.0
  Na  Na3  1  0.48505000  0.36656000  0.55346000  1.0
  H  H4  1  0.29682000  0.82176000  0.85685000  1.0
  H  H5  1  0.79682000  0.67824000  0.14315000  1.0
  H  H6  1  0.70320000  0.17823000  0.14315000  1.0
  H  H7  1  0.20320000  0.32177000  0.85685000  1.0
  H  H8  1  0.00456000  0.72448000  0.98858000  1.0
  H  H9  1  0.50456000  0.77552000  0.01142000  1.0
  H  H10  1  0.99545000  0.27552000  0.01142000  1.0
  H  H11  1  0.49546000  0.22448000  0.98858000  1.0
  H  H12  1  0.71313000  0.54975000  0.96412000  1.0
  H  H13  1  0.21313000  0.95025000  0.03588000  1.0
  H  H14  1  0.28686000  0.45025000  0.03588000  1.0
  H  H15  1  0.78687000  0.04975000  0.96412000  1.0
  H  H16  1  0.70800000  0.47905000  0.80322000  1.0
  H  H17  1  0.20799000  0.02095000  0.19678000  1.0
  H  H18  1  0.29199000  0.52095000  0.19678000  1.0
  H  H19  1  0.79199000  0.97905000  0.80322000  1.0
  H  H20  1  0.46907000  0.82266000  0.69692000  1.0
  H  H21  1  0.96907000  0.67734000  0.30308000  1.0
  H  H22  1  0.53094000  0.17733000  0.30308000  1.0
  H  H23  1  0.03093000  0.32267000  0.69692000  1.0
  H  H24  1  0.41677000  0.70497000  0.63780000  1.0
  H  H25  1  0.91677000  0.79503000  0.36220000  1.0
  H  H26  1  0.58325000  0.29503000  0.36220000  1.0
  H  H27  1  0.08325000  0.20497000  0.63781000  1.0
  C  C28  1  0.00177000  0.60844000  0.74222000  1.0
  C  C29  1  0.50177000  0.89156000  0.25778000  1.0
  C  C30  1  0.99825000  0.39155000  0.25778000  1.0
  C  C31  1  0.49825000  0.10844000  0.74222000  1.0
  C  C32  1  0.17430000  0.70502000  0.75574000  1.0
  C  C33  1  0.67431000  0.79498000  0.24426000  1.0
  C  C34  1  0.82570000  0.29497000  0.24426000  1.0
  C  C35  1  0.32571000  0.20503000  0.75574000  1.0
  C  C36  1  0.16728000  0.74638000  0.84568000  1.0
  C  C37  1  0.66728000  0.75362000  0.15432000  1.0
  C  C38  1  0.83275000  0.25362000  0.15431000  1.0
  C  C39  1  0.33275000  0.24639000  0.84569000  1.0
  C  C40  1  0.00237000  0.69134000  0.91933000  1.0
  C  C41  1  0.50237000  0.80866000  0.08067000  1.0
  C  C42  1  0.99765000  0.30865000  0.08067000  1.0
  C  C43  1  0.49765000  0.19135000  0.91933000  1.0
  C  C44  1  0.83896000  0.59363000  0.90590000  1.0
  C  C45  1  0.33896000  0.90637000  0.09410000  1.0
  C  C46  1  0.16105000  0.40637000  0.09410000  1.0
  C  C47  1  0.66105000  0.09363000  0.90590000  1.0
  C  C48  1  0.83819000  0.55293000  0.81677000  1.0
  C  C49  1  0.33819000  0.94707000  0.18323000  1.0
  C  C50  1  0.16181000  0.44706000  0.18323000  1.0
  C  C51  1  0.66181000  0.05293000  0.81677000  1.0
  S  S52  1  0.96732000  0.56630000  0.62590000  1.0
  S  S53  1  0.46732000  0.93370000  0.37410000  1.0
  S  S54  1  0.03265000  0.43367000  0.37411000  1.0
  S  S55  1  0.53264000  0.06632000  0.62589000  1.0
  N  N56  1  0.33197000  0.76039000  0.68111000  1.0
  N  N57  1  0.83197000  0.73961000  0.31889000  1.0
  N  N58  1  0.66805000  0.23960000  0.31889000  1.0
  N  N59  1  0.16805000  0.26040000  0.68112000  1.0
  O  O60  1  0.80204000  0.45754000  0.63873000  1.0
  O  O61  1  0.30205000  0.04246000  0.36127000  1.0
  O  O62  1  0.19796000  0.54245000  0.36128000  1.0
  O  O63  1  0.69795000  0.95754000  0.63872000  1.0
  O  O64  1  0.82754000  0.66765000  0.56771000  1.0
  O  O65  1  0.32755000  0.83235000  0.43229000  1.0
  O  O66  1  0.17242000  0.33233000  0.43230000  1.0
  O  O67  1  0.67240000  0.16766000  0.56770000  1.0
  O  O68  1  0.24318000  0.54826000  0.58820000  1.0
  O  O69  1  0.74319000  0.95174000  0.41180000  1.0
  O  O70  1  0.75679000  0.45173000  0.41179000  1.0
  O  O71  1  0.25678000  0.04827000  0.58822000  1.0
