# generated using pymatgen
data_Gd2H51C78N19O43
_symmetry_space_group_name_H-M   'P 1'
_cell_length_a   14.42590000
_cell_length_b   16.72620000
_cell_length_c   19.58390000
_cell_angle_alpha   105.45400000
_cell_angle_beta   96.30650000
_cell_angle_gamma   95.34440000
_symmetry_Int_Tables_number   1
_chemical_formula_structural   Gd2H51C78N19O43
_chemical_formula_sum   'Gd4 H102 C156 N38 O86'
_cell_volume   4489.88974424
_cell_formula_units_Z   2
loop_
 _symmetry_equiv_pos_site_id
 _symmetry_equiv_pos_as_xyz
  1  'x, y, z'
loop_
 _atom_site_type_symbol
 _atom_site_label
 _atom_site_symmetry_multiplicity
 _atom_site_fract_x
 _atom_site_fract_y
 _atom_site_fract_z
 _atom_site_occupancy
  Gd  Gd0  1  0.12703000  0.04698000  0.05831000  1.0
  Gd  Gd1  1  0.87297000  0.95302000  0.94169000  1.0
  Gd  Gd2  1  0.64102000  0.54106000  0.51055000  1.0
  Gd  Gd3  1  0.35898000  0.45894000  0.48945000  1.0
  H  H4  1  0.09189000  0.86554000  0.18213000  1.0
  H  H5  1  0.90811000  0.13446000  0.81787000  1.0
  H  H6  1  0.83377000  0.75351000  0.04432000  1.0
  H  H7  1  0.16623000  0.24649000  0.95568000  1.0
  H  H8  1  0.74905000  0.75570000  0.40700000  1.0
  H  H9  1  0.25095000  0.24430000  0.59300000  1.0
  H  H10  1  0.85703000  0.52364000  0.32523000  1.0
  H  H11  1  0.14297000  0.47636000  0.67477000  1.0
  H  H12  1  0.21763000  0.90300000  0.93602000  1.0
  H  H13  1  0.78237000  0.09700000  0.06398000  1.0
  H  H14  1  0.06353000  0.91357000  0.73719000  1.0
  H  H15  1  0.93647000  0.08644000  0.26282000  1.0
  H  H16  1  0.33808000  0.60034000  0.62435000  1.0
  H  H17  1  0.66192000  0.39966000  0.37566000  1.0
  H  H18  1  0.56134000  0.80790000  0.66697000  1.0
  H  H19  1  0.43866000  0.19210000  0.33303000  1.0
  H  H20  1  0.28839000  0.56675000  0.32369000  1.0
  H  H21  1  0.71161000  0.43325000  0.67631000  1.0
  H  H22  1  0.58035000  0.64169000  0.31849000  1.0
  H  H23  1  0.41965000  0.35831000  0.68151000  1.0
  H  H24  1  0.29645000  0.97280000  0.25148000  1.0
  H  H25  1  0.70356000  0.02720000  0.74852000  1.0
  H  H26  1  0.30134000  0.80254000  0.04441000  1.0
  H  H27  1  0.69866000  0.19746000  0.95559000  1.0
  H  H28  1  0.38847000  0.09416000  0.03698000  1.0
  H  H29  1  0.61153000  0.90584000  0.96302000  1.0
  H  H30  1  0.48928000  0.17775000  0.92525000  1.0
  H  H31  1  0.51072000  0.82225000  0.07475000  1.0
  H  H32  1  0.48933000  0.06804000  0.88776000  1.0
  H  H33  1  0.51067000  0.93196000  0.11224000  1.0
  H  H34  1  0.50776000  0.11336000  0.98324000  1.0
  H  H35  1  0.49224000  0.88664000  0.01676000  1.0
  H  H36  1  0.23427000  0.08813000  0.87697000  1.0
  H  H37  1  0.76573000  0.91187000  0.12303000  1.0
  H  H38  1  0.32637000  0.06122000  0.82308000  1.0
  H  H39  1  0.67363000  0.93878000  0.17692000  1.0
  H  H40  1  0.31589000  0.16802000  0.86352000  1.0
  H  H41  1  0.68411000  0.83198000  0.13648000  1.0
  H  H42  1  0.28511000  0.14927000  0.20684000  1.0
  H  H43  1  0.71490000  0.85074000  0.79316000  1.0
  H  H44  1  0.34463000  0.28800000  0.29378000  1.0
  H  H45  1  0.65537000  0.71200000  0.70622000  1.0
  H  H46  1  0.28673000  0.41706000  0.27146000  1.0
  H  H47  1  0.71327000  0.58294000  0.72854000  1.0
  H  H48  1  0.11126000  0.25568000  0.08270000  1.0
  H  H49  1  0.88874000  0.74432000  0.91730000  1.0
  H  H50  1  0.09363000  0.40009000  0.11453000  1.0
  H  H51  1  0.90637000  0.59991000  0.88547000  1.0
  H  H52  1  0.80841000  0.71024000  0.60783000  1.0
  H  H53  1  0.19159000  0.28976000  0.39217000  1.0
  H  H54  1  0.99890000  0.56945000  0.64651000  1.0
  H  H55  1  0.00110000  0.43055000  0.35349000  1.0
  H  H56  1  0.97735000  0.60917000  0.73632000  1.0
  H  H57  1  0.02265000  0.39083000  0.26368000  1.0
  H  H58  1  0.88764000  0.53964000  0.67143000  1.0
  H  H59  1  0.11236000  0.46036000  0.32857000  1.0
  H  H60  1  0.97084000  0.76090000  0.75157000  1.0
  H  H61  1  0.02916000  0.23910000  0.24843000  1.0
  H  H62  1  0.03411000  0.74104000  0.67625000  1.0
  H  H63  1  0.96589000  0.25896000  0.32375000  1.0
  H  H64  1  0.92990000  0.79047000  0.67369000  1.0
  H  H65  1  0.07010000  0.20953000  0.32631000  1.0
  H  H66  1  0.61485000  0.33685000  0.52754000  1.0
  H  H67  1  0.38515000  0.66315000  0.47246000  1.0
  H  H68  1  0.69386000  0.21544000  0.54258000  1.0
  H  H69  1  0.30614000  0.78456000  0.45741000  1.0
  H  H70  1  0.86813000  0.22036000  0.53554000  1.0
  H  H71  1  0.13187000  0.77964000  0.46446000  1.0
  H  H72  1  0.86247000  0.46470000  0.50097000  1.0
  H  H73  1  0.13753000  0.53530000  0.49903000  1.0
  H  H74  1  0.00893000  0.28822000  0.52024000  1.0
  H  H75  1  0.99107000  0.71178000  0.47976000  1.0
  H  H76  1  0.11452000  0.76018000  0.92013000  1.0
  H  H77  1  0.88548000  0.23982000  0.07987000  1.0
  H  H78  1  0.21037000  0.64844000  0.86750000  1.0
  H  H79  1  0.78963000  0.35155000  0.13250000  1.0
  H  H80  1  0.21926000  0.52648000  0.92093000  1.0
  H  H81  1  0.78074000  0.47352000  0.07907000  1.0
  H  H82  1  0.04151000  0.64285000  0.07129000  1.0
  H  H83  1  0.95849000  0.35715000  0.92871000  1.0
  H  H84  1  0.09433000  0.51745000  0.08189000  1.0
  H  H85  1  0.90567000  0.48255000  0.91811000  1.0
  H  H86  1  0.05321000  0.01699000  0.58461000  1.0
  H  H87  1  0.94680000  0.98301000  0.41539000  1.0
  H  H88  1  0.01492000  0.03323000  0.70878000  1.0
  H  H89  1  0.98508000  0.96677000  0.29122000  1.0
  H  H90  1  0.86043000  0.95916000  0.72514000  1.0
  H  H91  1  0.13957000  0.04084000  0.27486000  1.0
  H  H92  1  0.80288000  0.86657000  0.49487000  1.0
  H  H93  1  0.19713000  0.13343000  0.50512000  1.0
  H  H94  1  0.68978000  0.82500000  0.56089000  1.0
  H  H95  1  0.31022000  0.17500000  0.43911000  1.0
  H  H96  1  0.67589000  0.68406000  0.96769000  1.0
  H  H97  1  0.32411000  0.31594000  0.03231000  1.0
  H  H98  1  0.59290000  0.75816000  0.88837000  1.0
  H  H99  1  0.40710000  0.24184000  0.11163000  1.0
  H  H100  1  0.44724000  0.68127000  0.80448000  1.0
  H  H101  1  0.55276000  0.31874000  0.19552000  1.0
  H  H102  1  0.48321000  0.47146000  0.88964000  1.0
  H  H103  1  0.51679000  0.52854000  0.11036000  1.0
  H  H104  1  0.35666000  0.45601000  0.79587000  1.0
  H  H105  1  0.64334000  0.54400000  0.20414000  1.0
  C  C106  1  0.98888000  0.86765000  0.05811000  1.0
  C  C107  1  0.01112000  0.13235000  0.94189000  1.0
  C  C108  1  0.96565000  0.81532000  0.10732000  1.0
  C  C109  1  0.03435000  0.18468000  0.89268000  1.0
  C  C110  1  0.02536000  0.82496000  0.17083000  1.0
  C  C111  1  0.97464000  0.17504000  0.82917000  1.0
  C  C112  1  0.99860000  0.78538000  0.22094000  1.0
  C  C113  1  0.00140000  0.21462000  0.77906000  1.0
  C  C114  1  0.91232000  0.73368000  0.21031000  1.0
  C  C115  1  0.08768000  0.26632000  0.78969000  1.0
  C  C116  1  0.85638000  0.72219000  0.14394000  1.0
  C  C117  1  0.14362000  0.27781000  0.85606000  1.0
  C  C118  1  0.88108000  0.76247000  0.09372000  1.0
  C  C119  1  0.11892000  0.23753000  0.90628000  1.0
  C  C120  1  0.87668000  0.70104000  0.26776000  1.0
  C  C121  1  0.12332000  0.29896000  0.73224000  1.0
  C  C122  1  0.82519000  0.74838000  0.31765000  1.0
  C  C123  1  0.17481000  0.25162000  0.68235000  1.0
  C  C124  1  0.78880000  0.71751000  0.36979000  1.0
  C  C125  1  0.21120000  0.28249000  0.63021000  1.0
  C  C126  1  0.80045000  0.63717000  0.37364000  1.0
  C  C127  1  0.19955000  0.36283000  0.62636000  1.0
  C  C128  1  0.84952000  0.58754000  0.32459000  1.0
  C  C129  1  0.15048000  0.41246000  0.67541000  1.0
  C  C130  1  0.88735000  0.62014000  0.27378000  1.0
  C  C131  1  0.11265000  0.37986000  0.72622000  1.0
  C  C132  1  0.75549000  0.60541000  0.42845000  1.0
  C  C133  1  0.24451000  0.39459000  0.57155000  1.0
  C  C134  1  0.04677000  0.93016000  0.87747000  1.0
  C  C135  1  0.95323000  0.06984000  0.12253000  1.0
  C  C136  1  0.13107000  0.91145000  0.84072000  1.0
  C  C137  1  0.86893000  0.08855000  0.15928000  1.0
  C  C138  1  0.21201000  0.89618000  0.87866000  1.0
  C  C139  1  0.78799000  0.10382000  0.12134000  1.0
  C  C140  1  0.28505000  0.86832000  0.84182000  1.0
  C  C141  1  0.71495000  0.13168000  0.15818000  1.0
  C  C142  1  0.28208000  0.85459000  0.76769000  1.0
  C  C143  1  0.71792000  0.14541000  0.23231000  1.0
  C  C144  1  0.20133000  0.87540000  0.73250000  1.0
  C  C145  1  0.79867000  0.12460000  0.26750000  1.0
  C  C146  1  0.12627000  0.90206000  0.76746000  1.0
  C  C147  1  0.87373000  0.09794000  0.23254000  1.0
  C  C148  1  0.34605000  0.80237000  0.72631000  1.0
  C  C149  1  0.65395000  0.19763000  0.27369000  1.0
  C  C150  1  0.31565000  0.71708000  0.69360000  1.0
  C  C151  1  0.68435000  0.28292000  0.30640000  1.0
  C  C152  1  0.36735000  0.66550000  0.64874000  1.0
  C  C153  1  0.63265000  0.33450000  0.35126000  1.0
  C  C154  1  0.45516000  0.69846000  0.63763000  1.0
  C  C155  1  0.54484000  0.30154000  0.36237000  1.0
  C  C156  1  0.49144000  0.78154000  0.67343000  1.0
  C  C157  1  0.50856000  0.21846000  0.32657000  1.0
  C  C158  1  0.43610000  0.83144000  0.71586000  1.0
  C  C159  1  0.56390000  0.16856000  0.28414000  1.0
  C  C160  1  0.51024000  0.64590000  0.58649000  1.0
  C  C161  1  0.48976000  0.35410000  0.41351000  1.0
  C  C162  1  0.46513000  0.54906000  0.37810000  1.0
  C  C163  1  0.53487000  0.45094000  0.62190000  1.0
  C  C164  1  0.43785000  0.59834000  0.32664000  1.0
  C  C165  1  0.56215000  0.40166000  0.67336000  1.0
  C  C166  1  0.34303000  0.60345000  0.30687000  1.0
  C  C167  1  0.65697000  0.39655000  0.69313000  1.0
  C  C168  1  0.31819000  0.65745000  0.26715000  1.0
  C  C169  1  0.68181000  0.34255000  0.73285000  1.0
  C  C170  1  0.38506000  0.70873000  0.24540000  1.0
  C  C171  1  0.61494000  0.29126000  0.75460000  1.0
  C  C172  1  0.47965000  0.69824000  0.26311000  1.0
  C  C173  1  0.52034000  0.30175000  0.73688000  1.0
  C  C174  1  0.50626000  0.64499000  0.30337000  1.0
  C  C175  1  0.49374000  0.35501000  0.69663000  1.0
  C  C176  1  0.35658000  0.77349000  0.21053000  1.0
  C  C177  1  0.64342000  0.22651000  0.78947000  1.0
  C  C178  1  0.34016000  0.85310000  0.25066000  1.0
  C  C179  1  0.65984000  0.14690000  0.74934000  1.0
  C  C180  1  0.30872000  0.91220000  0.21861000  1.0
  C  C181  1  0.69128000  0.08780000  0.78139000  1.0
  C  C182  1  0.29322000  0.89399000  0.14437000  1.0
  C  C183  1  0.70678000  0.10601000  0.85563000  1.0
  C  C184  1  0.31180000  0.81727000  0.10252000  1.0
  C  C185  1  0.68819000  0.18273000  0.89748000  1.0
  C  C186  1  0.34319000  0.75912000  0.13572000  1.0
  C  C187  1  0.65681000  0.24089000  0.86428000  1.0
  C  C188  1  0.25462000  0.95644000  0.11081000  1.0
  C  C189  1  0.74538000  0.04356000  0.88919000  1.0
  C  C190  1  0.33441000  0.09477000  0.99263000  1.0
  C  C191  1  0.66559000  0.90523000  0.00737000  1.0
  C  C192  1  0.46965000  0.11573000  0.93242000  1.0
  C  C193  1  0.53035000  0.88427000  0.06758000  1.0
  C  C194  1  0.30713000  0.10485000  0.87033000  1.0
  C  C195  1  0.69287000  0.89515000  0.12967000  1.0
  C  C196  1  0.26124000  0.20625000  0.19842000  1.0
  C  C197  1  0.73876000  0.79375000  0.80158000  1.0
  C  C198  1  0.29515000  0.28416000  0.24655000  1.0
  C  C199  1  0.70485000  0.71584000  0.75345000  1.0
  C  C200  1  0.26226000  0.35532000  0.23473000  1.0
  C  C201  1  0.73774000  0.64468000  0.76527000  1.0
  C  C202  1  0.19442000  0.34558000  0.17513000  1.0
  C  C203  1  0.80558000  0.65442000  0.82488000  1.0
  C  C204  1  0.16384000  0.26534000  0.12973000  1.0
  C  C205  1  0.83616000  0.73466000  0.87027000  1.0
  C  C206  1  0.15304000  0.41694000  0.15917000  1.0
  C  C207  1  0.84696000  0.58306000  0.84083000  1.0
  C  C208  1  0.82842000  0.65266000  0.61917000  1.0
  C  C209  1  0.17158000  0.34734000  0.38082000  1.0
  C  C210  1  0.94497000  0.59049000  0.68026000  1.0
  C  C211  1  0.05503000  0.40951000  0.31974000  1.0
  C  C212  1  0.96394000  0.74311000  0.69287000  1.0
  C  C213  1  0.03605000  0.25689000  0.30713000  1.0
  C  C214  1  0.68999000  0.33713000  0.52534000  1.0
  C  C215  1  0.31001000  0.66286000  0.47466000  1.0
  C  C216  1  0.73408000  0.26904000  0.53332000  1.0
  C  C217  1  0.26591000  0.73096000  0.46668000  1.0
  C  C218  1  0.82999000  0.27192000  0.52941000  1.0
  C  C219  1  0.17000000  0.72808000  0.47059000  1.0
  C  C220  1  0.87736000  0.34256000  0.51710000  1.0
  C  C221  1  0.12264000  0.65744000  0.48290000  1.0
  C  C222  1  0.82702000  0.40887000  0.51034000  1.0
  C  C223  1  0.17298000  0.59113000  0.48966000  1.0
  C  C224  1  0.97831000  0.34375000  0.51019000  1.0
  C  C225  1  0.02168000  0.65625000  0.48981000  1.0
  C  C226  1  0.12014000  0.70680000  0.94195000  1.0
  C  C227  1  0.87986000  0.29320000  0.05805000  1.0
  C  C228  1  0.17398000  0.64428000  0.91247000  1.0
  C  C229  1  0.82602000  0.35572000  0.08753000  1.0
  C  C230  1  0.17873000  0.57729000  0.94150000  1.0
  C  C231  1  0.82127000  0.42271000  0.05850000  1.0
  C  C232  1  0.12991000  0.57581000  0.99935000  1.0
  C  C233  1  0.87009000  0.42419000  0.00065000  1.0
  C  C234  1  0.07926000  0.64244000  0.02573000  1.0
  C  C235  1  0.92074000  0.35756000  0.97427000  1.0
  C  C236  1  0.12807000  0.50624000  0.03228000  1.0
  C  C237  1  0.87193000  0.49376000  0.96772000  1.0
  C  C238  1  0.98749000  0.98600000  0.59370000  1.0
  C  C239  1  0.01251000  0.01400000  0.40630000  1.0
  C  C240  1  0.96544000  0.99482000  0.66318000  1.0
  C  C241  1  0.03457000  0.00518000  0.33682000  1.0
  C  C242  1  0.88080000  0.95483000  0.67228000  1.0
  C  C243  1  0.11920000  0.04516000  0.32772000  1.0
  C  C244  1  0.82068000  0.90719000  0.61055000  1.0
  C  C245  1  0.17932000  0.09281000  0.38945000  1.0
  C  C246  1  0.84929000  0.90238000  0.54353000  1.0
  C  C247  1  0.15071000  0.09762000  0.45647000  1.0
  C  C248  1  0.72877000  0.86340000  0.61347000  1.0
  C  C249  1  0.27123000  0.13660000  0.38653000  1.0
  C  C250  1  0.61230000  0.65301000  0.93115000  1.0
  C  C251  1  0.38770000  0.34699000  0.06885000  1.0
  C  C252  1  0.56596000  0.69460000  0.88680000  1.0
  C  C253  1  0.43404000  0.30541000  0.11320000  1.0
  C  C254  1  0.48598000  0.65265000  0.84072000  1.0
  C  C255  1  0.51402000  0.34736000  0.15928000  1.0
  C  C256  1  0.45521000  0.57051000  0.84060000  1.0
  C  C257  1  0.54479000  0.42950000  0.15940000  1.0
  C  C258  1  0.50636000  0.53499000  0.88778000  1.0
  C  C259  1  0.49364000  0.46502000  0.11221000  1.0
  C  C260  1  0.37108000  0.52167000  0.79352000  1.0
  C  C261  1  0.62893000  0.47833000  0.20647000  1.0
  N  N262  1  0.06206000  0.80370000  0.28880000  1.0
  N  N263  1  0.93794000  0.19629000  0.71120000  1.0
  N  N264  1  0.76516000  0.66908000  0.12663000  1.0
  N  N265  1  0.23484000  0.33091000  0.87337000  1.0
  N  N266  1  0.80754000  0.83417000  0.31829000  1.0
  N  N267  1  0.19246000  0.16583000  0.68171000  1.0
  N  N268  1  0.93694000  0.56420000  0.22243000  1.0
  N  N269  1  0.06305000  0.43579000  0.77757000  1.0
  N  N270  1  0.36481000  0.84621000  0.88347000  1.0
  N  N271  1  0.63519000  0.15379000  0.11653000  1.0
  N  N272  1  0.19176000  0.86477000  0.65449000  1.0
  N  N273  1  0.80824000  0.13523000  0.34551000  1.0
  N  N274  1  0.22354000  0.67908000  0.70400000  1.0
  N  N275  1  0.77646000  0.32092000  0.29600000  1.0
  N  N276  1  0.47393000  0.91931000  0.75054000  1.0
  N  N277  1  0.52607000  0.08069000  0.24946000  1.0
  N  N278  1  0.21736000  0.66285000  0.25126000  1.0
  N  N279  1  0.78264000  0.33715000  0.74874000  1.0
  N  N280  1  0.55548000  0.74580000  0.24081000  1.0
  N  N281  1  0.44452000  0.25420000  0.75919000  1.0
  N  N282  1  0.35746000  0.87932000  0.32981000  1.0
  N  N283  1  0.64255000  0.12069000  0.67019000  1.0
  N  N284  1  0.36459000  0.68011000  0.08897000  1.0
  N  N285  1  0.63541000  0.31989000  0.91103000  1.0
  N  N286  1  0.36874000  0.10243000  0.93384000  1.0
  N  N287  1  0.63126000  0.89757000  0.06616000  1.0
  N  N288  1  0.19687000  0.19636000  0.14028000  1.0
  N  N289  1  0.80313000  0.80364000  0.85972000  1.0
  N  N290  1  0.90817000  0.66197000  0.66295000  1.0
  N  N291  1  0.09183000  0.33804000  0.33705000  1.0
  N  N292  1  0.73465000  0.40647000  0.51450000  1.0
  N  N293  1  0.26535000  0.59353000  0.48550000  1.0
  N  N294  1  0.07339000  0.70679000  0.99761000  1.0
  N  N295  1  0.92661000  0.29321000  0.00240000  1.0
  N  N296  1  0.93075000  0.94044000  0.53433000  1.0
  N  N297  1  0.06925000  0.05956000  0.46567000  1.0
  N  N298  1  0.58365000  0.57487000  0.93238000  1.0
  N  N299  1  0.41635000  0.42513000  0.06762000  1.0
  O  O300  1  0.06096000  0.92146000  0.08016000  1.0
  O  O301  1  0.93904000  0.07853000  0.91984000  1.0
  O  O302  1  0.93141000  0.85780000  0.00150000  1.0
  O  O303  1  0.06859000  0.14220000  0.99850000  1.0
  O  O304  1  0.72414000  0.65773000  0.47772000  1.0
  O  O305  1  0.27586000  0.34227000  0.52228000  1.0
  O  O306  1  0.74659000  0.52707000  0.42266000  1.0
  O  O307  1  0.25341000  0.47293000  0.57734000  1.0
  O  O308  1  0.14220000  0.83955000  0.29210000  1.0
  O  O309  1  0.85780000  0.16045000  0.70790000  1.0
  O  O310  1  0.03175000  0.78382000  0.33977000  1.0
  O  O311  1  0.96825000  0.21618000  0.66023000  1.0
  O  O312  1  0.70082000  0.68998000  0.09060000  1.0
  O  O313  1  0.29918000  0.31002000  0.90939000  1.0
  O  O314  1  0.75800000  0.60651000  0.14925000  1.0
  O  O315  1  0.24200000  0.39349000  0.85075000  1.0
  O  O316  1  0.83611000  0.86433000  0.27168000  1.0
  O  O317  1  0.16388000  0.13567000  0.72832000  1.0
  O  O318  1  0.76522000  0.87241000  0.36596000  1.0
  O  O319  1  0.23477000  0.12759000  0.63403000  1.0
  O  O320  1  0.97399000  0.59226000  0.17797000  1.0
  O  O321  1  0.02600000  0.40774000  0.82203000  1.0
  O  O322  1  0.93765000  0.49155000  0.22617000  1.0
  O  O323  1  0.06235000  0.50845000  0.77383000  1.0
  O  O324  1  0.05898000  0.96160000  0.94535000  1.0
  O  O325  1  0.94102000  0.03840000  0.05465000  1.0
  O  O326  1  0.96599000  0.91098000  0.84104000  1.0
  O  O327  1  0.03401000  0.08902000  0.15896000  1.0
  O  O328  1  0.46722000  0.57937000  0.54121000  1.0
  O  O329  1  0.53278000  0.42063000  0.45879000  1.0
  O  O330  1  0.59689000  0.66835000  0.58855000  1.0
  O  O331  1  0.40311000  0.33165000  0.41145000  1.0
  O  O332  1  0.34726000  0.81025000  0.92889000  1.0
  O  O333  1  0.65274000  0.18975000  0.07111000  1.0
  O  O334  1  0.44528000  0.86649000  0.87111000  1.0
  O  O335  1  0.55472000  0.13351000  0.12889000  1.0
  O  O336  1  0.11080000  0.85482000  0.62206000  1.0
  O  O337  1  0.88920000  0.14518000  0.37794000  1.0
  O  O338  1  0.26460000  0.86704000  0.62670000  1.0
  O  O339  1  0.73540000  0.13297000  0.37330000  1.0
  O  O340  1  0.20088000  0.69842000  0.76498000  1.0
  O  O341  1  0.79912000  0.30158000  0.23502000  1.0
  O  O342  1  0.17487000  0.63067000  0.65054000  1.0
  O  O343  1  0.82513000  0.36933000  0.34946000  1.0
  O  O344  1  0.41766000  0.97174000  0.75709000  1.0
  O  O345  1  0.58234000  0.02826000  0.24291000  1.0
  O  O346  1  0.55928000  0.93470000  0.77150000  1.0
  O  O347  1  0.44072000  0.06530000  0.22850000  1.0
  O  O348  1  0.39882000  0.50087000  0.38966000  1.0
  O  O349  1  0.60118000  0.49913000  0.61034000  1.0
  O  O350  1  0.54998000  0.56263000  0.40735000  1.0
  O  O351  1  0.45003000  0.43737000  0.59265000  1.0
  O  O352  1  0.24146000  0.94094000  0.04305000  1.0
  O  O353  1  0.75854000  0.05906000  0.95695000  1.0
  O  O354  1  0.23156000  0.02265000  0.15168000  1.0
  O  O355  1  0.76844000  0.97735000  0.84832000  1.0
  O  O356  1  0.16624000  0.64945000  0.29481000  1.0
  O  O357  1  0.83376000  0.35055000  0.70519000  1.0
  O  O358  1  0.18998000  0.68088000  0.19559000  1.0
  O  O359  1  0.81002000  0.31912000  0.80441000  1.0
  O  O360  1  0.53886000  0.80932000  0.22267000  1.0
  O  O361  1  0.46113000  0.19068000  0.77733000  1.0
  O  O362  1  0.63309000  0.71920000  0.24114000  1.0
  O  O363  1  0.36691000  0.28080000  0.75886000  1.0
  O  O364  1  0.38566000  0.82849000  0.36099000  1.0
  O  O365  1  0.61435000  0.17152000  0.63901000  1.0
  O  O366  1  0.34371000  0.95095000  0.36072000  1.0
  O  O367  1  0.65630000  0.04906000  0.63927000  1.0
  O  O368  1  0.36859000  0.61957000  0.11405000  1.0
  O  O369  1  0.63141000  0.38043000  0.88595000  1.0
  O  O370  1  0.37821000  0.67944000  0.02745000  1.0
  O  O371  1  0.62179000  0.32056000  0.97255000  1.0
  O  O372  1  0.24841000  0.08881000  0.99827000  1.0
  O  O373  1  0.75159000  0.91118000  0.00172000  1.0
  O  O374  1  0.18036000  0.49006000  0.19225000  1.0
  O  O375  1  0.81964000  0.50994000  0.80776000  1.0
  O  O376  1  0.77778000  0.58356000  0.59266000  1.0
  O  O377  1  0.22222000  0.41644000  0.40734000  1.0
  O  O378  1  0.02720000  0.39824000  0.49429000  1.0
  O  O379  1  0.97280000  0.60176000  0.50570000  1.0
  O  O380  1  0.15957000  0.44015000  0.00833000  1.0
  O  O381  1  0.84043000  0.55985000  0.99167000  1.0
  O  O382  1  0.69530000  0.86679000  0.66915000  1.0
  O  O383  1  0.30470000  0.13321000  0.33085000  1.0
  O  O384  1  0.31805000  0.54910000  0.75404000  1.0
  O  O385  1  0.68195000  0.45089000  0.24595000  1.0
