# generated using pymatgen
data_CuH12C12(NO4)2
_symmetry_space_group_name_H-M   'P 1'
_cell_length_a   3.67497000
_cell_length_b   9.84003000
_cell_length_c   9.99285572
_cell_angle_alpha   113.36227051
_cell_angle_beta   99.73429417
_cell_angle_gamma   95.58080000
_symmetry_Int_Tables_number   1
_chemical_formula_structural   CuH12C12(NO4)2
_chemical_formula_sum   'Cu1 H12 C12 N2 O8'
_cell_volume   321.52238752
_cell_formula_units_Z   1
loop_
 _symmetry_equiv_pos_site_id
 _symmetry_equiv_pos_as_xyz
  1  'x, y, z'
loop_
 _atom_site_type_symbol
 _atom_site_label
 _atom_site_symmetry_multiplicity
 _atom_site_fract_x
 _atom_site_fract_y
 _atom_site_fract_z
 _atom_site_occupancy
  Cu  Cu0  1  0.33938000  0.00097000  0.42216000  1.0
  H  H1  1  0.43950000  0.78129000  0.19323000  1.0
  H  H2  1  0.70482000  0.93275000  0.21094000  1.0
  H  H3  1  0.97286000  0.06836000  0.63303000  1.0
  H  H4  1  0.23477000  0.22040000  0.65056000  1.0
  H  H5  1  0.81019000  0.36999000  0.91417000  1.0
  H  H6  1  0.86186000  0.63147000  0.93037000  1.0
  H  H7  1  0.06491000  0.60058000  0.47526000  1.0
  H  H8  1  0.61027000  0.40151000  0.36891000  1.0
  H  H9  1  0.77884000  0.15103000  0.95907000  1.0
  H  H10  1  0.89565000  0.85040000  0.88544000  1.0
  H  H11  1  0.63647000  0.62703000  0.30821000  1.0
  H  H12  1  0.03551000  0.37512000  0.53607000  1.0
  C  C13  1  0.53787000  0.86995000  0.62924000  1.0
  C  C14  1  0.13957000  0.13171000  0.21506000  1.0
  C  C15  1  0.23789000  0.60541000  0.57719000  1.0
  C  C16  1  0.21272000  0.51241000  0.10320000  1.0
  C  C17  1  0.43643000  0.39657000  0.26709000  1.0
  C  C18  1  0.45924000  0.48936000  0.74118000  1.0
  C  C19  1  0.97000000  0.25265000  0.04129000  1.0
  C  C20  1  0.70413000  0.74894000  0.80316000  1.0
  C  C21  1  0.45254000  0.51995000  0.23471000  1.0
  C  C22  1  0.48825000  0.74158000  0.67224000  1.0
  C  C23  1  0.18700000  0.26014000  0.17206000  1.0
  C  C24  1  0.22027000  0.48204000  0.60961000  1.0
  N  N25  1  0.98977000  0.37405000  0.00968000  1.0
  N  N26  1  0.68272000  0.62757000  0.83481000  1.0
  O  O27  1  0.59980000  0.88011000  0.26962000  1.0
  O  O28  1  0.07658000  0.12109000  0.57415000  1.0
  O  O29  1  0.33659000  0.84690000  0.50076000  1.0
  O  O30  1  0.34145000  0.15504000  0.34352000  1.0
  O  O31  1  0.19225000  0.62297000  0.06778000  1.0
  O  O32  1  0.77530000  0.98688000  0.71617000  1.0
  O  O33  1  0.47894000  0.37877000  0.77661000  1.0
  O  O34  1  0.90328000  0.01443000  0.12815000  1.0
