# generated using pymatgen
data_HgH9C13NCl2
_symmetry_space_group_name_H-M   'P 1'
_cell_length_a   7.27250000
_cell_length_b   9.93978088
_cell_length_c   9.93972000
_cell_angle_alpha   61.30859214
_cell_angle_beta   73.24400000
_cell_angle_gamma   73.24378619
_symmetry_Int_Tables_number   1
_chemical_formula_structural   HgH9C13NCl2
_chemical_formula_sum   'Hg2 H18 C26 N2 Cl4'
_cell_volume   593.84420447
_cell_formula_units_Z   2
loop_
 _symmetry_equiv_pos_site_id
 _symmetry_equiv_pos_as_xyz
  1  'x, y, z'
loop_
 _atom_site_type_symbol
 _atom_site_label
 _atom_site_symmetry_multiplicity
 _atom_site_fract_x
 _atom_site_fract_y
 _atom_site_fract_z
 _atom_site_occupancy
  Hg  Hg0  1  0.75000000  0.07424000  0.92576000  1.0
  Hg  Hg1  1  0.25000000  0.92576000  0.07424000  1.0
  H  H2  1  0.00061000  0.05294000  0.67820000  1.0
  H  H3  1  0.49939000  0.32180000  0.94706000  1.0
  H  H4  1  0.99939000  0.94706000  0.32179000  1.0
  H  H5  1  0.50061000  0.67821000  0.05293000  1.0
  H  H6  1  0.75000000  0.68289000  0.31711000  1.0
  H  H7  1  0.25000000  0.31711000  0.68289000  1.0
  H  H8  1  0.21384000  0.05202000  0.43514000  1.0
  H  H9  1  0.28616000  0.56487000  0.94798000  1.0
  H  H10  1  0.78616000  0.94798000  0.56486000  1.0
  H  H11  1  0.71384000  0.43514000  0.05201000  1.0
  H  H12  1  0.20986000  0.28917000  0.18581000  1.0
  H  H13  1  0.29014000  0.81419000  0.71083000  1.0
  H  H14  1  0.79014000  0.71083000  0.81420000  1.0
  H  H15  1  0.70986000  0.18581000  0.28917000  1.0
  H  H16  1  0.99251000  0.53906000  0.17865000  1.0
  H  H17  1  0.50748000  0.82134000  0.46095000  1.0
  H  H18  1  0.00749000  0.46094000  0.82135000  1.0
  H  H19  1  0.49252000  0.17866000  0.53905000  1.0
  C  C20  1  0.87001000  0.29758000  0.56883000  1.0
  C  C21  1  0.62999000  0.43116000  0.70243000  1.0
  C  C22  1  0.12999000  0.70242000  0.43117000  1.0
  C  C23  1  0.37001000  0.56883000  0.29758000  1.0
  C  C24  1  0.99754000  0.15920000  0.56914000  1.0
  C  C25  1  0.50245000  0.43086000  0.84082000  1.0
  C  C26  1  0.00246000  0.84080000  0.43086000  1.0
  C  C27  1  0.49755000  0.56914000  0.15918000  1.0
  C  C28  1  0.75000000  0.57513000  0.42487000  1.0
  C  C29  1  0.25001000  0.42487000  0.57513000  1.0
  C  C30  1  0.11636000  0.15888000  0.43364000  1.0
  C  C31  1  0.38364000  0.56635000  0.84112000  1.0
  C  C32  1  0.88364000  0.84112000  0.56636000  1.0
  C  C33  1  0.61636000  0.43364000  0.15888000  1.0
  C  C34  1  0.11501000  0.29530000  0.29053000  1.0
  C  C35  1  0.38497000  0.70947000  0.70471000  1.0
  C  C36  1  0.88499000  0.70470000  0.70947000  1.0
  C  C37  1  0.61503000  0.29053000  0.29529000  1.0
  C  C38  1  0.99595000  0.43179000  0.28643000  1.0
  C  C39  1  0.50405000  0.71356000  0.56821000  1.0
  C  C40  1  0.00405000  0.56821000  0.71357000  1.0
  C  C41  1  0.49594000  0.28643000  0.43180000  1.0
  C  C42  1  0.87134000  0.43775000  0.42423000  1.0
  C  C43  1  0.62865000  0.57576000  0.56226000  1.0
  C  C44  1  0.12866000  0.56225000  0.57577000  1.0
  C  C45  1  0.37134000  0.42424000  0.43774000  1.0
  N  N46  1  0.74999000  0.29832000  0.70169000  1.0
  N  N47  1  0.25001000  0.70168000  0.29831000  1.0
  Cl  Cl48  1  0.99517000  0.82418000  0.97796000  1.0
  Cl  Cl49  1  0.50482000  0.02204000  0.17583000  1.0
  Cl  Cl50  1  0.00483000  0.17582000  0.02205000  1.0
  Cl  Cl51  1  0.49517000  0.97796000  0.82417000  1.0
