# generated using pymatgen
data_NiH20C20(NO4)2
_symmetry_space_group_name_H-M   'P 1'
_cell_length_a   8.10529000
_cell_length_b   16.93060000
_cell_length_c   16.93060000
_cell_angle_alpha   119.98200000
_cell_angle_beta   89.99820000
_cell_angle_gamma   89.99940000
_symmetry_Int_Tables_number   1
_chemical_formula_structural   NiH20C20(NO4)2
_chemical_formula_sum   'Ni3 H60 C60 N6 O24'
_cell_volume   2012.43856683
_cell_formula_units_Z   3
loop_
 _symmetry_equiv_pos_site_id
 _symmetry_equiv_pos_as_xyz
  1  'x, y, z'
loop_
 _atom_site_type_symbol
 _atom_site_label
 _atom_site_symmetry_multiplicity
 _atom_site_fract_x
 _atom_site_fract_y
 _atom_site_fract_z
 _atom_site_occupancy
  Ni  Ni0  1  0.66647000  0.99995000  0.48614000  1.0
  Ni  Ni1  1  0.33355000  0.48616000  0.99996000  1.0
  Ni  Ni2  1  0.99998000  0.51389000  0.51390000  1.0
  H  H3  1  0.38926000  0.68274000  0.22820000  1.0
  H  H4  1  0.56405000  0.91184000  0.20616000  1.0
  H  H5  1  0.46091000  0.83663000  0.04564000  1.0
  H  H6  1  0.95272000  0.96553000  0.56968000  1.0
  H  H7  1  0.32637000  0.86190000  0.51706000  1.0
  H  H8  1  0.17758000  0.78573000  0.52248000  1.0
  H  H9  1  0.16392000  0.90548000  0.60026000  1.0
  H  H10  1  0.23708000  0.81028000  0.34894000  1.0
  H  H11  1  0.01937000  0.80964000  0.33087000  1.0
  H  H12  1  0.10843000  0.72887000  0.35783000  1.0
  H  H13  1  0.05629000  0.54556000  0.31719000  1.0
  H  H14  1  0.23109000  0.29438000  0.08834000  1.0
  H  H15  1  0.12774000  0.20923000  0.16370000  1.0
  H  H16  1  0.61975000  0.60415000  0.03436000  1.0
  H  H17  1  0.99307000  0.65535000  0.13812000  1.0
  H  H18  1  0.84427000  0.73692000  0.21425000  1.0
  H  H19  1  0.83058000  0.69490000  0.09447000  1.0
  H  H20  1  0.90351000  0.53888000  0.18999000  1.0
  H  H21  1  0.68573000  0.52178000  0.19081000  1.0
  H  H22  1  0.77522000  0.62942000  0.27133000  1.0
  H  H23  1  0.72253000  0.77176000  0.45453000  1.0
  H  H24  1  0.89757000  0.79381000  0.70561000  1.0
  H  H25  1  0.79390000  0.95422000  0.79090000  1.0
  H  H26  1  0.28642000  0.43032000  0.39611000  1.0
  H  H27  1  0.65962000  0.48279000  0.34470000  1.0
  H  H28  1  0.51084000  0.47727000  0.26308000  1.0
  H  H29  1  0.49713000  0.39960000  0.30522000  1.0
  H  H30  1  0.57008000  0.65110000  0.46078000  1.0
  H  H31  1  0.35232000  0.66903000  0.47813000  1.0
  H  H32  1  0.44130000  0.64179000  0.37033000  1.0
  H  H33  1  0.61078000  0.22822000  0.68273000  1.0
  H  H34  1  0.43587000  0.20618000  0.91181000  1.0
  H  H35  1  0.53894000  0.04565000  0.83660000  1.0
  H  H36  1  0.04727000  0.56967000  0.96554000  1.0
  H  H37  1  0.67366000  0.51706000  0.86194000  1.0
  H  H38  1  0.82240000  0.52246000  0.78574000  1.0
  H  H39  1  0.83611000  0.60025000  0.90549000  1.0
  H  H40  1  0.76312000  0.34887000  0.81042000  1.0
  H  H41  1  0.98089000  0.33089000  0.80953000  1.0
  H  H42  1  0.89131000  0.35784000  0.72888000  1.0
  H  H43  1  0.94372000  0.31719000  0.54557000  1.0
  H  H44  1  0.76910000  0.08830000  0.29438000  1.0
  H  H45  1  0.87246000  0.16366000  0.20922000  1.0
  H  H46  1  0.38023000  0.03432000  0.60407000  1.0
  H  H47  1  0.00691000  0.13812000  0.65530000  1.0
  H  H48  1  0.15572000  0.21420000  0.73688000  1.0
  H  H49  1  0.16938000  0.09442000  0.69483000  1.0
  H  H50  1  0.09643000  0.19008000  0.53895000  1.0
  H  H51  1  0.31419000  0.19078000  0.52171000  1.0
  H  H52  1  0.22494000  0.27133000  0.62941000  1.0
  H  H53  1  0.27742000  0.45455000  0.77176000  1.0
  H  H54  1  0.10226000  0.70562000  0.79383000  1.0
  H  H55  1  0.20592000  0.79091000  0.95424000  1.0
  H  H56  1  0.71365000  0.39604000  0.43029000  1.0
  H  H57  1  0.34047000  0.34458000  0.48270000  1.0
  H  H58  1  0.48927000  0.26298000  0.47721000  1.0
  H  H59  1  0.50302000  0.30512000  0.39954000  1.0
  H  H60  1  0.42981000  0.46063000  0.65102000  1.0
  H  H61  1  0.64753000  0.47811000  0.66901000  1.0
  H  H62  1  0.55877000  0.37027000  0.64176000  1.0
  C  C63  1  0.48605000  0.80202000  0.22720000  1.0
  C  C64  1  0.40213000  0.71923000  0.19074000  1.0
  C  C65  1  0.36150000  0.71964000  0.04750000  1.0
  C  C66  1  0.50100000  0.84630000  0.17619000  1.0
  C  C67  1  0.33333333  0.67850000  0.10252000  1.0
  C  C68  1  0.44130000  0.80439000  0.08692000  1.0
  C  C69  1  0.56955000  0.83786000  0.31905000  1.0
  C  C70  1  0.96685000  0.92197000  0.49552000  1.0
  C  C71  1  0.19668000  0.85357000  0.53042000  1.0
  C  C72  1  0.11547000  0.79876000  0.36974000  1.0
  C  C73  1  0.15299000  0.42526000  0.19802000  1.0
  C  C74  1  0.06901000  0.47163000  0.28078000  1.0
  C  C75  1  0.02814000  0.32808000  0.28051000  1.0
  C  C76  1  0.16794000  0.33000000  0.15384000  1.0
  C  C77  1  0.00002000  0.42422000  0.32157000  1.0
  C  C78  1  0.10810000  0.28270000  0.19582000  1.0
  C  C79  1  0.23655000  0.48120000  0.16210000  1.0
  C  C80  1  0.63379000  0.57361000  0.07799000  1.0
  C  C81  1  0.86338000  0.67702000  0.14644000  1.0
  C  C82  1  0.78204000  0.57133000  0.20151000  1.0
  C  C83  1  0.81949000  0.77278000  0.57479000  1.0
  C  C84  1  0.73537000  0.80920000  0.52846000  1.0
  C  C85  1  0.69445000  0.95236000  0.67206000  1.0
  C  C86  1  0.83435000  0.82376000  0.67005000  1.0
  C  C87  1  0.66638000  0.89737000  0.57592000  1.0
  C  C88  1  0.77438000  0.91298000  0.71741000  1.0
  C  C89  1  0.90316000  0.68101000  0.51883000  1.0
  C  C90  1  0.30039000  0.50445000  0.42652000  1.0
  C  C91  1  0.52993000  0.46942000  0.32303000  1.0
  C  C92  1  0.44848000  0.63015000  0.42849000  1.0
  C  C93  1  0.51390000  0.22722000  0.80200000  1.0
  C  C94  1  0.59785000  0.19075000  0.71922000  1.0
  C  C95  1  0.63842000  0.04750000  0.71962000  1.0
  C  C96  1  0.49893000  0.17620000  0.84627000  1.0
  C  C97  1  0.66666667  0.10252000  0.67848000  1.0
  C  C98  1  0.55860000  0.08691000  0.80436000  1.0
  C  C99  1  0.43043000  0.31907000  0.83785000  1.0
  C  C100  1  0.03315000  0.49552000  0.92198000  1.0
  C  C101  1  0.80333000  0.53041000  0.85359000  1.0
  C  C102  1  0.88459000  0.36973000  0.79877000  1.0
  C  C103  1  0.84709000  0.19800000  0.42526000  1.0
  C  C104  1  0.93103000  0.28078000  0.47164000  1.0
  C  C105  1  0.97194000  0.28051000  0.32809000  1.0
  C  C106  1  0.83221000  0.15382000  0.33000000  1.0
  C  C107  1  0.00002000  0.32157000  0.42424000  1.0
  C  C108  1  0.89204000  0.19579000  0.28270000  1.0
  C  C109  1  0.76355000  0.16208000  0.48121000  1.0
  C  C110  1  0.36620000  0.07799000  0.57357000  1.0
  C  C111  1  0.13660000  0.14641000  0.67697000  1.0
  C  C112  1  0.21796000  0.20152000  0.57132000  1.0
  C  C113  1  0.18043000  0.57481000  0.77279000  1.0
  C  C114  1  0.26457000  0.52848000  0.80921000  1.0
  C  C115  1  0.30546000  0.67208000  0.95236000  1.0
  C  C116  1  0.16553000  0.67006000  0.82377000  1.0
  C  C117  1  0.33357000  0.57595000  0.89737000  1.0
  C  C118  1  0.22549000  0.71742000  0.91298000  1.0
  C  C119  1  0.09676000  0.51885000  0.68101000  1.0
  C  C120  1  0.69963000  0.42646000  0.50442000  1.0
  C  C121  1  0.47017000  0.32293000  0.46935000  1.0
  C  C122  1  0.55147000  0.42842000  0.63011000  1.0
  N  N123  1  0.08998000  0.86277000  0.46637000  1.0
  N  N124  1  0.75671000  0.60381000  0.13732000  1.0
  N  N125  1  0.42323000  0.53353000  0.39621000  1.0
  N  N126  1  0.91006000  0.46636000  0.86278000  1.0
  N  N127  1  0.24328000  0.13731000  0.60376000  1.0
  N  N128  1  0.57680000  0.39613000  0.53349000  1.0
  O  O129  1  0.62537000  0.78186000  0.33914000  1.0
  O  O130  1  0.23873000  0.60477000  0.07252000  1.0
  O  O131  1  0.57178000  0.92658000  0.36559000  1.0
  O  O132  1  0.86795000  0.92999000  0.44199000  1.0
  O  O133  1  0.29222000  0.55731000  0.21805000  1.0
  O  O134  1  0.90537000  0.46796000  0.39527000  1.0
  O  O135  1  0.23904000  0.43896000  0.07337000  1.0
  O  O136  1  0.53501000  0.51202000  0.06996000  1.0
  O  O137  1  0.95910000  0.66097000  0.44280000  1.0
  O  O138  1  0.57171000  0.92737000  0.53220000  1.0
  O  O139  1  0.90544000  0.63446000  0.56103000  1.0
  O  O140  1  0.20160000  0.55802000  0.48808000  1.0
  O  O141  1  0.37454000  0.33915000  0.78187000  1.0
  O  O142  1  0.76125000  0.07251000  0.60475000  1.0
  O  O143  1  0.42829000  0.36563000  0.92657000  1.0
  O  O144  1  0.13206000  0.44200000  0.93002000  1.0
  O  O145  1  0.70792000  0.21803000  0.55732000  1.0
  O  O146  1  0.09464000  0.39528000  0.46798000  1.0
  O  O147  1  0.76102000  0.07335000  0.43894000  1.0
  O  O148  1  0.46503000  0.06997000  0.51199000  1.0
  O  O149  1  0.04088000  0.44282000  0.66097000  1.0
  O  O150  1  0.42826000  0.53222000  0.92736000  1.0
  O  O151  1  0.09445000  0.56106000  0.63447000  1.0
  O  O152  1  0.79834000  0.48806000  0.55800000  1.0
