# generated using pymatgen
data_ZnH12C16O5
_symmetry_space_group_name_H-M   'P 1'
_cell_length_a   5.72291000
_cell_length_b   7.90796000
_cell_length_c   15.00600000
_cell_angle_alpha   97.14650000
_cell_angle_beta   89.93050000
_cell_angle_gamma   89.81800000
_symmetry_Int_Tables_number   1
_chemical_formula_structural   ZnH12C16O5
_chemical_formula_sum   'Zn2 H24 C32 O10'
_cell_volume   673.83952714
_cell_formula_units_Z   2
loop_
 _symmetry_equiv_pos_site_id
 _symmetry_equiv_pos_as_xyz
  1  'x, y, z'
loop_
 _atom_site_type_symbol
 _atom_site_label
 _atom_site_symmetry_multiplicity
 _atom_site_fract_x
 _atom_site_fract_y
 _atom_site_fract_z
 _atom_site_occupancy
  Zn  Zn0  1  0.68989000  0.74979000  0.49993000  1.0
  Zn  Zn1  1  0.31017000  0.25024000  0.50005000  1.0
  H  H2  1  0.13260000  0.84583000  0.48391000  1.0
  H  H3  1  0.13373000  0.65308000  0.51459000  1.0
  H  H4  1  0.86746000  0.15402000  0.51589000  1.0
  H  H5  1  0.86626000  0.34678000  0.48521000  1.0
  H  H6  1  0.98602000  0.93106000  0.67440000  1.0
  H  H7  1  0.98413000  0.56816000  0.32567000  1.0
  H  H8  1  0.01410000  0.06899000  0.32569000  1.0
  H  H9  1  0.01582000  0.43191000  0.67439000  1.0
  H  H10  1  0.12215000  0.90310000  0.82791000  1.0
  H  H11  1  0.12092000  0.59642000  0.17210000  1.0
  H  H12  1  0.87781000  0.09690000  0.17217000  1.0
  H  H13  1  0.87916000  0.40354000  0.82796000  1.0
  H  H14  1  0.49895000  0.16440000  0.93514000  1.0
  H  H15  1  0.49972000  0.33616000  0.06486000  1.0
  H  H16  1  0.50095000  0.83564000  0.06488000  1.0
  H  H17  1  0.50036000  0.66385000  0.93515000  1.0
  H  H18  1  0.36961000  0.19680000  0.78053000  1.0
  H  H19  1  0.36986000  0.30345000  0.21950000  1.0
  H  H20  1  0.63044000  0.80323000  0.21948000  1.0
  H  H21  1  0.63012000  0.69662000  0.78050000  1.0
  H  H22  1  0.76760000  0.07780000  0.03719000  1.0
  H  H23  1  0.76851000  0.42223000  0.96287000  1.0
  H  H24  1  0.23231000  0.92219000  0.96287000  1.0
  H  H25  1  0.23154000  0.57777000  0.03716000  1.0
  C  C26  1  0.59850000  0.09079000  0.62494000  1.0
  C  C27  1  0.59746000  0.40848000  0.37496000  1.0
  C  C28  1  0.40172000  0.90925000  0.37508000  1.0
  C  C29  1  0.40226000  0.59160000  0.62505000  1.0
  C  C30  1  0.67048000  0.06686000  0.71772000  1.0
  C  C31  1  0.66983000  0.43269000  0.28224000  1.0
  C  C32  1  0.32958000  0.93318000  0.28231000  1.0
  C  C33  1  0.33012000  0.56740000  0.71780000  1.0
  C  C34  1  0.88171000  0.98317000  0.73222000  1.0
  C  C35  1  0.88070000  0.51619000  0.26779000  1.0
  C  C36  1  0.11831000  0.01687000  0.26783000  1.0
  C  C37  1  0.11927000  0.48385000  0.73227000  1.0
  C  C38  1  0.95722000  0.96804000  0.81869000  1.0
  C  C39  1  0.95637000  0.53162000  0.18131000  1.0
  C  C40  1  0.04276000  0.03197000  0.18137000  1.0
  C  C41  1  0.04368000  0.46835000  0.81875000  1.0
  C  C42  1  0.82268000  0.03504000  0.89403000  1.0
  C  C43  1  0.82251000  0.46499000  0.10600000  1.0
  C  C44  1  0.17726000  0.96495000  0.10602000  1.0
  C  C45  1  0.17757000  0.53501000  0.89404000  1.0
  C  C46  1  0.60762000  0.11412000  0.87810000  1.0
  C  C47  1  0.60785000  0.38612000  0.12190000  1.0
  C  C48  1  0.39231000  0.88587000  0.12194000  1.0
  C  C49  1  0.39221000  0.61389000  0.87813000  1.0
  C  C50  1  0.53321000  0.13186000  0.79165000  1.0
  C  C51  1  0.53320000  0.36815000  0.20834000  1.0
  C  C52  1  0.46679000  0.86814000  0.20837000  1.0
  C  C53  1  0.46681000  0.63191000  0.79168000  1.0
  C  C54  1  0.89590000  0.02871000  0.98639000  1.0
  C  C55  1  0.89612000  0.47127000  0.01365000  1.0
  C  C56  1  0.10402000  0.97127000  0.01367000  1.0
  C  C57  1  0.10394000  0.52872000  0.98639000  1.0
  O  O58  1  0.71302000  0.01521000  0.55808000  1.0
  O  O59  1  0.71182000  0.48313000  0.44176000  1.0
  O  O60  1  0.28734000  0.98483000  0.44198000  1.0
  O  O61  1  0.28769000  0.51691000  0.55830000  1.0
  O  O62  1  0.42966000  0.19368000  0.61644000  1.0
  O  O63  1  0.42837000  0.30643000  0.38348000  1.0
  O  O64  1  0.57057000  0.80634000  0.38353000  1.0
  O  O65  1  0.57133000  0.69366000  0.61647000  1.0
  O  O66  1  0.03442000  0.74741000  0.49663000  1.0
  O  O67  1  0.96565000  0.25213000  0.50272000  1.0
