# generated using pymatgen
data_Zr3H15C31O29
_symmetry_space_group_name_H-M   'P 1'
_cell_length_a   14.72260000
_cell_length_b   14.73033893
_cell_length_c   14.74060000
_cell_angle_alpha   90.23992211
_cell_angle_beta   119.59290000
_cell_angle_gamma   119.82503208
_symmetry_Int_Tables_number   1
_chemical_formula_structural   Zr3H15C31O29
_chemical_formula_sum   'Zr6 H30 C62 O58'
_cell_volume   2275.54283584
_cell_formula_units_Z   2
loop_
 _symmetry_equiv_pos_site_id
 _symmetry_equiv_pos_as_xyz
  1  'x, y, z'
loop_
 _atom_site_type_symbol
 _atom_site_label
 _atom_site_symmetry_multiplicity
 _atom_site_fract_x
 _atom_site_fract_y
 _atom_site_fract_z
 _atom_site_occupancy
  Zr  Zr0  1  0.50664000  0.12872000  0.88441000  1.0
  Zr  Zr1  1  0.49491000  0.88401000  0.11887000  1.0
  Zr  Zr2  1  0.26288000  0.89061000  0.88138000  1.0
  Zr  Zr3  1  0.73890000  0.12322000  0.12202000  1.0
  Zr  Zr4  1  0.49910000  0.88432000  0.88191000  1.0
  Zr  Zr5  1  0.50077000  0.12743000  0.12239000  1.0
  H  H6  1  0.31626000  0.91324000  0.71863000  1.0
  H  H7  1  0.68167000  0.90417000  0.09138000  1.0
  H  H8  1  0.30798000  0.91457000  0.09208000  1.0
  H  H9  1  0.69447000  0.28880000  0.10036000  1.0
  H  H10  1  0.42909000  0.84477000  0.56144000  1.0
  H  H11  1  0.63550000  0.18271000  0.47476000  1.0
  H  H12  1  0.47252000  0.40173000  0.12670000  1.0
  H  H13  1  0.52971000  0.61185000  0.87596000  1.0
  H  H14  1  0.00717000  0.18287000  0.03389000  1.0
  H  H15  1  0.97729000  0.84428000  0.92685000  1.0
  H  H16  1  0.05481000  0.40250000  0.42838000  1.0
  H  H17  1  0.94599000  0.58850000  0.59873000  1.0
  H  H18  1  0.76834000  0.40701000  0.85956000  1.0
  H  H19  1  0.23157000  0.60157000  0.13660000  1.0
  H  H20  1  0.23933000  0.79477000  0.35232000  1.0
  H  H21  1  0.68349000  0.31331000  0.58797000  1.0
  H  H22  1  0.57188000  0.57814000  0.26886000  1.0
  H  H23  1  0.73032000  0.59975000  0.95947000  1.0
  H  H24  1  0.20458000  0.30998000  0.12923000  1.0
  H  H25  1  0.89490000  0.81002000  0.07630000  1.0
  H  H26  1  0.25704000  0.65107000  0.49729000  1.0
  H  H27  1  0.73866000  0.48919000  0.31954000  1.0
  H  H28  1  0.77958000  0.56785000  0.83536000  1.0
  H  H29  1  0.16615000  0.55364000  0.27563000  1.0
  H  H30  1  0.72110000  0.92977000  0.40738000  1.0
  H  H31  1  0.03721000  0.94666000  0.71790000  1.0
  H  H32  1  0.88975000  0.02167000  0.20889000  1.0
  H  H33  1  0.04076000  0.97943000  0.15175000  1.0
  H  H34  1  0.22427000  0.93279000  0.29741000  1.0
  H  H35  1  0.32912000  0.01849000  0.62056000  1.0
  C  C36  1  0.53226000  0.01986000  0.71413000  1.0
  C  C37  1  0.48931000  0.69696000  0.99933000  1.0
  C  C38  1  0.50361000  0.00397000  0.30824000  1.0
  C  C39  1  0.50835000  0.31392000  0.00428000  1.0
  C  C40  1  0.20082000  0.00573000  0.69257000  1.0
  C  C41  1  0.81274000  0.30874000  0.00736000  1.0
  C  C42  1  0.80500000  0.99844000  0.30487000  1.0
  C  C43  1  0.18867000  0.70265000  0.99191000  1.0
  C  C44  1  0.19773000  0.69983000  0.70092000  1.0
  C  C45  1  0.19930000  0.02256000  0.99164000  1.0
  C  C46  1  0.80357000  0.30065000  0.31585000  1.0
  C  C47  1  0.79647000  0.00294000  0.99086000  1.0
  C  C48  1  0.51689000  0.00537000  0.41564000  1.0
  C  C49  1  0.54371000  0.02147000  0.61852000  1.0
  C  C50  1  0.46114000  0.90847000  0.44054000  1.0
  C  C51  1  0.60780000  0.11864000  0.59739000  1.0
  C  C52  1  0.47456000  0.91850000  0.54155000  1.0
  C  C53  1  0.59022000  0.10907000  0.49500000  1.0
  C  C54  1  0.49053000  0.59627000  0.99943000  1.0
  C  C55  1  0.51113000  0.41665000  0.00348000  1.0
  C  C56  1  0.47471000  0.53778000  0.07171000  1.0
  C  C57  1  0.52844000  0.47617000  0.93204000  1.0
  C  C58  1  0.48746000  0.45014000  0.07383000  1.0
  C  C59  1  0.51731000  0.56518000  0.93090000  1.0
  C  C60  1  0.09269000  0.02221000  0.98184000  1.0
  C  C61  1  0.89489000  0.00561000  0.98290000  1.0
  C  C62  1  0.10072000  0.11877000  0.00937000  1.0
  C  C63  1  0.88371000  0.90881000  0.94974000  1.0
  C  C64  1  0.00272000  0.10943000  0.01121000  1.0
  C  C65  1  0.98330000  0.91851000  0.94994000  1.0
  C  C66  1  0.09722000  0.59408000  0.60438000  1.0
  C  C67  1  0.90347000  0.40083000  0.41799000  1.0
  C  C68  1  0.12943000  0.54075000  0.55831000  1.0
  C  C69  1  0.87138000  0.45279000  0.46587000  1.0
  C  C70  1  0.03207000  0.44486000  0.46564000  1.0
  C  C71  1  0.96863000  0.54863000  0.55876000  1.0
  C  C72  1  0.09250000  0.98532000  0.58347000  1.0
  C  C73  1  0.09001000  0.97812000  0.48499000  1.0
  C  C74  1  0.98737000  0.96756000  0.57865000  1.0
  C  C75  1  0.17108000  0.95734000  0.47690000  1.0
  C  C76  1  0.15844000  0.94047000  0.37748000  1.0
  C  C77  1  0.89695000  0.98039000  0.39182000  1.0
  C  C78  1  0.88661000  0.96228000  0.48053000  1.0
  C  C79  1  0.99312000  0.97956000  0.38904000  1.0
  C  C80  1  0.98628000  0.96473000  0.29023000  1.0
  C  C81  1  0.06753000  0.94618000  0.28593000  1.0
  C  C82  1  0.08737000  0.59916000  0.98979000  1.0
  C  C83  1  0.91246000  0.40858000  0.00462000  1.0
  C  C84  1  0.95508000  0.54360000  0.90880000  1.0
  C  C85  1  0.04433000  0.46197000  0.08284000  1.0
  C  C86  1  0.87072000  0.45108000  0.91992000  1.0
  C  C87  1  0.12933000  0.55830000  0.07597000  1.0
  C  C88  1  0.37596000  0.79070000  0.36472000  1.0
  C  C89  1  0.70712000  0.22724000  0.68992000  1.0
  C  C90  1  0.42513000  0.55393000  0.13383000  1.0
  C  C91  1  0.56597000  0.45506000  0.85981000  1.0
  C  C92  1  0.20592000  0.22802000  0.02337000  1.0
  C  C93  1  0.77688000  0.79263000  0.92288000  1.0
  C  C94  1  0.26460000  0.57812000  0.60625000  1.0
  C  C95  1  0.73648000  0.41187000  0.42345000  1.0
  C  C96  1  0.89741000  0.57079000  0.80519000  1.0
  C  C97  1  0.10426000  0.42228000  0.17374000  1.0
  O  O98  1  0.51902000  0.09179000  0.74419000  1.0
  O  O99  1  0.49931000  0.74197000  0.08128000  1.0
  O  O100  1  0.49371000  0.92313000  0.26177000  1.0
  O  O101  1  0.50583000  0.27101000  0.92704000  1.0
  O  O102  1  0.16718000  0.94051000  0.74463000  1.0
  O  O103  1  0.84949000  0.27208000  0.08730000  1.0
  O  O104  1  0.84514000  0.07496000  0.26397000  1.0
  O  O105  1  0.15431000  0.74981000  0.92234000  1.0
  O  O106  1  0.31350000  0.74126000  0.73606000  1.0
  O  O107  1  0.31299000  0.09267000  0.07565000  1.0
  O  O108  1  0.68783000  0.26561000  0.27411000  1.0
  O  O109  1  0.68205000  0.91899000  0.92418000  1.0
  O  O110  1  0.16338000  0.94436000  0.91707000  1.0
  O  O111  1  0.84084000  0.26000000  0.27704000  1.0
  O  O112  1  0.83518000  0.08422000  0.06417000  1.0
  O  O113  1  0.16103000  0.74156000  0.73922000  1.0
  O  O114  1  0.31569000  0.08493000  0.73145000  1.0
  O  O115  1  0.30433000  0.73928000  0.06638000  1.0
  O  O116  1  0.68977000  0.93956000  0.27706000  1.0
  O  O117  1  0.69670000  0.26882000  0.93103000  1.0
  O  O118  1  0.50852000  0.27597000  0.08222000  1.0
  O  O119  1  0.52394000  0.94007000  0.75059000  1.0
  O  O120  1  0.48448000  0.73420000  0.92045000  1.0
  O  O121  1  0.50374000  0.08237000  0.27192000  1.0
  O  O122  1  0.63987000  0.20849000  0.07447000  1.0
  O  O123  1  0.36421000  0.94275000  0.06777000  1.0
  O  O124  1  0.63316000  0.93620000  0.06967000  1.0
  O  O125  1  0.36962000  0.94132000  0.79925000  1.0
  O  O126  1  0.39887000  0.85711000  0.95109000  1.0
  O  O127  1  0.60119000  0.05529000  0.95426000  1.0
  O  O128  1  0.59771000  0.05429000  0.15072000  1.0
  O  O129  1  0.40615000  0.06017000  0.95385000  1.0
  O  O130  1  0.25051000  0.73897000  0.33084000  1.0
  O  O131  1  0.40690000  0.73815000  0.33964000  1.0
  O  O132  1  0.72835000  0.32140000  0.66713000  1.0
  O  O133  1  0.77137000  0.23050000  0.78449000  1.0
  O  O134  1  0.49546000  0.57538000  0.24488000  1.0
  O  O135  1  0.32314000  0.54171000  0.08731000  1.0
  O  O136  1  0.69434000  0.53182000  0.90459000  1.0
  O  O137  1  0.49777000  0.38328000  0.77190000  1.0
  O  O138  1  0.25438000  0.31928000  0.09909000  1.0
  O  O139  1  0.24576000  0.23421000  0.96645000  1.0
  O  O140  1  0.80812000  0.75236000  0.01035000  1.0
  O  O141  1  0.67658000  0.73315000  0.83411000  1.0
  O  O142  1  0.31826000  0.64084000  0.55648000  1.0
  O  O143  1  0.31942000  0.54848000  0.67759000  1.0
  O  O144  1  0.68405000  0.45217000  0.34530000  1.0
  O  O145  1  0.67866000  0.35566000  0.46090000  1.0
  O  O146  1  0.80837000  0.58812000  0.78591000  1.0
  O  O147  1  0.92419000  0.57314000  0.73889000  1.0
  O  O148  1  0.16230000  0.48515000  0.27719000  1.0
  O  O149  1  0.10945000  0.34361000  0.15977000  1.0
  O  O150  1  0.78963000  0.94462000  0.48356000  1.0
  O  O151  1  0.97302000  0.95753000  0.66209000  1.0
  O  O152  1  0.89802000  0.96168000  0.19192000  1.0
  O  O153  1  0.06033000  0.93006000  0.18868000  1.0
  O  O154  1  0.23502000  0.92006000  0.36625000  1.0
  O  O155  1  0.25843000  0.94527000  0.56294000  1.0
