# generated using pymatgen
data_CuPH5C5O4
_symmetry_space_group_name_H-M   'P 1'
_cell_length_a   7.45407000
_cell_length_b   7.63458000
_cell_length_c   11.64530000
_cell_angle_alpha   76.74100000
_cell_angle_beta   90.00010000
_cell_angle_gamma   89.99990000
_symmetry_Int_Tables_number   1
_chemical_formula_structural   CuPH5C5O4
_chemical_formula_sum   'Cu4 P4 H20 C20 O16'
_cell_volume   645.05287739
_cell_formula_units_Z   4
loop_
 _symmetry_equiv_pos_site_id
 _symmetry_equiv_pos_as_xyz
  1  'x, y, z'
loop_
 _atom_site_type_symbol
 _atom_site_label
 _atom_site_symmetry_multiplicity
 _atom_site_fract_x
 _atom_site_fract_y
 _atom_site_fract_z
 _atom_site_occupancy
  Cu  Cu0  1  0.30954000  0.41815000  0.52641000  1.0
  Cu  Cu1  1  0.80955000  0.08185000  0.47359000  1.0
  Cu  Cu2  1  0.69045000  0.58185000  0.47359000  1.0
  Cu  Cu3  1  0.19045000  0.91815000  0.52641000  1.0
  P  P4  1  0.95096000  0.30549000  0.64173000  1.0
  P  P5  1  0.45096000  0.19451000  0.35828000  1.0
  P  P6  1  0.04904000  0.69450000  0.35828000  1.0
  P  P7  1  0.54904000  0.80549000  0.64172000  1.0
  H  H8  1  0.14453000  0.99833000  0.78011000  1.0
  H  H9  1  0.64453000  0.50167000  0.21989000  1.0
  H  H10  1  0.85547000  0.00167000  0.21989000  1.0
  H  H11  1  0.35547000  0.49833000  0.78011000  1.0
  H  H12  1  0.74219000  0.37602000  0.83914000  1.0
  H  H13  1  0.24219000  0.12398000  0.16086000  1.0
  H  H14  1  0.25781000  0.62398000  0.16086000  1.0
  H  H15  1  0.75781000  0.87602000  0.83914000  1.0
  H  H16  1  0.73934000  0.23046000  0.05282000  1.0
  H  H17  1  0.23935000  0.26954000  0.94718000  1.0
  H  H18  1  0.26065000  0.76954000  0.94718000  1.0
  H  H19  1  0.76065000  0.73047000  0.05282000  1.0
  H  H20  1  0.42397000  0.13906000  0.65634000  1.0
  H  H21  1  0.92397000  0.36094000  0.34366000  1.0
  H  H22  1  0.57603000  0.86094000  0.34366000  1.0
  H  H23  1  0.07603000  0.63907000  0.65634000  1.0
  H  H24  1  0.55874000  0.30253000  0.65687000  1.0
  H  H25  1  0.05874000  0.19747000  0.34313000  1.0
  H  H26  1  0.44126000  0.69747000  0.34313000  1.0
  H  H27  1  0.94126000  0.80253000  0.65686000  1.0
  C  C28  1  0.05758000  0.05172000  0.83912000  1.0
  C  C29  1  0.55759000  0.44829000  0.16088000  1.0
  C  C30  1  0.94242000  0.94828000  0.16089000  1.0
  C  C31  1  0.44242000  0.55172000  0.83911000  1.0
  C  C32  1  0.94544000  0.19691000  0.79622000  1.0
  C  C33  1  0.44545000  0.30309000  0.20378000  1.0
  C  C34  1  0.05456000  0.80309000  0.20379000  1.0
  C  C35  1  0.55456000  0.69691000  0.79621000  1.0
  C  C36  1  0.83016000  0.26244000  0.87418000  1.0
  C  C37  1  0.33017000  0.23755000  0.12581000  1.0
  C  C38  1  0.16983000  0.73755000  0.12582000  1.0
  C  C39  1  0.66983000  0.76245000  0.87418000  1.0
  C  C40  1  0.82804000  0.18150000  0.99270000  1.0
  C  C41  1  0.32804000  0.31849000  0.00730000  1.0
  C  C42  1  0.17196000  0.81849000  0.00730000  1.0
  C  C43  1  0.67196000  0.68151000  0.99270000  1.0
  C  C44  1  0.94144000  0.03300000  0.03915000  1.0
  C  C45  1  0.44144000  0.46700000  0.96086000  1.0
  C  C46  1  0.05856000  0.96700000  0.96086000  1.0
  C  C47  1  0.55856000  0.53300000  0.03915000  1.0
  O  O48  1  0.10328000  0.44849000  0.62327000  1.0
  O  O49  1  0.60329000  0.05151000  0.37673000  1.0
  O  O50  1  0.89671000  0.55151000  0.37673000  1.0
  O  O51  1  0.39671000  0.94849000  0.62327000  1.0
  O  O52  1  0.99453000  0.16397000  0.56993000  1.0
  O  O53  1  0.49454000  0.33603000  0.43007000  1.0
  O  O54  1  0.00546000  0.83603000  0.43007000  1.0
  O  O55  1  0.50547000  0.66397000  0.56993000  1.0
  O  O56  1  0.76627000  0.39761000  0.61343000  1.0
  O  O57  1  0.26627000  0.10239000  0.38657000  1.0
  O  O58  1  0.23373000  0.60239000  0.38657000  1.0
  O  O59  1  0.73373000  0.89761000  0.61343000  1.0
  O  O60  1  0.43011000  0.26585000  0.66830000  1.0
  O  O61  1  0.93011000  0.23415000  0.33171000  1.0
  O  O62  1  0.56989000  0.73415000  0.33170000  1.0
  O  O63  1  0.06988000  0.76585000  0.66829000  1.0
