# generated using pymatgen
data_MnH14(C3N2)6
_symmetry_space_group_name_H-M   'P 1'
_cell_length_a   7.18635000
_cell_length_b   8.15458000
_cell_length_c   9.35878837
_cell_angle_alpha   101.41060580
_cell_angle_beta   110.70488661
_cell_angle_gamma   108.91570000
_symmetry_Int_Tables_number   1
_chemical_formula_structural   MnH14(C3N2)6
_chemical_formula_sum   'Mn1 H14 C18 N12'
_cell_volume   454.05389138
_cell_formula_units_Z   1
loop_
 _symmetry_equiv_pos_site_id
 _symmetry_equiv_pos_as_xyz
  1  'x, y, z'
loop_
 _atom_site_type_symbol
 _atom_site_label
 _atom_site_symmetry_multiplicity
 _atom_site_fract_x
 _atom_site_fract_y
 _atom_site_fract_z
 _atom_site_occupancy
  Mn  Mn0  1  0.00802000  0.00202000  0.01384000  1.0
  H  H1  1  0.50896000  0.49941000  0.36265000  1.0
  H  H2  1  0.49108000  0.50012000  0.63150000  1.0
  H  H3  1  0.69610000  0.60758000  0.28666000  1.0
  H  H4  1  0.29762000  0.39346000  0.70340000  1.0
  H  H5  1  0.44475000  0.63160000  0.23888000  1.0
  H  H6  1  0.54821000  0.36739000  0.75674000  1.0
  H  H7  1  0.99456000  0.33714000  0.84667000  1.0
  H  H8  1  0.00224000  0.65804000  0.15299000  1.0
  H  H9  1  0.71762000  0.30891000  0.34484000  1.0
  H  H10  1  0.28196000  0.69542000  0.65733000  1.0
  H  H11  1  0.90389000  0.48944000  0.64004000  1.0
  H  H12  1  0.09388000  0.51040000  0.36255000  1.0
  H  H13  1  0.60382000  0.96973000  0.24073000  1.0
  H  H14  1  0.39619000  0.03543000  0.75644000  1.0
  C  C15  1  0.57905000  0.62085000  0.33290000  1.0
  C  C16  1  0.41724000  0.37906000  0.66048000  1.0
  C  C17  1  0.76609000  0.24767000  0.04080000  1.0
  C  C18  1  0.23816000  0.75185000  0.96522000  1.0
  C  C19  1  0.73185000  0.96429000  0.48815000  1.0
  C  C20  1  0.26692000  0.03554000  0.50747000  1.0
  C  C21  1  0.84109000  0.06635000  0.65773000  1.0
  C  C22  1  0.15739000  0.93126000  0.33856000  1.0
  C  C23  1  0.90786000  0.25848000  0.71632000  1.0
  C  C24  1  0.09006000  0.73900000  0.28275000  1.0
  C  C25  1  0.75128000  0.23759000  0.43089000  1.0
  C  C26  1  0.24813000  0.76479000  0.56958000  1.0
  C  C27  1  0.45138000  0.24980000  0.03598000  1.0
  C  C28  1  0.55294000  0.74946000  0.97008000  1.0
  C  C29  1  0.85946000  0.34118000  0.60039000  1.0
  C  C30  1  0.13901000  0.65879000  0.40064000  1.0
  C  C31  1  0.68617000  0.04810000  0.37102000  1.0
  C  C32  1  0.31327000  0.95446000  0.62667000  1.0
  N  N33  1  0.88640000  0.17846000  0.03822000  1.0
  N  N34  1  0.12334000  0.82364000  0.97787000  1.0
  N  N35  1  0.85570000  0.94177000  0.73649000  1.0
  N  N36  1  0.14271000  0.05518000  0.25784000  1.0
  N  N37  1  0.64361000  0.33547000  0.04212000  1.0
  N  N38  1  0.35413000  0.66086000  0.95171000  1.0
  N  N39  1  0.68836000  0.78518000  0.47810000  1.0
  N  N40  1  0.31016000  0.21419000  0.51586000  1.0
  N  N41  1  0.76398000  0.77454000  0.62840000  1.0
  N  N42  1  0.23518000  0.22418000  0.36590000  1.0
  N  N43  1  0.27694000  0.18179000  0.03226000  1.0
  N  N44  1  0.73323000  0.82009000  0.98433000  1.0
