# generated using pymatgen
data_AlC27N19O30
_symmetry_space_group_name_H-M   'P 1'
_cell_length_a   4.47634000
_cell_length_b   18.19320000
_cell_length_c   18.19990000
_cell_angle_alpha   60.16000000
_cell_angle_beta   86.20680000
_cell_angle_gamma   88.93560000
_symmetry_Int_Tables_number   1
_chemical_formula_structural   AlC27N19O30
_chemical_formula_sum   'Al1 C27 N19 O30'
_cell_volume   1282.67806463
_cell_formula_units_Z   1
loop_
 _symmetry_equiv_pos_site_id
 _symmetry_equiv_pos_as_xyz
  1  'x, y, z'
loop_
 _atom_site_type_symbol
 _atom_site_label
 _atom_site_symmetry_multiplicity
 _atom_site_fract_x
 _atom_site_fract_y
 _atom_site_fract_z
 _atom_site_occupancy
  Al  Al0  1  0.98552000  0.99994000  0.49924000  1.0
  C  C1  1  0.50716000  0.93603000  0.43464000  1.0
  C  C2  1  0.45491000  0.93494000  0.62750000  1.0
  C  C3  1  0.49471000  0.12904000  0.43545000  1.0
  C  C4  1  0.66713000  0.76494000  0.37221000  1.0
  C  C5  1  0.54004000  0.79762000  0.29340000  1.0
  C  C6  1  0.57511000  0.87403000  0.85789000  1.0
  C  C7  1  0.43211000  0.79414000  0.90628000  1.0
  C  C8  1  0.49715000  0.40684000  0.29554000  1.0
  C  C9  1  0.50208000  0.35954000  0.25371000  1.0
  C  C10  1  0.29861000  0.76130000  0.86060000  1.0
  C  C11  1  0.29580000  0.80747000  0.77216000  1.0
  C  C12  1  0.44315000  0.88587000  0.72447000  1.0
  C  C13  1  0.58700000  0.91719000  0.76937000  1.0
  C  C14  1  0.46211000  0.27171000  0.29942000  1.0
  C  C15  1  0.49734000  0.22563000  0.38696000  1.0
  C  C16  1  0.53243000  0.27318000  0.42735000  1.0
  C  C17  1  0.49213000  0.36066000  0.38457000  1.0
  C  C18  1  0.40054000  0.87667000  0.26256000  1.0
  C  C19  1  0.38451000  0.91894000  0.30903000  1.0
  C  C20  1  0.52021000  0.88761000  0.38579000  1.0
  C  C21  1  0.66479000  0.81017000  0.41574000  1.0
  C  C22  1  0.55887000  0.62338000  0.24997000  1.0
  C  C23  1  0.48521000  0.75570000  0.11996000  1.0
  C  C24  1  0.54796000  0.75087000  0.24540000  1.0
  C  C25  1  0.49499000  0.50067000  0.24818000  1.0
  C  C26  1  0.42061000  0.62125000  0.12389000  1.0
  C  C27  1  0.42383000  0.74780000  0.00082000  1.0
  N  N28  1  0.48804000  0.66677000  0.16460000  1.0
  N  N29  1  0.51678000  0.79731000  0.16195000  1.0
  N  N30  1  0.58393000  0.66704000  0.29017000  1.0
  N  N31  1  0.59397000  0.53976000  0.28807000  1.0
  N  N32  1  0.39344000  0.53715000  0.17021000  1.0
  N  N33  1  0.45173000  0.79566000  0.03685000  1.0
  N  N34  1  0.39137000  0.66348000  0.04050000  1.0
  N  N35  1  0.22128000  0.99936000  0.27769000  1.0
  N  N36  1  0.27057000  0.91939000  0.17779000  1.0
  N  N37  1  0.81649000  0.77591000  0.49608000  1.0
  N  N38  1  0.80316000  0.67921000  0.41313000  1.0
  N  N39  1  0.41291000  0.40247000  0.43577000  1.0
  N  N40  1  0.62308000  0.23179000  0.51651000  1.0
  N  N41  1  0.57556000  0.40076000  0.16037000  1.0
  N  N42  1  0.36921000  0.22872000  0.25284000  1.0
  N  N43  1  0.71466000  0.91651000  0.89969000  1.0
  N  N44  1  0.75418000  0.99862000  0.72014000  1.0
  N  N45  1  0.16007000  0.67464000  0.90569000  1.0
  N  N46  1  0.13370000  0.77358000  0.72668000  1.0
  O  O47  1  0.72510000  0.09460000  0.47509000  1.0
  O  O48  1  0.74517000  0.97575000  0.42863000  1.0
  O  O49  1  0.70115000  0.93014000  0.59205000  1.0
  O  O50  1  0.26216000  0.09362000  0.43060000  1.0
  O  O51  1  0.21955000  0.97413000  0.59499000  1.0
  O  O52  1  0.25918000  0.93027000  0.47483000  1.0
  O  O53  1  0.31944000  0.05064000  0.29586000  1.0
  O  O54  1  0.99653000  0.00758000  0.23855000  1.0
  O  O55  1  0.03588000  0.88876000  0.17226000  1.0
  O  O56  1  0.41019000  0.98162000  0.12234000  1.0
  O  O57  1  0.70097000  0.79121000  0.55015000  1.0
  O  O58  1  0.04983000  0.73667000  0.50126000  1.0
  O  O59  1  0.04607000  0.67257000  0.38131000  1.0
  O  O60  1  0.65851000  0.62405000  0.47504000  1.0
  O  O61  1  0.17083000  0.43902000  0.42039000  1.0
  O  O62  1  0.58256000  0.39410000  0.48953000  1.0
  O  O63  1  0.89422000  0.21854000  0.52099000  1.0
  O  O64  1  0.43625000  0.21628000  0.57471000  1.0
  O  O65  1  0.81741000  0.43961000  0.13636000  1.0
  O  O66  1  0.40076000  0.38972000  0.11748000  1.0
  O  O67  1  0.09761000  0.21371000  0.26263000  1.0
  O  O68  1  0.55538000  0.21403000  0.20969000  1.0
  O  O69  1  0.94701000  0.88539000  0.93488000  1.0
  O  O70  1  0.58542000  0.97885000  0.89383000  1.0
  O  O71  1  0.65294000  0.05063000  0.65250000  1.0
  O  O72  1  0.98441000  0.00690000  0.74932000  1.0
  O  O73  1  0.92079000  0.66590000  0.94676000  1.0
  O  O74  1  0.30008000  0.62086000  0.89675000  1.0
  O  O75  1  0.24097000  0.79101000  0.65577000  1.0
  O  O76  1  0.90035000  0.73260000  0.76275000  1.0
