# generated using pymatgen
data_H7PbC16N2(OF)6
_symmetry_space_group_name_H-M   'P 1'
_cell_length_a   7.29882000
_cell_length_b   16.27060000
_cell_length_c   16.28750000
_cell_angle_alpha   94.20500000
_cell_angle_beta   90.00120000
_cell_angle_gamma   90.00150000
_symmetry_Int_Tables_number   1
_chemical_formula_structural   H7PbC16N2(OF)6
_chemical_formula_sum   'H28 Pb4 C64 N8 O24 F24'
_cell_volume   1929.03447326
_cell_formula_units_Z   4
loop_
 _symmetry_equiv_pos_site_id
 _symmetry_equiv_pos_as_xyz
  1  'x, y, z'
loop_
 _atom_site_type_symbol
 _atom_site_label
 _atom_site_symmetry_multiplicity
 _atom_site_fract_x
 _atom_site_fract_y
 _atom_site_fract_z
 _atom_site_occupancy
  H  H0  1  0.77332000  0.35454000  0.77499000  1.0
  H  H1  1  0.27329000  0.14547000  0.72499000  1.0
  H  H2  1  0.22668000  0.64547000  0.22502000  1.0
  H  H3  1  0.72668000  0.85453000  0.27498000  1.0
  H  H4  1  0.72659000  0.74871000  0.56998000  1.0
  H  H5  1  0.22660000  0.75129000  0.93002000  1.0
  H  H6  1  0.27342000  0.25129000  0.43003000  1.0
  H  H7  1  0.77342000  0.24871000  0.06998000  1.0
  H  H8  1  0.69309000  0.95838000  0.73813000  1.0
  H  H9  1  0.19310000  0.54162000  0.76187000  1.0
  H  H10  1  0.30690000  0.04163000  0.26187000  1.0
  H  H11  1  0.80691000  0.45839000  0.23812000  1.0
  H  H12  1  0.91839000  0.86269000  0.51365000  1.0
  H  H13  1  0.41840000  0.63732000  0.98635000  1.0
  H  H14  1  0.08161000  0.13731000  0.48635000  1.0
  H  H15  1  0.58159000  0.36268000  0.01365000  1.0
  H  H16  1  0.41336000  0.76395000  0.68530000  1.0
  H  H17  1  0.91336000  0.73604000  0.81470000  1.0
  H  H18  1  0.58665000  0.23604000  0.31471000  1.0
  H  H19  1  0.08666000  0.26397000  0.18529000  1.0
  H  H20  1  0.48697000  0.82191000  0.77585000  1.0
  H  H21  1  0.98697000  0.67809000  0.72415000  1.0
  H  H22  1  0.51303000  0.17809000  0.22415000  1.0
  H  H23  1  0.01305000  0.32192000  0.27585000  1.0
  H  H24  1  0.60184000  0.72942000  0.74198000  1.0
  H  H25  1  0.10183000  0.77058000  0.75802000  1.0
  H  H26  1  0.39819000  0.27058000  0.25802000  1.0
  H  H27  1  0.89819000  0.22943000  0.24198000  1.0
  Pb  Pb28  1  0.09438000  0.29354000  0.66303000  1.0
  Pb  Pb29  1  0.59437000  0.20645000  0.83697000  1.0
  Pb  Pb30  1  0.90558000  0.70645000  0.33697000  1.0
  Pb  Pb31  1  0.40559000  0.79355000  0.16303000  1.0
  C  C32  1  0.58976000  0.32655000  0.66044000  1.0
  C  C33  1  0.08976000  0.17345000  0.83956000  1.0
  C  C34  1  0.41021000  0.67346000  0.33957000  1.0
  C  C35  1  0.91023000  0.82655000  0.16044000  1.0
  C  C36  1  0.62602000  0.39357000  0.60289000  1.0
  C  C37  1  0.12602000  0.10643000  0.89711000  1.0
  C  C38  1  0.37396000  0.60644000  0.39713000  1.0
  C  C39  1  0.87398000  0.89358000  0.10289000  1.0
  C  C40  1  0.67943000  0.37698000  0.52134000  1.0
  C  C41  1  0.17945000  0.12301000  0.97866000  1.0
  C  C42  1  0.32055000  0.62303000  0.47868000  1.0
  C  C43  1  0.82056000  0.87699000  0.02134000  1.0
  C  C44  1  0.74032000  0.43939000  0.47374000  1.0
  C  C45  1  0.24034000  0.06061000  0.02626000  1.0
  C  C46  1  0.25966000  0.56061000  0.52627000  1.0
  C  C47  1  0.75967000  0.93939000  0.97373000  1.0
  C  C48  1  0.75151000  0.52200000  0.50607000  1.0
  C  C49  1  0.25153000  0.97799000  0.99392000  1.0
  C  C50  1  0.24850000  0.47800000  0.49394000  1.0
  C  C51  1  0.74848000  0.02201000  0.00607000  1.0
  C  C52  1  0.69515000  0.53780000  0.58837000  1.0
  C  C53  1  0.19516000  0.96220000  0.91162000  1.0
  C  C54  1  0.30488000  0.46221000  0.41165000  1.0
  C  C55  1  0.80486000  0.03780000  0.08836000  1.0
  C  C56  1  0.63305000  0.47519000  0.63524000  1.0
  C  C57  1  0.13305000  0.02481000  0.86476000  1.0
  C  C58  1  0.36696000  0.52483000  0.36478000  1.0
  C  C59  1  0.86697000  0.97519000  0.13523000  1.0
  C  C60  1  0.81666000  0.59012000  0.45581000  1.0
  C  C61  1  0.31668000  0.90987000  0.04418000  1.0
  C  C62  1  0.18333000  0.40988000  0.54419000  1.0
  C  C63  1  0.68332000  0.09011000  0.95580000  1.0
  C  C64  1  0.96079000  0.40563000  0.84390000  1.0
  C  C65  1  0.46076000  0.09436000  0.65610000  1.0
  C  C66  1  0.03922000  0.59437000  0.15611000  1.0
  C  C67  1  0.53920000  0.90562000  0.34389000  1.0
  C  C68  1  0.98495000  0.45531000  0.92318000  1.0
  C  C69  1  0.48493000  0.04468000  0.57682000  1.0
  C  C70  1  0.01506000  0.54470000  0.07683000  1.0
  C  C71  1  0.51506000  0.95530000  0.42317000  1.0
  C  C72  1  0.87583000  0.52492000  0.94202000  1.0
  C  C73  1  0.37581000  0.97507000  0.55797000  1.0
  C  C74  1  0.12418000  0.47509000  0.05798000  1.0
  C  C75  1  0.62418000  0.02491000  0.44202000  1.0
  C  C76  1  0.11002000  0.43148000  0.98163000  1.0
  C  C77  1  0.61002000  0.06851000  0.51838000  1.0
  C  C78  1  0.88998000  0.56852000  0.01838000  1.0
  C  C79  1  0.38996000  0.93147000  0.48161000  1.0
  C  C80  1  0.65970000  0.83496000  0.67257000  1.0
  C  C81  1  0.15970000  0.66504000  0.82743000  1.0
  C  C82  1  0.34031000  0.16504000  0.32743000  1.0
  C  C83  1  0.84032000  0.33497000  0.17257000  1.0
  C  C84  1  0.72231000  0.91510000  0.68580000  1.0
  C  C85  1  0.22232000  0.58490000  0.81421000  1.0
  C  C86  1  0.27768000  0.08490000  0.31420000  1.0
  C  C87  1  0.77770000  0.41510000  0.18579000  1.0
  C  C88  1  0.84077000  0.86911000  0.57070000  1.0
  C  C89  1  0.34078000  0.63090000  0.92930000  1.0
  C  C90  1  0.15923000  0.13089000  0.42930000  1.0
  C  C91  1  0.65923000  0.36910000  0.07070000  1.0
  C  C92  1  0.53480000  0.78475000  0.72111000  1.0
  C  C93  1  0.03479000  0.71524000  0.77889000  1.0
  C  C94  1  0.46521000  0.21524000  0.27889000  1.0
  C  C95  1  0.96523000  0.28477000  0.22111000  1.0
  N  N96  1  0.73727000  0.80658000  0.59837000  1.0
  N  N97  1  0.23727000  0.69342000  0.90163000  1.0
  N  N98  1  0.26274000  0.19342000  0.40164000  1.0
  N  N99  1  0.76274000  0.30658000  0.09837000  1.0
  N  N100  1  0.83422000  0.93599000  0.62205000  1.0
  N  N101  1  0.33423000  0.56401000  0.87796000  1.0
  N  N102  1  0.16578000  0.06401000  0.37796000  1.0
  N  N103  1  0.66578000  0.43599000  0.12204000  1.0
  O  O104  1  0.43248000  0.30296000  0.67756000  1.0
  O  O105  1  0.93249000  0.19704000  0.82244000  1.0
  O  O106  1  0.56751000  0.69704000  0.32245000  1.0
  O  O107  1  0.06749000  0.80296000  0.17756000  1.0
  O  O108  1  0.73495000  0.29911000  0.69389000  1.0
  O  O109  1  0.23495000  0.20088000  0.80611000  1.0
  O  O110  1  0.26503000  0.70089000  0.30613000  1.0
  O  O111  1  0.76502000  0.79911000  0.19388000  1.0
  O  O112  1  0.89716000  0.57053000  0.38698000  1.0
  O  O113  1  0.39716000  0.92947000  0.11301000  1.0
  O  O114  1  0.10283000  0.42947000  0.61302000  1.0
  O  O115  1  0.60284000  0.07052000  0.88697000  1.0
  O  O116  1  0.78796000  0.66446000  0.48166000  1.0
  O  O117  1  0.28798000  0.83553000  0.01833000  1.0
  O  O118  1  0.21203000  0.33554000  0.51834000  1.0
  O  O119  1  0.71200000  0.16446000  0.98166000  1.0
  O  O120  1  0.78671000  0.38549000  0.83098000  1.0
  O  O121  1  0.28669000  0.11452000  0.66900000  1.0
  O  O122  1  0.21330000  0.61452000  0.16903000  1.0
  O  O123  1  0.71329000  0.88548000  0.33097000  1.0
  O  O124  1  0.08857000  0.38511000  0.79672000  1.0
  O  O125  1  0.58854000  0.11487000  0.70328000  1.0
  O  O126  1  0.91144000  0.61489000  0.20328000  1.0
  O  O127  1  0.41142000  0.88511000  0.29671000  1.0
  F  F128  1  0.67692000  0.29843000  0.48776000  1.0
  F  F129  1  0.17695000  0.20156000  0.01224000  1.0
  F  F130  1  0.32306000  0.70157000  0.51228000  1.0
  F  F131  1  0.82306000  0.79844000  0.98775000  1.0
  F  F132  1  0.78703000  0.41680000  0.39538000  1.0
  F  F133  1  0.28707000  0.08319000  0.10462000  1.0
  F  F134  1  0.21293000  0.58319000  0.60463000  1.0
  F  F135  1  0.71294000  0.91680000  0.89538000  1.0
  F  F136  1  0.70213000  0.61396000  0.62665000  1.0
  F  F137  1  0.20212000  0.88605000  0.87334000  1.0
  F  F138  1  0.29796000  0.38605000  0.37337000  1.0
  F  F139  1  0.79790000  0.11396000  0.12664000  1.0
  F  F140  1  0.58654000  0.49342000  0.71459000  1.0
  F  F141  1  0.08653000  0.00658000  0.78541000  1.0
  F  F142  1  0.41349000  0.50660000  0.28543000  1.0
  F  F143  1  0.91350000  0.99343000  0.21458000  1.0
  F  F144  1  0.76036000  0.55198000  0.88589000  1.0
  F  F145  1  0.26031000  0.94801000  0.61410000  1.0
  F  F146  1  0.23967000  0.44803000  0.11411000  1.0
  F  F147  1  0.73968000  0.05196000  0.38589000  1.0
  F  F148  1  0.21476000  0.36387000  0.96552000  1.0
  F  F149  1  0.71477000  0.13612000  0.53450000  1.0
  F  F150  1  0.78523000  0.63613000  0.03449000  1.0
  F  F151  1  0.28521000  0.86386000  0.46549000  1.0
