# generated using pymatgen
data_CdH18C19(NO2)2
_symmetry_space_group_name_H-M   'P 1'
_cell_length_a   9.90544000
_cell_length_b   10.01860000
_cell_length_c   11.26710000
_cell_angle_alpha   66.42670000
_cell_angle_beta   86.87790000
_cell_angle_gamma   63.43310000
_symmetry_Int_Tables_number   1
_chemical_formula_structural   CdH18C19(NO2)2
_chemical_formula_sum   'Cd2 H36 C38 N4 O8'
_cell_volume   905.99953060
_cell_formula_units_Z   2
loop_
 _symmetry_equiv_pos_site_id
 _symmetry_equiv_pos_as_xyz
  1  'x, y, z'
loop_
 _atom_site_type_symbol
 _atom_site_label
 _atom_site_symmetry_multiplicity
 _atom_site_fract_x
 _atom_site_fract_y
 _atom_site_fract_z
 _atom_site_occupancy
  Cd  Cd0  1  0.92886000  0.83484000  0.58806000  1.0
  Cd  Cd1  1  0.07113000  0.16516000  0.41194000  1.0
  H  H2  1  0.21726000  0.75677000  0.42723000  1.0
  H  H3  1  0.78274000  0.24324000  0.57277000  1.0
  H  H4  1  0.31692000  0.64059000  0.26065000  1.0
  H  H5  1  0.68308000  0.35940000  0.73935000  1.0
  H  H6  1  0.16107000  0.54883000  0.17275000  1.0
  H  H7  1  0.83893000  0.45117000  0.82725000  1.0
  H  H8  1  0.92460000  0.52291000  0.16646000  1.0
  H  H9  1  0.07540000  0.47709000  0.83355000  1.0
  H  H10  1  0.67564000  0.56404000  0.24052000  1.0
  H  H11  1  0.32435000  0.43597000  0.75948000  1.0
  H  H12  1  0.47621000  0.67057000  0.37355000  1.0
  H  H13  1  0.52378000  0.32944000  0.62644000  1.0
  H  H14  1  0.39893000  0.79088000  0.53806000  1.0
  H  H15  1  0.60106000  0.20913000  0.46193000  1.0
  H  H16  1  0.58739000  0.84352000  0.63053000  1.0
  H  H17  1  0.41261000  0.15648000  0.36947000  1.0
  H  H18  1  0.32117000  0.93283000  0.70536000  1.0
  H  H19  1  0.67884000  0.06716000  0.29464000  1.0
  H  H20  1  0.39345000  0.72904000  0.82971000  1.0
  H  H21  1  0.60656000  0.27095000  0.17029000  1.0
  H  H22  1  0.18193000  0.81658000  0.95296000  1.0
  H  H23  1  0.81808000  0.18341000  0.04704000  1.0
  H  H24  1  0.09340000  0.01668000  0.82790000  1.0
  H  H25  1  0.90661000  0.98331000  0.17210000  1.0
  H  H26  1  0.40860000  0.85559000  0.98996000  1.0
  H  H27  1  0.59141000  0.14441000  0.01004000  1.0
  H  H28  1  0.32277000  0.05327000  0.86081000  1.0
  H  H29  1  0.67723000  0.94673000  0.13919000  1.0
  H  H30  1  0.19043000  0.94180000  0.11375000  1.0
  H  H31  1  0.80958000  0.05820000  0.88625000  1.0
  H  H32  1  0.10089000  0.13826000  0.98364000  1.0
  H  H33  1  0.89911000  0.86173000  0.01636000  1.0
  H  H34  1  0.41890000  0.98605000  0.13658000  1.0
  H  H35  1  0.58110000  0.01396000  0.86342000  1.0
  H  H36  1  0.31528000  0.19207000  0.01734000  1.0
  H  H37  1  0.68471000  0.80793000  0.98266000  1.0
  C  C38  1  0.15468000  0.71475000  0.38680000  1.0
  C  C39  1  0.84532000  0.28525000  0.61321000  1.0
  C  C40  1  0.20829000  0.65131000  0.29283000  1.0
  C  C41  1  0.79171000  0.34868000  0.70718000  1.0
  C  C42  1  0.12248000  0.60306000  0.24292000  1.0
  C  C43  1  0.87752000  0.39694000  0.75709000  1.0
  C  C44  1  0.98063000  0.62221000  0.28529000  1.0
  C  C45  1  0.01937000  0.37780000  0.71471000  1.0
  C  C46  1  0.88458000  0.57757000  0.23612000  1.0
  C  C47  1  0.11542000  0.42243000  0.76387000  1.0
  C  C48  1  0.74672000  0.60076000  0.27743000  1.0
  C  C49  1  0.25328000  0.39924000  0.72256000  1.0
  C  C50  1  0.69508000  0.66924000  0.37084000  1.0
  C  C51  1  0.30491000  0.33077000  0.62916000  1.0
  C  C52  1  0.55233000  0.69866000  0.41419000  1.0
  C  C53  1  0.44766000  0.30135000  0.58581000  1.0
  C  C54  1  0.51028000  0.76333000  0.50593000  1.0
  C  C55  1  0.48971000  0.23668000  0.49406000  1.0
  C  C56  1  0.61281000  0.79749000  0.55495000  1.0
  C  C57  1  0.38718000  0.20251000  0.44504000  1.0
  C  C58  1  0.78926000  0.71177000  0.42386000  1.0
  C  C59  1  0.21074000  0.28823000  0.57614000  1.0
  C  C60  1  0.93483000  0.68795000  0.37997000  1.0
  C  C61  1  0.06517000  0.31205000  0.62003000  1.0
  C  C62  1  0.18673000  0.81236000  0.70884000  1.0
  C  C63  1  0.81328000  0.18765000  0.29115000  1.0
  C  C64  1  0.28822000  0.84474000  0.77809000  1.0
  C  C65  1  0.71178000  0.15526000  0.22191000  1.0
  C  C66  1  0.20588000  0.91083000  0.87710000  1.0
  C  C67  1  0.79413000  0.08916000  0.12290000  1.0
  C  C68  1  0.29671000  0.96214000  0.93877000  1.0
  C  C69  1  0.70330000  0.03785000  0.06123000  1.0
  C  C70  1  0.21356000  0.03337000  0.03387000  1.0
  C  C71  1  0.78645000  0.96663000  0.96613000  1.0
  C  C72  1  0.30327000  0.08881000  0.09299000  1.0
  C  C73  1  0.69673000  0.91119000  0.90701000  1.0
  C  C74  1  0.22862000  0.13746000  0.20068000  1.0
  C  C75  1  0.77138000  0.86253000  0.79932000  1.0
  N  N76  1  0.02303000  0.73059000  0.42983000  1.0
  N  N77  1  0.97697000  0.26941000  0.57017000  1.0
  N  N78  1  0.74678000  0.77431000  0.51408000  1.0
  N  N79  1  0.25322000  0.22569000  0.48592000  1.0
  O  O80  1  0.13806000  0.71246000  0.77516000  1.0
  O  O81  1  0.86194000  0.28755000  0.22483000  1.0
  O  O82  1  0.14832000  0.89219000  0.58301000  1.0
  O  O83  1  0.85168000  0.10781000  0.41699000  1.0
  O  O84  1  0.21025000  0.02477000  0.29720000  1.0
  O  O85  1  0.78974000  0.97523000  0.70280000  1.0
  O  O86  1  0.18795000  0.27907000  0.19420000  1.0
  O  O87  1  0.81205000  0.72093000  0.80580000  1.0
