# generated using pymatgen
data_CdH14C16(ClO2)4
_symmetry_space_group_name_H-M   'P 1'
_cell_length_a   7.39539000
_cell_length_b   8.22740000
_cell_length_c   16.88340000
_cell_angle_alpha   91.03740000
_cell_angle_beta   89.99980000
_cell_angle_gamma   89.99940000
_symmetry_Int_Tables_number   1
_chemical_formula_structural   CdH14C16(ClO2)4
_chemical_formula_sum   'Cd2 H28 C32 Cl8 O16'
_cell_volume   1027.09925182
_cell_formula_units_Z   2
loop_
 _symmetry_equiv_pos_site_id
 _symmetry_equiv_pos_as_xyz
  1  'x, y, z'
loop_
 _atom_site_type_symbol
 _atom_site_label
 _atom_site_symmetry_multiplicity
 _atom_site_fract_x
 _atom_site_fract_y
 _atom_site_fract_z
 _atom_site_occupancy
  Cd  Cd0  1  0.50002000  0.50000000  0.50000000  1.0
  Cd  Cd1  1  0.00002000  0.99999000  0.49999000  1.0
  H  H2  1  0.68855000  0.26230000  0.56813000  1.0
  H  H3  1  0.18857000  0.23767000  0.43186000  1.0
  H  H4  1  0.31148000  0.73768000  0.43185000  1.0
  H  H5  1  0.81149000  0.76233000  0.56814000  1.0
  H  H6  1  0.71318000  0.38653000  0.64061000  1.0
  H  H7  1  0.21319000  0.11344000  0.35938000  1.0
  H  H8  1  0.28685000  0.61343000  0.35938000  1.0
  H  H9  1  0.78684000  0.88656000  0.64061000  1.0
  H  H10  1  0.44632000  0.08978000  0.60326000  1.0
  H  H11  1  0.94637000  0.41022000  0.39675000  1.0
  H  H12  1  0.55365000  0.91023000  0.39676000  1.0
  H  H13  1  0.05367000  0.58978000  0.60325000  1.0
  H  H14  1  0.25102000  0.02205000  0.65300000  1.0
  H  H15  1  0.75103000  0.47794000  0.34700000  1.0
  H  H16  1  0.74897000  0.97793000  0.34700000  1.0
  H  H17  1  0.24895000  0.52208000  0.65300000  1.0
  H  H18  1  0.60918000  0.69659000  0.92670000  1.0
  H  H19  1  0.10919000  0.80343000  0.07330000  1.0
  H  H20  1  0.39080000  0.30341000  0.07331000  1.0
  H  H21  1  0.89079000  0.19661000  0.92668000  1.0
  H  H22  1  0.06636000  0.67412000  0.83396000  1.0
  H  H23  1  0.56640000  0.82590000  0.16605000  1.0
  H  H24  1  0.93359000  0.32589000  0.16607000  1.0
  H  H25  1  0.43356000  0.17413000  0.83395000  1.0
  H  H26  1  0.15972000  0.83257000  0.71884000  1.0
  H  H27  1  0.65973000  0.66744000  0.28118000  1.0
  H  H28  1  0.84023000  0.16744000  0.28118000  1.0
  H  H29  1  0.34023000  0.33256000  0.71882000  1.0
  C  C30  1  0.37395000  0.84444000  0.57298000  1.0
  C  C31  1  0.87396000  0.65553000  0.42703000  1.0
  C  C32  1  0.62607000  0.15555000  0.42702000  1.0
  C  C33  1  0.12607000  0.34446000  0.57297000  1.0
  C  C34  1  0.38665000  0.98485000  0.63289000  1.0
  C  C35  1  0.88665000  0.51512000  0.36710000  1.0
  C  C36  1  0.61334000  0.01512000  0.36711000  1.0
  C  C37  1  0.11333000  0.48487000  0.63288000  1.0
  C  C38  1  0.43910000  0.85639000  0.75666000  1.0
  C  C39  1  0.93911000  0.64355000  0.24334000  1.0
  C  C40  1  0.56090000  0.14357000  0.24336000  1.0
  C  C41  1  0.06088000  0.35643000  0.75663000  1.0
  C  C42  1  0.56313000  0.81548000  0.81611000  1.0
  C  C43  1  0.06314000  0.68451000  0.18389000  1.0
  C  C44  1  0.43686000  0.18454000  0.18391000  1.0
  C  C45  1  0.93686000  0.31549000  0.81609000  1.0
  C  C46  1  0.51098000  0.72471000  0.88106000  1.0
  C  C47  1  0.01101000  0.77534000  0.11896000  1.0
  C  C48  1  0.48898000  0.27532000  0.11896000  1.0
  C  C49  1  0.98898000  0.22473000  0.88105000  1.0
  C  C50  1  0.33152000  0.67431000  0.88684000  1.0
  C  C51  1  0.83156000  0.82574000  0.11318000  1.0
  C  C52  1  0.66848000  0.32570000  0.11316000  1.0
  C  C53  1  0.16847000  0.17432000  0.88684000  1.0
  C  C54  1  0.20633000  0.71271000  0.82850000  1.0
  C  C55  1  0.70637000  0.78727000  0.17151000  1.0
  C  C56  1  0.79364000  0.28723000  0.17150000  1.0
  C  C57  1  0.29362000  0.21275000  0.82848000  1.0
  C  C58  1  0.26023000  0.80317000  0.76350000  1.0
  C  C59  1  0.76023000  0.69679000  0.23651000  1.0
  C  C60  1  0.73975000  0.19678000  0.23650000  1.0
  C  C61  1  0.23973000  0.30319000  0.76348000  1.0
  Cl  Cl62  1  0.78334000  0.88364000  0.80892000  1.0
  Cl  Cl63  1  0.28334000  0.61636000  0.19108000  1.0
  Cl  Cl64  1  0.21665000  0.11633000  0.19108000  1.0
  Cl  Cl65  1  0.71666000  0.38369000  0.80891000  1.0
  Cl  Cl66  1  0.26223000  0.56662000  0.96866000  1.0
  Cl  Cl67  1  0.76227000  0.93342000  0.03136000  1.0
  Cl  Cl68  1  0.73775000  0.43340000  0.03136000  1.0
  Cl  Cl69  1  0.23772000  0.06661000  0.96865000  1.0
  O  O70  1  0.62433000  0.34371000  0.60264000  1.0
  O  O71  1  0.12434000  0.15626000  0.39735000  1.0
  O  O72  1  0.37572000  0.65625000  0.39736000  1.0
  O  O73  1  0.87572000  0.84374000  0.60264000  1.0
  O  O74  1  0.46349000  0.71705000  0.58586000  1.0
  O  O75  1  0.96348000  0.78295000  0.41413000  1.0
  O  O76  1  0.53655000  0.28295000  0.41414000  1.0
  O  O77  1  0.03654000  0.21702000  0.58584000  1.0
  O  O78  1  0.27674000  0.86867000  0.51158000  1.0
  O  O79  1  0.77675000  0.63130000  0.48842000  1.0
  O  O80  1  0.72329000  0.13130000  0.48842000  1.0
  O  O81  1  0.22331000  0.36872000  0.51159000  1.0
  O  O82  1  0.50411000  0.95157000  0.69717000  1.0
  O  O83  1  0.00411000  0.54842000  0.30283000  1.0
  O  O84  1  0.49588000  0.04842000  0.30285000  1.0
  O  O85  1  0.99585000  0.45160000  0.69715000  1.0
