# generated using pymatgen
data_SnH10(C5O2)2
_symmetry_space_group_name_H-M   'P 1'
_cell_length_a   9.24058000
_cell_length_b   10.52590000
_cell_length_c   11.31490000
_cell_angle_alpha   89.99990000
_cell_angle_beta   82.73250000
_cell_angle_gamma   89.99950000
_symmetry_Int_Tables_number   1
_chemical_formula_structural   SnH10(C5O2)2
_chemical_formula_sum   'Sn4 H40 C40 O16'
_cell_volume   1091.70709967
_cell_formula_units_Z   4
loop_
 _symmetry_equiv_pos_site_id
 _symmetry_equiv_pos_as_xyz
  1  'x, y, z'
loop_
 _atom_site_type_symbol
 _atom_site_label
 _atom_site_symmetry_multiplicity
 _atom_site_fract_x
 _atom_site_fract_y
 _atom_site_fract_z
 _atom_site_occupancy
  Sn  Sn0  1  0.86392000  0.82435000  0.04094000  1.0
  Sn  Sn1  1  0.86393000  0.67565000  0.54095000  1.0
  Sn  Sn2  1  0.13607000  0.17565000  0.95905000  1.0
  Sn  Sn3  1  0.13607000  0.32435000  0.45905000  1.0
  H  H4  1  0.59941000  0.44823000  0.01302000  1.0
  H  H5  1  0.59942000  0.05175000  0.51301000  1.0
  H  H6  1  0.40059000  0.55177000  0.98698000  1.0
  H  H7  1  0.40057000  0.94826000  0.48700000  1.0
  H  H8  1  0.67312000  0.26742000  0.40651000  1.0
  H  H9  1  0.67309000  0.23258000  0.90649000  1.0
  H  H10  1  0.32689000  0.73257000  0.59349000  1.0
  H  H11  1  0.32692000  0.76742000  0.09351000  1.0
  H  H12  1  0.53220000  0.14600000  0.27108000  1.0
  H  H13  1  0.53217000  0.35399000  0.77105000  1.0
  H  H14  1  0.46782000  0.85400000  0.72890000  1.0
  H  H15  1  0.46784000  0.64601000  0.22895000  1.0
  H  H16  1  0.48822000  0.23837000  0.07673000  1.0
  H  H17  1  0.48822000  0.26161000  0.57670000  1.0
  H  H18  1  0.51179000  0.76162000  0.92327000  1.0
  H  H19  1  0.51177000  0.73840000  0.42331000  1.0
  H  H20  1  0.98020000  0.68527000  0.85594000  1.0
  H  H21  1  0.98019000  0.81473000  0.35594000  1.0
  H  H22  1  0.01979000  0.31473000  0.14406000  1.0
  H  H23  1  0.01979000  0.18527000  0.64406000  1.0
  H  H24  1  0.09073000  0.67487000  0.97546000  1.0
  H  H25  1  0.09073000  0.82513000  0.47546000  1.0
  H  H26  1  0.90926000  0.32513000  0.02453000  1.0
  H  H27  1  0.90926000  0.17487000  0.52453000  1.0
  H  H28  1  0.10481000  0.81124000  0.87919000  1.0
  H  H29  1  0.10483000  0.68877000  0.37918000  1.0
  H  H30  1  0.89519000  0.18875000  0.12080000  1.0
  H  H31  1  0.89516000  0.31123000  0.62081000  1.0
  H  H32  1  0.66279000  0.95478000  0.17985000  1.0
  H  H33  1  0.66279000  0.54523000  0.67985000  1.0
  H  H34  1  0.33722000  0.04522000  0.82014000  1.0
  H  H35  1  0.33721000  0.45477000  0.32014000  1.0
  H  H36  1  0.84103000  0.01112000  0.20545000  1.0
  H  H37  1  0.84103000  0.48886000  0.70546000  1.0
  H  H38  1  0.15896000  0.98888000  0.79455000  1.0
  H  H39  1  0.15897000  0.51114000  0.29453000  1.0
  H  H40  1  0.76980000  0.86488000  0.27183000  1.0
  H  H41  1  0.76981000  0.63512000  0.77183000  1.0
  H  H42  1  0.23020000  0.13512000  0.72817000  1.0
  H  H43  1  0.23019000  0.36488000  0.22817000  1.0
  C  C44  1  0.78335000  0.50074000  0.37684000  1.0
  C  C45  1  0.78334000  0.99928000  0.87685000  1.0
  C  C46  1  0.21664000  0.49927000  0.62316000  1.0
  C  C47  1  0.21666000  0.00072000  0.12316000  1.0
  C  C48  1  0.71209000  0.42646000  0.28754000  1.0
  C  C49  1  0.71208000  0.07354000  0.78754000  1.0
  C  C50  1  0.28791000  0.57353000  0.71245000  1.0
  C  C51  1  0.28792000  0.92646000  0.21247000  1.0
  C  C52  1  0.69284000  0.47704000  0.17533000  1.0
  C  C53  1  0.69286000  0.02295000  0.67532000  1.0
  C  C54  1  0.30716000  0.52295000  0.82467000  1.0
  C  C55  1  0.30714000  0.97705000  0.32469000  1.0
  C  C56  1  0.61259000  0.40834000  0.09987000  1.0
  C  C57  1  0.61260000  0.09164000  0.59986000  1.0
  C  C58  1  0.38740000  0.59167000  0.90013000  1.0
  C  C59  1  0.38741000  0.90836000  0.40015000  1.0
  C  C60  1  0.76580000  0.59783000  0.13370000  1.0
  C  C61  1  0.76583000  0.90216000  0.63370000  1.0
  C  C62  1  0.23420000  0.40216000  0.86631000  1.0
  C  C63  1  0.23418000  0.09784000  0.36630000  1.0
  C  C64  1  0.65634000  0.30631000  0.32007000  1.0
  C  C65  1  0.65632000  0.19369000  0.82006000  1.0
  C  C66  1  0.34367000  0.69368000  0.67992000  1.0
  C  C67  1  0.34368000  0.80631000  0.17995000  1.0
  C  C68  1  0.57738000  0.23854000  0.24377000  1.0
  C  C69  1  0.57735000  0.26145000  0.74375000  1.0
  C  C70  1  0.42264000  0.76146000  0.75622000  1.0
  C  C71  1  0.42266000  0.73855000  0.25626000  1.0
  C  C72  1  0.55359000  0.29008000  0.13423000  1.0
  C  C73  1  0.55357000  0.20990000  0.63421000  1.0
  C  C74  1  0.44641000  0.70992000  0.86577000  1.0
  C  C75  1  0.44643000  0.79011000  0.36579000  1.0
  C  C76  1  0.03177000  0.73880000  0.92223000  1.0
  C  C77  1  0.03177000  0.76120000  0.42223000  1.0
  C  C78  1  0.96822000  0.26120000  0.07777000  1.0
  C  C79  1  0.96822000  0.23881000  0.57776000  1.0
  C  C80  1  0.77365000  0.92767000  0.19439000  1.0
  C  C81  1  0.77366000  0.57232000  0.69439000  1.0
  C  C82  1  0.22635000  0.07233000  0.80561000  1.0
  C  C83  1  0.22634000  0.42768000  0.30561000  1.0
  O  O84  1  0.70914000  0.66432000  0.05418000  1.0
  O  O85  1  0.70915000  0.83567000  0.55419000  1.0
  O  O86  1  0.29085000  0.33567000  0.94583000  1.0
  O  O87  1  0.29085000  0.16433000  0.44582000  1.0
  O  O88  1  0.89363000  0.45942000  0.41965000  1.0
  O  O89  1  0.89361000  0.04059000  0.91966000  1.0
  O  O90  1  0.10636000  0.54059000  0.58034000  1.0
  O  O91  1  0.10638000  0.95940000  0.08034000  1.0
  O  O92  1  0.88086000  0.63409000  0.17336000  1.0
  O  O93  1  0.88088000  0.86589000  0.67337000  1.0
  O  O94  1  0.11913000  0.36591000  0.82665000  1.0
  O  O95  1  0.11913000  0.13411000  0.32664000  1.0
  O  O96  1  0.72104000  0.60610000  0.41425000  1.0
  O  O97  1  0.72104000  0.89391000  0.91425000  1.0
  O  O98  1  0.27894000  0.39390000  0.58575000  1.0
  O  O99  1  0.27896000  0.10609000  0.08576000  1.0
