# generated using pymatgen
data_CdH22C33N2O5
_symmetry_space_group_name_H-M   'P 1'
_cell_length_a   10.14000000
_cell_length_b   11.10750000
_cell_length_c   12.63490000
_cell_angle_alpha   104.03500000
_cell_angle_beta   105.49300000
_cell_angle_gamma   95.18610000
_symmetry_Int_Tables_number   1
_chemical_formula_structural   CdH22C33N2O5
_chemical_formula_sum   'Cd2 H44 C66 N4 O10'
_cell_volume   1311.96777999
_cell_formula_units_Z   2
loop_
 _symmetry_equiv_pos_site_id
 _symmetry_equiv_pos_as_xyz
  1  'x, y, z'
loop_
 _atom_site_type_symbol
 _atom_site_label
 _atom_site_symmetry_multiplicity
 _atom_site_fract_x
 _atom_site_fract_y
 _atom_site_fract_z
 _atom_site_occupancy
  Cd  Cd0  1  0.57695000  0.86575000  0.51187000  1.0
  Cd  Cd1  1  0.42305000  0.13425000  0.48812000  1.0
  H  H2  1  0.36559000  0.67066000  0.15282000  1.0
  H  H3  1  0.63440000  0.32934000  0.84718000  1.0
  H  H4  1  0.20436000  0.52861000  0.96901000  1.0
  H  H5  1  0.79564000  0.47139000  0.03099000  1.0
  H  H6  1  0.96430000  0.57276000  0.89473000  1.0
  H  H7  1  0.03569000  0.42724000  0.10527000  1.0
  H  H8  1  0.05538000  0.90386000  0.18250000  1.0
  H  H9  1  0.94462000  0.09614000  0.81750000  1.0
  H  H10  1  0.88375000  0.94863000  0.03799000  1.0
  H  H11  1  0.11625000  0.05137000  0.96202000  1.0
  H  H12  1  0.82342000  0.87225000  0.12870000  1.0
  H  H13  1  0.17659000  0.12775000  0.87131000  1.0
  H  H14  1  0.71854000  0.03161000  0.92201000  1.0
  H  H15  1  0.28146000  0.96840000  0.07799000  1.0
  H  H16  1  0.47907000  0.03087000  0.81037000  1.0
  H  H17  1  0.52093000  0.96913000  0.18963000  1.0
  H  H18  1  0.34496000  0.68988000  0.88508000  1.0
  H  H19  1  0.65504000  0.31013000  0.11492000  1.0
  H  H20  1  0.58423000  0.69575000  0.00340000  1.0
  H  H21  1  0.41577000  0.30426000  0.99660000  1.0
  H  H22  1  0.16921000  0.80068000  0.89666000  1.0
  H  H23  1  0.83080000  0.19932000  0.10334000  1.0
  H  H24  1  0.92283000  0.80094000  0.79811000  1.0
  H  H25  1  0.07718000  0.19906000  0.20189000  1.0
  H  H26  1  0.86209000  0.86830000  0.61852000  1.0
  H  H27  1  0.13791000  0.13170000  0.38148000  1.0
  H  H28  1  0.04787000  0.92205000  0.53504000  1.0
  H  H29  1  0.95214000  0.07795000  0.46495000  1.0
  H  H30  1  0.69647000  0.82268000  0.28111000  1.0
  H  H31  1  0.30353000  0.17732000  0.71889000  1.0
  H  H32  1  0.82591000  0.67905000  0.17496000  1.0
  H  H33  1  0.17409000  0.32095000  0.82504000  1.0
  H  H34  1  0.89612000  0.49297000  0.24327000  1.0
  H  H35  1  0.10388000  0.50702000  0.75674000  1.0
  H  H36  1  0.89685000  0.36654000  0.38221000  1.0
  H  H37  1  0.10315000  0.63346000  0.61780000  1.0
  H  H38  1  0.82448000  0.33026000  0.54600000  1.0
  H  H39  1  0.17552000  0.66973000  0.45400000  1.0
  H  H40  1  0.70288000  0.39481000  0.69333000  1.0
  H  H41  1  0.29712000  0.60519000  0.30667000  1.0
  H  H42  1  0.58549000  0.55813000  0.79126000  1.0
  H  H43  1  0.41451000  0.44187000  0.20874000  1.0
  H  H44  1  0.54104000  0.74434000  0.71605000  1.0
  H  H45  1  0.45897000  0.25566000  0.28395000  1.0
  C  C46  1  0.31490000  0.87756000  0.28863000  1.0
  C  C47  1  0.68508000  0.12245000  0.71137000  1.0
  C  C48  1  0.21780000  0.79366000  0.17719000  1.0
  C  C49  1  0.78219000  0.20634000  0.82280000  1.0
  C  C50  1  0.26123000  0.68884000  0.11787000  1.0
  C  C51  1  0.73876000  0.31117000  0.88212000  1.0
  C  C52  1  0.17081000  0.61034000  0.01553000  1.0
  C  C53  1  0.82918000  0.38965000  0.98447000  1.0
  C  C54  1  0.03729000  0.63424000  0.97334000  1.0
  C  C55  1  0.96270000  0.36576000  0.02666000  1.0
  C  C56  1  0.99331000  0.73879000  0.03355000  1.0
  C  C57  1  0.00669000  0.26121000  0.96645000  1.0
  C  C58  1  0.08443000  0.82038000  0.13455000  1.0
  C  C59  1  0.91556000  0.17962000  0.86545000  1.0
  C  C60  1  0.81479000  0.86652000  0.03851000  1.0
  C  C61  1  0.18521000  0.13348000  0.96149000  1.0
  C  C62  1  0.66834000  0.86417000  0.97057000  1.0
  C  C63  1  0.33166000  0.13583000  0.02944000  1.0
  C  C64  1  0.63637000  0.95716000  0.91509000  1.0
  C  C65  1  0.36363000  0.04285000  0.08491000  1.0
  C  C66  1  0.50115000  0.95576000  0.85084000  1.0
  C  C67  1  0.49885000  0.04424000  0.14916000  1.0
  C  C68  1  0.39391000  0.85920000  0.83774000  1.0
  C  C69  1  0.60609000  0.14081000  0.16226000  1.0
  C  C70  1  0.42650000  0.76601000  0.89412000  1.0
  C  C71  1  0.57351000  0.23399000  0.10588000  1.0
  C  C72  1  0.56134000  0.76906000  0.96044000  1.0
  C  C73  1  0.43867000  0.23094000  0.03956000  1.0
  C  C74  1  0.24917000  0.85735000  0.77124000  1.0
  C  C75  1  0.75083000  0.14265000  0.22876000  1.0
  C  C76  1  0.14206000  0.82480000  0.81581000  1.0
  C  C77  1  0.85795000  0.17520000  0.18419000  1.0
  C  C78  1  0.00339000  0.82590000  0.76101000  1.0
  C  C79  1  0.99661000  0.17411000  0.23899000  1.0
  C  C80  1  0.96893000  0.86234000  0.66006000  1.0
  C  C81  1  0.03107000  0.13767000  0.33994000  1.0
  C  C82  1  0.07324000  0.89446000  0.61432000  1.0
  C  C83  1  0.92676000  0.10554000  0.38568000  1.0
  C  C84  1  0.21279000  0.89073000  0.66721000  1.0
  C  C85  1  0.78722000  0.10927000  0.33279000  1.0
  C  C86  1  0.31395000  0.91739000  0.60342000  1.0
  C  C87  1  0.68605000  0.08261000  0.39657000  1.0
  C  C88  1  0.72693000  0.73975000  0.30654000  1.0
  C  C89  1  0.27306000  0.26024000  0.69346000  1.0
  C  C90  1  0.79987000  0.65935000  0.24802000  1.0
  C  C91  1  0.20013000  0.34065000  0.75198000  1.0
  C  C92  1  0.83888000  0.55727000  0.28580000  1.0
  C  C93  1  0.16112000  0.44272000  0.71420000  1.0
  C  C94  1  0.80390000  0.53515000  0.38111000  1.0
  C  C95  1  0.19610000  0.46484000  0.61889000  1.0
  C  C96  1  0.83949000  0.43089000  0.42423000  1.0
  C  C97  1  0.16051000  0.56910000  0.57577000  1.0
  C  C98  1  0.80049000  0.41142000  0.51486000  1.0
  C  C99  1  0.19951000  0.58858000  0.48514000  1.0
  C  C100  1  0.72688000  0.49657000  0.57133000  1.0
  C  C101  1  0.27313000  0.50343000  0.42867000  1.0
  C  C102  1  0.68474000  0.47896000  0.66519000  1.0
  C  C103  1  0.31526000  0.52104000  0.33481000  1.0
  C  C104  1  0.61846000  0.56754000  0.71806000  1.0
  C  C105  1  0.38155000  0.43247000  0.28194000  1.0
  C  C106  1  0.59334000  0.67273000  0.67690000  1.0
  C  C107  1  0.40667000  0.32727000  0.32310000  1.0
  C  C108  1  0.69383000  0.60375000  0.53346000  1.0
  C  C109  1  0.30617000  0.39625000  0.46654000  1.0
  C  C110  1  0.73039000  0.62194000  0.43476000  1.0
  C  C111  1  0.26961000  0.37806000  0.56525000  1.0
  N  N112  1  0.62881000  0.68957000  0.58671000  1.0
  N  N113  1  0.37119000  0.31043000  0.41330000  1.0
  N  N114  1  0.69378000  0.72172000  0.39710000  1.0
  N  N115  1  0.30622000  0.27827000  0.60290000  1.0
  O  O116  1  0.40813000  0.82525000  0.34094000  1.0
  O  O117  1  0.59186000  0.17475000  0.65906000  1.0
  O  O118  1  0.29527000  0.99040000  0.31851000  1.0
  O  O119  1  0.70473000  0.00961000  0.68147000  1.0
  O  O120  1  0.85891000  0.75223000  0.98697000  1.0
  O  O121  1  0.14109000  0.24777000  0.01303000  1.0
  O  O122  1  0.40450000  0.84643000  0.59713000  1.0
  O  O123  1  0.59551000  0.15356000  0.40287000  1.0
  O  O124  1  0.29417000  0.00665000  0.55779000  1.0
  O  O125  1  0.70583000  0.99335000  0.44220000  1.0
