# generated using pymatgen
data_ZnPH5C5NClO3
_symmetry_space_group_name_H-M   'P 1'
_cell_length_a   4.93449000
_cell_length_b   8.28708000
_cell_length_c   20.88680000
_cell_angle_alpha   89.99990000
_cell_angle_beta   90.00000000
_cell_angle_gamma   103.78600000
_symmetry_Int_Tables_number   1
_chemical_formula_structural   ZnPH5C5NClO3
_chemical_formula_sum   'Zn4 P4 H20 C20 N4 Cl4 O12'
_cell_volume   829.50889728
_cell_formula_units_Z   4
loop_
 _symmetry_equiv_pos_site_id
 _symmetry_equiv_pos_as_xyz
  1  'x, y, z'
loop_
 _atom_site_type_symbol
 _atom_site_label
 _atom_site_symmetry_multiplicity
 _atom_site_fract_x
 _atom_site_fract_y
 _atom_site_fract_z
 _atom_site_occupancy
  Zn  Zn0  1  0.70021000  0.66967000  0.82084000  1.0
  Zn  Zn1  1  0.79979000  0.83033000  0.32084000  1.0
  Zn  Zn2  1  0.29979000  0.33033000  0.17916000  1.0
  Zn  Zn3  1  0.20021000  0.16967000  0.67916000  1.0
  P  P4  1  0.10225000  0.42310000  0.80239000  1.0
  P  P5  1  0.39775000  0.07690000  0.30239000  1.0
  P  P6  1  0.89775000  0.57690000  0.19761000  1.0
  P  P7  1  0.60225000  0.92310000  0.69761000  1.0
  H  H8  1  0.04713000  0.44477000  0.94405000  1.0
  H  H9  1  0.45287000  0.05523000  0.44405000  1.0
  H  H10  1  0.95288000  0.55523000  0.05594000  1.0
  H  H11  1  0.54713000  0.94477000  0.55595000  1.0
  H  H12  1  0.66980000  0.29165000  0.01934000  1.0
  H  H13  1  0.83019000  0.20836000  0.51934000  1.0
  H  H14  1  0.33019000  0.70836000  0.98066000  1.0
  H  H15  1  0.16981000  0.79165000  0.48066000  1.0
  H  H16  1  0.27708000  0.07369000  0.97462000  1.0
  H  H17  1  0.22292000  0.42631000  0.47462000  1.0
  H  H18  1  0.72291000  0.92631000  0.02538000  1.0
  H  H19  1  0.77709000  0.57369000  0.52538000  1.0
  H  H20  1  0.27792000  0.00802000  0.85690000  1.0
  H  H21  1  0.22208000  0.49197000  0.35690000  1.0
  H  H22  1  0.72207000  0.99197000  0.14310000  1.0
  H  H23  1  0.77792000  0.50802000  0.64310000  1.0
  H  H24  1  0.62111000  0.15783000  0.79191000  1.0
  H  H25  1  0.87890000  0.34217000  0.29191000  1.0
  H  H26  1  0.37889000  0.84217000  0.20809000  1.0
  H  H27  1  0.12110000  0.65783000  0.70809000  1.0
  C  C28  1  0.85631000  0.31136000  0.86198000  1.0
  C  C29  1  0.64369000  0.18864000  0.36198000  1.0
  C  C30  1  0.14369000  0.68864000  0.13802000  1.0
  C  C31  1  0.35631000  0.81136000  0.63802000  1.0
  C  C32  1  0.87153000  0.34881000  0.92700000  1.0
  C  C33  1  0.62847000  0.15119000  0.42700000  1.0
  C  C34  1  0.12847000  0.65119000  0.07300000  1.0
  C  C35  1  0.37153000  0.84880000  0.57300000  1.0
  C  C36  1  0.66293000  0.26400000  0.96824000  1.0
  C  C37  1  0.83707000  0.23600000  0.46824000  1.0
  C  C38  1  0.33707000  0.73600000  0.03176000  1.0
  C  C39  1  0.16293000  0.76400000  0.53176000  1.0
  C  C40  1  0.44359000  0.14106000  0.94385000  1.0
  C  C41  1  0.05641000  0.35894000  0.44385000  1.0
  C  C42  1  0.55641000  0.85894000  0.05615000  1.0
  C  C43  1  0.94359000  0.64106000  0.55615000  1.0
  C  C44  1  0.43973000  0.10420000  0.87913000  1.0
  C  C45  1  0.06028000  0.39580000  0.37913000  1.0
  C  C46  1  0.56027000  0.89580000  0.12087000  1.0
  C  C47  1  0.93973000  0.60420000  0.62087000  1.0
  N  N48  1  0.64195000  0.18928000  0.84072000  1.0
  N  N49  1  0.85805000  0.31072000  0.34072000  1.0
  N  N50  1  0.35805000  0.81072000  0.15928000  1.0
  N  N51  1  0.14195000  0.68928000  0.65928000  1.0
  Cl  Cl52  1  0.85875000  0.80429000  0.90982000  1.0
  Cl  Cl53  1  0.64126000  0.69572000  0.40982000  1.0
  Cl  Cl54  1  0.14126000  0.19572000  0.09018000  1.0
  Cl  Cl55  1  0.35874000  0.30428000  0.59018000  1.0
  O  O56  1  0.97206000  0.56249000  0.77674000  1.0
  O  O57  1  0.52794000  0.93751000  0.27674000  1.0
  O  O58  1  0.02794000  0.43751000  0.22326000  1.0
  O  O59  1  0.47207000  0.06249000  0.72326000  1.0
  O  O60  1  0.37220000  0.48766000  0.83950000  1.0
  O  O61  1  0.12780000  0.01234000  0.33950000  1.0
  O  O62  1  0.62779000  0.51234000  0.16050000  1.0
  O  O63  1  0.87220000  0.98766000  0.66050000  1.0
  O  O64  1  0.10867000  0.29430000  0.75133000  1.0
  O  O65  1  0.39134000  0.20570000  0.25133000  1.0
  O  O66  1  0.89134000  0.70570000  0.24867000  1.0
  O  O67  1  0.60867000  0.79430000  0.74867000  1.0
