# generated using pymatgen
data_AlH9C21N(O2F)3
_symmetry_space_group_name_H-M   'P 1'
_cell_length_a   4.10854000
_cell_length_b   13.49615399
_cell_length_c   13.49600000
_cell_angle_alpha   59.99913234
_cell_angle_beta   89.99960000
_cell_angle_gamma   90.00029999
_symmetry_Int_Tables_number   1
_chemical_formula_structural   AlH9C21N(O2F)3
_chemical_formula_sum   'Al1 H9 C21 N1 O6 F3'
_cell_volume   648.08123767
_cell_formula_units_Z   1
loop_
 _symmetry_equiv_pos_site_id
 _symmetry_equiv_pos_as_xyz
  1  'x, y, z'
loop_
 _atom_site_type_symbol
 _atom_site_label
 _atom_site_symmetry_multiplicity
 _atom_site_fract_x
 _atom_site_fract_y
 _atom_site_fract_z
 _atom_site_occupancy
  Al  Al0  1  0.98707000  0.50000000  0.00000000  1.0
  H  H1  1  0.79068000  0.21220000  0.97192000  1.0
  H  H2  1  0.79184000  0.10388000  0.86938000  1.0
  H  H3  1  0.21460000  0.36984000  0.60023000  1.0
  H  H4  1  0.21455000  0.02993000  0.86985000  1.0
  H  H5  1  0.79069000  0.81589000  0.71220000  1.0
  H  H6  1  0.79184000  0.02675000  0.60388000  1.0
  H  H7  1  0.21455000  0.10024000  0.52993000  1.0
  H  H8  1  0.79074000  0.47190000  0.31589000  1.0
  H  H9  1  0.79189000  0.36936000  0.52675000  1.0
  C  C10  1  0.48830000  0.67469000  0.91577000  1.0
  C  C11  1  0.48827000  0.40955000  0.17468000  1.0
  C  C12  1  0.48829000  0.41578000  0.90954000  1.0
  C  C13  1  0.66022000  0.24567000  0.89109000  1.0
  C  C14  1  0.66403000  0.18514000  0.83265000  1.0
  C  C15  1  0.50439000  0.22776000  0.72695000  1.0
  C  C16  1  0.34135000  0.33292000  0.68162000  1.0
  C  C17  1  0.34253000  0.39147000  0.74152000  1.0
  C  C18  1  0.49736000  0.35053000  0.84664000  1.0
  C  C19  1  0.34135000  0.98544000  0.83293000  1.0
  C  C20  1  0.34249000  0.86703000  0.89147000  1.0
  C  C21  1  0.49736000  0.80283000  0.85053000  1.0
  C  C22  1  0.66023000  0.86325000  0.74567000  1.0
  C  C23  1  0.66404000  0.98221000  0.68514000  1.0
  C  C24  1  0.50437000  0.04530000  0.72777000  1.0
  C  C25  1  0.34131000  0.18162000  0.48547000  1.0
  C  C26  1  0.34248000  0.24152000  0.36701000  1.0
  C  C27  1  0.49736000  0.34664000  0.30283000  1.0
  C  C28  1  0.66025000  0.39108000  0.36325000  1.0
  C  C29  1  0.66406000  0.33264000  0.48221000  1.0
  C  C30  1  0.50439000  0.22694000  0.54530000  1.0
  N  N31  1  0.50765000  0.16667000  0.66666000  1.0
  O  O32  1  0.24873000  0.39586000  0.97671000  1.0
  O  O33  1  0.24872000  0.62744000  0.89585000  1.0
  O  O34  1  0.24874000  0.47670000  0.12745000  1.0
  O  O35  1  0.72116000  0.48462000  0.89198000  1.0
  O  O36  1  0.72114000  0.39198000  0.12341000  1.0
  O  O37  1  0.72115000  0.62341000  0.98462000  1.0
  F  F38  1  0.18196000  0.49336000  0.69516000  1.0
  F  F39  1  0.18193000  0.81148000  0.99336000  1.0
  F  F40  1  0.18190000  0.19517000  0.31149000  1.0
