# generated using pymatgen
data_CaH10C12N2(ClO3)2
_symmetry_space_group_name_H-M   'P 1'
_cell_length_a   7.80055000
_cell_length_b   10.75090000
_cell_length_c   10.81380000
_cell_angle_alpha   98.90870000
_cell_angle_beta   98.06440000
_cell_angle_gamma   97.12360000
_symmetry_Int_Tables_number   1
_chemical_formula_structural   CaH10C12N2(ClO3)2
_chemical_formula_sum   'Ca2 H20 C24 N4 Cl4 O12'
_cell_volume   877.17620083
_cell_formula_units_Z   2
loop_
 _symmetry_equiv_pos_site_id
 _symmetry_equiv_pos_as_xyz
  1  'x, y, z'
loop_
 _atom_site_type_symbol
 _atom_site_label
 _atom_site_symmetry_multiplicity
 _atom_site_fract_x
 _atom_site_fract_y
 _atom_site_fract_z
 _atom_site_occupancy
  Ca  Ca0  1  0.75329000  0.97978000  0.54552000  1.0
  Ca  Ca1  1  0.24671000  0.02022000  0.45448000  1.0
  H  H2  1  0.98265000  0.79392000  0.56794000  1.0
  H  H3  1  0.01734000  0.20608000  0.43206000  1.0
  H  H4  1  0.79816000  0.70785000  0.53750000  1.0
  H  H5  1  0.20184000  0.29215000  0.46250000  1.0
  H  H6  1  0.71375000  0.02490000  0.81950000  1.0
  H  H7  1  0.28625000  0.97509000  0.18050000  1.0
  H  H8  1  0.56225000  0.08345000  0.74188000  1.0
  H  H9  1  0.43775000  0.91655000  0.25813000  1.0
  H  H10  1  0.02780000  0.27600000  0.82684000  1.0
  H  H11  1  0.97220000  0.72401000  0.17317000  1.0
  H  H12  1  0.00259000  0.32778000  0.05920000  1.0
  H  H13  1  0.99742000  0.67221000  0.94081000  1.0
  H  H14  1  0.12723000  0.19093000  0.20667000  1.0
  H  H15  1  0.87278000  0.80906000  0.79333000  1.0
  H  H16  1  0.45975000  0.24313000  0.24972000  1.0
  H  H17  1  0.54025000  0.75687000  0.75028000  1.0
  H  H18  1  0.42268000  0.44789000  0.17003000  1.0
  H  H19  1  0.57732000  0.55211000  0.82996000  1.0
  H  H20  1  0.58156000  0.65384000  0.30630000  1.0
  H  H21  1  0.41843000  0.34616000  0.69369000  1.0
  C  C22  1  0.18993000  0.09003000  0.71640000  1.0
  C  C23  1  0.81008000  0.90997000  0.28360000  1.0
  C  C24  1  0.22780000  0.04739000  0.94311000  1.0
  C  C25  1  0.77220000  0.95261000  0.05689000  1.0
  C  C26  1  0.16874000  0.11990000  0.85326000  1.0
  C  C27  1  0.83126000  0.88010000  0.14674000  1.0
  C  C28  1  0.08371000  0.22162000  0.89549000  1.0
  C  C29  1  0.91629000  0.77838000  0.10451000  1.0
  C  C30  1  0.06881000  0.24958000  0.02339000  1.0
  C  C31  1  0.93120000  0.75042000  0.97661000  1.0
  C  C32  1  0.13612000  0.17315000  0.10551000  1.0
  C  C33  1  0.86389000  0.82684000  0.89450000  1.0
  C  C34  1  0.66544000  0.21195000  0.45964000  1.0
  C  C35  1  0.33456000  0.78805000  0.54036000  1.0
  C  C36  1  0.72540000  0.45486000  0.48167000  1.0
  C  C37  1  0.27460000  0.54514000  0.51833000  1.0
  C  C38  1  0.64195000  0.33532000  0.41516000  1.0
  C  C39  1  0.35804000  0.66468000  0.58484000  1.0
  C  C40  1  0.53018000  0.33416000  0.30192000  1.0
  C  C41  1  0.46982000  0.66584000  0.69808000  1.0
  C  C42  1  0.50891000  0.44751000  0.25840000  1.0
  C  C43  1  0.49109000  0.55249000  0.74160000  1.0
  C  C44  1  0.59613000  0.56119000  0.33281000  1.0
  C  C45  1  0.40387000  0.43881000  0.66718000  1.0
  N  N46  1  0.21311000  0.07220000  0.06513000  1.0
  N  N47  1  0.78689000  0.92780000  0.93487000  1.0
  N  N48  1  0.70088000  0.56390000  0.44340000  1.0
  N  N49  1  0.29911000  0.43610000  0.55660000  1.0
  Cl  Cl50  1  0.31874000  0.91217000  0.89446000  1.0
  Cl  Cl51  1  0.68126000  0.08783000  0.10554000  1.0
  Cl  Cl52  1  0.86398000  0.46828000  0.62510000  1.0
  Cl  Cl53  1  0.13602000  0.53173000  0.37490000  1.0
  O  O54  1  0.05318000  0.05157000  0.63505000  1.0
  O  O55  1  0.94682000  0.94843000  0.36495000  1.0
  O  O56  1  0.34265000  0.10740000  0.68787000  1.0
  O  O57  1  0.65735000  0.89260000  0.31213000  1.0
  O  O58  1  0.81964000  0.18681000  0.48537000  1.0
  O  O59  1  0.18036000  0.81320000  0.51464000  1.0
  O  O60  1  0.52978000  0.13769000  0.46785000  1.0
  O  O61  1  0.47022000  0.86231000  0.53215000  1.0
  O  O62  1  0.86143000  0.79166000  0.58684000  1.0
  O  O63  1  0.13857000  0.20834000  0.41316000  1.0
  O  O64  1  0.68538000  0.06852000  0.74590000  1.0
  O  O65  1  0.31463000  0.93147000  0.25410000  1.0
