# generated using pymatgen
data_CuH20C20S2(NCl)2
_symmetry_space_group_name_H-M   'P 1'
_cell_length_a   7.93041000
_cell_length_b   9.95528000
_cell_length_c   12.86390000
_cell_angle_alpha   89.99990000
_cell_angle_beta   91.15330000
_cell_angle_gamma   89.99990000
_symmetry_Int_Tables_number   1
_chemical_formula_structural   CuH20C20S2(NCl)2
_chemical_formula_sum   'Cu2 H40 C40 S4 N4 Cl4'
_cell_volume   1015.39211750
_cell_formula_units_Z   2
loop_
 _symmetry_equiv_pos_site_id
 _symmetry_equiv_pos_as_xyz
  1  'x, y, z'
loop_
 _atom_site_type_symbol
 _atom_site_label
 _atom_site_symmetry_multiplicity
 _atom_site_fract_x
 _atom_site_fract_y
 _atom_site_fract_z
 _atom_site_occupancy
  Cu  Cu0  1  0.50000000  0.50000000  0.50000000  1.0
  Cu  Cu1  1  0.00000000  0.00000000  0.00000000  1.0
  H  H2  1  0.82134000  0.37817000  0.44147000  1.0
  H  H3  1  0.32134000  0.12184000  0.94146000  1.0
  H  H4  1  0.17866000  0.62184000  0.55853000  1.0
  H  H5  1  0.67865000  0.87816000  0.05854000  1.0
  H  H6  1  0.92069000  0.18284000  0.33653000  1.0
  H  H7  1  0.42069000  0.31717000  0.83653000  1.0
  H  H8  1  0.07930000  0.81716000  0.66347000  1.0
  H  H9  1  0.57930000  0.68283000  0.16347000  1.0
  H  H10  1  0.70646000  0.03959000  0.24399000  1.0
  H  H11  1  0.20646000  0.46042000  0.74399000  1.0
  H  H12  1  0.29354000  0.96041000  0.75601000  1.0
  H  H13  1  0.79354000  0.53958000  0.25601000  1.0
  H  H14  1  0.39839000  0.10475000  0.25447000  1.0
  H  H15  1  0.89838000  0.39526000  0.75446000  1.0
  H  H16  1  0.60161000  0.89525000  0.74554000  1.0
  H  H17  1  0.10161000  0.60475000  0.24554000  1.0
  H  H18  1  0.18877000  0.23494000  0.32592000  1.0
  H  H19  1  0.68877000  0.26507000  0.82592000  1.0
  H  H20  1  0.81123000  0.76506000  0.67407000  1.0
  H  H21  1  0.31123000  0.73494000  0.17408000  1.0
  H  H22  1  0.24828000  0.40688000  0.31191000  1.0
  H  H23  1  0.74828000  0.09312000  0.81191000  1.0
  H  H24  1  0.75172000  0.59312000  0.68809000  1.0
  H  H25  1  0.25172000  0.90688000  0.18809000  1.0
  H  H26  1  0.37814000  0.17339000  0.53904000  1.0
  H  H27  1  0.87814000  0.32661000  0.03903000  1.0
  H  H28  1  0.62186000  0.82661000  0.46096000  1.0
  H  H29  1  0.12186000  0.67340000  0.96096000  1.0
  H  H30  1  0.24535000  0.23039000  0.63790000  1.0
  H  H31  1  0.74535000  0.26961000  0.13790000  1.0
  H  H32  1  0.75465000  0.76960000  0.36210000  1.0
  H  H33  1  0.25465000  0.73040000  0.86210000  1.0
  H  H34  1  0.92735000  0.18116000  0.62404000  1.0
  H  H35  1  0.42735000  0.31884000  0.12404000  1.0
  H  H36  1  0.07265000  0.81883000  0.37596000  1.0
  H  H37  1  0.57265000  0.68117000  0.87596000  1.0
  H  H38  1  0.28497000  0.99059000  0.42366000  1.0
  H  H39  1  0.78497000  0.50941000  0.92366000  1.0
  H  H40  1  0.71503000  0.00940000  0.57634000  1.0
  H  H41  1  0.21503000  0.49060000  0.07633000  1.0
  C  C42  1  0.73246000  0.31594000  0.39731000  1.0
  C  C43  1  0.23246000  0.18406000  0.89730000  1.0
  C  C44  1  0.26754000  0.68406000  0.60269000  1.0
  C  C45  1  0.76753000  0.81594000  0.10270000  1.0
  C  C46  1  0.78703000  0.20640000  0.34007000  1.0
  C  C47  1  0.28703000  0.29360000  0.84006000  1.0
  C  C48  1  0.21297000  0.79360000  0.65993000  1.0
  C  C49  1  0.71297000  0.70640000  0.15994000  1.0
  C  C50  1  0.66708000  0.12692000  0.28860000  1.0
  C  C51  1  0.16708000  0.37308000  0.78859000  1.0
  C  C52  1  0.33292000  0.87308000  0.71141000  1.0
  C  C53  1  0.83292000  0.62692000  0.21141000  1.0
  C  C54  1  0.49743000  0.16152000  0.29502000  1.0
  C  C55  1  0.99742000  0.33848000  0.79502000  1.0
  C  C56  1  0.50257000  0.83848000  0.70498000  1.0
  C  C57  1  0.00257000  0.66152000  0.20498000  1.0
  C  C58  1  0.45115000  0.27462000  0.35256000  1.0
  C  C59  1  0.95115000  0.22538000  0.85255000  1.0
  C  C60  1  0.54885000  0.72538000  0.64744000  1.0
  C  C61  1  0.04885000  0.77462000  0.14744000  1.0
  C  C62  1  0.26907000  0.31511000  0.35812000  1.0
  C  C63  1  0.76907000  0.18489000  0.85811000  1.0
  C  C64  1  0.73093000  0.68489000  0.64188000  1.0
  C  C65  1  0.23093000  0.81511000  0.14189000  1.0
  C  C66  1  0.24816000  0.20347000  0.55541000  1.0
  C  C67  1  0.74816000  0.29653000  0.05540000  1.0
  C  C68  1  0.75184000  0.79653000  0.44460000  1.0
  C  C69  1  0.25184000  0.70347000  0.94459000  1.0
  C  C70  1  0.12146000  0.09756000  0.52769000  1.0
  C  C71  1  0.62146000  0.40244000  0.02769000  1.0
  C  C72  1  0.87853000  0.90243000  0.47231000  1.0
  C  C73  1  0.37854000  0.59757000  0.97231000  1.0
  C  C74  1  0.96057000  0.10063000  0.57075000  1.0
  C  C75  1  0.46057000  0.39937000  0.07074000  1.0
  C  C76  1  0.03943000  0.89937000  0.42925000  1.0
  C  C77  1  0.53943000  0.60063000  0.92925000  1.0
  C  C78  1  0.15927000  0.99594000  0.45644000  1.0
  C  C79  1  0.65927000  0.50407000  0.95643000  1.0
  C  C80  1  0.84073000  0.00406000  0.54356000  1.0
  C  C81  1  0.34073000  0.49594000  0.04356000  1.0
  S  S82  1  0.20491000  0.36115000  0.48740000  1.0
  S  S83  1  0.70492000  0.13885000  0.98739000  1.0
  S  S84  1  0.79508000  0.63884000  0.51261000  1.0
  S  S85  1  0.29508000  0.86116000  0.01261000  1.0
  N  N86  1  0.56841000  0.34932000  0.40345000  1.0
  N  N87  1  0.06841000  0.15068000  0.90344000  1.0
  N  N88  1  0.43159000  0.65068000  0.59656000  1.0
  N  N89  1  0.93158000  0.84932000  0.09656000  1.0
  Cl  Cl90  1  0.60059000  0.36941000  0.64190000  1.0
  Cl  Cl91  1  0.10059000  0.13059000  0.14190000  1.0
  Cl  Cl92  1  0.39941000  0.63059000  0.35810000  1.0
  Cl  Cl93  1  0.89941000  0.86941000  0.85810000  1.0
