# generated using pymatgen
data_CoH20C22(NO2)2
_symmetry_space_group_name_H-M   'P 1'
_cell_length_a   8.79825000
_cell_length_b   10.15440000
_cell_length_c   11.68180000
_cell_angle_alpha   68.64240000
_cell_angle_beta   84.86500000
_cell_angle_gamma   78.06550000
_symmetry_Int_Tables_number   1
_chemical_formula_structural   CoH20C22(NO2)2
_chemical_formula_sum   'Co2 H40 C44 N4 O8'
_cell_volume   950.86489274
_cell_formula_units_Z   2
loop_
 _symmetry_equiv_pos_site_id
 _symmetry_equiv_pos_as_xyz
  1  'x, y, z'
loop_
 _atom_site_type_symbol
 _atom_site_label
 _atom_site_symmetry_multiplicity
 _atom_site_fract_x
 _atom_site_fract_y
 _atom_site_fract_z
 _atom_site_occupancy
  Co  Co0  1  0.35806000  0.84324000  0.05689000  1.0
  Co  Co1  1  0.64193000  0.15675000  0.94312000  1.0
  H  H2  1  0.37753000  0.39585000  0.02884000  1.0
  H  H3  1  0.62246000  0.60414000  0.97116000  1.0
  H  H4  1  0.01779000  0.14482000  0.16810000  1.0
  H  H5  1  0.98220000  0.85518000  0.83190000  1.0
  H  H6  1  0.96007000  0.56967000  0.18618000  1.0
  H  H7  1  0.03992000  0.43033000  0.81382000  1.0
  H  H8  1  0.72042000  0.38372000  0.17185000  1.0
  H  H9  1  0.27957000  0.61627000  0.82816000  1.0
  H  H10  1  0.78289000  0.39427000  0.30833000  1.0
  H  H11  1  0.21711000  0.60572000  0.69167000  1.0
  H  H12  1  0.80524000  0.22502000  0.28966000  1.0
  H  H13  1  0.19476000  0.77497000  0.71034000  1.0
  H  H14  1  0.46798000  0.84146000  0.80799000  1.0
  H  H15  1  0.53203000  0.15854000  0.19201000  1.0
  H  H16  1  0.40397000  0.97841000  0.58879000  1.0
  H  H17  1  0.59604000  0.02160000  0.41121000  1.0
  H  H18  1  0.99858000  0.21660000  0.71247000  1.0
  H  H19  1  0.00143000  0.78341000  0.28752000  1.0
  H  H20  1  0.07994000  0.07294000  0.92388000  1.0
  H  H21  1  0.92005000  0.92707000  0.07612000  1.0
  H  H22  1  0.06175000  0.29299000  0.49326000  1.0
  H  H23  1  0.93826000  0.70702000  0.50674000  1.0
  H  H24  1  0.09131000  0.13141000  0.46449000  1.0
  H  H25  1  0.90869000  0.86860000  0.53551000  1.0
  H  H26  1  0.37768000  0.14946000  0.41713000  1.0
  H  H27  1  0.62232000  0.85054000  0.58287000  1.0
  H  H28  1  0.23954000  0.27234000  0.31214000  1.0
  H  H29  1  0.76047000  0.72766000  0.68786000  1.0
  H  H30  1  0.43080000  0.39949000  0.33225000  1.0
  H  H31  1  0.56920000  0.60050000  0.66775000  1.0
  H  H32  1  0.25306000  0.46398000  0.39388000  1.0
  H  H33  1  0.74695000  0.53603000  0.60611000  1.0
  H  H34  1  0.36046000  0.36293000  0.81256000  1.0
  H  H35  1  0.63955000  0.63706000  0.18744000  1.0
  H  H36  1  0.23205000  0.44353000  0.60916000  1.0
  H  H37  1  0.76796000  0.55647000  0.39084000  1.0
  H  H38  1  0.64501000  0.22192000  0.48195000  1.0
  H  H39  1  0.35501000  0.77808000  0.51805000  1.0
  H  H40  1  0.75459000  0.14855000  0.69134000  1.0
  H  H41  1  0.24541000  0.85145000  0.30866000  1.0
  C  C42  1  0.17337000  0.49568000  0.10506000  1.0
  C  C43  1  0.82662000  0.50431000  0.89494000  1.0
  C  C44  1  0.26289000  0.38438000  0.07069000  1.0
  C  C45  1  0.73710000  0.61562000  0.92932000  1.0
  C  C46  1  0.20584000  0.25801000  0.09376000  1.0
  C  C47  1  0.79415000  0.74199000  0.90624000  1.0
  C  C48  1  0.05974000  0.24434000  0.15048000  1.0
  C  C49  1  0.94026000  0.75565000  0.84952000  1.0
  C  C50  1  0.96859000  0.35512000  0.18408000  1.0
  C  C51  1  0.03141000  0.64486000  0.81593000  1.0
  C  C52  1  0.02717000  0.48076000  0.16096000  1.0
  C  C53  1  0.97281000  0.51923000  0.83904000  1.0
  C  C54  1  0.23592000  0.62867000  0.08455000  1.0
  C  C55  1  0.76407000  0.37133000  0.91545000  1.0
  C  C56  1  0.30051000  0.13573000  0.06123000  1.0
  C  C57  1  0.69947000  0.86427000  0.93878000  1.0
  C  C58  1  0.81117000  0.33893000  0.24212000  1.0
  C  C59  1  0.18883000  0.66106000  0.75788000  1.0
  C  C60  1  0.36559000  0.92681000  0.78237000  1.0
  C  C61  1  0.63441000  0.07319000  0.21763000  1.0
  C  C62  1  0.32796000  0.00339000  0.65996000  1.0
  C  C63  1  0.67205000  0.99661000  0.34005000  1.0
  C  C64  1  0.19514000  0.11191000  0.62886000  1.0
  C  C65  1  0.80486000  0.88809000  0.37114000  1.0
  C  C66  1  0.10403000  0.13451000  0.72699000  1.0
  C  C67  1  0.89597000  0.86550000  0.27301000  1.0
  C  C68  1  0.14919000  0.05369000  0.84750000  1.0
  C  C69  1  0.85081000  0.94632000  0.15250000  1.0
  C  C70  1  0.15012000  0.19728000  0.49681000  1.0
  C  C71  1  0.84988000  0.80273000  0.50320000  1.0
  C  C72  1  0.28256000  0.24245000  0.40499000  1.0
  C  C73  1  0.71744000  0.75755000  0.59501000  1.0
  C  C74  1  0.34793000  0.36996000  0.40944000  1.0
  C  C75  1  0.65208000  0.63004000  0.59055000  1.0
  C  C76  1  0.41924000  0.33497000  0.73616000  1.0
  C  C77  1  0.58076000  0.66502000  0.26384000  1.0
  C  C78  1  0.34915000  0.37905000  0.62292000  1.0
  C  C79  1  0.65086000  0.62096000  0.37708000  1.0
  C  C80  1  0.42633000  0.33711000  0.52830000  1.0
  C  C81  1  0.57368000  0.66290000  0.47170000  1.0
  C  C82  1  0.57715000  0.25590000  0.55261000  1.0
  C  C83  1  0.42287000  0.74411000  0.44739000  1.0
  C  C84  1  0.63978000  0.21571000  0.66819000  1.0
  C  C85  1  0.36023000  0.78428000  0.33181000  1.0
  N  N86  1  0.27915000  0.95164000  0.87610000  1.0
  N  N87  1  0.72085000  0.04836000  0.12390000  1.0
  N  N88  1  0.56143000  0.25189000  0.76028000  1.0
  N  N89  1  0.43857000  0.74811000  0.23972000  1.0
  O  O90  1  0.16103000  0.72675000  0.12333000  1.0
  O  O91  1  0.83898000  0.27325000  0.87667000  1.0
  O  O92  1  0.36705000  0.64271000  0.02934000  1.0
  O  O93  1  0.63293000  0.35729000  0.97067000  1.0
  O  O94  1  0.42189000  0.15638000  0.99490000  1.0
  O  O95  1  0.57810000  0.84361000  0.00510000  1.0
  O  O96  1  0.25244000  0.01613000  0.10179000  1.0
  O  O97  1  0.74757000  0.98386000  0.89821000  1.0
