# generated using pymatgen
data_PrH11C11O9
_symmetry_space_group_name_H-M   'P 1'
_cell_length_a   7.83804000
_cell_length_b   12.34900000
_cell_length_c   13.01500000
_cell_angle_alpha   89.65340000
_cell_angle_beta   90.00000000
_cell_angle_gamma   89.99990000
_symmetry_Int_Tables_number   1
_chemical_formula_structural   PrH11C11O9
_chemical_formula_sum   'Pr4 H44 C44 O36'
_cell_volume   1259.72425719
_cell_formula_units_Z   4
loop_
 _symmetry_equiv_pos_site_id
 _symmetry_equiv_pos_as_xyz
  1  'x, y, z'
loop_
 _atom_site_type_symbol
 _atom_site_label
 _atom_site_symmetry_multiplicity
 _atom_site_fract_x
 _atom_site_fract_y
 _atom_site_fract_z
 _atom_site_occupancy
  Pr  Pr0  1  0.07422000  0.97539000  0.31100000  1.0
  Pr  Pr1  1  0.57422000  0.02461000  0.18900000  1.0
  Pr  Pr2  1  0.92578000  0.02461000  0.68900000  1.0
  Pr  Pr3  1  0.42578000  0.97539000  0.81100000  1.0
  H  H4  1  0.56451000  0.57499000  0.09801000  1.0
  H  H5  1  0.06451000  0.42501000  0.40199000  1.0
  H  H6  1  0.43549000  0.42501000  0.90199000  1.0
  H  H7  1  0.93549000  0.57499000  0.59801000  1.0
  H  H8  1  0.37294000  0.73524000  0.10115000  1.0
  H  H9  1  0.87294000  0.26476000  0.39885000  1.0
  H  H10  1  0.62706000  0.26476000  0.89885000  1.0
  H  H11  1  0.12706000  0.73524000  0.60115000  1.0
  H  H12  1  0.94012000  0.52220000  0.13949000  1.0
  H  H13  1  0.44012000  0.47780000  0.36051000  1.0
  H  H14  1  0.05988000  0.47780000  0.86051000  1.0
  H  H15  1  0.55988000  0.52220000  0.63949000  1.0
  H  H16  1  0.44607000  0.38746000  0.11758000  1.0
  H  H17  1  0.94607000  0.61254000  0.38242000  1.0
  H  H18  1  0.55393000  0.61254000  0.88242000  1.0
  H  H19  1  0.05393000  0.38746000  0.61758000  1.0
  H  H20  1  0.89051000  0.34009000  0.07062000  1.0
  H  H21  1  0.39051000  0.65991000  0.42938000  1.0
  H  H22  1  0.10949000  0.65991000  0.92938000  1.0
  H  H23  1  0.60949000  0.34009000  0.57062000  1.0
  H  H24  1  0.89399000  0.36807000  0.20518000  1.0
  H  H25  1  0.39399000  0.63193000  0.29482000  1.0
  H  H26  1  0.10602000  0.63193000  0.79482000  1.0
  H  H27  1  0.60601000  0.36807000  0.70518000  1.0
  H  H28  1  0.82866000  0.67190000  0.19675000  1.0
  H  H29  1  0.32866000  0.32810000  0.30325000  1.0
  H  H30  1  0.17134000  0.32810000  0.80325000  1.0
  H  H31  1  0.67134000  0.67190000  0.69675000  1.0
  H  H32  1  0.82055000  0.67782000  0.05888000  1.0
  H  H33  1  0.32055000  0.32218000  0.44112000  1.0
  H  H34  1  0.17945000  0.32218000  0.94112000  1.0
  H  H35  1  0.67945000  0.67782000  0.55888000  1.0
  H  H36  1  0.41183000  0.93228000  0.54244000  1.0
  H  H37  1  0.91183000  0.06772000  0.95756000  1.0
  H  H38  1  0.58817000  0.06772000  0.45756000  1.0
  H  H39  1  0.08817000  0.93228000  0.04244000  1.0
  H  H40  1  0.89620000  0.82542000  0.46579000  1.0
  H  H41  1  0.39620000  0.17458000  0.03421000  1.0
  H  H42  1  0.10380000  0.17458000  0.53421000  1.0
  H  H43  1  0.60380000  0.82542000  0.96579000  1.0
  H  H44  1  0.77601000  0.82167000  0.36821000  1.0
  H  H45  1  0.27601000  0.17833000  0.13179000  1.0
  H  H46  1  0.22399000  0.17833000  0.63179000  1.0
  H  H47  1  0.72399000  0.82167000  0.86821000  1.0
  C  C48  1  0.42780000  0.56341000  0.10797000  1.0
  C  C49  1  0.92780000  0.43659000  0.39203000  1.0
  C  C50  1  0.57220000  0.43659000  0.89203000  1.0
  C  C51  1  0.07220000  0.56341000  0.60797000  1.0
  C  C52  1  0.32150000  0.65377000  0.10879000  1.0
  C  C53  1  0.82150000  0.34623000  0.39121000  1.0
  C  C54  1  0.67850000  0.34623000  0.89121000  1.0
  C  C55  1  0.17851000  0.65377000  0.60879000  1.0
  C  C56  1  0.14590000  0.63826000  0.12206000  1.0
  C  C57  1  0.64590000  0.36174000  0.37794000  1.0
  C  C58  1  0.85410000  0.36174000  0.87794000  1.0
  C  C59  1  0.35410000  0.63826000  0.62206000  1.0
  C  C60  1  0.07667000  0.53400000  0.13103000  1.0
  C  C61  1  0.57667000  0.46601000  0.36897000  1.0
  C  C62  1  0.92333000  0.46600000  0.86897000  1.0
  C  C63  1  0.42333000  0.53399000  0.63103000  1.0
  C  C64  1  0.18744000  0.44475000  0.12968000  1.0
  C  C65  1  0.68744000  0.55525000  0.37033000  1.0
  C  C66  1  0.81256000  0.55525000  0.87033000  1.0
  C  C67  1  0.31256000  0.44475000  0.62967000  1.0
  C  C68  1  0.36384000  0.45861000  0.11898000  1.0
  C  C69  1  0.86384000  0.54139000  0.38102000  1.0
  C  C70  1  0.63616000  0.54139000  0.88102000  1.0
  C  C71  1  0.13616000  0.45861000  0.61898000  1.0
  C  C72  1  0.95332000  0.31994000  0.14400000  1.0
  C  C73  1  0.45332000  0.68006000  0.35600000  1.0
  C  C74  1  0.04668000  0.68006000  0.85600000  1.0
  C  C75  1  0.54668000  0.31994000  0.64400000  1.0
  C  C76  1  0.91865000  0.20180000  0.16992000  1.0
  C  C77  1  0.41866000  0.79820000  0.33008000  1.0
  C  C78  1  0.08134000  0.79820000  0.83008000  1.0
  C  C79  1  0.58134000  0.20180000  0.66992000  1.0
  C  C80  1  0.86892000  0.71859000  0.12809000  1.0
  C  C81  1  0.36892000  0.28141000  0.37192000  1.0
  C  C82  1  0.13108000  0.28141000  0.87192000  1.0
  C  C83  1  0.63108000  0.71859000  0.62808000  1.0
  C  C84  1  0.78488000  0.82849000  0.13693000  1.0
  C  C85  1  0.28488000  0.17151000  0.36308000  1.0
  C  C86  1  0.21512000  0.17151000  0.86307000  1.0
  C  C87  1  0.71512000  0.82849000  0.63692000  1.0
  C  C88  1  0.27596000  0.94639000  0.56073000  1.0
  C  C89  1  0.77596000  0.05361000  0.93927000  1.0
  C  C90  1  0.72404000  0.05361000  0.43927000  1.0
  C  C91  1  0.22404000  0.94639000  0.06073000  1.0
  O  O92  1  0.13249000  0.33956000  0.13862000  1.0
  O  O93  1  0.63249000  0.66044000  0.36138000  1.0
  O  O94  1  0.86751000  0.66044000  0.86138000  1.0
  O  O95  1  0.36751000  0.33956000  0.63861000  1.0
  O  O96  1  0.76170000  0.17984000  0.17533000  1.0
  O  O97  1  0.26170000  0.82016000  0.32466000  1.0
  O  O98  1  0.23830000  0.82016000  0.82466000  1.0
  O  O99  1  0.73830000  0.17984000  0.67534000  1.0
  O  O100  1  0.04237000  0.13655000  0.18431000  1.0
  O  O101  1  0.54237000  0.86345000  0.31569000  1.0
  O  O102  1  0.95763000  0.86345000  0.81569000  1.0
  O  O103  1  0.45763000  0.13655000  0.68431000  1.0
  O  O104  1  0.04902000  0.73084000  0.12428000  1.0
  O  O105  1  0.54902000  0.26916000  0.37572000  1.0
  O  O106  1  0.95098000  0.26916000  0.87572000  1.0
  O  O107  1  0.45098000  0.73084000  0.62428000  1.0
  O  O108  1  0.86089000  0.90715000  0.18104000  1.0
  O  O109  1  0.36089000  0.09285000  0.31896000  1.0
  O  O110  1  0.13911000  0.09285000  0.81896000  1.0
  O  O111  1  0.63911000  0.90715000  0.68104000  1.0
  O  O112  1  0.63386000  0.83778000  0.10310000  1.0
  O  O113  1  0.13386000  0.16223000  0.39690000  1.0
  O  O114  1  0.36614000  0.16222000  0.89690000  1.0
  O  O115  1  0.86614000  0.83778000  0.60310000  1.0
  O  O116  1  0.16868000  0.95370000  0.48975000  1.0
  O  O117  1  0.66868000  0.04629000  0.01025000  1.0
  O  O118  1  0.83132000  0.04630000  0.51025000  1.0
  O  O119  1  0.33132000  0.95370000  0.98975000  1.0
  O  O120  1  0.89645000  0.82714000  0.38978000  1.0
  O  O121  1  0.39645000  0.17286000  0.11021000  1.0
  O  O122  1  0.10355000  0.17286000  0.61022000  1.0
  O  O123  1  0.60355000  0.82714000  0.88978000  1.0
  O  O124  1  0.23632000  0.95496000  0.65582000  1.0
  O  O125  1  0.73632000  0.04504000  0.84418000  1.0
  O  O126  1  0.76368000  0.04504000  0.34418000  1.0
  O  O127  1  0.26368000  0.95496000  0.15582000  1.0
