# generated using pymatgen
data_Sc2H15C24(NO4)3
_symmetry_space_group_name_H-M   'P 1'
_cell_length_a   13.95090000
_cell_length_b   13.95100000
_cell_length_c   13.95100000
_cell_angle_alpha   90.00030000
_cell_angle_beta   89.99990000
_cell_angle_gamma   89.99980000
_symmetry_Int_Tables_number   1
_chemical_formula_structural   Sc2H15C24(NO4)3
_chemical_formula_sum   'Sc8 H60 C96 N12 O48'
_cell_volume   2715.26926125
_cell_formula_units_Z   4
loop_
 _symmetry_equiv_pos_site_id
 _symmetry_equiv_pos_as_xyz
  1  'x, y, z'
loop_
 _atom_site_type_symbol
 _atom_site_label
 _atom_site_symmetry_multiplicity
 _atom_site_fract_x
 _atom_site_fract_y
 _atom_site_fract_z
 _atom_site_occupancy
  Sc  Sc0  1  0.40640000  0.59360000  0.90640000  1.0
  Sc  Sc1  1  0.59360000  0.90640000  0.40640000  1.0
  Sc  Sc2  1  0.09360000  0.09360000  0.09360000  1.0
  Sc  Sc3  1  0.90640000  0.40640000  0.59360000  1.0
  Sc  Sc4  1  0.33372000  0.83372000  0.16628000  1.0
  Sc  Sc5  1  0.66628000  0.66628000  0.66628000  1.0
  Sc  Sc6  1  0.16628000  0.33372000  0.83372000  1.0
  Sc  Sc7  1  0.83372000  0.16628000  0.33372000  1.0
  H  H8  1  0.23517000  0.95736000  0.97282000  1.0
  H  H9  1  0.76484000  0.54265000  0.47283000  1.0
  H  H10  1  0.26483000  0.45736000  0.02717000  1.0
  H  H11  1  0.73517000  0.04264000  0.52718000  1.0
  H  H12  1  0.95736000  0.97282000  0.23517000  1.0
  H  H13  1  0.04265000  0.52717000  0.73517000  1.0
  H  H14  1  0.54265000  0.47282000  0.76483000  1.0
  H  H15  1  0.45736000  0.02718000  0.26483000  1.0
  H  H16  1  0.97283000  0.23517000  0.95736000  1.0
  H  H17  1  0.52717000  0.73517000  0.04265000  1.0
  H  H18  1  0.47283000  0.76483000  0.54264000  1.0
  H  H19  1  0.02717000  0.26483000  0.45735000  1.0
  H  H20  1  0.23776000  0.09340000  0.69507000  1.0
  H  H21  1  0.76224000  0.40660000  0.19507000  1.0
  H  H22  1  0.26224000  0.59340000  0.30493000  1.0
  H  H23  1  0.73776000  0.90661000  0.80493000  1.0
  H  H24  1  0.09340000  0.69507000  0.23776000  1.0
  H  H25  1  0.90660000  0.80493000  0.73776000  1.0
  H  H26  1  0.40660000  0.19507000  0.76224000  1.0
  H  H27  1  0.59340000  0.30493000  0.26224000  1.0
  H  H28  1  0.69507000  0.23776000  0.09340000  1.0
  H  H29  1  0.80493000  0.73775000  0.90660000  1.0
  H  H30  1  0.19507000  0.76224000  0.40660000  1.0
  H  H31  1  0.30493000  0.26224000  0.59340000  1.0
  H  H32  1  0.40889000  0.83974000  0.74666000  1.0
  H  H33  1  0.59111000  0.66026000  0.24666000  1.0
  H  H34  1  0.09111000  0.33974000  0.25335000  1.0
  H  H35  1  0.90889000  0.16026000  0.75335000  1.0
  H  H36  1  0.83974000  0.74666000  0.40889000  1.0
  H  H37  1  0.16026000  0.75334000  0.90889000  1.0
  H  H38  1  0.66025000  0.24666000  0.59110000  1.0
  H  H39  1  0.33974000  0.25334000  0.09111000  1.0
  H  H40  1  0.74665000  0.40889000  0.83974000  1.0
  H  H41  1  0.75334000  0.90889000  0.16026000  1.0
  H  H42  1  0.24666000  0.59111000  0.66026000  1.0
  H  H43  1  0.25334000  0.09111000  0.33974000  1.0
  H  H44  1  0.39850000  0.91250000  0.58979000  1.0
  H  H45  1  0.60150000  0.58749000  0.08979000  1.0
  H  H46  1  0.10150000  0.41251000  0.41022000  1.0
  H  H47  1  0.89850000  0.08750000  0.91021000  1.0
  H  H48  1  0.91250000  0.58979000  0.39850000  1.0
  H  H49  1  0.08750000  0.91021000  0.89850000  1.0
  H  H50  1  0.58749000  0.08978000  0.60150000  1.0
  H  H51  1  0.41250000  0.41022000  0.10150000  1.0
  H  H52  1  0.58978000  0.39850000  0.91250000  1.0
  H  H53  1  0.91022000  0.89850000  0.08749000  1.0
  H  H54  1  0.08978000  0.60150000  0.58750000  1.0
  H  H55  1  0.41021000  0.10150000  0.41250000  1.0
  H  H56  1  0.34294000  0.01967000  0.56829000  1.0
  H  H57  1  0.65706000  0.48034000  0.06829000  1.0
  H  H58  1  0.15706000  0.51967000  0.43171000  1.0
  H  H59  1  0.84294000  0.98033000  0.93171000  1.0
  H  H60  1  0.01966000  0.56829000  0.34294000  1.0
  H  H61  1  0.98033000  0.93171000  0.84294000  1.0
  H  H62  1  0.48034000  0.06829000  0.65706000  1.0
  H  H63  1  0.51966000  0.43171000  0.15706000  1.0
  H  H64  1  0.56829000  0.34294000  0.01967000  1.0
  H  H65  1  0.93171000  0.84294000  0.98034000  1.0
  H  H66  1  0.06829000  0.65706000  0.48033000  1.0
  H  H67  1  0.43171000  0.15706000  0.51966000  1.0
  C  C68  1  0.32494000  0.89104000  0.86514000  1.0
  C  C69  1  0.67507000  0.60897000  0.36514000  1.0
  C  C70  1  0.17506000  0.39104000  0.13486000  1.0
  C  C71  1  0.82494000  0.10896000  0.63487000  1.0
  C  C72  1  0.89104000  0.86513000  0.32494000  1.0
  C  C73  1  0.10896000  0.63486000  0.82494000  1.0
  C  C74  1  0.60896000  0.36514000  0.67505000  1.0
  C  C75  1  0.39104000  0.13487000  0.17506000  1.0
  C  C76  1  0.86514000  0.32495000  0.89104000  1.0
  C  C77  1  0.63486000  0.82494000  0.10896000  1.0
  C  C78  1  0.36514000  0.67506000  0.60896000  1.0
  C  C79  1  0.13486000  0.17506000  0.39103000  1.0
  C  C80  1  0.22839000  0.03144000  0.83622000  1.0
  C  C81  1  0.77161000  0.46857000  0.33623000  1.0
  C  C82  1  0.27161000  0.53143000  0.16378000  1.0
  C  C83  1  0.72839000  0.96856000  0.66378000  1.0
  C  C84  1  0.03144000  0.83622000  0.22839000  1.0
  C  C85  1  0.96856000  0.66378000  0.72839000  1.0
  C  C86  1  0.46856000  0.33622000  0.77161000  1.0
  C  C87  1  0.53144000  0.16378000  0.27161000  1.0
  C  C88  1  0.83622000  0.22839000  0.03143000  1.0
  C  C89  1  0.66378000  0.72838000  0.96857000  1.0
  C  C90  1  0.33622000  0.77161000  0.46857000  1.0
  C  C91  1  0.16378000  0.27161000  0.53143000  1.0
  C  C92  1  0.25954000  0.95949000  0.89878000  1.0
  C  C93  1  0.74047000  0.54052000  0.39878000  1.0
  C  C94  1  0.24046000  0.45948000  0.10122000  1.0
  C  C95  1  0.75954000  0.04051000  0.60122000  1.0
  C  C96  1  0.95949000  0.89878000  0.25954000  1.0
  C  C97  1  0.04051000  0.60122000  0.75954000  1.0
  C  C98  1  0.54052000  0.39878000  0.74046000  1.0
  C  C99  1  0.45949000  0.10122000  0.24046000  1.0
  C  C100  1  0.89878000  0.25954000  0.95949000  1.0
  C  C101  1  0.60122000  0.75953000  0.04051000  1.0
  C  C102  1  0.39878000  0.74046000  0.54052000  1.0
  C  C103  1  0.10122000  0.24047000  0.45948000  1.0
  C  C104  1  0.15988000  0.10637000  0.87030000  1.0
  C  C105  1  0.84012000  0.39363000  0.37031000  1.0
  C  C106  1  0.34012000  0.60637000  0.12970000  1.0
  C  C107  1  0.65988000  0.89363000  0.62970000  1.0
  C  C108  1  0.10637000  0.87030000  0.15989000  1.0
  C  C109  1  0.89363000  0.62969000  0.65989000  1.0
  C  C110  1  0.39364000  0.37031000  0.84012000  1.0
  C  C111  1  0.60637000  0.12970000  0.34012000  1.0
  C  C112  1  0.87030000  0.15988000  0.10637000  1.0
  C  C113  1  0.62969000  0.65988000  0.89363000  1.0
  C  C114  1  0.37030000  0.84012000  0.39363000  1.0
  C  C115  1  0.12969000  0.34012000  0.60636000  1.0
  C  C116  1  0.26266000  0.03584000  0.74187000  1.0
  C  C117  1  0.73733000  0.46415000  0.24188000  1.0
  C  C118  1  0.23734000  0.53585000  0.25812000  1.0
  C  C119  1  0.76266000  0.96415000  0.75813000  1.0
  C  C120  1  0.03585000  0.74187000  0.26267000  1.0
  C  C121  1  0.96415000  0.75813000  0.76266000  1.0
  C  C122  1  0.46415000  0.24187000  0.73733000  1.0
  C  C123  1  0.53585000  0.25813000  0.23734000  1.0
  C  C124  1  0.74187000  0.26266000  0.03585000  1.0
  C  C125  1  0.75813000  0.76266000  0.96415000  1.0
  C  C126  1  0.24187000  0.73734000  0.46415000  1.0
  C  C127  1  0.25812000  0.23733000  0.53585000  1.0
  C  C128  1  0.35778000  0.89363000  0.77087000  1.0
  C  C129  1  0.64223000  0.60638000  0.27087000  1.0
  C  C130  1  0.14222000  0.39363000  0.22913000  1.0
  C  C131  1  0.85778000  0.10637000  0.72913000  1.0
  C  C132  1  0.89363000  0.77087000  0.35777000  1.0
  C  C133  1  0.10638000  0.72913000  0.85777000  1.0
  C  C134  1  0.60637000  0.27087000  0.64222000  1.0
  C  C135  1  0.39363000  0.22913000  0.14222000  1.0
  C  C136  1  0.77087000  0.35778000  0.89363000  1.0
  C  C137  1  0.72913000  0.85777000  0.10637000  1.0
  C  C138  1  0.27087000  0.64222000  0.60637000  1.0
  C  C139  1  0.22913000  0.14222000  0.39362000  1.0
  C  C140  1  0.32787000  0.96663000  0.70785000  1.0
  C  C141  1  0.67212000  0.53337000  0.20785000  1.0
  C  C142  1  0.17212000  0.46663000  0.29215000  1.0
  C  C143  1  0.82788000  0.03337000  0.79215000  1.0
  C  C144  1  0.96663000  0.70785000  0.32788000  1.0
  C  C145  1  0.03337000  0.79215000  0.82787000  1.0
  C  C146  1  0.53337000  0.20785000  0.67212000  1.0
  C  C147  1  0.46663000  0.29215000  0.17212000  1.0
  C  C148  1  0.70785000  0.32788000  0.96663000  1.0
  C  C149  1  0.79215000  0.82787000  0.03337000  1.0
  C  C150  1  0.20785000  0.67212000  0.53337000  1.0
  C  C151  1  0.29215000  0.17212000  0.46663000  1.0
  C  C152  1  0.36000000  0.81406000  0.93040000  1.0
  C  C153  1  0.64000000  0.68595000  0.43039000  1.0
  C  C154  1  0.14000000  0.31405000  0.06960000  1.0
  C  C155  1  0.86000000  0.18594000  0.56961000  1.0
  C  C156  1  0.81406000  0.93040000  0.36001000  1.0
  C  C157  1  0.18595000  0.56961000  0.86000000  1.0
  C  C158  1  0.68595000  0.43039000  0.63999000  1.0
  C  C159  1  0.31406000  0.06960000  0.14000000  1.0
  C  C160  1  0.93039000  0.36000000  0.81405000  1.0
  C  C161  1  0.56960000  0.86000000  0.18594000  1.0
  C  C162  1  0.43039000  0.64000000  0.68595000  1.0
  C  C163  1  0.06960000  0.14000000  0.31405000  1.0
  N  N164  1  0.36733000  0.97193000  0.61783000  1.0
  N  N165  1  0.63267000  0.52807000  0.11783000  1.0
  N  N166  1  0.13268000  0.47193000  0.38217000  1.0
  N  N167  1  0.86733000  0.02807000  0.88217000  1.0
  N  N168  1  0.97193000  0.61783000  0.36732000  1.0
  N  N169  1  0.02807000  0.88217000  0.86733000  1.0
  N  N170  1  0.52807000  0.11783000  0.63267000  1.0
  N  N171  1  0.47193000  0.38217000  0.13267000  1.0
  N  N172  1  0.61783000  0.36733000  0.97193000  1.0
  N  N173  1  0.88217000  0.86733000  0.02807000  1.0
  N  N174  1  0.11783000  0.63267000  0.52807000  1.0
  N  N175  1  0.38217000  0.13267000  0.47193000  1.0
  O  O176  1  0.40644000  0.74423000  0.89426000  1.0
  O  O177  1  0.59357000  0.75577000  0.39425000  1.0
  O  O178  1  0.09357000  0.24423000  0.10575000  1.0
  O  O179  1  0.90643000  0.25577000  0.60575000  1.0
  O  O180  1  0.74423000  0.89426000  0.40644000  1.0
  O  O181  1  0.25577000  0.60574000  0.90644000  1.0
  O  O182  1  0.75577000  0.39425000  0.59356000  1.0
  O  O183  1  0.24423000  0.10574000  0.09356000  1.0
  O  O184  1  0.89425000  0.40643000  0.74423000  1.0
  O  O185  1  0.60574000  0.90644000  0.25577000  1.0
  O  O186  1  0.39426000  0.59356000  0.75577000  1.0
  O  O187  1  0.10574000  0.09356000  0.24423000  1.0
  O  O188  1  0.10796000  0.08934000  0.94407000  1.0
  O  O189  1  0.89204000  0.41067000  0.44407000  1.0
  O  O190  1  0.39203000  0.58933000  0.05593000  1.0
  O  O191  1  0.60797000  0.91067000  0.55593000  1.0
  O  O192  1  0.08934000  0.94406000  0.10796000  1.0
  O  O193  1  0.91067000  0.55593000  0.60797000  1.0
  O  O194  1  0.41067000  0.44407000  0.89204000  1.0
  O  O195  1  0.58934000  0.05594000  0.39204000  1.0
  O  O196  1  0.94406000  0.10797000  0.08933000  1.0
  O  O197  1  0.55593000  0.60796000  0.91066000  1.0
  O  O198  1  0.44406000  0.89203000  0.41066000  1.0
  O  O199  1  0.05593000  0.39204000  0.58933000  1.0
  O  O200  1  0.34153000  0.82118000  0.01915000  1.0
  O  O201  1  0.65847000  0.67883000  0.51915000  1.0
  O  O202  1  0.15847000  0.32117000  0.98084000  1.0
  O  O203  1  0.84153000  0.17882000  0.48085000  1.0
  O  O204  1  0.82118000  0.01916000  0.34153000  1.0
  O  O205  1  0.17883000  0.48084000  0.84153000  1.0
  O  O206  1  0.67882000  0.51916000  0.65846000  1.0
  O  O207  1  0.32118000  0.98085000  0.15847000  1.0
  O  O208  1  0.01916000  0.34153000  0.82117000  1.0
  O  O209  1  0.48084000  0.84152000  0.17883000  1.0
  O  O210  1  0.51916000  0.65847000  0.67883000  1.0
  O  O211  1  0.98085000  0.15847000  0.32118000  1.0
  O  O212  1  0.15529000  0.18384000  0.82280000  1.0
  O  O213  1  0.84471000  0.31617000  0.32281000  1.0
  O  O214  1  0.34470000  0.68384000  0.17720000  1.0
  O  O215  1  0.65529000  0.81616000  0.67719000  1.0
  O  O216  1  0.18384000  0.82280000  0.15530000  1.0
  O  O217  1  0.81616000  0.67719000  0.65529000  1.0
  O  O218  1  0.31616000  0.32280000  0.84471000  1.0
  O  O219  1  0.68384000  0.17720000  0.34471000  1.0
  O  O220  1  0.82280000  0.15529000  0.18384000  1.0
  O  O221  1  0.67719000  0.65529000  0.81616000  1.0
  O  O222  1  0.32280000  0.84471000  0.31616000  1.0
  O  O223  1  0.17719000  0.34471000  0.68383000  1.0
