# generated using pymatgen
data_ZnH16C12N2O5
_symmetry_space_group_name_H-M   'P 1'
_cell_length_a   10.42480000
_cell_length_b   17.45230000
_cell_length_c   17.45240000
_cell_angle_alpha   120.00056863
_cell_angle_beta   90.00000000
_cell_angle_gamma   90.00000000
_symmetry_Int_Tables_number   1
_chemical_formula_structural   ZnH16C12N2O5
_chemical_formula_sum   'Zn6 H96 C72 N12 O30'
_cell_volume   2749.81643310
_cell_formula_units_Z   6
loop_
 _symmetry_equiv_pos_site_id
 _symmetry_equiv_pos_as_xyz
  1  'x, y, z'
loop_
 _atom_site_type_symbol
 _atom_site_label
 _atom_site_symmetry_multiplicity
 _atom_site_fract_x
 _atom_site_fract_y
 _atom_site_fract_z
 _atom_site_occupancy
  Zn  Zn0  1  0.90814000  0.53931000  0.46398000  1.0
  Zn  Zn1  1  0.74139000  0.46399000  0.92469000  1.0
  Zn  Zn2  1  0.57481000  0.92467000  0.46069000  1.0
  Zn  Zn3  1  0.40814000  0.46069000  0.53602000  1.0
  Zn  Zn4  1  0.24138000  0.53601000  0.07531000  1.0
  Zn  Zn5  1  0.07481000  0.07532000  0.53930000  1.0
  H  H6  1  0.90595000  0.59935000  0.66864000  1.0
  H  H7  1  0.73925000  0.66862000  0.06929000  1.0
  H  H8  1  0.57267000  0.06929000  0.40066000  1.0
  H  H9  1  0.40595000  0.40065000  0.33136000  1.0
  H  H10  1  0.23925000  0.33138000  0.93071000  1.0
  H  H11  1  0.07267000  0.93072000  0.59935000  1.0
  H  H12  1  0.02025000  0.45868000  0.53231000  1.0
  H  H13  1  0.85352000  0.53233000  0.07361000  1.0
  H  H14  1  0.68696000  0.07364000  0.54130000  1.0
  H  H15  1  0.52025000  0.54132000  0.46769000  1.0
  H  H16  1  0.35352000  0.46767000  0.92639000  1.0
  H  H17  1  0.18696000  0.92636000  0.45870000  1.0
  H  H18  1  0.21487000  0.22083000  0.53455000  1.0
  H  H19  1  0.04815000  0.53458000  0.31371000  1.0
  H  H20  1  0.88150000  0.31378000  0.77918000  1.0
  H  H21  1  0.71487000  0.77917000  0.46545000  1.0
  H  H22  1  0.54815000  0.46542000  0.68629000  1.0
  H  H23  1  0.38150000  0.68622000  0.22082000  1.0
  H  H24  1  0.18022000  0.33046000  0.48436000  1.0
  H  H25  1  0.01352000  0.48440000  0.15390000  1.0
  H  H26  1  0.84690000  0.15394000  0.66956000  1.0
  H  H27  1  0.68022000  0.66954000  0.51564000  1.0
  H  H28  1  0.51352000  0.51560000  0.84610000  1.0
  H  H29  1  0.34690000  0.84606000  0.33044000  1.0
  H  H30  1  0.80576000  0.21342000  0.39121000  1.0
  H  H31  1  0.63908000  0.39122000  0.17779000  1.0
  H  H32  1  0.47248000  0.17776000  0.78656000  1.0
  H  H33  1  0.30576000  0.78658000  0.60879000  1.0
  H  H34  1  0.13908000  0.60878000  0.82221000  1.0
  H  H35  1  0.97248000  0.82224000  0.21344000  1.0
  H  H36  1  0.85306000  0.11213000  0.44822000  1.0
  H  H37  1  0.68636000  0.44826000  0.33609000  1.0
  H  H38  1  0.51966000  0.33606000  0.88784000  1.0
  H  H39  1  0.35306000  0.88787000  0.55178000  1.0
  H  H40  1  0.18636000  0.55174000  0.66391000  1.0
  H  H41  1  0.01966000  0.66394000  0.11216000  1.0
  H  H42  1  0.04401000  0.36407000  0.37947000  1.0
  H  H43  1  0.87729000  0.37950000  0.01542000  1.0
  H  H44  1  0.71075000  0.01542000  0.63592000  1.0
  H  H45  1  0.54401000  0.63593000  0.62053000  1.0
  H  H46  1  0.37729000  0.62050000  0.98458000  1.0
  H  H47  1  0.21075000  0.98458000  0.36408000  1.0
  H  H48  1  0.87713000  0.33726000  0.36954000  1.0
  H  H49  1  0.71043000  0.36956000  0.03231000  1.0
  H  H50  1  0.54389000  0.03229000  0.66273000  1.0
  H  H51  1  0.37713000  0.66274000  0.63046000  1.0
  H  H52  1  0.21043000  0.63044000  0.96769000  1.0
  H  H53  1  0.04389000  0.96771000  0.33727000  1.0
  H  H54  1  0.80373000  0.36644000  0.52674000  1.0
  H  H55  1  0.63704000  0.52676000  0.16035000  1.0
  H  H56  1  0.47047000  0.16034000  0.63358000  1.0
  H  H57  1  0.30373000  0.63356000  0.47326000  1.0
  H  H58  1  0.13704000  0.47324000  0.83966000  1.0
  H  H59  1  0.97047000  0.83966000  0.36642000  1.0
  H  H60  1  0.77562000  0.50051000  0.68579000  1.0
  H  H61  1  0.60894000  0.68583000  0.18531000  1.0
  H  H62  1  0.44234000  0.18527000  0.49948000  1.0
  H  H63  1  0.27562000  0.49949000  0.31421000  1.0
  H  H64  1  0.10894000  0.31417000  0.81469000  1.0
  H  H65  1  0.94234000  0.81473000  0.50052000  1.0
  H  H66  1  0.87265000  0.35443000  0.64832000  1.0
  H  H67  1  0.70600000  0.64835000  0.29391000  1.0
  H  H68  1  0.53931000  0.29391000  0.64555000  1.0
  H  H69  1  0.37265000  0.64557000  0.35168000  1.0
  H  H70  1  0.20600000  0.35165000  0.70609000  1.0
  H  H71  1  0.03931000  0.70609000  0.35445000  1.0
  H  H72  1  0.94486000  0.44550000  0.74170000  1.0
  H  H73  1  0.77822000  0.74174000  0.29623000  1.0
  H  H74  1  0.61153000  0.29624000  0.55450000  1.0
  H  H75  1  0.44486000  0.55450000  0.25830000  1.0
  H  H76  1  0.27822000  0.25826000  0.70377000  1.0
  H  H77  1  0.11154000  0.70376000  0.44550000  1.0
  H  H78  1  0.02554000  0.39385000  0.63727000  1.0
  H  H79  1  0.85887000  0.63728000  0.24343000  1.0
  H  H80  1  0.69221000  0.24347000  0.60617000  1.0
  H  H81  1  0.52554000  0.60615000  0.36273000  1.0
  H  H82  1  0.35887000  0.36272000  0.75657000  1.0
  H  H83  1  0.19221000  0.75653000  0.39383000  1.0
  H  H84  1  0.99348000  0.82917000  0.64632000  1.0
  H  H85  1  0.82673000  0.64624000  0.81712000  1.0
  H  H86  1  0.66010000  0.81716000  0.17085000  1.0
  H  H87  1  0.49348000  0.17083000  0.35368000  1.0
  H  H88  1  0.32673000  0.35376000  0.18288000  1.0
  H  H89  1  0.16010000  0.18284000  0.82915000  1.0
  H  H90  1  0.88779000  0.84457000  0.73441000  1.0
  H  H91  1  0.72109000  0.73434000  0.88979000  1.0
  H  H92  1  0.55438000  0.88980000  0.15543000  1.0
  H  H93  1  0.38779000  0.15543000  0.26559000  1.0
  H  H94  1  0.22109000  0.26566000  0.11021000  1.0
  H  H95  1  0.05438000  0.11020000  0.84457000  1.0
  H  H96  1  0.82709000  0.83979000  0.63659000  1.0
  H  H97  1  0.66035000  0.63654000  0.79676000  1.0
  H  H98  1  0.49373000  0.79676000  0.16025000  1.0
  H  H99  1  0.32709000  0.16021000  0.36341000  1.0
  H  H100  1  0.16035000  0.36346000  0.20324000  1.0
  H  H101  1  0.99373000  0.20324000  0.83975000  1.0
  C  C102  1  0.12585000  0.22222000  0.50266000  1.0
  C  C103  1  0.95913000  0.50270000  0.28044000  1.0
  C  C104  1  0.79248000  0.28051000  0.77781000  1.0
  C  C105  1  0.62585000  0.77778000  0.49734000  1.0
  C  C106  1  0.45913000  0.49730000  0.71956000  1.0
  C  C107  1  0.29248000  0.71949000  0.22219000  1.0
  C  C108  1  0.10607000  0.28213000  0.47371000  1.0
  C  C109  1  0.93938000  0.47372000  0.19157000  1.0
  C  C110  1  0.77276000  0.19163000  0.71790000  1.0
  C  C111  1  0.60607000  0.71787000  0.52629000  1.0
  C  C112  1  0.43938000  0.52628000  0.80843000  1.0
  C  C113  1  0.27276000  0.80837000  0.28210000  1.0
  C  C114  1  0.98990000  0.28120000  0.43308000  1.0
  C  C115  1  0.82322000  0.43309000  0.15188000  1.0
  C  C116  1  0.65664000  0.15189000  0.71881000  1.0
  C  C117  1  0.48990000  0.71880000  0.56692000  1.0
  C  C118  1  0.32322000  0.56691000  0.84812000  1.0
  C  C119  1  0.15664000  0.84811000  0.28119000  1.0
  C  C120  1  0.89865000  0.21772000  0.42195000  1.0
  C  C121  1  0.73197000  0.42195000  0.20423000  1.0
  C  C122  1  0.56539000  0.20422000  0.78231000  1.0
  C  C123  1  0.39865000  0.78228000  0.57805000  1.0
  C  C124  1  0.23197000  0.57805000  0.79577000  1.0
  C  C125  1  0.06538000  0.79578000  0.21769000  1.0
  C  C126  1  0.92457000  0.15998000  0.45335000  1.0
  C  C127  1  0.75786000  0.45339000  0.29337000  1.0
  C  C128  1  0.59123000  0.29336000  0.84002000  1.0
  C  C129  1  0.42457000  0.84001000  0.54664000  1.0
  C  C130  1  0.25786000  0.54662000  0.70664000  1.0
  C  C131  1  0.09123000  0.70664000  0.15998000  1.0
  C  C132  1  0.96175000  0.35355000  0.41246000  1.0
  C  C133  1  0.79505000  0.41248000  0.05892000  1.0
  C  C134  1  0.62851000  0.05894000  0.64645000  1.0
  C  C135  1  0.46175000  0.64645000  0.58754000  1.0
  C  C136  1  0.29505000  0.58752000  0.94108000  1.0
  C  C137  1  0.12851000  0.94106000  0.35355000  1.0
  C  C138  1  0.82964000  0.43543000  0.54820000  1.0
  C  C139  1  0.66294000  0.54825000  0.11284000  1.0
  C  C140  1  0.49637000  0.11281000  0.56459000  1.0
  C  C141  1  0.32964000  0.56457000  0.45180000  1.0
  C  C142  1  0.16294000  0.45175000  0.88716000  1.0
  C  C143  1  0.99637000  0.88719000  0.43541000  1.0
  C  C144  1  0.70773000  0.47493000  0.53274000  1.0
  C  C145  1  0.54105000  0.53274000  0.05784000  1.0
  C  C146  1  0.37444000  0.05787000  0.52510000  1.0
  C  C147  1  0.20773000  0.52507000  0.46726000  1.0
  C  C148  1  0.04105000  0.46726000  0.94216000  1.0
  C  C149  1  0.87444000  0.94213000  0.47490000  1.0
  C  C150  1  0.86621000  0.47884000  0.64823000  1.0
  C  C151  1  0.69952000  0.64827000  0.16944000  1.0
  C  C152  1  0.53292000  0.16940000  0.52116000  1.0
  C  C153  1  0.36620000  0.52116000  0.35177000  1.0
  C  C154  1  0.19952000  0.35173000  0.83056000  1.0
  C  C155  1  0.03292000  0.83060000  0.47884000  1.0
  C  C156  1  0.93155000  0.41396000  0.66985000  1.0
  C  C157  1  0.76491000  0.66990000  0.25593000  1.0
  C  C158  1  0.59823000  0.25594000  0.58604000  1.0
  C  C159  1  0.43155000  0.58604000  0.33015000  1.0
  C  C160  1  0.26491000  0.33010000  0.74407000  1.0
  C  C161  1  0.09824000  0.74406000  0.41396000  1.0
  C  C162  1  0.88301000  0.71366000  0.61946000  1.0
  C  C163  1  0.71627000  0.61940000  0.90577000  1.0
  C  C164  1  0.54968000  0.90584000  0.28636000  1.0
  C  C165  1  0.38301000  0.28634000  0.38054000  1.0
  C  C166  1  0.21627000  0.38060000  0.09423000  1.0
  C  C167  1  0.04968000  0.09416000  0.71364000  1.0
  C  C168  1  0.89941000  0.81290000  0.66265000  1.0
  C  C169  1  0.73265000  0.66257000  0.84972000  1.0
  C  C170  1  0.56601000  0.84973000  0.18712000  1.0
  C  C171  1  0.39941000  0.18710000  0.33735000  1.0
  C  C172  1  0.23265000  0.33743000  0.15028000  1.0
  C  C173  1  0.06601000  0.15027000  0.81288000  1.0
  N  N174  1  0.03616000  0.16225000  0.49352000  1.0
  N  N175  1  0.86943000  0.49358000  0.33128000  1.0
  N  N176  1  0.70277000  0.33131000  0.83776000  1.0
  N  N177  1  0.53616000  0.83775000  0.50648000  1.0
  N  N178  1  0.36943000  0.50642000  0.66872000  1.0
  N  N179  1  0.20277000  0.66869000  0.16224000  1.0
  N  N180  1  0.93728000  0.43854000  0.49530000  1.0
  N  N181  1  0.77055000  0.49533000  0.05679000  1.0
  N  N182  1  0.60400000  0.05678000  0.56145000  1.0
  N  N183  1  0.43728000  0.56146000  0.50470000  1.0
  N  N184  1  0.27055000  0.50467000  0.94321000  1.0
  N  N185  1  0.10400000  0.94322000  0.43855000  1.0
  O  O186  1  0.71313000  0.51429000  0.48797000  1.0
  O  O187  1  0.54652000  0.48797000  0.97372000  1.0
  O  O188  1  0.37985000  0.97374000  0.48573000  1.0
  O  O189  1  0.21313000  0.48571000  0.51203000  1.0
  O  O190  1  0.04652000  0.51203000  0.02628000  1.0
  O  O191  1  0.87985000  0.02626000  0.51427000  1.0
  O  O192  1  0.60700000  0.46292000  0.56586000  1.0
  O  O193  1  0.44025000  0.56578000  0.10290000  1.0
  O  O194  1  0.27369000  0.10298000  0.53711000  1.0
  O  O195  1  0.10700000  0.53708000  0.43414000  1.0
  O  O196  1  0.94025000  0.43422000  0.89710000  1.0
  O  O197  1  0.77369000  0.89702000  0.46289000  1.0
  O  O198  1  0.95132000  0.55130000  0.67393000  1.0
  O  O199  1  0.78464000  0.67391000  0.12262000  1.0
  O  O200  1  0.61804000  0.12263000  0.44870000  1.0
  O  O201  1  0.45132000  0.44870000  0.32607000  1.0
  O  O202  1  0.28464000  0.32609000  0.87738000  1.0
  O  O203  1  0.11804000  0.87737000  0.55130000  1.0
  O  O204  1  0.91316000  0.66919000  0.53616000  1.0
  O  O205  1  0.74640000  0.53610000  0.86694000  1.0
  O  O206  1  0.57981000  0.86702000  0.33084000  1.0
  O  O207  1  0.41316000  0.33081000  0.46384000  1.0
  O  O208  1  0.24641000  0.46390000  0.13306000  1.0
  O  O209  1  0.07981000  0.13298000  0.66916000  1.0
  O  O210  1  0.84114000  0.68049000  0.66402000  1.0
  O  O211  1  0.67449000  0.66399000  0.98352000  1.0
  O  O212  1  0.50792000  0.98360000  0.31951000  1.0
  O  O213  1  0.34114000  0.31951000  0.33598000  1.0
  O  O214  1  0.17449000  0.33601000  0.01648000  1.0
  O  O215  1  0.00792000  0.01640000  0.68049000  1.0
