# generated using pymatgen
data_Zn4H35C56I4N16F7
_symmetry_space_group_name_H-M   'P 1'
_cell_length_a   14.58760000
_cell_length_b   15.13898881
_cell_length_c   15.37650000
_cell_angle_alpha   104.96361582
_cell_angle_beta   112.53680000
_cell_angle_gamma   109.55901819
_symmetry_Int_Tables_number   1
_chemical_formula_structural   Zn4H35C56I4N16F7
_chemical_formula_sum   'Zn4 H35 C56 I4 N16 F7'
_cell_volume   2648.02689101
_cell_formula_units_Z   1
loop_
 _symmetry_equiv_pos_site_id
 _symmetry_equiv_pos_as_xyz
  1  'x, y, z'
loop_
 _atom_site_type_symbol
 _atom_site_label
 _atom_site_symmetry_multiplicity
 _atom_site_fract_x
 _atom_site_fract_y
 _atom_site_fract_z
 _atom_site_occupancy
  Zn  Zn0  1  0.64127000  0.56397000  0.62891000  1.0
  Zn  Zn1  1  0.36856000  0.48193000  0.36546000  1.0
  Zn  Zn2  1  0.64980000  0.66944000  0.49257000  1.0
  Zn  Zn3  1  0.36616000  0.33085000  0.49063000  1.0
  H  H4  1  0.89194000  0.71458000  0.84088000  1.0
  H  H5  1  0.32260000  0.42012000  0.98402000  1.0
  H  H6  1  0.47906000  0.39470000  0.91536000  1.0
  H  H7  1  0.62488000  0.68237000  0.99030000  1.0
  H  H8  1  0.49801000  0.68519000  0.92173000  1.0
  H  H9  1  0.46700000  0.70257000  0.06274000  1.0
  H  H10  1  0.60819000  0.72934000  0.13765000  1.0
  H  H11  1  0.92079000  0.24017000  0.42413000  1.0
  H  H12  1  0.67963000  0.81052000  0.69951000  1.0
  H  H13  1  0.77896000  0.27424000  0.44875000  1.0
  H  H14  1  0.78155000  0.48849000  0.21822000  1.0
  H  H15  1  0.30520000  0.47353000  0.13727000  1.0
  H  H16  1  0.94155000  0.46888000  0.20771000  1.0
  H  H17  1  0.03668000  0.56738000  0.34165000  1.0
  H  H18  1  0.31898000  0.97774000  0.60039000  1.0
  H  H19  1  0.32001000  0.81586000  0.59228000  1.0
  H  H20  1  0.77814000  0.01583000  0.78570000  1.0
  H  H21  1  0.73380000  0.97005000  0.64962000  1.0
  H  H22  1  0.77719000  0.18243000  0.79120000  1.0
  H  H23  1  0.30617000  0.40265000  0.65500000  1.0
  H  H24  1  0.73274000  0.13583000  0.65541000  1.0
  H  H25  1  0.13541000  0.02166000  0.83387000  1.0
  H  H26  1  0.71221000  0.53839000  0.34779000  1.0
  H  H27  1  0.28754000  0.16769000  0.00300000  1.0
  H  H28  1  0.18221000  0.92896000  0.19233000  1.0
  H  H29  1  0.00690000  0.78653000  0.02141000  1.0
  H  H30  1  0.66537000  0.62465000  0.85693000  1.0
  H  H31  1  0.10875000  0.25626000  0.45186000  1.0
  H  H32  1  0.92085000  0.89899000  0.66951000  1.0
  H  H33  1  0.34190000  0.14018000  0.32703000  1.0
  H  H34  1  0.33448000  0.32909000  0.15825000  1.0
  H  H35  1  0.68630000  0.36386000  0.52928000  1.0
  H  H36  1  0.65475000  0.71795000  0.30632000  1.0
  H  H37  1  0.30171000  0.52888000  0.98411000  1.0
  H  H38  1  0.11088000  0.44840000  0.28654000  1.0
  C  C39  1  0.88194000  0.74696000  0.78479000  1.0
  C  C40  1  0.68505000  0.41449000  0.49055000  1.0
  C  C41  1  0.39465000  0.16146000  0.56739000  1.0
  C  C42  1  0.12682000  0.40241000  0.32831000  1.0
  C  C43  1  0.56962000  0.66041000  0.28059000  1.0
  C  C44  1  0.48925000  0.15552000  0.63250000  1.0
  C  C45  1  0.47818000  0.58953000  0.17842000  1.0
  C  C46  1  0.72182000  0.42689000  0.41974000  1.0
  C  C47  1  0.31652000  0.19438000  0.19961000  1.0
  C  C48  1  0.35579000  0.47965000  0.87809000  1.0
  C  C49  1  0.35725000  0.49522000  0.98161000  1.0
  C  C50  1  0.06117000  0.34659000  0.36244000  1.0
  C  C51  1  0.53592000  0.47937000  0.95877000  1.0
  C  C52  1  0.53523000  0.64933000  0.96822000  1.0
  C  C53  1  0.47759000  0.53026000  0.89593000  1.0
  C  C54  1  0.59150000  0.75656000  0.63855000  1.0
  C  C55  1  0.47765000  0.56899000  0.07732000  1.0
  C  C56  1  0.55271000  0.51781000  0.06956000  1.0
  C  C57  1  0.52562000  0.67116000  0.06688000  1.0
  C  C58  1  0.92546000  0.41591000  0.32772000  1.0
  C  C59  1  0.96079000  0.34847000  0.35892000  1.0
  C  C60  1  0.90017000  0.29567000  0.39910000  1.0
  C  C61  1  0.49771000  0.77315000  0.61195000  1.0
  C  C62  1  0.81856000  0.31532000  0.41337000  1.0
  C  C63  1  0.78918000  0.38923000  0.38822000  1.0
  C  C64  1  0.84329000  0.43451000  0.34058000  1.0
  C  C65  1  0.85527000  0.51175000  0.29383000  1.0
  C  C66  1  0.39647000  0.45285000  0.69080000  1.0
  C  C67  1  0.95354000  0.49655000  0.28683000  1.0
  C  C68  1  0.59536000  0.05916000  0.68407000  1.0
  C  C69  1  0.49595000  0.06751000  0.65018000  1.0
  C  C70  1  0.39899000  0.97663000  0.62325000  1.0
  C  C71  1  0.39959000  0.88349000  0.61872000  1.0
  C  C72  1  0.48131000  0.51611000  0.79710000  1.0
  C  C73  1  0.49814000  0.87309000  0.64240000  1.0
  C  C74  1  0.59598000  0.96637000  0.68053000  1.0
  C  C75  1  0.71943000  0.00926000  0.71027000  1.0
  C  C76  1  0.71894000  0.11411000  0.71400000  1.0
  C  C77  1  0.07467000  0.92598000  0.99070000  1.0
  C  C78  1  0.40891000  0.67447000  0.52876000  1.0
  C  C79  1  0.05680000  0.92560000  0.89421000  1.0
  C  C80  1  0.14058000  0.01569000  0.90471000  1.0
  C  C81  1  0.22865000  0.09963000  0.00224000  1.0
  C  C82  1  0.24261000  0.10116000  0.09912000  1.0
  C  C83  1  0.57669000  0.25453000  0.66118000  1.0
  C  C84  1  0.16412000  0.00858000  0.08775000  1.0
  C  C85  1  0.12720000  0.95627000  0.14895000  1.0
  C  C86  1  0.02181000  0.86672000  0.03890000  1.0
  C  C87  1  0.57974000  0.56543000  0.79387000  1.0
  C  C88  1  0.12571000  0.30482000  0.41288000  1.0
  C  C89  1  0.89700000  0.84063000  0.69697000  1.0
  C  C90  1  0.95478000  0.84317000  0.79588000  1.0
  C  C91  1  0.39206000  0.53517000  0.19449000  1.0
  C  C92  1  0.69673000  0.50312000  0.39720000  1.0
  C  C93  1  0.34975000  0.20113000  0.30105000  1.0
  C  C94  1  0.34682000  0.29808000  0.21547000  1.0
  I  I95  1  0.25159000  0.30632000  0.77420000  1.0
  I  I96  1  0.51735000  0.38258000  0.10552000  1.0
  I  I97  1  0.68993000  0.48544000  0.96738000  1.0
  I  I98  1  0.85955000  0.85634000  0.01280000  1.0
  N  N99  1  0.78909000  0.69278000  0.68885000  1.0
  N  N100  1  0.56058000  0.65769000  0.57311000  1.0
  N  N101  1  0.44146000  0.46044000  0.62936000  1.0
  N  N102  1  0.44476000  0.60660000  0.50499000  1.0
  N  N103  1  0.55465000  0.52933000  0.69379000  1.0
  N  N104  1  0.22173000  0.33437000  0.40952000  1.0
  N  N105  1  0.79759000  0.75025000  0.63343000  1.0
  N  N106  1  0.54163000  0.31123000  0.61956000  1.0
  N  N107  1  0.42949000  0.56903000  0.29793000  1.0
  N  N108  1  0.65061000  0.53395000  0.45077000  1.0
  N  N109  1  0.39459000  0.30060000  0.37057000  1.0
  N  N110  1  0.39277000  0.36049000  0.31766000  1.0
  N  N111  1  0.64331000  0.47991000  0.50879000  1.0
  N  N112  1  0.42392000  0.25080000  0.55877000  1.0
  N  N113  1  0.54045000  0.64787000  0.35183000  1.0
  N  N114  1  0.22230000  0.39519000  0.35685000  1.0
  F  F115  1  0.28366000  0.08830000  0.51399000  1.0
  F  F116  1  0.29625000  0.52375000  0.82774000  1.0
  F  F117  1  0.66493000  0.59262000  0.14686000  1.0
  F  F118  1  0.88977000  0.61570000  0.35977000  1.0
  F  F119  1  0.10330000  0.01047000  0.21829000  1.0
  F  F120  1  0.29895000  0.64684000  0.47104000  1.0
  F  F121  1  0.68970000  0.29499000  0.72682000  1.0
