# generated using pymatgen
data_SrH12C10(NO)6
_symmetry_space_group_name_H-M   'P 1'
_cell_length_a   4.39264000
_cell_length_b   12.06020000
_cell_length_c   13.34640000
_cell_angle_alpha   91.58170000
_cell_angle_beta   99.43940000
_cell_angle_gamma   90.05440000
_symmetry_Int_Tables_number   1
_chemical_formula_structural   SrH12C10(NO)6
_chemical_formula_sum   'Sr2 H24 C20 N12 O12'
_cell_volume   697.19034823
_cell_formula_units_Z   2
loop_
 _symmetry_equiv_pos_site_id
 _symmetry_equiv_pos_as_xyz
  1  'x, y, z'
loop_
 _atom_site_type_symbol
 _atom_site_label
 _atom_site_symmetry_multiplicity
 _atom_site_fract_x
 _atom_site_fract_y
 _atom_site_fract_z
 _atom_site_occupancy
  Sr  Sr0  1  0.63123000  0.74983000  0.99995000  1.0
  Sr  Sr1  1  0.36879000  0.25017000  0.00006000  1.0
  H  H2  1  0.20778000  0.55606000  0.54554000  1.0
  H  H3  1  0.66248000  0.94418000  0.45444000  1.0
  H  H4  1  0.79221000  0.44396000  0.45447000  1.0
  H  H5  1  0.33751000  0.05581000  0.54556000  1.0
  H  H6  1  0.45575000  0.56379000  0.66751000  1.0
  H  H7  1  0.78776000  0.93661000  0.33225000  1.0
  H  H8  1  0.54426000  0.43622000  0.33250000  1.0
  H  H9  1  0.21223000  0.06338000  0.66774000  1.0
  H  H10  1  0.60130000  0.25672000  0.57127000  1.0
  H  H11  1  0.03106000  0.24330000  0.42934000  1.0
  H  H12  1  0.39868000  0.74330000  0.42873000  1.0
  H  H13  1  0.96892000  0.75668000  0.57066000  1.0
  H  H14  1  0.75902000  0.19109000  0.74915000  1.0
  H  H15  1  0.00973000  0.30888000  0.25127000  1.0
  H  H16  1  0.24102000  0.80891000  0.25084000  1.0
  H  H17  1  0.99027000  0.69112000  0.74873000  1.0
  H  H18  1  0.17332000  0.91177000  0.01247000  1.0
  H  H19  1  0.16033000  0.58809000  0.98748000  1.0
  H  H20  1  0.82670000  0.08823000  0.98754000  1.0
  H  H21  1  0.83969000  0.41191000  0.01253000  1.0
  H  H22  1  0.03617000  0.91298000  0.11913000  1.0
  H  H23  1  0.91784000  0.58722000  0.88060000  1.0
  H  H24  1  0.96384000  0.08702000  0.88087000  1.0
  H  H25  1  0.08218000  0.41278000  0.11941000  1.0
  C  C26  1  0.49772000  0.45271000  0.82667000  1.0
  C  C27  1  0.66975000  0.04754000  0.17315000  1.0
  C  C28  1  0.50229000  0.54730000  0.17333000  1.0
  C  C29  1  0.33023000  0.95245000  0.82684000  1.0
  C  C30  1  0.24169000  0.39946000  0.75304000  1.0
  C  C31  1  0.48785000  0.10068000  0.24695000  1.0
  C  C32  1  0.75832000  0.60056000  0.24696000  1.0
  C  C33  1  0.51212000  0.89930000  0.75304000  1.0
  C  C34  1  0.14491000  0.44041000  0.65257000  1.0
  C  C35  1  0.49221000  0.05983000  0.34753000  1.0
  C  C36  1  0.85509000  0.55959000  0.34745000  1.0
  C  C37  1  0.50776000  0.94016000  0.65246000  1.0
  C  C38  1  0.78527000  0.29920000  0.62349000  1.0
  C  C39  1  0.16219000  0.20092000  0.37690000  1.0
  C  C40  1  0.21472000  0.70082000  0.37651000  1.0
  C  C41  1  0.83779000  0.79907000  0.62310000  1.0
  C  C42  1  0.87362000  0.26154000  0.72196000  1.0
  C  C43  1  0.15131000  0.23844000  0.27835000  1.0
  C  C44  1  0.12638000  0.73847000  0.27804000  1.0
  C  C45  1  0.84870000  0.76155000  0.72165000  1.0
  N  N46  1  0.10483000  0.31136000  0.78550000  1.0
  N  N47  1  0.31850000  0.18868000  0.21462000  1.0
  N  N48  1  0.89520000  0.68864000  0.21450000  1.0
  N  N49  1  0.68149000  0.81131000  0.78537000  1.0
  N  N50  1  0.91768000  0.38624000  0.58810000  1.0
  N  N51  1  0.33006000  0.11396000  0.41218000  1.0
  N  N52  1  0.08230000  0.61378000  0.41190000  1.0
  N  N53  1  0.66992000  0.88602000  0.58782000  1.0
  N  N54  1  0.27035000  0.53097000  0.61950000  1.0
  N  N55  1  0.65097000  0.96940000  0.38049000  1.0
  N  N56  1  0.72966000  0.46905000  0.38051000  1.0
  N  N57  1  0.34903000  0.03059000  0.61950000  1.0
  O  O58  1  0.11501000  0.86399000  0.06617000  1.0
  O  O59  1  0.04917000  0.63607000  0.93385000  1.0
  O  O60  1  0.88498000  0.13601000  0.93382000  1.0
  O  O61  1  0.95085000  0.36393000  0.06615000  1.0
  O  O62  1  0.54698000  0.41568000  0.91619000  1.0
  O  O63  1  0.62946000  0.08465000  0.08367000  1.0
  O  O64  1  0.45304000  0.58432000  0.08382000  1.0
  O  O65  1  0.37054000  0.91534000  0.91632000  1.0
  O  O66  1  0.65118000  0.53120000  0.79663000  1.0
  O  O67  1  0.85279000  0.96899000  0.20297000  1.0
  O  O68  1  0.34883000  0.46881000  0.20338000  1.0
  O  O69  1  0.14719000  0.03101000  0.79702000  1.0
