# generated using pymatgen
data_Zn3H10C12(NO3)4
_symmetry_space_group_name_H-M   'P 1'
_cell_length_a   5.16136000
_cell_length_b   9.96724000
_cell_length_c   17.51860000
_cell_angle_alpha   89.99970000
_cell_angle_beta   90.00000000
_cell_angle_gamma   95.16020000
_symmetry_Int_Tables_number   1
_chemical_formula_structural   Zn3H10C12(NO3)4
_chemical_formula_sum   'Zn6 H20 C24 N8 O24'
_cell_volume   897.58325536
_cell_formula_units_Z   2
loop_
 _symmetry_equiv_pos_site_id
 _symmetry_equiv_pos_as_xyz
  1  'x, y, z'
loop_
 _atom_site_type_symbol
 _atom_site_label
 _atom_site_symmetry_multiplicity
 _atom_site_fract_x
 _atom_site_fract_y
 _atom_site_fract_z
 _atom_site_occupancy
  Zn  Zn0  1  0.76039000  0.59453000  0.76863000  1.0
  Zn  Zn1  1  0.73962000  0.90548000  0.26863000  1.0
  Zn  Zn2  1  0.23962000  0.40548000  0.23137000  1.0
  Zn  Zn3  1  0.26038000  0.09452000  0.73137000  1.0
  Zn  Zn4  1  0.00000000  0.00000000  0.00000000  1.0
  Zn  Zn5  1  0.50000000  0.50000000  0.50000000  1.0
  H  H6  1  0.28495000  0.62813000  0.83973000  1.0
  H  H7  1  0.21506000  0.87187000  0.33973000  1.0
  H  H8  1  0.71505000  0.37187000  0.16027000  1.0
  H  H9  1  0.78494000  0.12813000  0.66027000  1.0
  H  H10  1  0.44127000  0.51943000  0.88471000  1.0
  H  H11  1  0.05874000  0.98058000  0.38472000  1.0
  H  H12  1  0.55874000  0.48057000  0.11529000  1.0
  H  H13  1  0.94127000  0.01943000  0.61529000  1.0
  H  H14  1  0.12611000  0.20236000  0.89007000  1.0
  H  H15  1  0.37388000  0.29765000  0.39006000  1.0
  H  H16  1  0.87389000  0.79765000  0.10994000  1.0
  H  H17  1  0.62611000  0.70235000  0.60993000  1.0
  H  H18  1  0.58680000  0.20553000  0.98030000  1.0
  H  H19  1  0.91320000  0.29447000  0.48030000  1.0
  H  H20  1  0.41320000  0.79447000  0.01970000  1.0
  H  H21  1  0.08680000  0.70553000  0.51970000  1.0
  H  H22  1  0.54490000  0.28249000  0.88968000  1.0
  H  H23  1  0.95510000  0.21751000  0.38968000  1.0
  H  H24  1  0.45510000  0.71750000  0.11032000  1.0
  H  H25  1  0.04491000  0.78250000  0.61032000  1.0
  C  C26  1  0.59410000  0.91289000  0.80035000  1.0
  C  C27  1  0.90589000  0.58711000  0.30035000  1.0
  C  C28  1  0.40590000  0.08711000  0.19965000  1.0
  C  C29  1  0.09410000  0.41289000  0.69965000  1.0
  C  C30  1  0.51284000  0.84802000  0.72691000  1.0
  C  C31  1  0.98716000  0.65198000  0.22691000  1.0
  C  C32  1  0.48716000  0.15198000  0.27309000  1.0
  C  C33  1  0.01284000  0.34802000  0.77309000  1.0
  C  C34  1  0.77216000  0.89390000  0.85931000  1.0
  C  C35  1  0.72785000  0.60611000  0.35930000  1.0
  C  C36  1  0.22785000  0.10611000  0.14070000  1.0
  C  C37  1  0.27215000  0.39389000  0.64069000  1.0
  C  C38  1  0.98829000  0.80891000  0.87389000  1.0
  C  C39  1  0.51170000  0.69108000  0.37390000  1.0
  C  C40  1  0.01170000  0.19109000  0.12611000  1.0
  C  C41  1  0.48830000  0.30891000  0.62610000  1.0
  C  C42  1  0.56652000  0.07136000  0.88583000  1.0
  C  C43  1  0.93347000  0.42864000  0.38582000  1.0
  C  C44  1  0.43348000  0.92863000  0.11417000  1.0
  C  C45  1  0.06652000  0.57136000  0.61417000  1.0
  C  C46  1  0.48628000  0.19376000  0.92532000  1.0
  C  C47  1  0.01372000  0.30624000  0.42532000  1.0
  C  C48  1  0.51372000  0.80624000  0.07468000  1.0
  C  C49  1  0.98628000  0.69376000  0.57468000  1.0
  N  N50  1  0.74629000  0.99394000  0.91242000  1.0
  N  N51  1  0.75371000  0.50607000  0.41242000  1.0
  N  N52  1  0.25371000  0.00606000  0.08758000  1.0
  N  N53  1  0.24628000  0.49393000  0.58758000  1.0
  N  N54  1  0.47104000  0.02542000  0.81822000  1.0
  N  N55  1  0.02895000  0.47458000  0.31822000  1.0
  N  N56  1  0.52896000  0.97458000  0.18178000  1.0
  N  N57  1  0.97105000  0.52542000  0.68178000  1.0
  O  O58  1  0.13842000  0.84136000  0.92894000  1.0
  O  O59  1  0.36158000  0.65865000  0.42894000  1.0
  O  O60  1  0.86158000  0.15864000  0.07106000  1.0
  O  O61  1  0.63841000  0.34135000  0.57106000  1.0
  O  O62  1  0.59302000  0.73514000  0.70634000  1.0
  O  O63  1  0.90699000  0.76487000  0.20634000  1.0
  O  O64  1  0.40698000  0.26486000  0.29366000  1.0
  O  O65  1  0.09302000  0.23513000  0.79365000  1.0
  O  O66  1  0.36014000  0.90900000  0.68513000  1.0
  O  O67  1  0.13984000  0.59100000  0.18512000  1.0
  O  O68  1  0.63984000  0.09100000  0.31487000  1.0
  O  O69  1  0.86016000  0.40900000  0.81488000  1.0
  O  O70  1  0.02591000  0.70808000  0.82996000  1.0
  O  O71  1  0.47408000  0.79193000  0.32996000  1.0
  O  O72  1  0.97408000  0.29192000  0.17004000  1.0
  O  O73  1  0.52591000  0.20807000  0.67004000  1.0
  O  O74  1  0.43391000  0.56858000  0.83711000  1.0
  O  O75  1  0.06610000  0.93142000  0.33712000  1.0
  O  O76  1  0.56610000  0.43142000  0.16289000  1.0
  O  O77  1  0.93390000  0.06858000  0.66289000  1.0
  O  O78  1  0.21066000  0.18503000  0.93982000  1.0
  O  O79  1  0.28934000  0.31497000  0.43982000  1.0
  O  O80  1  0.78934000  0.81497000  0.06018000  1.0
  O  O81  1  0.71066000  0.68503000  0.56018000  1.0
