# generated using pymatgen
data_CuH6C12(NO2)2
_symmetry_space_group_name_H-M   'P 1'
_cell_length_a   10.64790000
_cell_length_b   12.45150000
_cell_length_c   14.29110000
_cell_angle_alpha   89.99950000
_cell_angle_beta   74.06500000
_cell_angle_gamma   89.99900000
_symmetry_Int_Tables_number   1
_chemical_formula_structural   CuH6C12(NO2)2
_chemical_formula_sum   'Cu4 H24 C48 N8 O16'
_cell_volume   1821.93931082
_cell_formula_units_Z   4
loop_
 _symmetry_equiv_pos_site_id
 _symmetry_equiv_pos_as_xyz
  1  'x, y, z'
loop_
 _atom_site_type_symbol
 _atom_site_label
 _atom_site_symmetry_multiplicity
 _atom_site_fract_x
 _atom_site_fract_y
 _atom_site_fract_z
 _atom_site_occupancy
  Cu  Cu0  1  0.09648000  0.93371000  0.97801000  1.0
  Cu  Cu1  1  0.90352000  0.43371000  0.52199000  1.0
  Cu  Cu2  1  0.90353000  0.06629000  0.02200000  1.0
  Cu  Cu3  1  0.09647000  0.56629000  0.47800000  1.0
  H  H4  1  0.09105000  0.80656000  0.45851000  1.0
  H  H5  1  0.90894000  0.30657000  0.04149000  1.0
  H  H6  1  0.90894000  0.19344000  0.54150000  1.0
  H  H7  1  0.09107000  0.69344000  0.95850000  1.0
  H  H8  1  0.46009000  0.93916000  0.35335000  1.0
  H  H9  1  0.53989000  0.43916000  0.14665000  1.0
  H  H10  1  0.53989000  0.06084000  0.64665000  1.0
  H  H11  1  0.46012000  0.56085000  0.85333000  1.0
  H  H12  1  0.40495000  0.59729000  0.40008000  1.0
  H  H13  1  0.59506000  0.09729000  0.09992000  1.0
  H  H14  1  0.59504000  0.40271000  0.59992000  1.0
  H  H15  1  0.40496000  0.90271000  0.90009000  1.0
  H  H16  1  0.62275000  0.87532000  0.22256000  1.0
  H  H17  1  0.37724000  0.37531000  0.27745000  1.0
  H  H18  1  0.37725000  0.12469000  0.77745000  1.0
  H  H19  1  0.62276000  0.62470000  0.72255000  1.0
  H  H20  1  0.98076000  0.73389000  0.24521000  1.0
  H  H21  1  0.01924000  0.23389000  0.25478000  1.0
  H  H22  1  0.01923000  0.26610000  0.75478000  1.0
  H  H23  1  0.98078000  0.76610000  0.74522000  1.0
  H  H24  1  0.61575000  0.62729000  0.43613000  1.0
  H  H25  1  0.38425000  0.12729000  0.06387000  1.0
  H  H26  1  0.38423000  0.37270000  0.56387000  1.0
  H  H27  1  0.61577000  0.87271000  0.93613000  1.0
  C  C28  1  0.19673000  0.79624000  0.43324000  1.0
  C  C29  1  0.80326000  0.29624000  0.06677000  1.0
  C  C30  1  0.80326000  0.20377000  0.56677000  1.0
  C  C31  1  0.19675000  0.70376000  0.93323000  1.0
  C  C32  1  0.39924000  0.86759000  0.37425000  1.0
  C  C33  1  0.60075000  0.36759000  0.12576000  1.0
  C  C34  1  0.60075000  0.13242000  0.62576000  1.0
  C  C35  1  0.39927000  0.63242000  0.87424000  1.0
  C  C36  1  0.45762000  0.76570000  0.36938000  1.0
  C  C37  1  0.54237000  0.26570000  0.13062000  1.0
  C  C38  1  0.54237000  0.23431000  0.63062000  1.0
  C  C39  1  0.45764000  0.73431000  0.86938000  1.0
  C  C40  1  0.37087000  0.68021000  0.40124000  1.0
  C  C41  1  0.62913000  0.18021000  0.09876000  1.0
  C  C42  1  0.62912000  0.31979000  0.59876000  1.0
  C  C43  1  0.37088000  0.81979000  0.90125000  1.0
  C  C44  1  0.60031000  0.75243000  0.33366000  1.0
  C  C45  1  0.39969000  0.25243000  0.16634000  1.0
  C  C46  1  0.39968000  0.24756000  0.66635000  1.0
  C  C47  1  0.60032000  0.74757000  0.83365000  1.0
  C  C48  1  0.67196000  0.81796000  0.25796000  1.0
  C  C49  1  0.32803000  0.31795000  0.24204000  1.0
  C  C50  1  0.32803000  0.18205000  0.74203000  1.0
  C  C51  1  0.67198000  0.68206000  0.75796000  1.0
  C  C52  1  0.80797000  0.81027000  0.22498000  1.0
  C  C53  1  0.19202000  0.31026000  0.27503000  1.0
  C  C54  1  0.19202000  0.18972000  0.77502000  1.0
  C  C55  1  0.80798000  0.68973000  0.72498000  1.0
  C  C56  1  0.87460000  0.73828000  0.26905000  1.0
  C  C57  1  0.12539000  0.23829000  0.23095000  1.0
  C  C58  1  0.12538000  0.26170000  0.73094000  1.0
  C  C59  1  0.87463000  0.76171000  0.76905000  1.0
  C  C60  1  0.80412000  0.67288000  0.34495000  1.0
  C  C61  1  0.19589000  0.17288000  0.15505000  1.0
  C  C62  1  0.19587000  0.32710000  0.65505000  1.0
  C  C63  1  0.80413000  0.82711000  0.84495000  1.0
  C  C64  1  0.66773000  0.67841000  0.37598000  1.0
  C  C65  1  0.33227000  0.17841000  0.12402000  1.0
  C  C66  1  0.33226000  0.32159000  0.62402000  1.0
  C  C67  1  0.66775000  0.82160000  0.87598000  1.0
  C  C68  1  0.88046000  0.88135000  0.14354000  1.0
  C  C69  1  0.11954000  0.38134000  0.35646000  1.0
  C  C70  1  0.11954000  0.11866000  0.85646000  1.0
  C  C71  1  0.88048000  0.61867000  0.64353000  1.0
  C  C72  1  0.87546000  0.60194000  0.39762000  1.0
  C  C73  1  0.12455000  0.10193000  0.10237000  1.0
  C  C74  1  0.12454000  0.39807000  0.60237000  1.0
  C  C75  1  0.87546000  0.89806000  0.89763000  1.0
  N  N76  1  0.24156000  0.69536000  0.43330000  1.0
  N  N77  1  0.75843000  0.19536000  0.06669000  1.0
  N  N78  1  0.75843000  0.30465000  0.56670000  1.0
  N  N79  1  0.24158000  0.80465000  0.93331000  1.0
  N  N80  1  0.27024000  0.88361000  0.40516000  1.0
  N  N81  1  0.72975000  0.38362000  0.09484000  1.0
  N  N82  1  0.72975000  0.11639000  0.59485000  1.0
  N  N83  1  0.27026000  0.61639000  0.90515000  1.0
  O  O84  1  0.99388000  0.85121000  0.09477000  1.0
  O  O85  1  0.00610000  0.35120000  0.40523000  1.0
  O  O86  1  0.00612000  0.14879000  0.90523000  1.0
  O  O87  1  0.99388000  0.64880000  0.59477000  1.0
  O  O88  1  0.82119000  0.96655000  0.12991000  1.0
  O  O89  1  0.17879000  0.46655000  0.37009000  1.0
  O  O90  1  0.17882000  0.03344000  0.87009000  1.0
  O  O91  1  0.82120000  0.53345000  0.62991000  1.0
  O  O92  1  0.98961000  0.63280000  0.39757000  1.0
  O  O93  1  0.01039000  0.13280000  0.10243000  1.0
  O  O94  1  0.01037000  0.36719000  0.60243000  1.0
  O  O95  1  0.98963000  0.86720000  0.89758000  1.0
  O  O96  1  0.81584000  0.51884000  0.43982000  1.0
  O  O97  1  0.18415000  0.01884000  0.06018000  1.0
  O  O98  1  0.18414000  0.48114000  0.56018000  1.0
  O  O99  1  0.81585000  0.98116000  0.93982000  1.0
