# generated using pymatgen
data_LaH28C42S3NO7
_symmetry_space_group_name_H-M   'P 1'
_cell_length_a   8.09033000
_cell_length_b   20.64390000
_cell_length_c   20.64400000
_cell_angle_alpha   70.36760000
_cell_angle_beta   78.92010000
_cell_angle_gamma   78.91990000
_symmetry_Int_Tables_number   1
_chemical_formula_structural   LaH28C42S3NO7
_chemical_formula_sum   'La2 H56 C84 S6 N2 O14'
_cell_volume   3156.39301545
_cell_formula_units_Z   2
loop_
 _symmetry_equiv_pos_site_id
 _symmetry_equiv_pos_as_xyz
  1  'x, y, z'
loop_
 _atom_site_type_symbol
 _atom_site_label
 _atom_site_symmetry_multiplicity
 _atom_site_fract_x
 _atom_site_fract_y
 _atom_site_fract_z
 _atom_site_occupancy
  La  La0  1  0.50004000  0.68456000  0.66546000  1.0
  La  La1  1  0.00005000  0.66545000  0.68456000  1.0
  H  H2  1  0.10148000  0.06543000  0.12434000  1.0
  H  H3  1  0.60147000  0.12434000  0.06544000  1.0
  H  H4  1  0.02139000  0.13859000  0.90982000  1.0
  H  H5  1  0.52140000  0.90982000  0.13859000  1.0
  H  H6  1  0.96305000  0.92798000  0.03284000  1.0
  H  H7  1  0.46305000  0.03284000  0.92798000  1.0
  H  H8  1  0.96993000  0.77690000  0.26210000  1.0
  H  H9  1  0.46992000  0.26210000  0.77690000  1.0
  H  H10  1  0.91037000  0.85694000  0.13833000  1.0
  H  H11  1  0.41036000  0.13833000  0.85694000  1.0
  H  H12  1  0.07125000  0.72829000  0.36127000  1.0
  H  H13  1  0.57126000  0.36126000  0.72828000  1.0
  H  H14  1  0.14706000  0.68277000  0.48137000  1.0
  H  H15  1  0.64707000  0.48137000  0.68276000  1.0
  H  H16  1  0.33143000  0.87313000  0.45284000  1.0
  H  H17  1  0.83143000  0.45285000  0.87312000  1.0
  H  H18  1  0.24393000  0.92193000  0.33510000  1.0
  H  H19  1  0.74392000  0.33510000  0.92193000  1.0
  H  H20  1  0.28705000  0.28769000  0.05543000  1.0
  H  H21  1  0.78706000  0.05543000  0.28769000  1.0
  H  H22  1  0.21395000  0.16095000  0.10470000  1.0
  H  H23  1  0.71395000  0.10470000  0.16095000  1.0
  H  H24  1  0.30952000  0.39757000  0.99220000  1.0
  H  H25  1  0.80952000  0.99219000  0.39757000  1.0
  H  H26  1  0.38167000  0.51136000  0.91084000  1.0
  H  H27  1  0.88167000  0.91084000  0.51136000  1.0
  H  H28  1  0.19710000  0.47296000  0.74791000  1.0
  H  H29  1  0.69709000  0.74791000  0.47296000  1.0
  H  H30  1  0.13298000  0.35764000  0.82641000  1.0
  H  H31  1  0.63298000  0.82641000  0.35764000  1.0
  H  H32  1  0.77338000  0.07281000  0.75417000  1.0
  H  H33  1  0.27338000  0.75417000  0.07281000  1.0
  H  H34  1  0.87102000  0.12664000  0.83578000  1.0
  H  H35  1  0.37103000  0.83578000  0.12665000  1.0
  H  H36  1  0.68334000  0.00318000  0.71143000  1.0
  H  H37  1  0.18335000  0.71142000  0.00318000  1.0
  H  H38  1  0.60411000  0.92097000  0.66182000  1.0
  H  H39  1  0.10412000  0.66182000  0.92097000  1.0
  H  H40  1  0.79244000  0.74854000  0.82756000  1.0
  H  H41  1  0.29243000  0.82756000  0.74855000  1.0
  H  H42  1  0.87070000  0.82920000  0.87848000  1.0
  H  H43  1  0.37070000  0.87847000  0.82921000  1.0
  H  H44  1  0.82778000  0.58743000  0.57491000  1.0
  H  H45  1  0.32780000  0.57490000  0.58744000  1.0
  H  H46  1  0.01836000  0.56571000  0.49427000  1.0
  H  H47  1  0.51837000  0.49426000  0.56570000  1.0
  H  H48  1  0.98957000  0.61796000  0.40740000  1.0
  H  H49  1  0.48958000  0.40740000  0.61795000  1.0
  H  H50  1  0.94718000  0.53022000  0.43791000  1.0
  H  H51  1  0.44719000  0.43791000  0.53022000  1.0
  H  H52  1  0.62808000  0.57980000  0.41163000  1.0
  H  H53  1  0.12808000  0.41163000  0.57980000  1.0
  H  H54  1  0.68294000  0.66565000  0.38427000  1.0
  H  H55  1  0.18294000  0.38426000  0.66564000  1.0
  H  H56  1  0.51932000  0.64077000  0.45580000  1.0
  H  H57  1  0.01932000  0.45580000  0.64076000  1.0
  C  C58  1  0.03568000  0.99012000  0.08566000  1.0
  C  C59  1  0.53568000  0.08566000  0.99012000  1.0
  C  C60  1  0.07072000  0.05611000  0.07937000  1.0
  C  C61  1  0.57072000  0.07937000  0.05611000  1.0
  C  C62  1  0.06634000  0.11022000  0.01619000  1.0
  C  C63  1  0.56635000  0.01620000  0.11022000  1.0
  C  C64  1  0.02235000  0.09744000  0.95945000  1.0
  C  C65  1  0.52237000  0.95945000  0.09743000  1.0
  C  C66  1  0.98093000  0.03258000  0.96507000  1.0
  C  C67  1  0.48094000  0.96507000  0.03259000  1.0
  C  C68  1  0.99069000  0.97908000  0.02825000  1.0
  C  C69  1  0.49070000  0.02825000  0.97908000  1.0
  C  C70  1  0.04400000  0.93331000  0.15062000  1.0
  C  C71  1  0.54400000  0.15062000  0.93331000  1.0
  C  C72  1  0.10230000  0.85621000  0.26970000  1.0
  C  C73  1  0.60230000  0.26971000  0.85621000  1.0
  C  C74  1  0.01381000  0.82729000  0.23735000  1.0
  C  C75  1  0.51381000  0.23735000  0.82729000  1.0
  C  C76  1  0.98113000  0.87047000  0.17064000  1.0
  C  C77  1  0.48113000  0.17064000  0.87047000  1.0
  C  C78  1  0.15334000  0.82834000  0.33876000  1.0
  C  C79  1  0.65333000  0.33876000  0.82834000  1.0
  C  C80  1  0.12838000  0.76035000  0.38100000  1.0
  C  C81  1  0.62838000  0.38100000  0.76035000  1.0
  C  C82  1  0.17202000  0.73439000  0.44774000  1.0
  C  C83  1  0.67202000  0.44774000  0.73439000  1.0
  C  C84  1  0.24641000  0.77481000  0.47370000  1.0
  C  C85  1  0.74641000  0.47370000  0.77481000  1.0
  C  C86  1  0.27375000  0.84216000  0.43204000  1.0
  C  C87  1  0.77375000  0.43204000  0.84215000  1.0
  C  C88  1  0.22574000  0.86875000  0.36612000  1.0
  C  C89  1  0.72574000  0.36612000  0.86875000  1.0
  C  C90  1  0.29829000  0.74713000  0.54422000  1.0
  C  C91  1  0.79830000  0.54422000  0.74712000  1.0
  C  C92  1  0.11117000  0.17761000  0.00924000  1.0
  C  C93  1  0.61117000  0.00924000  0.17761000  1.0
  C  C94  1  0.18329000  0.29984000  0.96137000  1.0
  C  C95  1  0.68329000  0.96137000  0.29984000  1.0
  C  C96  1  0.22433000  0.26498000  0.02783000  1.0
  C  C97  1  0.72433000  0.02783000  0.26498000  1.0
  C  C98  1  0.18413000  0.19657000  0.05462000  1.0
  C  C99  1  0.68414000  0.05462000  0.19657000  1.0
  C  C100  1  0.21685000  0.36843000  0.91542000  1.0
  C  C101  1  0.71685000  0.91541000  0.36843000  1.0
  C  C102  1  0.28539000  0.41338000  0.93850000  1.0
  C  C103  1  0.78539000  0.93850000  0.41337000  1.0
  C  C104  1  0.32519000  0.47730000  0.89345000  1.0
  C  C105  1  0.82519000  0.89345000  0.47730000  1.0
  C  C106  1  0.29451000  0.49910000  0.82430000  1.0
  C  C107  1  0.79451000  0.82430000  0.49910000  1.0
  C  C108  1  0.22308000  0.45545000  0.80131000  1.0
  C  C109  1  0.72307000  0.80131000  0.45545000  1.0
  C  C110  1  0.18648000  0.39114000  0.84572000  1.0
  C  C111  1  0.68648000  0.84571000  0.39114000  1.0
  C  C112  1  0.34148000  0.56651000  0.77530000  1.0
  C  C113  1  0.84147000  0.77530000  0.56651000  1.0
  C  C114  1  0.92683000  0.02187000  0.90645000  1.0
  C  C115  1  0.42685000  0.90645000  0.02187000  1.0
  C  C116  1  0.82917000  0.97011000  0.82861000  1.0
  C  C117  1  0.32919000  0.82861000  0.97011000  1.0
  C  C118  1  0.81973000  0.04197000  0.80300000  1.0
  C  C119  1  0.31975000  0.80300000  0.04198000  1.0
  C  C120  1  0.87503000  0.07104000  0.84657000  1.0
  C  C121  1  0.37506000  0.84657000  0.07104000  1.0
  C  C122  1  0.78325000  0.92240000  0.79887000  1.0
  C  C123  1  0.28325000  0.79887000  0.92240000  1.0
  C  C124  1  0.70752000  0.94742000  0.73730000  1.0
  C  C125  1  0.20752000  0.73730000  0.94742000  1.0
  C  C126  1  0.66316000  0.90185000  0.70920000  1.0
  C  C127  1  0.16316000  0.70920000  0.90185000  1.0
  C  C128  1  0.69437000  0.82989000  0.74139000  1.0
  C  C129  1  0.19438000  0.74138000  0.82989000  1.0
  C  C130  1  0.76854000  0.80440000  0.80270000  1.0
  C  C131  1  0.26853000  0.80270000  0.80441000  1.0
  C  C132  1  0.81171000  0.85006000  0.83100000  1.0
  C  C133  1  0.31171000  0.83100000  0.85006000  1.0
  C  C134  1  0.64498000  0.78145000  0.71162000  1.0
  C  C135  1  0.14499000  0.71162000  0.78145000  1.0
  C  C136  1  0.72197000  0.60282000  0.54374000  1.0
  C  C137  1  0.22198000  0.54374000  0.60282000  1.0
  C  C138  1  0.93964000  0.57716000  0.45304000  1.0
  C  C139  1  0.43965000  0.45304000  0.57716000  1.0
  C  C140  1  0.64183000  0.62270000  0.42970000  1.0
  C  C141  1  0.14182000  0.42970000  0.62270000  1.0
  S  S142  1  0.14508000  0.93745000  0.21541000  1.0
  S  S143  1  0.64508000  0.21541000  0.93744000  1.0
  S  S144  1  0.08968000  0.24658000  0.93401000  1.0
  S  S145  1  0.58969000  0.93401000  0.24657000  1.0
  S  S146  1  0.90853000  0.93956000  0.90721000  1.0
  S  S147  1  0.40856000  0.90720000  0.93956000  1.0
  N  N148  1  0.76564000  0.60005000  0.47817000  1.0
  N  N149  1  0.26566000  0.47816000  0.60005000  1.0
  O  O150  1  0.40524000  0.77584000  0.55857000  1.0
  O  O151  1  0.90525000  0.55857000  0.77584000  1.0
  O  O152  1  0.23887000  0.69279000  0.58787000  1.0
  O  O153  1  0.73888000  0.58787000  0.69279000  1.0
  O  O154  1  0.29369000  0.58797000  0.71401000  1.0
  O  O155  1  0.79369000  0.71401000  0.58797000  1.0
  O  O156  1  0.43075000  0.60093000  0.79196000  1.0
  O  O157  1  0.93073000  0.79196000  0.60093000  1.0
  O  O158  1  0.70942000  0.71629000  0.73132000  1.0
  O  O159  1  0.20943000  0.73132000  0.71629000  1.0
  O  O160  1  0.53830000  0.80305000  0.66883000  1.0
  O  O161  1  0.03831000  0.66883000  0.80305000  1.0
  O  O162  1  0.57329000  0.62098000  0.56796000  1.0
  O  O163  1  0.07332000  0.56796000  0.62098000  1.0
