# generated using pymatgen
data_ZnH8C14(N2F)2
_symmetry_space_group_name_H-M   'P 1'
_cell_length_a   14.91302637
_cell_length_b   14.91240000
_cell_length_c   14.91420000
_cell_angle_alpha   116.00500000
_cell_angle_beta   97.26963245
_cell_angle_gamma   115.78968867
_symmetry_Int_Tables_number   1
_chemical_formula_structural   ZnH8C14(N2F)2
_chemical_formula_sum   'Zn4 H32 C56 N16 F8'
_cell_volume   2469.11965709
_cell_formula_units_Z   4
loop_
 _symmetry_equiv_pos_site_id
 _symmetry_equiv_pos_as_xyz
  1  'x, y, z'
loop_
 _atom_site_type_symbol
 _atom_site_label
 _atom_site_symmetry_multiplicity
 _atom_site_fract_x
 _atom_site_fract_y
 _atom_site_fract_z
 _atom_site_occupancy
  Zn  Zn0  1  0.64377000  0.14374000  0.50000000  1.0
  Zn  Zn1  1  0.49999000  0.14766000  0.64762000  1.0
  Zn  Zn2  1  0.35626000  0.85623000  0.49994000  1.0
  Zn  Zn3  1  0.50001000  0.85229000  0.35226000  1.0
  H  H4  1  0.72868000  0.19396000  0.32311000  1.0
  H  H5  1  0.32637000  0.17243000  0.52307000  1.0
  H  H6  1  0.12918000  0.80610000  0.53470000  1.0
  H  H7  1  0.35080000  0.82766000  0.15397000  1.0
  H  H8  1  0.27143000  0.59443000  0.46526000  1.0
  H  H9  1  0.67364000  0.19682000  0.84604000  1.0
  H  H10  1  0.87085000  0.40553000  0.67702000  1.0
  H  H11  1  0.64915000  0.80313000  0.47685000  1.0
  H  H12  1  0.19232000  0.40421000  0.49501000  1.0
  H  H13  1  0.79416000  0.76127000  0.38286000  1.0
  H  H14  1  0.09079000  0.59596000  0.78803000  1.0
  H  H15  1  0.62091000  0.23826000  0.03268000  1.0
  H  H16  1  0.80752000  0.30278000  0.21198000  1.0
  H  H17  1  0.20584000  0.58862000  0.96709000  1.0
  H  H18  1  0.90926000  0.69725000  0.50527000  1.0
  H  H19  1  0.37889000  0.41158000  0.61717000  1.0
  H  H20  1  0.15185000  0.81851667  0.34271000  1.0
  H  H21  1  0.54265000  0.80738000  0.12485000  1.0
  H  H22  1  0.52428000  0.18140000  0.33326000  1.0
  H  H23  1  0.31745000  0.19264000  0.73529000  1.0
  H  H24  1  0.84817000  0.19089000  0.66680000  1.0
  H  H25  1  0.45742000  0.58225000  0.26472000  1.0
  H  H26  1  0.47577000  0.80904000  0.65716000  1.0
  H  H27  1  0.68252000  0.41781000  0.87519000  1.0
  H  H28  1  0.42063000  0.23600000  0.24293000  1.0
  H  H29  1  0.15686000  0.17772000  0.77535000  1.0
  H  H30  1  0.00702000  0.76395000  0.18460000  1.0
  H  H31  1  0.59778000  0.82236000  0.97910000  1.0
  H  H32  1  0.57951000  0.82251000  0.81543000  1.0
  H  H33  1  0.84311000  0.61844000  0.02090000  1.0
  H  H34  1  0.99291000  0.17751000  0.75694000  1.0
  H  H35  1  0.40237000  0.38142000  0.22458000  1.0
  C  C36  1  0.68223000  0.09884000  0.28962000  1.0
  C  C37  1  0.38372000  0.16945000  0.48549000  1.0
  C  C38  1  0.61886000  0.90565000  0.98605000  1.0
  C  C39  1  0.60887000  0.90589000  0.89166000  1.0
  C  C40  1  0.91950000  0.63275000  0.01395000  1.0
  C  C41  1  0.98579000  0.09411000  0.70301000  1.0
  C  C42  1  0.38122000  0.36724000  0.28673000  1.0
  C  C43  1  0.39122000  0.28282000  0.29695000  1.0
  C  C44  1  0.08047000  0.09440000  0.71328000  1.0
  C  C45  1  0.01417000  0.71715000  0.10834000  1.0
  C  C46  1  0.19083000  0.90120000  0.58337000  1.0
  C  C47  1  0.31616000  0.83062000  0.21427000  1.0
  C  C48  1  0.31789000  0.60742000  0.41661000  1.0
  C  C49  1  0.61629000  0.10187000  0.78572000  1.0
  C  C50  1  0.80919000  0.39254000  0.71046000  1.0
  C  C51  1  0.68379000  0.89808000  0.51447000  1.0
  C  C52  1  0.27887000  0.43763000  0.51826000  1.0
  C  C53  1  0.81769000  0.76687000  0.45905000  1.0
  C  C54  1  0.08070000  0.56254000  0.84117000  1.0
  C  C55  1  0.69163000  0.23290000  0.05073000  1.0
  C  C56  1  0.72095000  0.23942000  0.15878000  1.0
  C  C57  1  0.18229000  0.64128000  0.94916000  1.0
  C  C58  1  0.91932000  0.76046000  0.48189000  1.0
  C  C59  1  0.30822000  0.35894000  0.54106000  1.0
  C  C60  1  0.21490000  0.82787000  0.31116000  1.0
  C  C61  1  0.58769000  0.90179000  0.18861000  1.0
  C  C62  1  0.48340000  0.17216000  0.38701000  1.0
  C  C63  1  0.28685000  0.09823000  0.68591000  1.0
  C  C64  1  0.78510000  0.09628000  0.61303000  1.0
  C  C65  1  0.41239000  0.60097000  0.31411000  1.0
  C  C66  1  0.51664000  0.90367000  0.68877000  1.0
  C  C67  1  0.71315000  0.39905000  0.81141000  1.0
  C  C68  1  0.64425000  0.00199000  0.18316000  1.0
  C  C69  1  0.40482000  0.19727000  0.40846000  1.0
  C  C70  1  0.18120000  0.99802000  0.64232000  1.0
  C  C71  1  0.21127000  0.80278000  0.20750000  1.0
  C  C72  1  0.35584000  0.53892000  0.35770000  1.0
  C  C73  1  0.59519000  0.00376000  0.79247000  1.0
  C  C74  1  0.81881000  0.46112000  0.81690000  1.0
  C  C75  1  0.78869000  0.99621000  0.59154000  1.0
  C  C76  1  0.33043000  0.32426000  0.43911000  1.0
  C  C77  1  0.97904000  0.89080000  0.57300000  1.0
  C  C78  1  0.11498000  0.67588000  0.00611000  1.0
  C  C79  1  0.68192000  0.10913000  0.08821000  1.0
  C  C80  1  0.66950000  0.10876000  0.99386000  1.0
  C  C81  1  0.02096000  0.59390000  0.91177000  1.0
  C  C82  1  0.88502000  0.89112000  0.56096000  1.0
  C  C83  1  0.31803000  0.40623000  0.42710000  1.0
  C  C84  1  0.37086000  0.26115000  0.37789000  1.0
  C  C85  1  0.08236000  0.99355000  0.64499000  1.0
  C  C86  1  0.11682000  0.73891000  0.10965000  1.0
  C  C87  1  0.65131000  0.00643000  0.08879000  1.0
  C  C88  1  0.62916000  0.00718000  0.89033000  1.0
  C  C89  1  0.91764000  0.56261000  0.91124000  1.0
  C  C90  1  0.88313000  0.99278000  0.62212000  1.0
  C  C91  1  0.34873000  0.43746000  0.35505000  1.0
  N  N92  1  0.65109000  0.05953000  0.35268000  1.0
  N  N93  1  0.44669000  0.13350000  0.50889000  1.0
  N  N94  1  0.29318000  0.94053000  0.59146000  1.0
  N  N95  1  0.37550000  0.86656000  0.31318000  1.0
  N  N96  1  0.34906000  0.70166000  0.40847000  1.0
  N  N97  1  0.55337000  0.06230000  0.68678000  1.0
  N  N98  1  0.70683000  0.29829000  0.64744000  1.0
  N  N99  1  0.62447000  0.93768000  0.49107000  1.0
  N  N100  1  0.31330000  0.86474000  0.37252000  1.0
  N  N101  1  0.59184000  0.93655000  0.28979000  1.0
  N  N102  1  0.50788000  0.13530000  0.44855000  1.0
  N  N103  1  0.35326000  0.06350000  0.65520000  1.0
  N  N104  1  0.68673000  0.05930000  0.55151000  1.0
  N  N105  1  0.40826000  0.69803000  0.34479000  1.0
  N  N106  1  0.49216000  0.94067000  0.62738000  1.0
  N  N107  1  0.64676000  0.30193000  0.71025000  1.0
  F  F108  1  0.33703000  0.55937000  0.60461000  1.0
  F  F109  1  0.72404000  0.68049000  0.45680000  1.0
  F  F110  1  0.04531000  0.44080000  0.77752000  1.0
  F  F111  1  0.77575000  0.31931000  0.04348000  1.0
  F  F112  1  0.66266000  0.26741000  0.22226000  1.0
  F  F113  1  0.27597000  0.73264000  0.95641000  1.0
  F  F114  1  0.95475000  0.73228000  0.39560000  1.0
  F  F115  1  0.22407000  0.26756000  0.54334000  1.0
