# generated using pymatgen
data_Zn4H16C28S4O25
_symmetry_space_group_name_H-M   'P 1'
_cell_length_a   13.02370000
_cell_length_b   13.07630000
_cell_length_c   15.55110000
_cell_angle_alpha   70.70290000
_cell_angle_beta   68.03890000
_cell_angle_gamma   85.32950000
_symmetry_Int_Tables_number   1
_chemical_formula_structural   Zn4H16C28S4O25
_chemical_formula_sum   'Zn4 H16 C28 S4 O25'
_cell_volume   2315.52241442
_cell_formula_units_Z   1
loop_
 _symmetry_equiv_pos_site_id
 _symmetry_equiv_pos_as_xyz
  1  'x, y, z'
loop_
 _atom_site_type_symbol
 _atom_site_label
 _atom_site_symmetry_multiplicity
 _atom_site_fract_x
 _atom_site_fract_y
 _atom_site_fract_z
 _atom_site_occupancy
  Zn  Zn0  1  0.44080000  0.41000000  0.44436000  1.0
  Zn  Zn1  1  0.57626000  0.40587000  0.57666000  1.0
  Zn  Zn2  1  0.37648000  0.55923000  0.58328000  1.0
  Zn  Zn3  1  0.58856000  0.62131000  0.38443000  1.0
  H  H4  1  0.23711000  0.42864000  0.88557000  1.0
  H  H5  1  0.23194000  0.48643000  0.17795000  1.0
  H  H6  1  0.10141000  0.27471000  0.17834000  1.0
  H  H7  1  0.57710000  0.48714000  0.83057000  1.0
  H  H8  1  0.97003000  0.56943000  0.06180000  1.0
  H  H9  1  0.82450000  0.52706000  0.75026000  1.0
  H  H10  1  0.37354000  0.51294000  0.23578000  1.0
  H  H11  1  0.88265000  0.44190000  0.54844000  1.0
  H  H12  1  0.11527000  0.54375000  0.39695000  1.0
  H  H13  1  0.95279000  0.60487000  0.33810000  1.0
  H  H14  1  0.46784000  0.09399000  0.47077000  1.0
  H  H15  1  0.81287000  0.63616000  0.92331000  1.0
  H  H16  1  0.09434000  0.27063000  0.71881000  1.0
  H  H17  1  0.47006000  0.86642000  0.62142000  1.0
  H  H18  1  0.51323000  0.04176000  0.66153000  1.0
  H  H19  1  0.48402000  0.95034000  0.40633000  1.0
  C  C20  1  0.78223000  0.53535000  0.42911000  1.0
  C  C21  1  0.49127000  0.48575000  0.87833000  1.0
  C  C22  1  0.29895000  0.44815000  0.90996000  1.0
  C  C23  1  0.21404000  0.48517000  0.52557000  1.0
  C  C24  1  0.59077000  0.54999000  0.13624000  1.0
  C  C25  1  0.09415000  0.46848000  0.54359000  1.0
  C  C26  1  0.05454000  0.50323000  0.47017000  1.0
  C  C27  1  0.90216000  0.54803000  0.40864000  1.0
  C  C28  1  0.94136000  0.49441000  0.47964000  1.0
  C  C29  1  0.47401000  0.89153000  0.47808000  1.0
  C  C30  1  0.47344000  0.92549000  0.55150000  1.0
  C  C31  1  0.73007000  0.60263000  0.97298000  1.0
  C  C32  1  0.49580000  0.08713000  0.59612000  1.0
  C  C33  1  0.47866000  0.03972000  0.53711000  1.0
  C  C34  1  0.49760000  0.20669000  0.56886000  1.0
  C  C35  1  0.47123000  0.77686000  0.48392000  1.0
  C  C36  1  0.44047000  0.45289000  0.74881000  1.0
  C  C37  1  0.55420000  0.53403000  0.24401000  1.0
  C  C38  1  0.26972000  0.45791000  0.00166000  1.0
  C  C39  1  0.41125000  0.46089000  0.84849000  1.0
  C  C40  1  0.69975000  0.58136000  0.07389000  1.0
  C  C41  1  0.65518000  0.58487000  0.93445000  1.0
  C  C42  1  0.54467000  0.54158000  0.99686000  1.0
  C  C43  1  0.51225000  0.53320000  0.09801000  1.0
  C  C44  1  0.46247000  0.50705000  0.96765000  1.0
  C  C45  1  0.34850000  0.48853000  0.03347000  1.0
  C  C46  1  0.31840000  0.49677000  0.12885000  1.0
  C  C47  1  0.39782000  0.51319000  0.16071000  1.0
  S  S48  1  0.00587000  0.40576000  0.66784000  1.0
  S  S49  1  0.12623000  0.43307000  0.07402000  1.0
  S  S50  1  0.79879000  0.60152000  0.12247000  1.0
  S  S51  1  0.70783000  0.64249000  0.80185000  1.0
  O  O52  1  0.49707000  0.49980000  0.49591000  1.0
  O  O53  1  0.53983000  0.43411000  0.70239000  1.0
  O  O54  1  0.56530000  0.61595000  0.26684000  1.0
  O  O55  1  0.36106000  0.46731000  0.71693000  1.0
  O  O56  1  0.51317000  0.44019000  0.30203000  1.0
  O  O57  1  0.96116000  0.48812000  0.71313000  1.0
  O  O58  1  0.93364000  0.32401000  0.67381000  1.0
  O  O59  1  0.09352000  0.34655000  0.71638000  1.0
  O  O60  1  0.08162000  0.52992000  0.09777000  1.0
  O  O61  1  0.07408000  0.38311000  0.03018000  1.0
  O  O62  1  0.12214000  0.34575000  0.17701000  1.0
  O  O63  1  0.45296000  0.25696000  0.50664000  1.0
  O  O64  1  0.79521000  0.71071000  0.12497000  1.0
  O  O65  1  0.78549000  0.51139000  0.21075000  1.0
  O  O66  1  0.90827000  0.58952000  0.03641000  1.0
  O  O67  1  0.61712000  0.68728000  0.77243000  1.0
  O  O68  1  0.80578000  0.70857000  0.77300000  1.0
  O  O69  1  0.74405000  0.54057000  0.76401000  1.0
  O  O70  1  0.52344000  0.75737000  0.40357000  1.0
  O  O71  1  0.73187000  0.44903000  0.49641000  1.0
  O  O72  1  0.23402000  0.53905000  0.57255000  1.0
  O  O73  1  0.74132000  0.61294000  0.37850000  1.0
  O  O74  1  0.28237000  0.44353000  0.46473000  1.0
  O  O75  1  0.54317000  0.25032000  0.60907000  1.0
  O  O76  1  0.41664000  0.70721000  0.56689000  1.0
