# generated using pymatgen
data_CdH8C12N2O5
_symmetry_space_group_name_H-M   'P 1'
_cell_length_a   7.80910000
_cell_length_b   10.52780000
_cell_length_c   16.14200000
_cell_angle_alpha   100.99700000
_cell_angle_beta   89.99940000
_cell_angle_gamma   89.99920000
_symmetry_Int_Tables_number   1
_chemical_formula_structural   CdH8C12N2O5
_chemical_formula_sum   'Cd4 H32 C48 N8 O20'
_cell_volume   1302.70760665
_cell_formula_units_Z   4
loop_
 _symmetry_equiv_pos_site_id
 _symmetry_equiv_pos_as_xyz
  1  'x, y, z'
loop_
 _atom_site_type_symbol
 _atom_site_label
 _atom_site_symmetry_multiplicity
 _atom_site_fract_x
 _atom_site_fract_y
 _atom_site_fract_z
 _atom_site_occupancy
  Cd  Cd0  1  0.80033000  0.47077000  0.88116000  1.0
  Cd  Cd1  1  0.30032000  0.52923000  0.61884000  1.0
  Cd  Cd2  1  0.19968000  0.52924000  0.11884000  1.0
  Cd  Cd3  1  0.69966000  0.47076000  0.38117000  1.0
  H  H4  1  0.73427000  0.82402000  0.10571000  1.0
  H  H5  1  0.23426000  0.17597000  0.39428000  1.0
  H  H6  1  0.26577000  0.17597000  0.89427000  1.0
  H  H7  1  0.76571000  0.82402000  0.60572000  1.0
  H  H8  1  0.02024000  0.28680000  0.83965000  1.0
  H  H9  1  0.52022000  0.71320000  0.66035000  1.0
  H  H10  1  0.97976000  0.71321000  0.16034000  1.0
  H  H11  1  0.47975000  0.28680000  0.33966000  1.0
  H  H12  1  0.12431000  0.36745000  0.91346000  1.0
  H  H13  1  0.62429000  0.63255000  0.58653000  1.0
  H  H14  1  0.87570000  0.63255000  0.08653000  1.0
  H  H15  1  0.37568000  0.36745000  0.41347000  1.0
  H  H16  1  0.65849000  0.04836000  0.17118000  1.0
  H  H17  1  0.15846000  0.95163000  0.32881000  1.0
  H  H18  1  0.34156000  0.95162000  0.82881000  1.0
  H  H19  1  0.84153000  0.04836000  0.67118000  1.0
  H  H20  1  0.85391000  0.95003000  0.87378000  1.0
  H  H21  1  0.35383000  0.04998000  0.62623000  1.0
  H  H22  1  0.14616000  0.05001000  0.12622000  1.0
  H  H23  1  0.64611000  0.95000000  0.37377000  1.0
  H  H24  1  0.82296000  0.24406000  0.21603000  1.0
  H  H25  1  0.32296000  0.75595000  0.28398000  1.0
  H  H26  1  0.17704000  0.75595000  0.78399000  1.0
  H  H27  1  0.67704000  0.24405000  0.71601000  1.0
  H  H28  1  0.54496000  0.58438000  0.23943000  1.0
  H  H29  1  0.04498000  0.41562000  0.26057000  1.0
  H  H30  1  0.45503000  0.41561000  0.76058000  1.0
  H  H31  1  0.95501000  0.58438000  0.73941000  1.0
  H  H32  1  0.47388000  0.30758000  0.02152000  1.0
  H  H33  1  0.97384000  0.69240000  0.47848000  1.0
  H  H34  1  0.52617000  0.69241000  0.97849000  1.0
  H  H35  1  0.02614000  0.30758000  0.52151000  1.0
  C  C36  1  0.83945000  0.73550000  0.94279000  1.0
  C  C37  1  0.33943000  0.26450000  0.55721000  1.0
  C  C38  1  0.16059000  0.26452000  0.05720000  1.0
  C  C39  1  0.66054000  0.73548000  0.44279000  1.0
  C  C40  1  0.80028000  0.87157000  0.98497000  1.0
  C  C41  1  0.30024000  0.12844000  0.51502000  1.0
  C  C42  1  0.19977000  0.12844000  0.01502000  1.0
  C  C43  1  0.69972000  0.87155000  0.48497000  1.0
  C  C44  1  0.74508000  0.90054000  0.06911000  1.0
  C  C45  1  0.24506000  0.09946000  0.43088000  1.0
  C  C46  1  0.25497000  0.09946000  0.93088000  1.0
  C  C47  1  0.75493000  0.90053000  0.56911000  1.0
  C  C48  1  0.70259000  0.02690000  0.10578000  1.0
  C  C49  1  0.20256000  0.97310000  0.39422000  1.0
  C  C50  1  0.29746000  0.97310000  0.89422000  1.0
  C  C51  1  0.79742000  0.02690000  0.60578000  1.0
  C  C52  1  0.71195000  0.12782000  0.05996000  1.0
  C  C53  1  0.21192000  0.87217000  0.44005000  1.0
  C  C54  1  0.28806000  0.87217000  0.94005000  1.0
  C  C55  1  0.78805000  0.12781000  0.55995000  1.0
  C  C56  1  0.76650000  0.09873000  0.97455000  1.0
  C  C57  1  0.26644000  0.90129000  0.52546000  1.0
  C  C58  1  0.23354000  0.90130000  0.02546000  1.0
  C  C59  1  0.73350000  0.09870000  0.47454000  1.0
  C  C60  1  0.80991000  0.97106000  0.93897000  1.0
  C  C61  1  0.30984000  0.02895000  0.56104000  1.0
  C  C62  1  0.19016000  0.02897000  0.06103000  1.0
  C  C63  1  0.69011000  0.97104000  0.43896000  1.0
  C  C64  1  0.79165000  0.19851000  0.91960000  1.0
  C  C65  1  0.29160000  0.80151000  0.58041000  1.0
  C  C66  1  0.20838000  0.80153000  0.08042000  1.0
  C  C67  1  0.70834000  0.19848000  0.41959000  1.0
  C  C68  1  0.66558000  0.25789000  0.10743000  1.0
  C  C69  1  0.16554000  0.74212000  0.39258000  1.0
  C  C70  1  0.33445000  0.74212000  0.89258000  1.0
  C  C71  1  0.83443000  0.25787000  0.60742000  1.0
  C  C72  1  0.73272000  0.30239000  0.18785000  1.0
  C  C73  1  0.23270000  0.69761000  0.31216000  1.0
  C  C74  1  0.26729000  0.69760000  0.81216000  1.0
  C  C75  1  0.76728000  0.30239000  0.68784000  1.0
  C  C76  1  0.57608000  0.49019000  0.20143000  1.0
  C  C77  1  0.07607000  0.50980000  0.29857000  1.0
  C  C78  1  0.42393000  0.50980000  0.79858000  1.0
  C  C79  1  0.92391000  0.49018000  0.70142000  1.0
  C  C80  1  0.54210000  0.33770000  0.08058000  1.0
  C  C81  1  0.04207000  0.66230000  0.41943000  1.0
  C  C82  1  0.45794000  0.66230000  0.91943000  1.0
  C  C83  1  0.95791000  0.33769000  0.58057000  1.0
  N  N84  1  0.68913000  0.41833000  0.23404000  1.0
  N  N85  1  0.18913000  0.58167000  0.26597000  1.0
  N  N86  1  0.31086000  0.58167000  0.76598000  1.0
  N  N87  1  0.81085000  0.41832000  0.73402000  1.0
  N  N88  1  0.49630000  0.45200000  0.12750000  1.0
  N  N89  1  0.99628000  0.54800000  0.37251000  1.0
  N  N90  1  0.50372000  0.54800000  0.87251000  1.0
  N  N91  1  0.00370000  0.45199000  0.62748000  1.0
  O  O92  1  0.07776000  0.37228000  0.85649000  1.0
  O  O93  1  0.57775000  0.62772000  0.64351000  1.0
  O  O94  1  0.92224000  0.62773000  0.14350000  1.0
  O  O95  1  0.42223000  0.37228000  0.35650000  1.0
  O  O96  1  0.87318000  0.70856000  0.86512000  1.0
  O  O97  1  0.37316000  0.29144000  0.63487000  1.0
  O  O98  1  0.12687000  0.29147000  0.13486000  1.0
  O  O99  1  0.62681000  0.70854000  0.36514000  1.0
  O  O100  1  0.82478000  0.64576000  0.98772000  1.0
  O  O101  1  0.32474000  0.35424000  0.51228000  1.0
  O  O102  1  0.17529000  0.35426000  0.01226000  1.0
  O  O103  1  0.67523000  0.64575000  0.48773000  1.0
  O  O104  1  0.86268000  0.16531000  0.84860000  1.0
  O  O105  1  0.36264000  0.83470000  0.65141000  1.0
  O  O106  1  0.13730000  0.83472000  0.15140000  1.0
  O  O107  1  0.63729000  0.16528000  0.34859000  1.0
  O  O108  1  0.74019000  0.31413000  0.95056000  1.0
  O  O109  1  0.24013000  0.68587000  0.54945000  1.0
  O  O110  1  0.25988000  0.68590000  0.04946000  1.0
  O  O111  1  0.75983000  0.31411000  0.45055000  1.0
