# generated using pymatgen
data_CoH8C9NO7
_symmetry_space_group_name_H-M   'P 1'
_cell_length_a   5.22607000
_cell_length_b   8.51269000
_cell_length_c   12.01880000
_cell_angle_alpha   102.70400000
_cell_angle_beta   96.21180000
_cell_angle_gamma   105.76700000
_symmetry_Int_Tables_number   1
_chemical_formula_structural   CoH8C9NO7
_chemical_formula_sum   'Co2 H16 C18 N2 O14'
_cell_volume   493.87733498
_cell_formula_units_Z   2
loop_
 _symmetry_equiv_pos_site_id
 _symmetry_equiv_pos_as_xyz
  1  'x, y, z'
loop_
 _atom_site_type_symbol
 _atom_site_label
 _atom_site_symmetry_multiplicity
 _atom_site_fract_x
 _atom_site_fract_y
 _atom_site_fract_z
 _atom_site_occupancy
  Co  Co0  1  0.44124000  0.68264000  0.50063000  1.0
  Co  Co1  1  0.55878000  0.31737000  0.49937000  1.0
  H  H2  1  0.73077000  0.61889000  0.06560000  1.0
  H  H3  1  0.26920000  0.38112000  0.93441000  1.0
  H  H4  1  0.92692000  0.78242000  0.42911000  1.0
  H  H5  1  0.07309000  0.21758000  0.57089000  1.0
  H  H6  1  0.74272000  0.90902000  0.43037000  1.0
  H  H7  1  0.25729000  0.09098000  0.56962000  1.0
  H  H8  1  0.31269000  0.86197000  0.36573000  1.0
  H  H9  1  0.68732000  0.13803000  0.63427000  1.0
  H  H10  1  0.18591000  0.65677000  0.30887000  1.0
  H  H11  1  0.81409000  0.34323000  0.69113000  1.0
  H  H12  1  0.34799000  0.92900000  0.03800000  1.0
  H  H13  1  0.65200000  0.07099000  0.96200000  1.0
  H  H14  1  0.67770000  0.83103000  0.21744000  1.0
  H  H15  1  0.32230000  0.16897000  0.78256000  1.0
  H  H16  1  0.46600000  0.23605000  0.13246000  1.0
  H  H17  1  0.53400000  0.76394000  0.86753000  1.0
  C  C18  1  0.08135000  0.59406000  0.02255000  1.0
  C  C19  1  0.91862000  0.40593000  0.97746000  1.0
  C  C20  1  0.14817000  0.20673000  0.23388000  1.0
  C  C21  1  0.85184000  0.79327000  0.76612000  1.0
  C  C22  1  0.00812000  0.86018000  0.12290000  1.0
  C  C23  1  0.99187000  0.13982000  0.87710000  1.0
  C  C24  1  0.23034000  0.97540000  0.09920000  1.0
  C  C25  1  0.76965000  0.02459000  0.90080000  1.0
  C  C26  1  0.22885000  0.39246000  0.29123000  1.0
  C  C27  1  0.77116000  0.60754000  0.70877000  1.0
  C  C28  1  0.85475000  0.91943000  0.20113000  1.0
  C  C29  1  0.14525000  0.08057000  0.79887000  1.0
  C  C30  1  0.29635000  0.14712000  0.15331000  1.0
  C  C31  1  0.70365000  0.85288000  0.84669000  1.0
  C  C32  1  0.92446000  0.09118000  0.25758000  1.0
  C  C33  1  0.07555000  0.90882000  0.74242000  1.0
  C  C34  1  0.75807000  0.14836000  0.34107000  1.0
  C  C35  1  0.24194000  0.85165000  0.65893000  1.0
  N  N36  1  0.92782000  0.68659000  0.06922000  1.0
  N  N37  1  0.07215000  0.31340000  0.93078000  1.0
  O  O38  1  0.59572000  0.04220000  0.38177000  1.0
  O  O39  1  0.40429000  0.95780000  0.61824000  1.0
  O  O40  1  0.78023000  0.81888000  0.46444000  1.0
  O  O41  1  0.21979000  0.18112000  0.53556000  1.0
  O  O42  1  0.19961000  0.75592000  0.37877000  1.0
  O  O43  1  0.80040000  0.24408000  0.62123000  1.0
  O  O44  1  0.78131000  0.30569000  0.37382000  1.0
  O  O45  1  0.21870000  0.69432000  0.62618000  1.0
  O  O46  1  0.35093000  0.44372000  0.39876000  1.0
  O  O47  1  0.64908000  0.55629000  0.60124000  1.0
  O  O48  1  0.18212000  0.48885000  0.23152000  1.0
  O  O49  1  0.81789000  0.51115000  0.76848000  1.0
  O  O50  1  0.32385000  0.64685000  0.01601000  1.0
  O  O51  1  0.67612000  0.35314000  0.98400000  1.0
