# generated using pymatgen
data_KCd2BH6C8O13
_symmetry_space_group_name_H-M   'P 1'
_cell_length_a   7.93229000
_cell_length_b   11.96730000
_cell_length_c   14.78520000
_cell_angle_alpha   102.75900000
_cell_angle_beta   90.00000000
_cell_angle_gamma   89.99970000
_symmetry_Int_Tables_number   1
_chemical_formula_structural   KCd2BH6C8O13
_chemical_formula_sum   'K4 Cd8 B4 H24 C32 O52'
_cell_volume   1368.87436989
_cell_formula_units_Z   4
loop_
 _symmetry_equiv_pos_site_id
 _symmetry_equiv_pos_as_xyz
  1  'x, y, z'
loop_
 _atom_site_type_symbol
 _atom_site_label
 _atom_site_symmetry_multiplicity
 _atom_site_fract_x
 _atom_site_fract_y
 _atom_site_fract_z
 _atom_site_occupancy
  K  K0  1  0.73519000  0.01981000  0.96299000  1.0
  K  K1  1  0.26481000  0.51981000  0.96299000  1.0
  K  K2  1  0.25387000  0.16726000  0.52880000  1.0
  K  K3  1  0.74610000  0.66728000  0.52879000  1.0
  Cd  Cd4  1  0.29670000  0.47022000  0.38607000  1.0
  Cd  Cd5  1  0.70330000  0.97022000  0.38607000  1.0
  Cd  Cd6  1  0.79110000  0.38555000  0.09813000  1.0
  Cd  Cd7  1  0.20891000  0.88555000  0.09813000  1.0
  Cd  Cd8  1  0.70626000  0.38530000  0.62234000  1.0
  Cd  Cd9  1  0.29374000  0.88529000  0.62234000  1.0
  Cd  Cd10  1  0.15966000  0.18566000  0.87252000  1.0
  Cd  Cd11  1  0.84034000  0.68566000  0.87252000  1.0
  B  B12  1  0.49884000  0.27136000  0.97971000  1.0
  B  B13  1  0.50116000  0.77136000  0.97971000  1.0
  B  B14  1  0.01899000  0.41128000  0.50843000  1.0
  B  B15  1  0.98101000  0.91128000  0.50842000  1.0
  H  H16  1  0.20598000  0.29792000  0.13622000  1.0
  H  H17  1  0.79402000  0.79792000  0.13621000  1.0
  H  H18  1  0.47899000  0.15042000  0.15364000  1.0
  H  H19  1  0.52102000  0.65042000  0.15364000  1.0
  H  H20  1  0.67881000  0.17629000  0.78340000  1.0
  H  H21  1  0.32119000  0.67629000  0.78340000  1.0
  H  H22  1  0.66190000  0.41765000  0.84016000  1.0
  H  H23  1  0.33810000  0.91765000  0.84016000  1.0
  H  H24  1  0.21662000  0.39926000  0.69639000  1.0
  H  H25  1  0.78339000  0.89926000  0.69640000  1.0
  H  H26  1  0.19904000  0.61998000  0.65364000  1.0
  H  H27  1  0.80095000  0.11998000  0.65364000  1.0
  H  H28  1  0.71607000  0.36450000  0.35682000  1.0
  H  H29  1  0.28393000  0.86450000  0.35682000  1.0
  H  H30  1  0.98375000  0.20132000  0.33242000  1.0
  H  H31  1  0.01625000  0.70133000  0.33242000  1.0
  H  H32  1  0.84748000  0.01361000  0.18529000  1.0
  H  H33  1  0.15253000  0.51361000  0.18528000  1.0
  H  H34  1  0.83891000  0.13717000  0.16986000  1.0
  H  H35  1  0.16109000  0.63717000  0.16985000  1.0
  H  H36  1  0.34880000  0.04246000  0.30164000  1.0
  H  H37  1  0.65119000  0.54246000  0.30164000  1.0
  H  H38  1  0.34235000  0.17506000  0.32143000  1.0
  H  H39  1  0.65765000  0.67507000  0.32143000  1.0
  C  C40  1  0.20714000  0.12321000  0.06277000  1.0
  C  C41  1  0.79286000  0.62321000  0.06277000  1.0
  C  C42  1  0.29012000  0.24191000  0.08731000  1.0
  C  C43  1  0.70989000  0.74191000  0.08731000  1.0
  C  C44  1  0.46699000  0.23158000  0.13117000  1.0
  C  C45  1  0.53301000  0.73158000  0.13117000  1.0
  C  C46  1  0.49051000  0.32858000  0.21676000  1.0
  C  C47  1  0.50948000  0.82859000  0.21676000  1.0
  C  C48  1  0.45587000  0.26070000  0.75383000  1.0
  C  C49  1  0.54412000  0.76070000  0.75383000  1.0
  C  C50  1  0.58518000  0.23470000  0.82278000  1.0
  C  C51  1  0.41482000  0.73470000  0.82278000  1.0
  C  C52  1  0.67055000  0.34757000  0.87708000  1.0
  C  C53  1  0.32945000  0.84757000  0.87708000  1.0
  C  C54  1  0.85725000  0.32036000  0.88661000  1.0
  C  C55  1  0.14275000  0.82036000  0.88661000  1.0
  C  C56  1  0.00773000  0.50883000  0.74084000  1.0
  C  C57  1  0.99227000  0.00883000  0.74084000  1.0
  C  C58  1  0.12141000  0.44427000  0.66396000  1.0
  C  C59  1  0.87859000  0.94427000  0.66396000  1.0
  C  C60  1  0.20356000  0.53180000  0.61195000  1.0
  C  C61  1  0.79644000  0.03181000  0.61195000  1.0
  C  C62  1  0.38963000  0.49952000  0.59305000  1.0
  C  C63  1  0.61037000  0.99951000  0.59305000  1.0
  C  C64  1  0.71819000  0.22640000  0.42677000  1.0
  C  C65  1  0.28181000  0.72640000  0.42677000  1.0
  C  C66  1  0.80198000  0.33165000  0.40305000  1.0
  C  C67  1  0.19802000  0.83165000  0.40305000  1.0
  C  C68  1  0.97561000  0.29480000  0.35575000  1.0
  C  C69  1  0.02439000  0.79480000  0.35575000  1.0
  C  C70  1  0.99457000  0.34598000  0.27028000  1.0
  C  C71  1  0.00543000  0.84599000  0.27028000  1.0
  O  O72  1  0.20147000  0.07364000  0.13025000  1.0
  O  O73  1  0.79854000  0.57365000  0.13026000  1.0
  O  O74  1  0.15328000  0.08096000  0.98170000  1.0
  O  O75  1  0.84673000  0.58096000  0.98170000  1.0
  O  O76  1  0.40812000  0.31618000  0.28805000  1.0
  O  O77  1  0.59188000  0.81619000  0.28805000  1.0
  O  O78  1  0.58142000  0.41437000  0.21315000  1.0
  O  O79  1  0.41859000  0.91437000  0.21314000  1.0
  O  O80  1  0.29919000  0.26307000  0.77192000  1.0
  O  O81  1  0.70081000  0.76307000  0.77192000  1.0
  O  O82  1  0.51083000  0.28081000  0.67850000  1.0
  O  O83  1  0.48916000  0.78080000  0.67850000  1.0
  O  O84  1  0.94470000  0.30412000  0.81408000  1.0
  O  O85  1  0.05530000  0.80412000  0.81408000  1.0
  O  O86  1  0.91646000  0.30342000  0.96386000  1.0
  O  O87  1  0.08354000  0.80342000  0.96385000  1.0
  O  O88  1  0.51474000  0.18466000  0.89272000  1.0
  O  O89  1  0.48526000  0.68466000  0.89272000  1.0
  O  O90  1  0.57896000  0.37648000  0.96196000  1.0
  O  O91  1  0.42104000  0.87648000  0.96196000  1.0
  O  O92  1  0.32077000  0.29117000  0.00956000  1.0
  O  O93  1  0.67923000  0.79117000  0.00955000  1.0
  O  O94  1  0.58305000  0.23424000  0.05846000  1.0
  O  O95  1  0.41696000  0.73424000  0.05846000  1.0
  O  O96  1  0.07848000  0.56259000  0.81408000  1.0
  O  O97  1  0.92152000  0.06259000  0.81408000  1.0
  O  O98  1  0.84811000  0.51532000  0.72830000  1.0
  O  O99  1  0.15189000  0.01532000  0.72830000  1.0
  O  O100  1  0.43985000  0.45127000  0.51167000  1.0
  O  O101  1  0.56015000  0.95126000  0.51167000  1.0
  O  O102  1  0.48651000  0.51667000  0.66273000  1.0
  O  O103  1  0.51348000  0.01667000  0.66273000  1.0
  O  O104  1  0.70402000  0.14246000  0.35756000  1.0
  O  O105  1  0.29597000  0.64246000  0.35755000  1.0
  O  O106  1  0.67305000  0.22589000  0.50869000  1.0
  O  O107  1  0.32695000  0.72589000  0.50869000  1.0
  O  O108  1  0.08194000  0.43512000  0.27366000  1.0
  O  O109  1  0.91806000  0.93512000  0.27366000  1.0
  O  O110  1  0.91193000  0.29348000  0.19929000  1.0
  O  O111  1  0.08807000  0.79348000  0.19928000  1.0
  O  O112  1  0.84028000  0.42065000  0.48182000  1.0
  O  O113  1  0.15972000  0.92065000  0.48182000  1.0
  O  O114  1  0.09684000  0.33427000  0.42632000  1.0
  O  O115  1  0.90316000  0.83427000  0.42632000  1.0
  O  O116  1  0.10385000  0.52336000  0.53077000  1.0
  O  O117  1  0.89615000  0.02336000  0.53077000  1.0
  O  O118  1  0.03386000  0.36505000  0.59346000  1.0
  O  O119  1  0.96614000  0.86505000  0.59345000  1.0
  O  O120  1  0.80433000  0.05824000  0.14186000  1.0
  O  O121  1  0.19568000  0.55824000  0.14186000  1.0
  O  O122  1  0.31127000  0.10971000  0.34826000  1.0
  O  O123  1  0.68872000  0.60971000  0.34825000  1.0
