# generated using pymatgen
data_Cd3H20C12N11Cl3O2
_symmetry_space_group_name_H-M   'P 1'
_cell_length_a   8.43612000
_cell_length_b   8.43812000
_cell_length_c   16.68800000
_cell_angle_alpha   90.00000000
_cell_angle_beta   90.00000000
_cell_angle_gamma   90.78210000
_symmetry_Int_Tables_number   1
_chemical_formula_structural   Cd3H20C12N11Cl3O2
_chemical_formula_sum   'Cd6 H40 C24 N22 Cl6 O4'
_cell_volume   1187.82449005
_cell_formula_units_Z   2
loop_
 _symmetry_equiv_pos_site_id
 _symmetry_equiv_pos_as_xyz
  1  'x, y, z'
loop_
 _atom_site_type_symbol
 _atom_site_label
 _atom_site_symmetry_multiplicity
 _atom_site_fract_x
 _atom_site_fract_y
 _atom_site_fract_z
 _atom_site_occupancy
  Cd  Cd0  1  0.94014000  0.05988000  0.31627000  1.0
  Cd  Cd1  1  0.05986000  0.94012000  0.81627000  1.0
  Cd  Cd2  1  0.30419000  0.69580000  0.17755000  1.0
  Cd  Cd3  1  0.69581000  0.30420000  0.67755000  1.0
  Cd  Cd4  1  0.61742000  0.38252000  0.28218000  1.0
  Cd  Cd5  1  0.38258000  0.61748000  0.78218000  1.0
  H  H6  1  0.67234000  0.76058000  0.26205000  1.0
  H  H7  1  0.32767000  0.23942000  0.76205000  1.0
  H  H8  1  0.23950000  0.32768000  0.26204000  1.0
  H  H9  1  0.76050000  0.67232000  0.76204000  1.0
  H  H10  1  0.34636000  0.10396000  0.19027000  1.0
  H  H11  1  0.65365000  0.89604000  0.69027000  1.0
  H  H12  1  0.89599000  0.65356000  0.19029000  1.0
  H  H13  1  0.10401000  0.34644000  0.69029000  1.0
  H  H14  1  0.56370000  0.43629000  0.48921000  1.0
  H  H15  1  0.43629000  0.56370000  0.98921000  1.0
  H  H16  1  0.90816000  0.09184000  0.53276000  1.0
  H  H17  1  0.09184000  0.90816000  0.03276000  1.0
  H  H18  1  0.39405000  0.16639000  0.56777000  1.0
  H  H19  1  0.60595000  0.83361000  0.06778000  1.0
  H  H20  1  0.83357000  0.60598000  0.56778000  1.0
  H  H21  1  0.16642000  0.39402000  0.06778000  1.0
  H  H22  1  0.24718000  0.01984000  0.59249000  1.0
  H  H23  1  0.75282000  0.98016000  0.09249000  1.0
  H  H24  1  0.98018000  0.75280000  0.59249000  1.0
  H  H25  1  0.01982000  0.24720000  0.09249000  1.0
  H  H26  1  0.20451000  0.16940000  0.51981000  1.0
  H  H27  1  0.79549000  0.83060000  0.01981000  1.0
  H  H28  1  0.83057000  0.79548000  0.51982000  1.0
  H  H29  1  0.16943000  0.20452000  0.01982000  1.0
  H  H30  1  0.45190000  0.80540000  0.54595000  1.0
  H  H31  1  0.54810000  0.19460000  0.04595000  1.0
  H  H32  1  0.19461000  0.54809000  0.54594000  1.0
  H  H33  1  0.80539000  0.45191000  0.04594000  1.0
  H  H34  1  0.58935000  0.95677000  0.51524000  1.0
  H  H35  1  0.41064000  0.04323000  0.01525000  1.0
  H  H36  1  0.04318000  0.41069000  0.51524000  1.0
  H  H37  1  0.95682000  0.58931000  0.01523000  1.0
  H  H38  1  0.51305000  0.81723000  0.44366000  1.0
  H  H39  1  0.48694000  0.18277000  0.94366000  1.0
  H  H40  1  0.18277000  0.48696000  0.44365000  1.0
  H  H41  1  0.81723000  0.51304000  0.94365000  1.0
  H  H42  1  0.34040000  0.91509000  0.36308000  1.0
  H  H43  1  0.65959000  0.08492000  0.86309000  1.0
  H  H44  1  0.08491000  0.65960000  0.36308000  1.0
  H  H45  1  0.91510000  0.34040000  0.86308000  1.0
  C  C46  1  0.61770000  0.87308000  0.24916000  1.0
  C  C47  1  0.38230000  0.12691000  0.74916000  1.0
  C  C48  1  0.12695000  0.38230000  0.24916000  1.0
  C  C49  1  0.87305000  0.61770000  0.74916000  1.0
  C  C50  1  0.45214000  0.04815000  0.21324000  1.0
  C  C51  1  0.54787000  0.95185000  0.71324000  1.0
  C  C52  1  0.95183000  0.54780000  0.21325000  1.0
  C  C53  1  0.04817000  0.45220000  0.71325000  1.0
  C  C54  1  0.65331000  0.34669000  0.48091000  1.0
  C  C55  1  0.34669000  0.65331000  0.98091000  1.0
  C  C56  1  0.82821000  0.17178000  0.50251000  1.0
  C  C57  1  0.17179000  0.82822000  0.00251000  1.0
  C  C58  1  0.28985000  0.99996000  0.40620000  1.0
  C  C59  1  0.71015000  0.00004000  0.90620000  1.0
  C  C60  1  0.00004000  0.71017000  0.40621000  1.0
  C  C61  1  0.99996000  0.28983000  0.90620000  1.0
  C  C62  1  0.29673000  0.09299000  0.54381000  1.0
  C  C63  1  0.70327000  0.90701000  0.04381000  1.0
  C  C64  1  0.90700000  0.70327000  0.54381000  1.0
  C  C65  1  0.09300000  0.29673000  0.04381000  1.0
  C  C66  1  0.48439000  0.88700000  0.49704000  1.0
  C  C67  1  0.51560000  0.11300000  0.99705000  1.0
  C  C68  1  0.11298000  0.51562000  0.49704000  1.0
  C  C69  1  0.88702000  0.48438000  0.99703000  1.0
  N  N70  1  0.68388000  0.01260000  0.26643000  1.0
  N  N71  1  0.31612000  0.98740000  0.76643000  1.0
  N  N72  1  0.98742000  0.31610000  0.26642000  1.0
  N  N73  1  0.01258000  0.68390000  0.76642000  1.0
  N  N74  1  0.57720000  0.12546000  0.24350000  1.0
  N  N75  1  0.42280000  0.87454000  0.74350000  1.0
  N  N76  1  0.87451000  0.42275000  0.24350000  1.0
  N  N77  1  0.12549000  0.57725000  0.74350000  1.0
  N  N78  1  0.47224000  0.88937000  0.21592000  1.0
  N  N79  1  0.52777000  0.11063000  0.71592000  1.0
  N  N80  1  0.11064000  0.52774000  0.21593000  1.0
  N  N81  1  0.88936000  0.47227000  0.71593000  1.0
  N  N82  1  0.70265000  0.29733000  0.40938000  1.0
  N  N83  1  0.29735000  0.70267000  0.90938000  1.0
  N  N84  1  0.81526000  0.18472000  0.42337000  1.0
  N  N85  1  0.18474000  0.81528000  0.92337000  1.0
  N  N86  1  0.72889000  0.27111000  0.54134000  1.0
  N  N87  1  0.27111000  0.72889000  0.04134000  1.0
  N  N88  1  0.35414000  0.99285000  0.47937000  1.0
  N  N89  1  0.64586000  0.00715000  0.97937000  1.0
  N  N90  1  0.00714000  0.64587000  0.47937000  1.0
  N  N91  1  0.99287000  0.35413000  0.97937000  1.0
  Cl  Cl92  1  0.06975000  0.93018000  0.19179000  1.0
  Cl  Cl93  1  0.93025000  0.06982000  0.69179000  1.0
  Cl  Cl94  1  0.42766000  0.57238000  0.34517000  1.0
  Cl  Cl95  1  0.57234000  0.42762000  0.84518000  1.0
  Cl  Cl96  1  0.51917000  0.48082000  0.13960000  1.0
  Cl  Cl97  1  0.48084000  0.51918000  0.63960000  1.0
  O  O98  1  0.18179000  0.09367000  0.38724000  1.0
  O  O99  1  0.81821000  0.90634000  0.88725000  1.0
  O  O100  1  0.90637000  0.81825000  0.38726000  1.0
  O  O101  1  0.09364000  0.18174000  0.88726000  1.0
