# generated using pymatgen
data_CdH17C17N5O4
_symmetry_space_group_name_H-M   'P 1'
_cell_length_a   8.04070000
_cell_length_b   10.13774284
_cell_length_c   12.53890000
_cell_angle_alpha   93.73328975
_cell_angle_beta   108.69600000
_cell_angle_gamma   113.35121924
_symmetry_Int_Tables_number   1
_chemical_formula_structural   CdH17C17N5O4
_chemical_formula_sum   'Cd2 H34 C34 N10 O8'
_cell_volume   866.89640006
_cell_formula_units_Z   2
loop_
 _symmetry_equiv_pos_site_id
 _symmetry_equiv_pos_as_xyz
  1  'x, y, z'
loop_
 _atom_site_type_symbol
 _atom_site_label
 _atom_site_symmetry_multiplicity
 _atom_site_fract_x
 _atom_site_fract_y
 _atom_site_fract_z
 _atom_site_occupancy
  Cd  Cd0  1  0.32163000  0.80652000  0.70470000  1.0
  Cd  Cd1  1  0.68947000  0.30659000  0.20451000  1.0
  H  H2  1  0.49779000  0.85626000  0.00603000  1.0
  H  H3  1  0.86490000  0.35624000  0.50580000  1.0
  H  H4  1  0.98432000  0.51020000  0.76100000  1.0
  H  H5  1  0.78740000  0.01011000  0.26078000  1.0
  H  H6  1  0.02003000  0.45774000  0.98193000  1.0
  H  H7  1  0.91936000  0.95739000  0.48169000  1.0
  H  H8  1  0.50505000  0.77220000  0.18861000  1.0
  H  H9  1  0.95488000  0.27195000  0.68814000  1.0
  H  H10  1  0.36416000  0.58221000  0.17550000  1.0
  H  H11  1  0.89330000  0.08207000  0.67527000  1.0
  H  H12  1  0.08772000  0.62391000  0.18599000  1.0
  H  H13  1  0.22223000  0.12424000  0.68630000  1.0
  H  H14  1  0.30541000  0.73641000  0.30492000  1.0
  H  H15  1  0.23546000  0.23703000  0.80491000  1.0
  H  H16  1  0.11687000  0.83543000  0.09103000  1.0
  H  H17  1  0.30866000  0.33542000  0.59075000  1.0
  H  H18  1  0.34918000  0.94832000  0.19912000  1.0
  H  H19  1  0.29788000  0.44857000  0.69897000  1.0
  H  H20  1  0.07966000  0.99769000  0.22313000  1.0
  H  H21  1  0.64052000  0.49753000  0.72261000  1.0
  H  H22  1  0.96429000  0.81470000  0.23988000  1.0
  H  H23  1  0.58944000  0.31448000  0.73924000  1.0
  H  H24  1  0.05978000  0.75857000  0.42802000  1.0
  H  H25  1  0.62625000  0.25830000  0.92750000  1.0
  H  H26  1  0.57758000  0.14125000  0.62245000  1.0
  H  H27  1  0.68611000  0.64124000  0.12204000  1.0
  H  H28  1  0.44544000  0.16818000  0.39315000  1.0
  H  H29  1  0.61596000  0.66819000  0.89278000  1.0
  H  H30  1  0.70633000  0.78388000  0.71309000  1.0
  H  H31  1  0.29039000  0.28399000  0.21301000  1.0
  H  H32  1  0.26422000  0.45736000  0.33309000  1.0
  H  H33  1  0.02647000  0.95715000  0.83317000  1.0
  H  H34  1  0.14534000  0.54702000  0.46928000  1.0
  H  H35  1  0.37135000  0.04731000  0.96931000  1.0
  C  C36  1  0.36162000  0.75571000  0.96770000  1.0
  C  C37  1  0.86217000  0.25569000  0.46744000  1.0
  C  C38  1  0.09572000  0.57389000  0.84485000  1.0
  C  C39  1  0.82349000  0.07383000  0.34462000  1.0
  C  C40  1  0.11067000  0.54696000  0.95282000  1.0
  C  C41  1  0.88913000  0.04674000  0.45258000  1.0
  C  C42  1  0.35515000  0.68344000  0.15530000  1.0
  C  C43  1  0.98318000  0.18334000  0.65505000  1.0
  C  C44  1  0.23099000  0.71978000  0.21125000  1.0
  C  C45  1  0.19971000  0.22005000  0.71125000  1.0
  C  C46  1  0.20598000  0.85642000  0.18321000  1.0
  C  C47  1  0.33313000  0.35656000  0.68300000  1.0
  C  C48  1  0.10572000  0.90525000  0.25180000  1.0
  C  C49  1  0.55070000  0.40515000  0.75130000  1.0
  C  C50  1  0.18666000  0.86483000  0.45239000  1.0
  C  C51  1  0.63008000  0.36461000  0.95191000  1.0
  C  C52  1  0.45118000  0.06630000  0.54768000  1.0
  C  C53  1  0.66261000  0.56620000  0.04727000  1.0
  C  C54  1  0.38819000  0.07962000  0.43481000  1.0
  C  C55  1  0.62612000  0.57955000  0.93440000  1.0
  C  C56  1  0.61360000  0.71159000  0.62798000  1.0
  C  C57  1  0.22594000  0.21172000  0.12791000  1.0
  C  C58  1  0.69582000  0.66697000  0.55886000  1.0
  C  C59  1  0.03003000  0.16710000  0.05873000  1.0
  C  C60  1  0.91260000  0.71448000  0.60741000  1.0
  C  C61  1  0.90925000  0.21468000  0.10720000  1.0
  C  C62  1  0.57086000  0.57495000  0.44929000  1.0
  C  C63  1  0.95357000  0.07499000  0.94921000  1.0
  C  C64  1  0.64924000  0.53167000  0.36538000  1.0
  C  C65  1  0.74810000  0.03188000  0.86528000  1.0
  C  C66  1  0.36925000  0.52939000  0.41681000  1.0
  C  C67  1  0.07716000  0.02933000  0.91682000  1.0
  C  C68  1  0.30089000  0.57899000  0.49206000  1.0
  C  C69  1  0.27034000  0.07913000  0.99207000  1.0
  N  N70  1  0.25310000  0.70397000  0.85515000  1.0
  N  N71  1  0.80672000  0.20405000  0.35491000  1.0
  N  N72  1  0.27961000  0.66340000  0.02956000  1.0
  N  N73  1  0.91331000  0.16320000  0.52931000  1.0
  N  N74  1  0.22057000  0.95058000  0.37587000  1.0
  N  N75  1  0.60559000  0.45046000  0.87542000  1.0
  N  N76  1  0.32397000  0.93243000  0.55752000  1.0
  N  N77  1  0.66558000  0.43223000  0.05707000  1.0
  N  N78  1  0.42082000  0.66899000  0.59644000  1.0
  N  N79  1  0.34468000  0.16922000  0.09639000  1.0
  O  O80  1  0.02099000  0.84077000  0.67518000  1.0
  O  O81  1  0.99491000  0.34089000  0.17506000  1.0
  O  O82  1  0.97526000  0.62473000  0.58059000  1.0
  O  O83  1  0.72997000  0.12504000  0.08024000  1.0
  O  O84  1  0.74771000  0.63045000  0.32545000  1.0
  O  O85  1  0.70872000  0.13083000  0.82550000  1.0
  O  O86  1  0.59877000  0.39335000  0.33924000  1.0
  O  O87  1  0.63403000  0.89360000  0.83907000  1.0
