# generated using pymatgen
data_CdH20C22(N3O4)2
_symmetry_space_group_name_H-M   'P 1'
_cell_length_a   9.62832000
_cell_length_b   12.55220000
_cell_length_c   13.70300000
_cell_angle_alpha   73.81950000
_cell_angle_beta   74.35390000
_cell_angle_gamma   70.44540000
_symmetry_Int_Tables_number   1
_chemical_formula_structural   CdH20C22(N3O4)2
_chemical_formula_sum   'Cd2 H40 C44 N12 O16'
_cell_volume   1470.00743461
_cell_formula_units_Z   2
loop_
 _symmetry_equiv_pos_site_id
 _symmetry_equiv_pos_as_xyz
  1  'x, y, z'
loop_
 _atom_site_type_symbol
 _atom_site_label
 _atom_site_symmetry_multiplicity
 _atom_site_fract_x
 _atom_site_fract_y
 _atom_site_fract_z
 _atom_site_occupancy
  Cd  Cd0  1  0.66107000  0.32475000  0.57464000  1.0
  Cd  Cd1  1  0.33893000  0.67525000  0.42536000  1.0
  H  H2  1  0.31236000  0.37610000  0.23865000  1.0
  H  H3  1  0.68764000  0.62390000  0.76135000  1.0
  H  H4  1  0.91348000  0.45449000  0.47705000  1.0
  H  H5  1  0.08653000  0.54551000  0.52295000  1.0
  H  H6  1  0.45934000  0.38226000  0.78693000  1.0
  H  H7  1  0.54066000  0.61774000  0.21307000  1.0
  H  H8  1  0.12237000  0.46617000  0.32479000  1.0
  H  H9  1  0.87763000  0.53383000  0.67521000  1.0
  H  H10  1  0.37606000  0.26442000  0.56050000  1.0
  H  H11  1  0.62394000  0.73558000  0.43950000  1.0
  H  H12  1  0.72570000  0.29170000  0.34354000  1.0
  H  H13  1  0.27430000  0.70830000  0.65646000  1.0
  H  H14  1  0.93372000  0.29092000  0.18538000  1.0
  H  H15  1  0.06628000  0.70908000  0.81462000  1.0
  H  H16  1  0.12034000  0.25316000  0.66282000  1.0
  H  H17  1  0.87966000  0.74684000  0.33718000  1.0
  H  H18  1  0.65725000  0.23542000  0.88990000  1.0
  H  H19  1  0.34276000  0.76458000  0.11010000  1.0
  H  H20  1  0.51865000  0.44766000  0.17487000  1.0
  H  H21  1  0.48135000  0.55234000  0.82513000  1.0
  H  H22  1  0.77025000  0.42748000  0.05942000  1.0
  H  H23  1  0.22975000  0.57252000  0.94058000  1.0
  H  H24  1  0.20708000  0.37914000  0.89825000  1.0
  H  H25  1  0.79291000  0.62086000  0.10175000  1.0
  H  H26  1  0.40514000  0.25701000  0.00505000  1.0
  H  H27  1  0.59486000  0.74299000  0.99495000  1.0
  H  H28  1  0.65751000  0.09200000  0.37233000  1.0
  H  H29  1  0.34249000  0.90800000  0.62767000  1.0
  H  H30  1  0.61759000  0.95592000  0.39894000  1.0
  H  H31  1  0.38241000  0.04408000  0.60106000  1.0
  H  H32  1  0.80747000  0.96321000  0.35451000  1.0
  H  H33  1  0.19253000  0.03679000  0.64549000  1.0
  H  H34  1  0.76068000  0.85962000  0.64509000  1.0
  H  H35  1  0.23932000  0.14038000  0.35491000  1.0
  H  H36  1  0.86309000  0.81343000  0.52684000  1.0
  H  H37  1  0.13691000  0.18657000  0.47316000  1.0
  H  H38  1  0.66875000  0.81814000  0.57075000  1.0
  H  H39  1  0.33125000  0.18186000  0.42925000  1.0
  H  H40  1  0.70786000  0.04253000  0.63417000  1.0
  H  H41  1  0.29214000  0.95747000  0.36583000  1.0
  C  C42  1  0.92169000  0.41949000  0.41056000  1.0
  C  C43  1  0.07830000  0.58051000  0.58944000  1.0
  C  C44  1  0.04833000  0.37337000  0.24443000  1.0
  C  C45  1  0.95167000  0.62663000  0.75556000  1.0
  C  C46  1  0.37988000  0.35575000  0.76179000  1.0
  C  C47  1  0.62012000  0.64425000  0.23821000  1.0
  C  C48  1  0.04013000  0.42322000  0.32614000  1.0
  C  C49  1  0.95987000  0.57678000  0.67386000  1.0
  C  C50  1  0.33373000  0.28830000  0.63596000  1.0
  C  C51  1  0.66627000  0.71170000  0.36404000  1.0
  C  C52  1  0.81674000  0.32849000  0.33587000  1.0
  C  C53  1  0.18326000  0.67151000  0.66413000  1.0
  C  C54  1  0.14213000  0.31685000  0.78872000  1.0
  C  C55  1  0.85787000  0.68315000  0.21128000  1.0
  C  C56  1  0.44634000  0.35327000  0.09768000  1.0
  C  C57  1  0.55366000  0.64674000  0.90233000  1.0
  C  C58  1  0.99801000  0.31713000  0.84825000  1.0
  C  C59  1  0.00199000  0.68287000  0.15175000  1.0
  C  C60  1  0.93183000  0.32792000  0.24899000  1.0
  C  C61  1  0.06817000  0.67208000  0.75101000  1.0
  C  C62  1  0.19251000  0.28246000  0.69247000  1.0
  C  C63  1  0.80749000  0.71754000  0.30753000  1.0
  C  C64  1  0.62597000  0.28245000  0.95218000  1.0
  C  C65  1  0.37403000  0.71755000  0.04782000  1.0
  C  C66  1  0.73063000  0.32998000  0.96700000  1.0
  C  C67  1  0.26937000  0.67003000  0.03300000  1.0
  C  C68  1  0.55075000  0.39992000  0.11327000  1.0
  C  C69  1  0.44925000  0.60008000  0.88673000  1.0
  C  C70  1  0.69073000  0.38879000  0.04903000  1.0
  C  C71  1  0.30927000  0.61121000  0.95097000  1.0
  C  C72  1  0.87319000  0.32118000  0.90183000  1.0
  C  C73  1  0.12681000  0.67882000  0.09817000  1.0
  C  C74  1  0.24028000  0.35392000  0.82349000  1.0
  C  C75  1  0.75972000  0.64607000  0.17652000  1.0
  C  C76  1  0.48522000  0.29398000  0.01664000  1.0
  C  C77  1  0.51478000  0.70602000  0.98336000  1.0
  C  C78  1  0.17449000  0.36572000  0.15124000  1.0
  C  C79  1  0.82551000  0.63428000  0.84876000  1.0
  C  C80  1  0.69820000  0.99896000  0.40208000  1.0
  C  C81  1  0.30180000  0.00104000  0.59792000  1.0
  C  C82  1  0.75369000  0.86081000  0.56619000  1.0
  C  C83  1  0.24631000  0.13919000  0.43381000  1.0
  C  C84  1  0.69279000  0.06786000  0.55289000  1.0
  C  C85  1  0.30721000  0.93213000  0.44711000  1.0
  N  N86  1  0.42649000  0.32455000  0.66923000  1.0
  N  N87  1  0.57351000  0.67545000  0.33077000  1.0
  N  N88  1  0.30823000  0.36588000  0.16762000  1.0
  N  N89  1  0.69177000  0.63412000  0.83238000  1.0
  N  N90  1  0.81326000  0.37140000  0.41670000  1.0
  N  N91  1  0.18674000  0.62860000  0.58330000  1.0
  N  N92  1  0.61587000  0.55371000  0.62232000  1.0
  N  N93  1  0.38413000  0.44629000  0.37768000  1.0
  N  N94  1  0.71259000  0.97981000  0.50932000  1.0
  N  N95  1  0.28742000  0.02019000  0.49068000  1.0
  N  N96  1  0.87540000  0.15770000  0.69930000  1.0
  N  N97  1  0.12460000  0.84230000  0.30070000  1.0
  O  O98  1  0.15404000  0.35710000  0.06864000  1.0
  O  O99  1  0.84596000  0.64290000  0.93136000  1.0
  O  O100  1  0.54459000  0.54913000  0.55913000  1.0
  O  O101  1  0.45541000  0.45087000  0.44087000  1.0
  O  O102  1  0.65844000  0.17208000  0.50716000  1.0
  O  O103  1  0.34156000  0.82792000  0.49284000  1.0
  O  O104  1  0.92411000  0.21865000  0.61213000  1.0
  O  O105  1  0.07590000  0.78135000  0.38787000  1.0
  O  O106  1  0.73213000  0.17594000  0.72800000  1.0
  O  O107  1  0.26786000  0.82406000  0.27201000  1.0
  O  O108  1  0.96284000  0.08411000  0.75306000  1.0
  O  O109  1  0.03716000  0.91589000  0.24694000  1.0
  O  O110  1  0.60327000  0.64812000  0.64392000  1.0
  O  O111  1  0.39673000  0.35188000  0.35608000  1.0
  O  O112  1  0.70231000  0.45949000  0.66476000  1.0
  O  O113  1  0.29769000  0.54051000  0.33524000  1.0
