# generated using pymatgen
data_H5PbC7NO5
_symmetry_space_group_name_H-M   'P 1'
_cell_length_a   6.59542000
_cell_length_b   10.93980000
_cell_length_c   11.34820000
_cell_angle_alpha   90.02830000
_cell_angle_beta   90.00940000
_cell_angle_gamma   88.52080000
_symmetry_Int_Tables_number   1
_chemical_formula_structural   H5PbC7NO5
_chemical_formula_sum   'H20 Pb4 C28 N4 O20'
_cell_volume   818.52889469
_cell_formula_units_Z   4
loop_
 _symmetry_equiv_pos_site_id
 _symmetry_equiv_pos_as_xyz
  1  'x, y, z'
loop_
 _atom_site_type_symbol
 _atom_site_label
 _atom_site_symmetry_multiplicity
 _atom_site_fract_x
 _atom_site_fract_y
 _atom_site_fract_z
 _atom_site_occupancy
  H  H0  1  0.11026000  0.16649000  0.85349000  1.0
  H  H1  1  0.38964000  0.83361000  0.35366000  1.0
  H  H2  1  0.88977000  0.83346000  0.14643000  1.0
  H  H3  1  0.61014000  0.16638000  0.64644000  1.0
  H  H4  1  0.11652000  0.39172000  0.89494000  1.0
  H  H5  1  0.38313000  0.60841000  0.39499000  1.0
  H  H6  1  0.88355000  0.60822000  0.10503000  1.0
  H  H7  1  0.61640000  0.39157000  0.60507000  1.0
  H  H8  1  0.16270000  0.45127000  0.52003000  1.0
  H  H9  1  0.33726000  0.54867000  0.02001000  1.0
  H  H10  1  0.83699000  0.54878000  0.47994000  1.0
  H  H11  1  0.66292000  0.45135000  0.98001000  1.0
  H  H12  1  0.67089000  0.25304000  0.40344000  1.0
  H  H13  1  0.82939000  0.74710000  0.90347000  1.0
  H  H14  1  0.32934000  0.74707000  0.59659000  1.0
  H  H15  1  0.17083000  0.25297000  0.09648000  1.0
  H  H16  1  0.65769000  0.11204000  0.44376000  1.0
  H  H17  1  0.84249000  0.88813000  0.94374000  1.0
  H  H18  1  0.34246000  0.88805000  0.55623000  1.0
  H  H19  1  0.15778000  0.11192000  0.05616000  1.0
  Pb  Pb20  1  0.21875000  0.18300000  0.36984000  1.0
  Pb  Pb21  1  0.28179000  0.81688000  0.87002000  1.0
  Pb  Pb22  1  0.78142000  0.81699000  0.63011000  1.0
  Pb  Pb23  1  0.71887000  0.18290000  0.13013000  1.0
  C  C24  1  0.14151000  0.19214000  0.66598000  1.0
  C  C25  1  0.35846000  0.80785000  0.16614000  1.0
  C  C26  1  0.85829000  0.80785000  0.33393000  1.0
  C  C27  1  0.64149000  0.19216000  0.83396000  1.0
  C  C28  1  0.12286000  0.23242000  0.78237000  1.0
  C  C29  1  0.37702000  0.76764000  0.28251000  1.0
  C  C30  1  0.87707000  0.76755000  0.21756000  1.0
  C  C31  1  0.62278000  0.23235000  0.71758000  1.0
  C  C32  1  0.12460000  0.35713000  0.80501000  1.0
  C  C33  1  0.37519000  0.64294000  0.30506000  1.0
  C  C34  1  0.87538000  0.64283000  0.19495000  1.0
  C  C35  1  0.62452000  0.35705000  0.69500000  1.0
  C  C36  1  0.13781000  0.43908000  0.71066000  1.0
  C  C37  1  0.36207000  0.56094000  0.21066000  1.0
  C  C38  1  0.86214000  0.56090000  0.28932000  1.0
  C  C39  1  0.63779000  0.43906000  0.78938000  1.0
  C  C40  1  0.15034000  0.39165000  0.59646000  1.0
  C  C41  1  0.34960000  0.60832000  0.09648000  1.0
  C  C42  1  0.84944000  0.60836000  0.40350000  1.0
  C  C43  1  0.65045000  0.39170000  0.90356000  1.0
  C  C44  1  0.15346000  0.05682000  0.63894000  1.0
  C  C45  1  0.34665000  0.94315000  0.13917000  1.0
  C  C46  1  0.84639000  0.94316000  0.36095000  1.0
  C  C47  1  0.65333000  0.05687000  0.86093000  1.0
  C  C48  1  0.14727000  0.57431000  0.73345000  1.0
  C  C49  1  0.35270000  0.42571000  0.23335000  1.0
  C  C50  1  0.85288000  0.42567000  0.26658000  1.0
  C  C51  1  0.64718000  0.57429000  0.76664000  1.0
  N  N52  1  0.15549000  0.27094000  0.57548000  1.0
  N  N53  1  0.34449000  0.72902000  0.07558000  1.0
  N  N54  1  0.84423000  0.72908000  0.42445000  1.0
  N  N55  1  0.65559000  0.27100000  0.92450000  1.0
  O  O56  1  0.22930000  0.02420000  0.53930000  1.0
  O  O57  1  0.27093000  0.97575000  0.03952000  1.0
  O  O58  1  0.77051000  0.97581000  0.46057000  1.0
  O  O59  1  0.72915000  0.02425000  0.96056000  1.0
  O  O60  1  0.08926000  0.98470000  0.71639000  1.0
  O  O61  1  0.41091000  0.01525000  0.21669000  1.0
  O  O62  1  0.91071000  0.01523000  0.28349000  1.0
  O  O63  1  0.58902000  0.98474000  0.78344000  1.0
  O  O64  1  0.16306000  0.60425000  0.84155000  1.0
  O  O65  1  0.33692000  0.39579000  0.34142000  1.0
  O  O66  1  0.83726000  0.39567000  0.15848000  1.0
  O  O67  1  0.66290000  0.60421000  0.65857000  1.0
  O  O68  1  0.14094000  0.64841000  0.64686000  1.0
  O  O69  1  0.35915000  0.35160000  0.14669000  1.0
  O  O70  1  0.85924000  0.35160000  0.35320000  1.0
  O  O71  1  0.64083000  0.64843000  0.85328000  1.0
  O  O72  1  0.57813000  0.19099000  0.43513000  1.0
  O  O73  1  0.92213000  0.80920000  0.93516000  1.0
  O  O74  1  0.42205000  0.80910000  0.56482000  1.0
  O  O75  1  0.07811000  0.19083000  0.06481000  1.0
