# generated using pymatgen
data_CdH5C11NO4
_symmetry_space_group_name_H-M   'P 1'
_cell_length_a   5.26705000
_cell_length_b   7.96058000
_cell_length_c   11.52060000
_cell_angle_alpha   76.20000000
_cell_angle_beta   89.99810000
_cell_angle_gamma   89.99950000
_symmetry_Int_Tables_number   1
_chemical_formula_structural   CdH5C11NO4
_chemical_formula_sum   'Cd2 H10 C22 N2 O8'
_cell_volume   469.10118987
_cell_formula_units_Z   2
loop_
 _symmetry_equiv_pos_site_id
 _symmetry_equiv_pos_as_xyz
  1  'x, y, z'
loop_
 _atom_site_type_symbol
 _atom_site_label
 _atom_site_symmetry_multiplicity
 _atom_site_fract_x
 _atom_site_fract_y
 _atom_site_fract_z
 _atom_site_occupancy
  Cd  Cd0  1  0.70945000  0.82380000  0.92517000  1.0
  Cd  Cd1  1  0.20943000  0.17621000  0.07483000  1.0
  H  H2  1  0.21448000  0.28195000  0.68060000  1.0
  H  H3  1  0.71444000  0.71805000  0.31940000  1.0
  H  H4  1  0.92615000  0.49699000  0.55216000  1.0
  H  H5  1  0.42609000  0.50302000  0.44784000  1.0
  H  H6  1  0.74828000  0.79537000  0.50158000  1.0
  H  H7  1  0.24822000  0.20464000  0.49842000  1.0
  H  H8  1  0.92226000  0.01952000  0.59549000  1.0
  H  H9  1  0.42221000  0.98048000  0.40450000  1.0
  H  H10  1  0.29869000  0.95596000  0.73036000  1.0
  H  H11  1  0.79866000  0.04404000  0.26964000  1.0
  C  C12  1  0.85498000  0.46381000  0.90419000  1.0
  C  C13  1  0.35499000  0.53617000  0.09580000  1.0
  C  C14  1  0.61887000  0.49420000  0.82682000  1.0
  C  C15  1  0.11887000  0.50580000  0.17318000  1.0
  C  C16  1  0.50791000  0.35298000  0.78954000  1.0
  C  C17  1  0.00790000  0.64702000  0.21046000  1.0
  C  C18  1  0.58538000  0.16853000  0.84029000  1.0
  C  C19  1  0.08537000  0.83147000  0.15971000  1.0
  C  C20  1  0.30888000  0.38690000  0.70964000  1.0
  C  C21  1  0.80885000  0.61310000  0.29036000  1.0
  C  C22  1  0.21553000  0.55719000  0.66963000  1.0
  C  C23  1  0.71550000  0.44281000  0.33037000  1.0
  C  C24  1  0.00890000  0.59870000  0.58907000  1.0
  C  C25  1  0.50886000  0.40129000  0.41093000  1.0
  C  C26  1  0.91030000  0.76375000  0.56146000  1.0
  C  C27  1  0.41025000  0.23625000  0.43854000  1.0
  C  C28  1  0.01232000  0.89274000  0.61359000  1.0
  C  C29  1  0.51229000  0.10727000  0.38641000  1.0
  C  C30  1  0.21766000  0.85744000  0.69004000  1.0
  C  C31  1  0.71763000  0.14256000  0.30996000  1.0
  C  C32  1  0.32555000  0.68961000  0.71915000  1.0
  C  C33  1  0.82552000  0.31039000  0.28085000  1.0
  N  N34  1  0.52758000  0.65388000  0.79523000  1.0
  N  N35  1  0.02757000  0.34612000  0.20477000  1.0
  O  O36  1  0.72403000  0.09106000  0.77957000  1.0
  O  O37  1  0.22400000  0.90894000  0.22043000  1.0
  O  O38  1  0.48382000  0.08752000  0.93918000  1.0
  O  O39  1  0.98382000  0.91247000  0.06082000  1.0
  O  O40  1  0.93524000  0.30952000  0.92925000  1.0
  O  O41  1  0.43524000  0.69050000  0.07075000  1.0
  O  O42  1  0.96081000  0.59076000  0.93337000  1.0
  O  O43  1  0.46080000  0.40924000  0.06664000  1.0
