# generated using pymatgen
data_ZnH21C26N3O5
_symmetry_space_group_name_H-M   'P 1'
_cell_length_a   8.54900000
_cell_length_b   10.99180000
_cell_length_c   13.69061694
_cell_angle_alpha   80.27733397
_cell_angle_beta   72.43553151
_cell_angle_gamma   82.03440000
_symmetry_Int_Tables_number   1
_chemical_formula_structural   ZnH21C26N3O5
_chemical_formula_sum   'Zn2 H42 C52 N6 O10'
_cell_volume   1203.63047210
_cell_formula_units_Z   2
loop_
 _symmetry_equiv_pos_site_id
 _symmetry_equiv_pos_as_xyz
  1  'x, y, z'
loop_
 _atom_site_type_symbol
 _atom_site_label
 _atom_site_symmetry_multiplicity
 _atom_site_fract_x
 _atom_site_fract_y
 _atom_site_fract_z
 _atom_site_occupancy
  Zn  Zn0  1  0.49437000  0.87836000  0.17174000  1.0
  Zn  Zn1  1  0.50560000  0.12164000  0.82829000  1.0
  H  H2  1  0.97089000  0.92566000  0.84472000  1.0
  H  H3  1  0.02909000  0.07435000  0.15530000  1.0
  H  H4  1  0.77846000  0.76770000  0.94828000  1.0
  H  H5  1  0.22148000  0.23233000  0.05176000  1.0
  H  H6  1  0.86341000  0.61515000  0.08529000  1.0
  H  H7  1  0.13657000  0.38482000  0.91472000  1.0
  H  H8  1  0.96680000  0.72839000  0.24322000  1.0
  H  H9  1  0.03320000  0.27156000  0.75679000  1.0
  H  H10  1  0.02060000  0.60730000  0.40389000  1.0
  H  H11  1  0.97953000  0.39266000  0.59611000  1.0
  H  H12  1  0.35929000  0.35389000  0.20634000  1.0
  H  H13  1  0.64073000  0.64607000  0.79363000  1.0
  H  H14  1  0.29327000  0.48572000  0.05692000  1.0
  H  H15  1  0.70675000  0.51425000  0.94306000  1.0
  H  H16  1  0.62731000  0.81651000  0.34819000  1.0
  H  H17  1  0.37265000  0.18347000  0.65185000  1.0
  H  H18  1  0.70334000  0.62362000  0.46009000  1.0
  H  H19  1  0.29673000  0.37635000  0.53989000  1.0
  H  H20  1  0.61379000  0.40960000  0.24898000  1.0
  H  H21  1  0.38614000  0.59039000  0.75104000  1.0
  H  H22  1  0.53582000  0.60913000  0.14924000  1.0
  H  H23  1  0.46417000  0.39088000  0.85076000  1.0
  H  H24  1  0.60180000  0.33477000  0.46534000  1.0
  H  H25  1  0.39815000  0.66521000  0.53470000  1.0
  H  H26  1  0.74581000  0.41465000  0.49259000  1.0
  H  H27  1  0.25413000  0.58535000  0.50743000  1.0
  H  H28  1  0.95430000  0.35116000  0.32284000  1.0
  H  H29  1  0.04562000  0.64890000  0.67716000  1.0
  H  H30  1  0.81022000  0.25315000  0.31866000  1.0
  H  H31  1  0.18973000  0.74687000  0.68135000  1.0
  H  H32  1  0.95196000  0.24725000  0.50067000  1.0
  H  H33  1  0.04806000  0.75282000  0.49932000  1.0
  H  H34  1  0.80919000  0.14672000  0.49663000  1.0
  H  H35  1  0.19084000  0.85330000  0.50338000  1.0
  H  H36  1  0.89836000  0.99970000  0.35564000  1.0
  H  H37  1  0.10163000  0.00037000  0.64435000  1.0
  H  H38  1  0.13899000  0.87300000  0.25517000  1.0
  H  H39  1  0.86099000  0.12703000  0.74484000  1.0
  H  H40  1  0.47232000  0.06862000  0.31414000  1.0
  H  H41  1  0.52770000  0.93137000  0.68588000  1.0
  H  H42  1  0.24512000  0.20907000  0.41454000  1.0
  H  H43  1  0.75494000  0.79101000  0.58539000  1.0
  C  C44  1  0.26192000  0.96396000  0.85964000  1.0
  C  C45  1  0.73807000  0.03602000  0.14036000  1.0
  C  C46  1  0.36232000  0.77889000  0.02726000  1.0
  C  C47  1  0.63768000  0.22113000  0.97274000  1.0
  C  C48  1  0.15688000  0.86236000  0.92141000  1.0
  C  C49  1  0.84311000  0.13762000  0.07859000  1.0
  C  C50  1  0.20334000  0.77802000  0.99972000  1.0
  C  C51  1  0.79665000  0.22197000  0.00029000  1.0
  C  C52  1  0.00513000  0.85698000  0.90362000  1.0
  C  C53  1  0.99485000  0.14301000  0.09640000  1.0
  C  C54  1  0.89825000  0.76907000  0.96098000  1.0
  C  C55  1  0.10172000  0.23094000  0.03904000  1.0
  C  C56  1  0.94403000  0.68464000  0.03802000  1.0
  C  C57  1  0.05594000  0.31535000  0.96200000  1.0
  C  C58  1  0.09368000  0.69087000  0.05726000  1.0
  C  C59  1  0.90630000  0.30911000  0.94274000  1.0
  C  C60  1  0.05356000  0.64575000  0.24176000  1.0
  C  C61  1  0.94648000  0.35420000  0.75823000  1.0
  C  C62  1  0.08551000  0.57923000  0.32829000  1.0
  C  C63  1  0.91457000  0.42074000  0.67169000  1.0
  C  C64  1  0.20077000  0.46933000  0.32264000  1.0
  C  C65  1  0.79931000  0.53064000  0.67733000  1.0
  C  C66  1  0.27355000  0.43662000  0.21918000  1.0
  C  C67  1  0.72647000  0.56335000  0.78080000  1.0
  C  C68  1  0.23765000  0.50781000  0.13527000  1.0
  C  C69  1  0.76235000  0.49216000  0.86472000  1.0
  C  C70  1  0.62348000  0.72376000  0.33111000  1.0
  C  C71  1  0.37649000  0.27623000  0.66890000  1.0
  C  C72  1  0.66709000  0.61752000  0.39126000  1.0
  C  C73  1  0.33291000  0.38248000  0.60874000  1.0
  C  C74  1  0.66518000  0.50074000  0.36365000  1.0
  C  C75  1  0.33480000  0.49925000  0.63637000  1.0
  C  C76  1  0.61845000  0.49736000  0.27451000  1.0
  C  C77  1  0.38151000  0.50262000  0.72551000  1.0
  C  C78  1  0.57468000  0.60755000  0.21839000  1.0
  C  C79  1  0.42529000  0.39242000  0.78162000  1.0
  C  C80  1  0.71149000  0.38591000  0.42923000  1.0
  C  C81  1  0.28845000  0.61407000  0.57080000  1.0
  C  C82  1  0.85135000  0.29858000  0.37115000  1.0
  C  C83  1  0.14863000  0.70144000  0.62885000  1.0
  C  C84  1  0.91215000  0.20008000  0.44885000  1.0
  C  C85  1  0.08787000  0.79996000  0.55115000  1.0
  C  C86  1  0.05203000  0.11431000  0.39565000  1.0
  C  C87  1  0.94799000  0.88576000  0.60433000  1.0
  C  C88  1  0.02301000  0.01730000  0.35101000  1.0
  C  C89  1  0.97701000  0.98276000  0.64897000  1.0
  C  C90  1  0.15556000  0.94595000  0.29486000  1.0
  C  C91  1  0.84441000  0.05408000  0.70515000  1.0
  C  C92  1  0.34269000  0.05654000  0.32690000  1.0
  C  C93  1  0.65733000  0.94348000  0.67310000  1.0
  C  C94  1  0.21629000  0.13200000  0.38405000  1.0
  C  C95  1  0.78375000  0.86806000  0.61592000  1.0
  N  N96  1  0.57759000  0.71919000  0.24591000  1.0
  N  N97  1  0.42239000  0.28079000  0.75409000  1.0
  N  N98  1  0.31334000  0.96552000  0.28174000  1.0
  N  N99  1  0.68665000  0.03450000  0.71826000  1.0
  N  N100  1  0.12888000  0.61199000  0.14540000  1.0
  N  N101  1  0.87114000  0.38798000  0.85458000  1.0
  O  O102  1  0.33863000  0.83109000  0.10891000  1.0
  O  O103  1  0.66140000  0.16892000  0.89107000  1.0
  O  O104  1  0.49284000  0.72499000  0.97792000  1.0
  O  O105  1  0.50715000  0.27503000  0.02206000  1.0
  O  O106  1  0.36054000  0.99543000  0.90489000  1.0
  O  O107  1  0.63944000  0.00455000  0.09510000  1.0
  O  O108  1  0.24935000  0.01178000  0.77210000  1.0
  O  O109  1  0.75062000  0.98820000  0.22790000  1.0
  O  O110  1  0.23320000  0.40710000  0.40200000  1.0
  O  O111  1  0.76694000  0.59286000  0.59796000  1.0
