# generated using pymatgen
data_CaH10C6O5
_symmetry_space_group_name_H-M   'P 1'
_cell_length_a   5.89177000
_cell_length_b   6.77040000
_cell_length_c   10.81140000
_cell_angle_alpha   76.42500000
_cell_angle_beta   81.93800000
_cell_angle_gamma   78.61640000
_symmetry_Int_Tables_number   1
_chemical_formula_structural   CaH10C6O5
_chemical_formula_sum   'Ca2 H20 C12 O10'
_cell_volume   408.96722340
_cell_formula_units_Z   2
loop_
 _symmetry_equiv_pos_site_id
 _symmetry_equiv_pos_as_xyz
  1  'x, y, z'
loop_
 _atom_site_type_symbol
 _atom_site_label
 _atom_site_symmetry_multiplicity
 _atom_site_fract_x
 _atom_site_fract_y
 _atom_site_fract_z
 _atom_site_occupancy
  Ca  Ca0  1  0.60015000  0.26026000  0.42749000  1.0
  Ca  Ca1  1  0.39984000  0.73974000  0.57251000  1.0
  H  H2  1  0.27493000  0.48101000  0.10468000  1.0
  H  H3  1  0.72506000  0.51899000  0.89532000  1.0
  H  H4  1  0.45511000  0.24215000  0.14813000  1.0
  H  H5  1  0.54489000  0.75786000  0.85187000  1.0
  H  H6  1  0.17622000  0.06767000  0.07201000  1.0
  H  H7  1  0.82379000  0.93233000  0.92800000  1.0
  H  H8  1  0.99487000  0.30609000  0.02867000  1.0
  H  H9  1  0.00512000  0.69392000  0.97133000  1.0
  H  H10  1  0.31168000  0.43707000  0.86767000  1.0
  H  H11  1  0.68833000  0.56293000  0.13234000  1.0
  H  H12  1  0.50044000  0.20058000  0.91357000  1.0
  H  H13  1  0.49956000  0.79942000  0.08643000  1.0
  H  H14  1  0.21603000  0.01517000  0.84644000  1.0
  H  H15  1  0.78398000  0.98483000  0.15356000  1.0
  H  H16  1  0.03700000  0.25582000  0.79864000  1.0
  H  H17  1  0.96300000  0.74418000  0.20136000  1.0
  H  H18  1  0.96627000  0.06678000  0.61434000  1.0
  H  H19  1  0.03372000  0.93322000  0.38566000  1.0
  H  H20  1  0.03707000  0.24438000  0.49897000  1.0
  H  H21  1  0.96293000  0.75562000  0.50103000  1.0
  C  C22  1  0.13624000  0.28058000  0.26791000  1.0
  C  C23  1  0.86376000  0.71942000  0.73209000  1.0
  C  C24  1  0.27251000  0.31419000  0.13627000  1.0
  C  C25  1  0.72749000  0.68581000  0.86374000  1.0
  C  C26  1  0.17826000  0.23376000  0.03690000  1.0
  C  C27  1  0.82175000  0.76624000  0.96310000  1.0
  C  C28  1  0.31592000  0.27073000  0.90546000  1.0
  C  C29  1  0.68408000  0.72927000  0.09455000  1.0
  C  C30  1  0.21875000  0.18041000  0.81097000  1.0
  C  C31  1  0.78125000  0.81959000  0.18902000  1.0
  C  C32  1  0.34755000  0.21241000  0.67874000  1.0
  C  C33  1  0.65246000  0.78757000  0.32126000  1.0
  O  O34  1  0.94203000  0.21857000  0.28017000  1.0
  O  O35  1  0.05797000  0.78143000  0.71983000  1.0
  O  O36  1  0.22413000  0.31572000  0.36028000  1.0
  O  O37  1  0.77587000  0.68428000  0.63972000  1.0
  O  O38  1  0.38704000  0.39129000  0.62255000  1.0
  O  O39  1  0.61295000  0.60871000  0.37745000  1.0
  O  O40  1  0.41377000  0.06007000  0.62371000  1.0
  O  O41  1  0.58623000  0.93994000  0.37629000  1.0
  O  O42  1  0.90561000  0.20126000  0.56218000  1.0
  O  O43  1  0.09438000  0.79873000  0.43782000  1.0
