# generated using pymatgen
data_AgH15C17SN4O3
_symmetry_space_group_name_H-M   'P 1'
_cell_length_a   8.86089000
_cell_length_b   9.69934000
_cell_length_c   10.24340000
_cell_angle_alpha   74.87860000
_cell_angle_beta   74.52660000
_cell_angle_gamma   88.39110000
_symmetry_Int_Tables_number   1
_chemical_formula_structural   AgH15C17SN4O3
_chemical_formula_sum   'Ag2 H30 C34 S2 N8 O6'
_cell_volume   818.26378312
_cell_formula_units_Z   2
loop_
 _symmetry_equiv_pos_site_id
 _symmetry_equiv_pos_as_xyz
  1  'x, y, z'
loop_
 _atom_site_type_symbol
 _atom_site_label
 _atom_site_symmetry_multiplicity
 _atom_site_fract_x
 _atom_site_fract_y
 _atom_site_fract_z
 _atom_site_occupancy
  Ag  Ag0  1  0.38819000  0.11647000  0.07181000  1.0
  Ag  Ag1  1  0.61181000  0.88353000  0.92819000  1.0
  H  H2  1  0.27579000  0.03556000  0.85102000  1.0
  H  H3  1  0.72421000  0.96444000  0.14898000  1.0
  H  H4  1  0.16275000  0.86960000  0.28268000  1.0
  H  H5  1  0.83725000  0.13040000  0.71732000  1.0
  H  H6  1  0.08189000  0.86691000  0.82667000  1.0
  H  H7  1  0.91811000  0.13308000  0.17333000  1.0
  H  H8  1  0.95838000  0.69800000  0.27764000  1.0
  H  H9  1  0.04162000  0.30200000  0.72236000  1.0
  H  H10  1  0.62034000  0.54489000  0.46106000  1.0
  H  H11  1  0.37966000  0.45510000  0.53894000  1.0
  H  H12  1  0.65968000  0.99932000  0.40922000  1.0
  H  H13  1  0.34032000  0.00068000  0.59078000  1.0
  H  H14  1  0.82535000  0.50700000  0.58396000  1.0
  H  H15  1  0.17465000  0.49300000  0.41604000  1.0
  H  H16  1  0.86857000  0.96141000  0.53281000  1.0
  H  H17  1  0.13143000  0.03859000  0.46719000  1.0
  H  H18  1  0.01332000  0.59578000  0.67760000  1.0
  H  H19  1  0.98668000  0.40422000  0.32240000  1.0
  H  H20  1  0.95592000  0.75130000  0.73550000  1.0
  H  H21  1  0.04408000  0.24870000  0.26450000  1.0
  H  H22  1  0.10283000  0.76299000  0.57498000  1.0
  H  H23  1  0.89717000  0.23701000  0.42502000  1.0
  H  H24  1  0.79153000  0.55358000  0.88563000  1.0
  H  H25  1  0.20847000  0.44643000  0.11437000  1.0
  H  H26  1  0.66597000  0.37276000  0.33593000  1.0
  H  H27  1  0.33403000  0.62724000  0.66407000  1.0
  H  H28  1  0.60234000  0.37038000  0.87274000  1.0
  H  H29  1  0.39766000  0.62962000  0.12726000  1.0
  H  H30  1  0.48259000  0.19996000  0.30354000  1.0
  H  H31  1  0.51741000  0.80004000  0.69646000  1.0
  C  C32  1  0.20386000  0.95848000  0.94206000  1.0
  C  C33  1  0.79614000  0.04152000  0.05794000  1.0
  C  C34  1  0.13905000  0.86643000  0.18444000  1.0
  C  C35  1  0.86095000  0.13357000  0.81556000  1.0
  C  C36  1  0.62868000  0.77539000  0.42436000  1.0
  C  C37  1  0.37132000  0.22461000  0.57564000  1.0
  C  C38  1  0.09688000  0.86466000  0.92922000  1.0
  C  C39  1  0.90312000  0.13534000  0.07078000  1.0
  C  C40  1  0.02869000  0.76957000  0.18108000  1.0
  C  C41  1  0.97131000  0.23043000  0.81892000  1.0
  C  C42  1  0.67519000  0.63718000  0.47467000  1.0
  C  C43  1  0.32481000  0.36282000  0.52533000  1.0
  C  C44  1  0.69957000  0.89224000  0.44454000  1.0
  C  C45  1  0.30043000  0.10776000  0.55546000  1.0
  C  C46  1  0.00734000  0.76820000  0.05037000  1.0
  C  C47  1  0.99266000  0.23180000  0.94964000  1.0
  C  C48  1  0.79216000  0.61611000  0.54483000  1.0
  C  C49  1  0.20784000  0.38389000  0.45517000  1.0
  C  C50  1  0.81674000  0.86977000  0.51475000  1.0
  C  C51  1  0.18326000  0.13023000  0.48525000  1.0
  C  C52  1  0.86547000  0.73196000  0.56577000  1.0
  C  C53  1  0.13453000  0.26804000  0.43423000  1.0
  C  C54  1  0.99065000  0.70943000  0.64226000  1.0
  C  C55  1  0.00935000  0.29057000  0.35774000  1.0
  C  C56  1  0.74054000  0.47850000  0.11232000  1.0
  C  C57  1  0.25946000  0.52150000  0.88768000  1.0
  C  C58  1  0.72359000  0.47771000  0.98006000  1.0
  C  C59  1  0.27641000  0.52229000  0.01994000  1.0
  C  C60  1  0.65392000  0.37750000  0.23163000  1.0
  C  C61  1  0.34608000  0.62250000  0.76838000  1.0
  C  C62  1  0.62064000  0.37702000  0.97218000  1.0
  C  C63  1  0.37936000  0.62298000  0.02782000  1.0
  C  C64  1  0.55195000  0.28133000  0.21459000  1.0
  C  C65  1  0.44805000  0.71867000  0.78541000  1.0
  S  S66  1  0.47723000  0.79917000  0.33606000  1.0
  S  S67  1  0.52277000  0.20083000  0.66394000  1.0
  N  N68  1  0.22472000  0.96029000  0.06721000  1.0
  N  N69  1  0.77528000  0.03971000  0.93279000  1.0
  N  N70  1  0.53576000  0.28024000  0.08756000  1.0
  N  N71  1  0.46424000  0.71976000  0.91244000  1.0
  N  N72  1  0.89729000  0.67800000  0.03022000  1.0
  N  N73  1  0.10270000  0.32200000  0.96978000  1.0
  N  N74  1  0.84722000  0.57094000  0.13350000  1.0
  N  N75  1  0.15278000  0.42906000  0.86650000  1.0
  O  O76  1  0.44732000  0.95286000  0.30720000  1.0
  O  O77  1  0.55269000  0.04714000  0.69279000  1.0
  O  O78  1  0.34210000  0.70837000  0.43228000  1.0
  O  O79  1  0.65790000  0.29163000  0.56772000  1.0
  O  O80  1  0.54367000  0.75229000  0.20720000  1.0
  O  O81  1  0.45633000  0.24771000  0.79280000  1.0
