# generated using pymatgen
data_CaH18C10N2Cl2(O2F)2
_symmetry_space_group_name_H-M   'P 1'
_cell_length_a   5.80998000
_cell_length_b   8.95825000
_cell_length_c   16.49070000
_cell_angle_alpha   89.99920000
_cell_angle_beta   82.63060000
_cell_angle_gamma   89.99920000
_symmetry_Int_Tables_number   1
_chemical_formula_structural   CaH18C10N2Cl2(O2F)2
_chemical_formula_sum   'Ca2 H36 C20 N4 Cl4 O8 F4'
_cell_volume   851.20595271
_cell_formula_units_Z   2
loop_
 _symmetry_equiv_pos_site_id
 _symmetry_equiv_pos_as_xyz
  1  'x, y, z'
loop_
 _atom_site_type_symbol
 _atom_site_label
 _atom_site_symmetry_multiplicity
 _atom_site_fract_x
 _atom_site_fract_y
 _atom_site_fract_z
 _atom_site_occupancy
  Ca  Ca0  1  0.96755000  0.42626000  0.10966000  1.0
  Ca  Ca1  1  0.03246000  0.92628000  0.89034000  1.0
  H  H2  1  0.60363000  0.11959000  0.18468000  1.0
  H  H3  1  0.39637000  0.61961000  0.81533000  1.0
  H  H4  1  0.29171000  0.92831000  0.30884000  1.0
  H  H5  1  0.70828000  0.42831000  0.69117000  1.0
  H  H6  1  0.48745000  0.86217000  0.22657000  1.0
  H  H7  1  0.51252000  0.36220000  0.77344000  1.0
  H  H8  1  0.14103000  0.15391000  0.36925000  1.0
  H  H9  1  0.85895000  0.65391000  0.63075000  1.0
  H  H10  1  0.05458000  0.28524000  0.29746000  1.0
  H  H11  1  0.94542000  0.78524000  0.70254000  1.0
  H  H12  1  0.59522000  0.50365000  0.37134000  1.0
  H  H13  1  0.40477000  0.00365000  0.62866000  1.0
  H  H14  1  0.40323000  0.55380000  0.29984000  1.0
  H  H15  1  0.59677000  0.05381000  0.70016000  1.0
  H  H16  1  0.31527000  0.33737000  0.44368000  1.0
  H  H17  1  0.68473000  0.83736000  0.55632000  1.0
  H  H18  1  0.82398000  0.96694000  0.28720000  1.0
  H  H19  1  0.17604000  0.46700000  0.71279000  1.0
  H  H20  1  0.65833000  0.84667000  0.35749000  1.0
  H  H21  1  0.34166000  0.34670000  0.64251000  1.0
  H  H22  1  0.63442000  0.04278000  0.37050000  1.0
  H  H23  1  0.36561000  0.54280000  0.62950000  1.0
  H  H24  1  0.01087000  0.56879000  0.36764000  1.0
  H  H25  1  0.98915000  0.06879000  0.63236000  1.0
  H  H26  1  0.02958000  0.98202000  0.10793000  1.0
  H  H27  1  0.97041000  0.48203000  0.89207000  1.0
  H  H28  1  0.19306000  0.87499000  0.16763000  1.0
  H  H29  1  0.80695000  0.37501000  0.83237000  1.0
  H  H30  1  0.58116000  0.34838000  0.01316000  1.0
  H  H31  1  0.41886000  0.84838000  0.98684000  1.0
  H  H32  1  0.69870000  0.19166000  0.02558000  1.0
  H  H33  1  0.30131000  0.69166000  0.97442000  1.0
  H  H34  1  0.73325000  0.72069000  0.07160000  1.0
  H  H35  1  0.26676000  0.22070000  0.92841000  1.0
  H  H36  1  0.54010000  0.61683000  0.11695000  1.0
  H  H37  1  0.45991000  0.11683000  0.88306000  1.0
  C  C38  1  0.24950000  0.10547000  0.16733000  1.0
  C  C39  1  0.75051000  0.60548000  0.83268000  1.0
  C  C40  1  0.55793000  0.34347000  0.27601000  1.0
  C  C41  1  0.44206000  0.84349000  0.72399000  1.0
  C  C42  1  0.43934000  0.09965000  0.22461000  1.0
  C  C43  1  0.56068000  0.59967000  0.77540000  1.0
  C  C44  1  0.45806000  0.95311000  0.27139000  1.0
  C  C45  1  0.54190000  0.45313000  0.72861000  1.0
  C  C46  1  0.19404000  0.25416000  0.33351000  1.0
  C  C47  1  0.80597000  0.75418000  0.66648000  1.0
  C  C48  1  0.46162000  0.46130000  0.33631000  1.0
  C  C49  1  0.53838000  0.96131000  0.66368000  1.0
  C  C50  1  0.25620000  0.38493000  0.38847000  1.0
  C  C51  1  0.74378000  0.88491000  0.61154000  1.0
  C  C52  1  0.65475000  0.95315000  0.32462000  1.0
  C  C53  1  0.34523000  0.45318000  0.67537000  1.0
  C  C54  1  0.91248000  0.47460000  0.48149000  1.0
  C  C55  1  0.08750000  0.97459000  0.51850000  1.0
  C  C56  1  0.05298000  0.48567000  0.41179000  1.0
  C  C57  1  0.94699000  0.98566000  0.58821000  1.0
  N  N58  1  0.40911000  0.22760000  0.27929000  1.0
  N  N59  1  0.59090000  0.72763000  0.72071000  1.0
  N  N60  1  0.14821000  0.97926000  0.14897000  1.0
  N  N61  1  0.85182000  0.47925000  0.85103000  1.0
  Cl  Cl62  1  0.27326000  0.45339000  0.96684000  1.0
  Cl  Cl63  1  0.72675000  0.95339000  0.03316000  1.0
  Cl  Cl64  1  0.20666000  0.63210000  0.18537000  1.0
  Cl  Cl65  1  0.79335000  0.13210000  0.81463000  1.0
  O  O66  1  0.74490000  0.35131000  0.22943000  1.0
  O  O67  1  0.25509000  0.85131000  0.77057000  1.0
  O  O68  1  0.19675000  0.22976000  0.13986000  1.0
  O  O69  1  0.80326000  0.72977000  0.86014000  1.0
  O  O70  1  0.71846000  0.30036000  0.03110000  1.0
  O  O71  1  0.28155000  0.80036000  0.96890000  1.0
  O  O72  1  0.70181000  0.61655000  0.08878000  1.0
  O  O73  1  0.29821000  0.11656000  0.91123000  1.0
  F  F74  1  0.93408000  0.37727000  0.54211000  1.0
  F  F75  1  0.06587000  0.87728000  0.45787000  1.0
  F  F76  1  0.72251000  0.55965000  0.50247000  1.0
  F  F77  1  0.27748000  0.05967000  0.49753000  1.0
