# generated using pymatgen
data_CuH6C3IN
_symmetry_space_group_name_H-M   'P 1'
_cell_length_a   15.82090000
_cell_length_b   17.83710000
_cell_length_c   17.83710000
_cell_angle_alpha   90.00000000
_cell_angle_beta   90.00000000
_cell_angle_gamma   90.00000000
_symmetry_Int_Tables_number   1
_chemical_formula_structural   CuH6C3IN
_chemical_formula_sum   'Cu32 H192 C96 I32 N32'
_cell_volume   5033.61134393
_cell_formula_units_Z   32
loop_
 _symmetry_equiv_pos_site_id
 _symmetry_equiv_pos_as_xyz
  1  'x, y, z'
loop_
 _atom_site_type_symbol
 _atom_site_label
 _atom_site_symmetry_multiplicity
 _atom_site_fract_x
 _atom_site_fract_y
 _atom_site_fract_z
 _atom_site_occupancy
  Cu  Cu0  1  0.00000000  0.10371000  0.32282000  1.0
  Cu  Cu1  1  0.50000000  0.10371000  0.67718000  1.0
  Cu  Cu2  1  0.00000000  0.89629000  0.67718000  1.0
  Cu  Cu3  1  0.50000000  0.89629000  0.32282000  1.0
  Cu  Cu4  1  0.50000000  0.32282000  0.10371000  1.0
  Cu  Cu5  1  0.00000000  0.32282000  0.89629000  1.0
  Cu  Cu6  1  0.00000000  0.67718000  0.10371000  1.0
  Cu  Cu7  1  0.50000000  0.67718000  0.89629000  1.0
  Cu  Cu8  1  0.00000000  0.22961000  0.26117000  1.0
  Cu  Cu9  1  0.50000000  0.22961000  0.73883000  1.0
  Cu  Cu10  1  0.00000000  0.77039000  0.73883000  1.0
  Cu  Cu11  1  0.50000000  0.77039000  0.26117000  1.0
  Cu  Cu12  1  0.50000000  0.26117000  0.22961000  1.0
  Cu  Cu13  1  0.00000000  0.26117000  0.77039000  1.0
  Cu  Cu14  1  0.00000000  0.73883000  0.22961000  1.0
  Cu  Cu15  1  0.50000000  0.73883000  0.77039000  1.0
  Cu  Cu16  1  0.08182000  0.21428000  0.38309000  1.0
  Cu  Cu17  1  0.41818000  0.21428000  0.61691000  1.0
  Cu  Cu18  1  0.08182000  0.78572000  0.61691000  1.0
  Cu  Cu19  1  0.41818000  0.78572000  0.38309000  1.0
  Cu  Cu20  1  0.41818000  0.38309000  0.21428000  1.0
  Cu  Cu21  1  0.08182000  0.38309000  0.78572000  1.0
  Cu  Cu22  1  0.08182000  0.61691000  0.21428000  1.0
  Cu  Cu23  1  0.41818000  0.61691000  0.78572000  1.0
  Cu  Cu24  1  0.91818000  0.78572000  0.61691000  1.0
  Cu  Cu25  1  0.58182000  0.78572000  0.38309000  1.0
  Cu  Cu26  1  0.91818000  0.21428000  0.38309000  1.0
  Cu  Cu27  1  0.58182000  0.21428000  0.61691000  1.0
  Cu  Cu28  1  0.58182000  0.61691000  0.78572000  1.0
  Cu  Cu29  1  0.91818000  0.61691000  0.21428000  1.0
  Cu  Cu30  1  0.91818000  0.38309000  0.78572000  1.0
  Cu  Cu31  1  0.58182000  0.38309000  0.21428000  1.0
  H  H32  1  0.05622000  0.19162000  0.98864000  1.0
  H  H33  1  0.44378000  0.19162000  0.01136000  1.0
  H  H34  1  0.05622000  0.80838000  0.01136000  1.0
  H  H35  1  0.44378000  0.80838000  0.98864000  1.0
  H  H36  1  0.44378000  0.98864000  0.19162000  1.0
  H  H37  1  0.05622000  0.98864000  0.80838000  1.0
  H  H38  1  0.05622000  0.01136000  0.19162000  1.0
  H  H39  1  0.44378000  0.01136000  0.80838000  1.0
  H  H40  1  0.94378000  0.80838000  0.01136000  1.0
  H  H41  1  0.55622000  0.80838000  0.98864000  1.0
  H  H42  1  0.94378000  0.19162000  0.98864000  1.0
  H  H43  1  0.55622000  0.19162000  0.01136000  1.0
  H  H44  1  0.55622000  0.01136000  0.80838000  1.0
  H  H45  1  0.94378000  0.01136000  0.19162000  1.0
  H  H46  1  0.94378000  0.98864000  0.80838000  1.0
  H  H47  1  0.55622000  0.98864000  0.19162000  1.0
  H  H48  1  0.94382000  0.15870000  0.11702000  1.0
  H  H49  1  0.55618000  0.15870000  0.88298000  1.0
  H  H50  1  0.94382000  0.84130000  0.88297000  1.0
  H  H51  1  0.55618000  0.84130000  0.11702000  1.0
  H  H52  1  0.55618000  0.11702000  0.15870000  1.0
  H  H53  1  0.94382000  0.11703000  0.84130000  1.0
  H  H54  1  0.94382000  0.88298000  0.15870000  1.0
  H  H55  1  0.55618000  0.88298000  0.84130000  1.0
  H  H56  1  0.05618000  0.84130000  0.88298000  1.0
  H  H57  1  0.44382000  0.84130000  0.11702000  1.0
  H  H58  1  0.05618000  0.15870000  0.11702000  1.0
  H  H59  1  0.44382000  0.15870000  0.88298000  1.0
  H  H60  1  0.44382000  0.88298000  0.84130000  1.0
  H  H61  1  0.05618000  0.88298000  0.15870000  1.0
  H  H62  1  0.05618000  0.11703000  0.84130000  1.0
  H  H63  1  0.44382000  0.11702000  0.15870000  1.0
  H  H64  1  0.11405000  0.22426000  0.55168000  1.0
  H  H65  1  0.38595000  0.22426000  0.44832000  1.0
  H  H66  1  0.11405000  0.77574000  0.44832000  1.0
  H  H67  1  0.38595000  0.77574000  0.55168000  1.0
  H  H68  1  0.38595000  0.55168000  0.22426000  1.0
  H  H69  1  0.11405000  0.55168000  0.77574000  1.0
  H  H70  1  0.11405000  0.44832000  0.22426000  1.0
  H  H71  1  0.38595000  0.44832000  0.77574000  1.0
  H  H72  1  0.88595000  0.77574000  0.44832000  1.0
  H  H73  1  0.61405000  0.77574000  0.55168000  1.0
  H  H74  1  0.88595000  0.22426000  0.55168000  1.0
  H  H75  1  0.61405000  0.22426000  0.44832000  1.0
  H  H76  1  0.61405000  0.44832000  0.77574000  1.0
  H  H77  1  0.88595000  0.44832000  0.22426000  1.0
  H  H78  1  0.88595000  0.55168000  0.77574000  1.0
  H  H79  1  0.61405000  0.55168000  0.22426000  1.0
  H  H80  1  0.13372000  0.31411000  0.51401000  1.0
  H  H81  1  0.36628000  0.31411000  0.48599000  1.0
  H  H82  1  0.13372000  0.68589000  0.48599000  1.0
  H  H83  1  0.36628000  0.68589000  0.51401000  1.0
  H  H84  1  0.36628000  0.51401000  0.31411000  1.0
  H  H85  1  0.13372000  0.51401000  0.68589000  1.0
  H  H86  1  0.13372000  0.48599000  0.31411000  1.0
  H  H87  1  0.36628000  0.48599000  0.68589000  1.0
  H  H88  1  0.86628000  0.68589000  0.48599000  1.0
  H  H89  1  0.63372000  0.68589000  0.51401000  1.0
  H  H90  1  0.86628000  0.31411000  0.51401000  1.0
  H  H91  1  0.63372000  0.31411000  0.48599000  1.0
  H  H92  1  0.63372000  0.48599000  0.68589000  1.0
  H  H93  1  0.86628000  0.48599000  0.31411000  1.0
  H  H94  1  0.86628000  0.51401000  0.68589000  1.0
  H  H95  1  0.63372000  0.51401000  0.31411000  1.0
  H  H96  1  0.07593000  0.38749000  0.03895000  1.0
  H  H97  1  0.42408000  0.38749000  0.96105000  1.0
  H  H98  1  0.07593000  0.61251000  0.96105000  1.0
  H  H99  1  0.42408000  0.61251000  0.03895000  1.0
  H  H100  1  0.42408000  0.03895000  0.38749000  1.0
  H  H101  1  0.07593000  0.03895000  0.61251000  1.0
  H  H102  1  0.07593000  0.96105000  0.38749000  1.0
  H  H103  1  0.42407000  0.96105000  0.61251000  1.0
  H  H104  1  0.92407000  0.61251000  0.96105000  1.0
  H  H105  1  0.57593000  0.61251000  0.03895000  1.0
  H  H106  1  0.92407000  0.38749000  0.03895000  1.0
  H  H107  1  0.57593000  0.38749000  0.96105000  1.0
  H  H108  1  0.57593000  0.96105000  0.61251000  1.0
  H  H109  1  0.92407000  0.96105000  0.38749000  1.0
  H  H110  1  0.92407000  0.03895000  0.61251000  1.0
  H  H111  1  0.57593000  0.03895000  0.38749000  1.0
  H  H112  1  0.13193000  0.30360000  0.01771000  1.0
  H  H113  1  0.36807000  0.30360000  0.98229000  1.0
  H  H114  1  0.13193000  0.69640000  0.98229000  1.0
  H  H115  1  0.36807000  0.69640000  0.01771000  1.0
  H  H116  1  0.36807000  0.01771000  0.30360000  1.0
  H  H117  1  0.13193000  0.01771000  0.69640000  1.0
  H  H118  1  0.13193000  0.98229000  0.30360000  1.0
  H  H119  1  0.36807000  0.98229000  0.69640000  1.0
  H  H120  1  0.86807000  0.69640000  0.98229000  1.0
  H  H121  1  0.63193000  0.69640000  0.01771000  1.0
  H  H122  1  0.86807000  0.30360000  0.01771000  1.0
  H  H123  1  0.63193000  0.30360000  0.98229000  1.0
  H  H124  1  0.63193000  0.98229000  0.69640000  1.0
  H  H125  1  0.86807000  0.98229000  0.30360000  1.0
  H  H126  1  0.86807000  0.01771000  0.69640000  1.0
  H  H127  1  0.63193000  0.01771000  0.30360000  1.0
  H  H128  1  0.24708000  0.12750000  0.41483000  1.0
  H  H129  1  0.25293000  0.12750000  0.58517000  1.0
  H  H130  1  0.24708000  0.87250000  0.58517000  1.0
  H  H131  1  0.25293000  0.87250000  0.41483000  1.0
  H  H132  1  0.25293000  0.41483000  0.12750000  1.0
  H  H133  1  0.24707000  0.41483000  0.87250000  1.0
  H  H134  1  0.24707000  0.58517000  0.12750000  1.0
  H  H135  1  0.25293000  0.58517000  0.87250000  1.0
  H  H136  1  0.75293000  0.87250000  0.58517000  1.0
  H  H137  1  0.74708000  0.87250000  0.41483000  1.0
  H  H138  1  0.75292000  0.12750000  0.41483000  1.0
  H  H139  1  0.74707000  0.12750000  0.58517000  1.0
  H  H140  1  0.74707000  0.58517000  0.87250000  1.0
  H  H141  1  0.75293000  0.58517000  0.12750000  1.0
  H  H142  1  0.75293000  0.41483000  0.87250000  1.0
  H  H143  1  0.74708000  0.41483000  0.12750000  1.0
  H  H144  1  0.16474000  0.11029000  0.47970000  1.0
  H  H145  1  0.33526000  0.11029000  0.52030000  1.0
  H  H146  1  0.16474000  0.88971000  0.52030000  1.0
  H  H147  1  0.33526000  0.88971000  0.47970000  1.0
  H  H148  1  0.33526000  0.47970000  0.11029000  1.0
  H  H149  1  0.16474000  0.47970000  0.88971000  1.0
  H  H150  1  0.16474000  0.52030000  0.11029000  1.0
  H  H151  1  0.33526000  0.52030000  0.88971000  1.0
  H  H152  1  0.83526000  0.88971000  0.52030000  1.0
  H  H153  1  0.66474000  0.88971000  0.47970000  1.0
  H  H154  1  0.83526000  0.11029000  0.47970000  1.0
  H  H155  1  0.66474000  0.11029000  0.52030000  1.0
  H  H156  1  0.66474000  0.52030000  0.88971000  1.0
  H  H157  1  0.83526000  0.52030000  0.11029000  1.0
  H  H158  1  0.83526000  0.47970000  0.88971000  1.0
  H  H159  1  0.66474000  0.47970000  0.11029000  1.0
  H  H160  1  0.13210000  0.27209000  0.14643000  1.0
  H  H161  1  0.36790000  0.27209000  0.85357000  1.0
  H  H162  1  0.13210000  0.72791000  0.85356000  1.0
  H  H163  1  0.36790000  0.72791000  0.14643000  1.0
  H  H164  1  0.36790000  0.14644000  0.27209000  1.0
  H  H165  1  0.13210000  0.14644000  0.72791000  1.0
  H  H166  1  0.13210000  0.85357000  0.27209000  1.0
  H  H167  1  0.36790000  0.85356000  0.72791000  1.0
  H  H168  1  0.86790000  0.72791000  0.85356000  1.0
  H  H169  1  0.63210000  0.72791000  0.14643000  1.0
  H  H170  1  0.86790000  0.27209000  0.14643000  1.0
  H  H171  1  0.63210000  0.27209000  0.85357000  1.0
  H  H172  1  0.63210000  0.85357000  0.72791000  1.0
  H  H173  1  0.86790000  0.85357000  0.27209000  1.0
  H  H174  1  0.86790000  0.14643000  0.72791000  1.0
  H  H175  1  0.63210000  0.14644000  0.27209000  1.0
  H  H176  1  0.07435000  0.35532000  0.16669000  1.0
  H  H177  1  0.42565000  0.35532000  0.83331000  1.0
  H  H178  1  0.07435000  0.64468000  0.83331000  1.0
  H  H179  1  0.42565000  0.64468000  0.16669000  1.0
  H  H180  1  0.42565000  0.16669000  0.35532000  1.0
  H  H181  1  0.07435000  0.16669000  0.64468000  1.0
  H  H182  1  0.07435000  0.83331000  0.35532000  1.0
  H  H183  1  0.42565000  0.83331000  0.64468000  1.0
  H  H184  1  0.92565000  0.64468000  0.83331000  1.0
  H  H185  1  0.57435000  0.64468000  0.16669000  1.0
  H  H186  1  0.92565000  0.35532000  0.16669000  1.0
  H  H187  1  0.57435000  0.35532000  0.83331000  1.0
  H  H188  1  0.57435000  0.83331000  0.64468000  1.0
  H  H189  1  0.92565000  0.83331000  0.35532000  1.0
  H  H190  1  0.92565000  0.16669000  0.64468000  1.0
  H  H191  1  0.57435000  0.16669000  0.35532000  1.0
  H  H192  1  0.23792000  0.32658000  0.41769000  1.0
  H  H193  1  0.26208000  0.32658000  0.58232000  1.0
  H  H194  1  0.23792000  0.67342000  0.58232000  1.0
  H  H195  1  0.26208000  0.67342000  0.41768000  1.0
  H  H196  1  0.26208000  0.41769000  0.32658000  1.0
  H  H197  1  0.23792000  0.41769000  0.67342000  1.0
  H  H198  1  0.23792000  0.58232000  0.32658000  1.0
  H  H199  1  0.26208000  0.58232000  0.67342000  1.0
  H  H200  1  0.76208000  0.67342000  0.58231000  1.0
  H  H201  1  0.73792000  0.67342000  0.41768000  1.0
  H  H202  1  0.76208000  0.32658000  0.41768000  1.0
  H  H203  1  0.73792000  0.32658000  0.58231000  1.0
  H  H204  1  0.73792000  0.58232000  0.67342000  1.0
  H  H205  1  0.76208000  0.58232000  0.32658000  1.0
  H  H206  1  0.76208000  0.41769000  0.67342000  1.0
  H  H207  1  0.73792000  0.41768000  0.32658000  1.0
  H  H208  1  0.27159000  0.24736000  0.36523000  1.0
  H  H209  1  0.22841000  0.24736000  0.63477000  1.0
  H  H210  1  0.27159000  0.75264000  0.63477000  1.0
  H  H211  1  0.22841000  0.75264000  0.36523000  1.0
  H  H212  1  0.22841000  0.36523000  0.24736000  1.0
  H  H213  1  0.27158000  0.36523000  0.75264000  1.0
  H  H214  1  0.27159000  0.63477000  0.24736000  1.0
  H  H215  1  0.22842000  0.63477000  0.75264000  1.0
  H  H216  1  0.72841000  0.75264000  0.63477000  1.0
  H  H217  1  0.77159000  0.75264000  0.36523000  1.0
  H  H218  1  0.72841000  0.24736000  0.36523000  1.0
  H  H219  1  0.77159000  0.24736000  0.63477000  1.0
  H  H220  1  0.77159000  0.63477000  0.75264000  1.0
  H  H221  1  0.72841000  0.63477000  0.24736000  1.0
  H  H222  1  0.72842000  0.36523000  0.75264000  1.0
  H  H223  1  0.77159000  0.36523000  0.24736000  1.0
  C  C224  1  0.00000000  0.21298000  0.01784000  1.0
  C  C225  1  0.50000000  0.21298000  0.98216000  1.0
  C  C226  1  0.00000000  0.78702000  0.98216000  1.0
  C  C227  1  0.50000000  0.78702000  0.01784000  1.0
  C  C228  1  0.50000000  0.01784000  0.21298000  1.0
  C  C229  1  0.00000000  0.01784000  0.78702000  1.0
  C  C230  1  0.00000000  0.98216000  0.21298000  1.0
  C  C231  1  0.50000000  0.98216000  0.78702000  1.0
  C  C232  1  0.00000000  0.19145000  0.10173000  1.0
  C  C233  1  0.50000000  0.19145000  0.89827000  1.0
  C  C234  1  0.00000000  0.80855000  0.89827000  1.0
  C  C235  1  0.50000000  0.80855000  0.10173000  1.0
  C  C236  1  0.50000000  0.10173000  0.19145000  1.0
  C  C237  1  0.00000000  0.10173000  0.80855000  1.0
  C  C238  1  0.00000000  0.89827000  0.19145000  1.0
  C  C239  1  0.50000000  0.89827000  0.80855000  1.0
  C  C240  1  0.16296000  0.25963000  0.52622000  1.0
  C  C241  1  0.33704000  0.25963000  0.47378000  1.0
  C  C242  1  0.16296000  0.74037000  0.47378000  1.0
  C  C243  1  0.33704000  0.74037000  0.52622000  1.0
  C  C244  1  0.33704000  0.52622000  0.25963000  1.0
  C  C245  1  0.16296000  0.52622000  0.74037000  1.0
  C  C246  1  0.16296000  0.47378000  0.25963000  1.0
  C  C247  1  0.33704000  0.47378000  0.74037000  1.0
  C  C248  1  0.83704000  0.74037000  0.47378000  1.0
  C  C249  1  0.66296000  0.74037000  0.52622000  1.0
  C  C250  1  0.83704000  0.25963000  0.52622000  1.0
  C  C251  1  0.66296000  0.25963000  0.47378000  1.0
  C  C252  1  0.66296000  0.47378000  0.74037000  1.0
  C  C253  1  0.83704000  0.47378000  0.25963000  1.0
  C  C254  1  0.83704000  0.52622000  0.74037000  1.0
  C  C255  1  0.66296000  0.52622000  0.25963000  1.0
  C  C256  1  0.07645000  0.32639000  0.04690000  1.0
  C  C257  1  0.42355000  0.32640000  0.95310000  1.0
  C  C258  1  0.07645000  0.67361000  0.95310000  1.0
  C  C259  1  0.42355000  0.67361000  0.04690000  1.0
  C  C260  1  0.42355000  0.04690000  0.32639000  1.0
  C  C261  1  0.07645000  0.04690000  0.67361000  1.0
  C  C262  1  0.07645000  0.95310000  0.32639000  1.0
  C  C263  1  0.42355000  0.95310000  0.67361000  1.0
  C  C264  1  0.92355000  0.67361000  0.95310000  1.0
  C  C265  1  0.57645000  0.67361000  0.04690000  1.0
  C  C266  1  0.92355000  0.32639000  0.04690000  1.0
  C  C267  1  0.57645000  0.32640000  0.95310000  1.0
  C  C268  1  0.57645000  0.95310000  0.67361000  1.0
  C  C269  1  0.92355000  0.95310000  0.32639000  1.0
  C  C270  1  0.92355000  0.04690000  0.67361000  1.0
  C  C271  1  0.57645000  0.04690000  0.32639000  1.0
  C  C272  1  0.21860000  0.14692000  0.46754000  1.0
  C  C273  1  0.28140000  0.14692000  0.53246000  1.0
  C  C274  1  0.21860000  0.85308000  0.53246000  1.0
  C  C275  1  0.28140000  0.85308000  0.46754000  1.0
  C  C276  1  0.28140000  0.46754000  0.14692000  1.0
  C  C277  1  0.21860000  0.46754000  0.85308000  1.0
  C  C278  1  0.21860000  0.53246000  0.14692000  1.0
  C  C279  1  0.28140000  0.53246000  0.85308000  1.0
  C  C280  1  0.78140000  0.85308000  0.53246000  1.0
  C  C281  1  0.71860000  0.85308000  0.46754000  1.0
  C  C282  1  0.78140000  0.14692000  0.46754000  1.0
  C  C283  1  0.71860000  0.14692000  0.53246000  1.0
  C  C284  1  0.71860000  0.53246000  0.85308000  1.0
  C  C285  1  0.78140000  0.53246000  0.14692000  1.0
  C  C286  1  0.78140000  0.46754000  0.85308000  1.0
  C  C287  1  0.71860000  0.46754000  0.14692000  1.0
  C  C288  1  0.07620000  0.30520000  0.13098000  1.0
  C  C289  1  0.42380000  0.30520000  0.86902000  1.0
  C  C290  1  0.07620000  0.69480000  0.86902000  1.0
  C  C291  1  0.42380000  0.69480000  0.13098000  1.0
  C  C292  1  0.42380000  0.13098000  0.30520000  1.0
  C  C293  1  0.07620000  0.13098000  0.69480000  1.0
  C  C294  1  0.07620000  0.86902000  0.30520000  1.0
  C  C295  1  0.42380000  0.86902000  0.69480000  1.0
  C  C296  1  0.92380000  0.69480000  0.86902000  1.0
  C  C297  1  0.57620000  0.69480000  0.13098000  1.0
  C  C298  1  0.92380000  0.30520000  0.13098000  1.0
  C  C299  1  0.57620000  0.30520000  0.86902000  1.0
  C  C300  1  0.57620000  0.86902000  0.69480000  1.0
  C  C301  1  0.92380000  0.86902000  0.30520000  1.0
  C  C302  1  0.92380000  0.13098000  0.69480000  1.0
  C  C303  1  0.57620000  0.13098000  0.30520000  1.0
  C  C304  1  0.25869000  0.26798000  0.42215000  1.0
  C  C305  1  0.24131000  0.26798000  0.57785000  1.0
  C  C306  1  0.25869000  0.73202000  0.57785000  1.0
  C  C307  1  0.24131000  0.73202000  0.42215000  1.0
  C  C308  1  0.24131000  0.42215000  0.26798000  1.0
  C  C309  1  0.25869000  0.42215000  0.73202000  1.0
  C  C310  1  0.25869000  0.57785000  0.26798000  1.0
  C  C311  1  0.24131000  0.57785000  0.73202000  1.0
  C  C312  1  0.74131000  0.73202000  0.57785000  1.0
  C  C313  1  0.75869000  0.73202000  0.42215000  1.0
  C  C314  1  0.74131000  0.26798000  0.42215000  1.0
  C  C315  1  0.75869000  0.26798000  0.57785000  1.0
  C  C316  1  0.75869000  0.57785000  0.73202000  1.0
  C  C317  1  0.74131000  0.57785000  0.26798000  1.0
  C  C318  1  0.74131000  0.42215000  0.73202000  1.0
  C  C319  1  0.75869000  0.42215000  0.26798000  1.0
  I  I320  1  0.00000000  0.10895000  0.47123000  1.0
  I  I321  1  0.50000000  0.10895000  0.52877000  1.0
  I  I322  1  0.00000000  0.89105000  0.52877000  1.0
  I  I323  1  0.50000000  0.89105000  0.47123000  1.0
  I  I324  1  0.50000000  0.47123000  0.10895000  1.0
  I  I325  1  0.00000000  0.47123000  0.89105000  1.0
  I  I326  1  0.00000000  0.52877000  0.10895000  1.0
  I  I327  1  0.50000000  0.52877000  0.89105000  1.0
  I  I328  1  0.15026000  0.14853000  0.26269000  1.0
  I  I329  1  0.34974000  0.14853000  0.73731000  1.0
  I  I330  1  0.15026000  0.85147000  0.73731000  1.0
  I  I331  1  0.34974000  0.85147000  0.26269000  1.0
  I  I332  1  0.34974000  0.26269000  0.14853000  1.0
  I  I333  1  0.15026000  0.26269000  0.85147000  1.0
  I  I334  1  0.15026000  0.73731000  0.14853000  1.0
  I  I335  1  0.34974000  0.73731000  0.85147000  1.0
  I  I336  1  0.84974000  0.85147000  0.73731000  1.0
  I  I337  1  0.65026000  0.85147000  0.26269000  1.0
  I  I338  1  0.84974000  0.14853000  0.26269000  1.0
  I  I339  1  0.65026000  0.14853000  0.73731000  1.0
  I  I340  1  0.65026000  0.73731000  0.85147000  1.0
  I  I341  1  0.84974000  0.73731000  0.14853000  1.0
  I  I342  1  0.84974000  0.26269000  0.85147000  1.0
  I  I343  1  0.65026000  0.26269000  0.14853000  1.0
  I  I344  1  0.00000000  0.34292000  0.36093000  1.0
  I  I345  1  0.50000000  0.34292000  0.63907000  1.0
  I  I346  1  0.00000000  0.65708000  0.63907000  1.0
  I  I347  1  0.50000000  0.65708000  0.36093000  1.0
  I  I348  1  0.50000000  0.36093000  0.34292000  1.0
  I  I349  1  0.00000000  0.36093000  0.65708000  1.0
  I  I350  1  0.00000000  0.63907000  0.34292000  1.0
  I  I351  1  0.50000000  0.63907000  0.65708000  1.0
  N  N352  1  0.00000000  0.25998000  0.14950000  1.0
  N  N353  1  0.50000000  0.25998000  0.85050000  1.0
  N  N354  1  0.00000000  0.74002000  0.85050000  1.0
  N  N355  1  0.50000000  0.74002000  0.14950000  1.0
  N  N356  1  0.50000000  0.14950000  0.25998000  1.0
  N  N357  1  0.00000000  0.14950000  0.74002000  1.0
  N  N358  1  0.00000000  0.85050000  0.25998000  1.0
  N  N359  1  0.50000000  0.85050000  0.74002000  1.0
  N  N360  1  0.00000000  0.29586000  0.00915000  1.0
  N  N361  1  0.50000000  0.29586000  0.99086000  1.0
  N  N362  1  0.00000000  0.70414000  0.99085000  1.0
  N  N363  1  0.50000000  0.70414000  0.00915000  1.0
  N  N364  1  0.50000000  0.00915000  0.29586000  1.0
  N  N365  1  0.00000000  0.00915000  0.70414000  1.0
  N  N366  1  0.00000000  0.99085000  0.29586000  1.0
  N  N367  1  0.50000000  0.99085000  0.70414000  1.0
  N  N368  1  0.18677000  0.22433000  0.45349000  1.0
  N  N369  1  0.31323000  0.22433000  0.54651000  1.0
  N  N370  1  0.18677000  0.77567000  0.54651000  1.0
  N  N371  1  0.31323000  0.77567000  0.45349000  1.0
  N  N372  1  0.31323000  0.45349000  0.22433000  1.0
  N  N373  1  0.18677000  0.45349000  0.77567000  1.0
  N  N374  1  0.18677000  0.54651000  0.22433000  1.0
  N  N375  1  0.31323000  0.54651000  0.77567000  1.0
  N  N376  1  0.81323000  0.77567000  0.54651000  1.0
  N  N377  1  0.68677000  0.77567000  0.45349000  1.0
  N  N378  1  0.81323000  0.22433000  0.45349000  1.0
  N  N379  1  0.68677000  0.22433000  0.54651000  1.0
  N  N380  1  0.68677000  0.54651000  0.77567000  1.0
  N  N381  1  0.81323000  0.54651000  0.22433000  1.0
  N  N382  1  0.81323000  0.45349000  0.77567000  1.0
  N  N383  1  0.68677000  0.45349000  0.22433000  1.0
