# generated using pymatgen
data_Na2MoH9C4NO9
_symmetry_space_group_name_H-M   'P 1'
_cell_length_a   5.40604000
_cell_length_b   10.05720000
_cell_length_c   10.05810000
_cell_angle_alpha   96.28390000
_cell_angle_beta   96.22430000
_cell_angle_gamma   96.22600000
_symmetry_Int_Tables_number   1
_chemical_formula_structural   Na2MoH9C4NO9
_chemical_formula_sum   'Na4 Mo2 H18 C8 N2 O18'
_cell_volume   536.34445395
_cell_formula_units_Z   2
loop_
 _symmetry_equiv_pos_site_id
 _symmetry_equiv_pos_as_xyz
  1  'x, y, z'
loop_
 _atom_site_type_symbol
 _atom_site_label
 _atom_site_symmetry_multiplicity
 _atom_site_fract_x
 _atom_site_fract_y
 _atom_site_fract_z
 _atom_site_occupancy
  Na  Na0  1  0.50000000  0.60428000  0.39572000  1.0
  Na  Na1  1  0.50000000  0.39571000  0.60428000  1.0
  Na  Na2  1  0.00000000  0.71932000  0.28067000  1.0
  Na  Na3  1  0.99996000  0.28068000  0.71932000  1.0
  Mo  Mo4  1  0.92915000  0.34731000  0.34731000  1.0
  Mo  Mo5  1  0.07087000  0.65270000  0.65271000  1.0
  H  H6  1  0.14957000  0.15207000  0.00531000  1.0
  H  H7  1  0.85042000  0.99464000  0.84798000  1.0
  H  H8  1  0.85044000  0.84794000  0.99470000  1.0
  H  H9  1  0.14954000  0.00535000  0.15201000  1.0
  H  H10  1  0.26306000  0.32185000  0.05622000  1.0
  H  H11  1  0.73694000  0.94378000  0.67820000  1.0
  H  H12  1  0.73694000  0.67815000  0.94378000  1.0
  H  H13  1  0.26304000  0.05620000  0.32179000  1.0
  H  H14  1  0.34713000  0.25621000  0.25622000  1.0
  H  H15  1  0.65289000  0.74376000  0.74378000  1.0
  H  H16  1  0.46366000  0.63292000  0.12652000  1.0
  H  H17  1  0.53632000  0.87349000  0.36703000  1.0
  H  H18  1  0.53633000  0.36705000  0.87348000  1.0
  H  H19  1  0.46361000  0.12653000  0.63296000  1.0
  H  H20  1  0.61652000  0.50475000  0.14047000  1.0
  H  H21  1  0.38357000  0.85957000  0.49522000  1.0
  H  H22  1  0.38352000  0.49524000  0.85954000  1.0
  H  H23  1  0.61638000  0.14045000  0.50477000  1.0
  C  C24  1  0.86699000  0.28486000  0.03676000  1.0
  C  C25  1  0.13304000  0.96326000  0.71516000  1.0
  C  C26  1  0.13302000  0.71513000  0.96325000  1.0
  C  C27  1  0.86694000  0.03676000  0.28482000  1.0
  C  C28  1  0.12332000  0.24047000  0.07477000  1.0
  C  C29  1  0.87671000  0.92523000  0.75956000  1.0
  C  C30  1  0.87669000  0.75953000  0.92523000  1.0
  C  C31  1  0.12328000  0.07477000  0.24043000  1.0
  N  N32  1  0.16720000  0.21676000  0.21674000  1.0
  N  N33  1  0.83281000  0.78323000  0.78326000  1.0
  O  O34  1  0.63933000  0.39151000  0.39151000  1.0
  O  O35  1  0.36068000  0.60854000  0.60852000  1.0
  O  O36  1  0.10021000  0.49283000  0.30790000  1.0
  O  O37  1  0.89992000  0.69212000  0.50718000  1.0
  O  O38  1  0.89987000  0.50716000  0.69213000  1.0
  O  O39  1  0.10016000  0.30791000  0.49281000  1.0
  O  O40  1  0.74298000  0.32165000  0.13371000  1.0
  O  O41  1  0.25706000  0.86631000  0.67836000  1.0
  O  O42  1  0.25704000  0.67834000  0.86629000  1.0
  O  O43  1  0.74295000  0.13370000  0.32164000  1.0
  O  O44  1  0.79394000  0.28766000  0.91451000  1.0
  O  O45  1  0.20607000  0.08552000  0.71239000  1.0
  O  O46  1  0.20604000  0.71232000  0.08549000  1.0
  O  O47  1  0.79388000  0.91447000  0.28759000  1.0
  O  O48  1  0.61753000  0.60091000  0.17010000  1.0
  O  O49  1  0.38249000  0.82991000  0.39907000  1.0
  O  O50  1  0.38249000  0.39909000  0.82990000  1.0
  O  O51  1  0.61747000  0.17010000  0.60092000  1.0
