# generated using pymatgen
data_NiH14C14(NO3)2
_symmetry_space_group_name_H-M   'P 1'
_cell_length_a   8.86420000
_cell_length_b   9.77200000
_cell_length_c   10.71499389
_cell_angle_alpha   62.90984296
_cell_angle_beta   78.48206961
_cell_angle_gamma   63.97410000
_symmetry_Int_Tables_number   1
_chemical_formula_structural   NiH14C14(NO3)2
_chemical_formula_sum   'Ni2 H28 C28 N4 O12'
_cell_volume   742.52539960
_cell_formula_units_Z   2
loop_
 _symmetry_equiv_pos_site_id
 _symmetry_equiv_pos_as_xyz
  1  'x, y, z'
loop_
 _atom_site_type_symbol
 _atom_site_label
 _atom_site_symmetry_multiplicity
 _atom_site_fract_x
 _atom_site_fract_y
 _atom_site_fract_z
 _atom_site_occupancy
  Ni  Ni0  1  0.25005000  0.70670000  0.58667000  1.0
  Ni  Ni1  1  0.74995000  0.29330000  0.41333000  1.0
  H  H2  1  0.92090000  0.89034000  0.51752000  1.0
  H  H3  1  0.57913000  0.59210000  0.51756000  1.0
  H  H4  1  0.07911000  0.10966000  0.48248000  1.0
  H  H5  1  0.42087000  0.40790000  0.48244000  1.0
  H  H6  1  0.97251000  0.69025000  0.61548000  1.0
  H  H7  1  0.52758000  0.69445000  0.61541000  1.0
  H  H8  1  0.02749000  0.30975000  0.38452000  1.0
  H  H9  1  0.47242000  0.30555000  0.38459000  1.0
  H  H10  1  0.38620000  0.94863000  0.35700000  1.0
  H  H11  1  0.11379000  0.69439000  0.35674000  1.0
  H  H12  1  0.61380000  0.05137000  0.64300000  1.0
  H  H13  1  0.88621000  0.30561000  0.64326000  1.0
  H  H14  1  0.39524000  0.08017000  0.09747000  1.0
  H  H15  1  0.10450000  0.82257000  0.09720000  1.0
  H  H16  1  0.60476000  0.91983000  0.90252000  1.0
  H  H17  1  0.89550000  0.17743000  0.90280000  1.0
  H  H18  1  0.24980000  0.01962000  0.96088000  1.0
  H  H19  1  0.75020000  0.98038000  0.03912000  1.0
  H  H20  1  0.01625000  0.77799000  0.81222000  1.0
  H  H21  1  0.48391000  0.40987000  0.81219000  1.0
  H  H22  1  0.98375000  0.22202000  0.18777000  1.0
  H  H23  1  0.51609000  0.59014000  0.18780000  1.0
  H  H24  1  0.00367000  0.65026000  0.07633000  1.0
  H  H25  1  0.49627000  0.27330000  0.07631000  1.0
  H  H26  1  0.99632000  0.34975000  0.92366000  1.0
  H  H27  1  0.50372000  0.72671000  0.92368000  1.0
  H  H28  1  0.24990000  0.39486000  0.21006000  1.0
  H  H29  1  0.75009000  0.60515000  0.78993000  1.0
  C  C30  1  0.33548000  0.95095000  0.63228000  1.0
  C  C31  1  0.16463000  0.41691000  0.63230000  1.0
  C  C32  1  0.66453000  0.04904000  0.36774000  1.0
  C  C33  1  0.83537000  0.58309000  0.36770000  1.0
  C  C34  1  0.27532000  0.10988000  0.64267000  1.0
  C  C35  1  0.22481000  0.24759000  0.64268000  1.0
  C  C36  1  0.72468000  0.89010000  0.35736000  1.0
  C  C37  1  0.77521000  0.75240000  0.35734000  1.0
  C  C38  1  0.32678000  0.92167000  0.29631000  1.0
  C  C39  1  0.17311000  0.78206000  0.29617000  1.0
  C  C40  1  0.67323000  0.07834000  0.70368000  1.0
  C  C41  1  0.82689000  0.21795000  0.70383000  1.0
  C  C42  1  0.33087000  0.99582000  0.15038000  1.0
  C  C43  1  0.16888000  0.85394000  0.15023000  1.0
  C  C44  1  0.66913000  0.00419000  0.84962000  1.0
  C  C45  1  0.83112000  0.14606000  0.84977000  1.0
  C  C46  1  0.24984000  0.96240000  0.07533000  1.0
  C  C47  1  0.75016000  0.03761000  0.92466000  1.0
  C  C48  1  0.11909000  0.66604000  0.87566000  1.0
  C  C49  1  0.38101000  0.45834000  0.87563000  1.0
  C  C50  1  0.88091000  0.33397000  0.12433000  1.0
  C  C51  1  0.61899000  0.54167000  0.12436000  1.0
  C  C52  1  0.11372000  0.59525000  0.02137000  1.0
  C  C53  1  0.38625000  0.38330000  0.02135000  1.0
  C  C54  1  0.88627000  0.40475000  0.97863000  1.0
  C  C55  1  0.61374000  0.61670000  0.97865000  1.0
  C  C56  1  0.24996000  0.45186000  0.09612000  1.0
  C  C57  1  0.75003000  0.54814000  0.90388000  1.0
  N  N58  1  0.24998000  0.81554000  0.36883000  1.0
  N  N59  1  0.75002000  0.18447000  0.63117000  1.0
  N  N60  1  0.25007000  0.59820000  0.80370000  1.0
  N  N61  1  0.74993000  0.40181000  0.19629000  1.0
  O  O62  1  0.48649000  0.85183000  0.66202000  1.0
  O  O63  1  0.01369000  0.48623000  0.66220000  1.0
  O  O64  1  0.51351000  0.14816000  0.33799000  1.0
  O  O65  1  0.98632000  0.51376000  0.33780000  1.0
  O  O66  1  0.22446000  0.92920000  0.59060000  1.0
  O  O67  1  0.27559000  0.48035000  0.59054000  1.0
  O  O68  1  0.77555000  0.07080000  0.40940000  1.0
  O  O69  1  0.72443000  0.51963000  0.40947000  1.0
  O  O70  1  0.99119000  0.79129000  0.59785000  1.0
  O  O71  1  0.50889000  0.61096000  0.59787000  1.0
  O  O72  1  0.00882000  0.20871000  0.40215000  1.0
  O  O73  1  0.49110000  0.38905000  0.40212000  1.0
