# generated using pymatgen
data_NiH11C15N2O5
_symmetry_space_group_name_H-M   'P 1'
_cell_length_a   8.30457000
_cell_length_b   11.23370000
_cell_length_c   14.99220000
_cell_angle_alpha   98.07190000
_cell_angle_beta   89.99970000
_cell_angle_gamma   89.99970000
_symmetry_Int_Tables_number   1
_chemical_formula_structural   NiH11C15N2O5
_chemical_formula_sum   'Ni4 H44 C60 N8 O20'
_cell_volume   1384.78124190
_cell_formula_units_Z   4
loop_
 _symmetry_equiv_pos_site_id
 _symmetry_equiv_pos_as_xyz
  1  'x, y, z'
loop_
 _atom_site_type_symbol
 _atom_site_label
 _atom_site_symmetry_multiplicity
 _atom_site_fract_x
 _atom_site_fract_y
 _atom_site_fract_z
 _atom_site_occupancy
  Ni  Ni0  1  0.83117000  0.76162000  0.65562000  1.0
  Ni  Ni1  1  0.66882000  0.26162000  0.15562000  1.0
  Ni  Ni2  1  0.16883000  0.23838000  0.34438000  1.0
  Ni  Ni3  1  0.33117000  0.73838000  0.84438000  1.0
  H  H4  1  0.16542000  0.71341000  0.65960000  1.0
  H  H5  1  0.33458000  0.21341000  0.15959000  1.0
  H  H6  1  0.83459000  0.28659000  0.34041000  1.0
  H  H7  1  0.66541000  0.78659000  0.84040000  1.0
  H  H8  1  0.12616000  0.82512000  0.61287000  1.0
  H  H9  1  0.37385000  0.32512000  0.11287000  1.0
  H  H10  1  0.87384000  0.17488000  0.38713000  1.0
  H  H11  1  0.62615000  0.67488000  0.88713000  1.0
  H  H12  1  0.35823000  0.47021000  0.63934000  1.0
  H  H13  1  0.14177000  0.97020000  0.13934000  1.0
  H  H14  1  0.64177000  0.52979000  0.36066000  1.0
  H  H15  1  0.85823000  0.02980000  0.86067000  1.0
  H  H16  1  0.88808000  0.54763000  0.52905000  1.0
  H  H17  1  0.61192000  0.04763000  0.02904000  1.0
  H  H18  1  0.11192000  0.45237000  0.47095000  1.0
  H  H19  1  0.38809000  0.95237000  0.97095000  1.0
  H  H20  1  0.89128000  0.32512000  0.52210000  1.0
  H  H21  1  0.60872000  0.82512000  0.02209000  1.0
  H  H22  1  0.10871000  0.67488000  0.47790000  1.0
  H  H23  1  0.39129000  0.17488000  0.97790000  1.0
  H  H24  1  0.79339000  0.37701000  0.80895000  1.0
  H  H25  1  0.70661000  0.87701000  0.30894000  1.0
  H  H26  1  0.20660000  0.62299000  0.19106000  1.0
  H  H27  1  0.29339000  0.12299000  0.69105000  1.0
  H  H28  1  0.80207000  0.59838000  0.80217000  1.0
  H  H29  1  0.69794000  0.09838000  0.30216000  1.0
  H  H30  1  0.19793000  0.40162000  0.19784000  1.0
  H  H31  1  0.30206000  0.90162000  0.69784000  1.0
  H  H32  1  0.62839000  0.19413000  0.75026000  1.0
  H  H33  1  0.87161000  0.69413000  0.25026000  1.0
  H  H34  1  0.37160000  0.80587000  0.24974000  1.0
  H  H35  1  0.12839000  0.30587000  0.74974000  1.0
  H  H36  1  0.02402000  0.94702000  0.56634000  1.0
  H  H37  1  0.47599000  0.44701000  0.06633000  1.0
  H  H38  1  0.97599000  0.05299000  0.43367000  1.0
  H  H39  1  0.52401000  0.55299000  0.93366000  1.0
  H  H40  1  0.04238000  0.16733000  0.57355000  1.0
  H  H41  1  0.45762000  0.66733000  0.07354000  1.0
  H  H42  1  0.95762000  0.83267000  0.42646000  1.0
  H  H43  1  0.54239000  0.33267000  0.92646000  1.0
  H  H44  1  0.63656000  0.97023000  0.74148000  1.0
  H  H45  1  0.86343000  0.47023000  0.24149000  1.0
  H  H46  1  0.36343000  0.02977000  0.25851000  1.0
  H  H47  1  0.13657000  0.52977000  0.75851000  1.0
  C  C48  1  0.47988000  0.68891000  0.65468000  1.0
  C  C49  1  0.02012000  0.18890000  0.15468000  1.0
  C  C50  1  0.52013000  0.31109000  0.34532000  1.0
  C  C51  1  0.97988000  0.81110000  0.84532000  1.0
  C  C52  1  0.49399000  0.59485000  0.57313000  1.0
  C  C53  1  0.00601000  0.09484000  0.07313000  1.0
  C  C54  1  0.50601000  0.40516000  0.42688000  1.0
  C  C55  1  0.99399000  0.90516000  0.92688000  1.0
  C  C56  1  0.57619000  0.61189000  0.49345000  1.0
  C  C57  1  0.92382000  0.11189000  0.99345000  1.0
  C  C58  1  0.42381000  0.38811000  0.50655000  1.0
  C  C59  1  0.07618000  0.88811000  0.00655000  1.0
  C  C60  1  0.42049000  0.48341000  0.57755000  1.0
  C  C61  1  0.07951000  0.98341000  0.07755000  1.0
  C  C62  1  0.57951000  0.51659000  0.42245000  1.0
  C  C63  1  0.92049000  0.01659000  0.92245000  1.0
  C  C64  1  0.66683000  0.72355000  0.47574000  1.0
  C  C65  1  0.83317000  0.22356000  0.97574000  1.0
  C  C66  1  0.33317000  0.27643000  0.52426000  1.0
  C  C67  1  0.16683000  0.77644000  0.02426000  1.0
  C  C68  1  0.86795000  0.50525000  0.58901000  1.0
  C  C69  1  0.63204000  0.00525000  0.08900000  1.0
  C  C70  1  0.13205000  0.49475000  0.41100000  1.0
  C  C71  1  0.36795000  0.99475000  0.91099000  1.0
  C  C72  1  0.86774000  0.38127000  0.58605000  1.0
  C  C73  1  0.63225000  0.88127000  0.08605000  1.0
  C  C74  1  0.13226000  0.61873000  0.41395000  1.0
  C  C75  1  0.36775000  0.11873000  0.91395000  1.0
  C  C76  1  0.80891000  0.41075000  0.74458000  1.0
  C  C77  1  0.69109000  0.91074000  0.24457000  1.0
  C  C78  1  0.19109000  0.58925000  0.25543000  1.0
  C  C79  1  0.30890000  0.08925000  0.75543000  1.0
  C  C80  1  0.81463000  0.53374000  0.74140000  1.0
  C  C81  1  0.68538000  0.03374000  0.24139000  1.0
  C  C82  1  0.18538000  0.46626000  0.25860000  1.0
  C  C83  1  0.31462000  0.96626000  0.75860000  1.0
  C  C84  1  0.83586000  0.33169000  0.66490000  1.0
  C  C85  1  0.66414000  0.83168000  0.16489000  1.0
  C  C86  1  0.16414000  0.66832000  0.33511000  1.0
  C  C87  1  0.33586000  0.16831000  0.83511000  1.0
  C  C88  1  0.72091000  0.14247000  0.71076000  1.0
  C  C89  1  0.77909000  0.64246000  0.21076000  1.0
  C  C90  1  0.27908000  0.85754000  0.28924000  1.0
  C  C91  1  0.22091000  0.35754000  0.78924000  1.0
  C  C92  1  0.94115000  0.00410000  0.60958000  1.0
  C  C93  1  0.55886000  0.50410000  0.10957000  1.0
  C  C94  1  0.05885000  0.99590000  0.39043000  1.0
  C  C95  1  0.44115000  0.49590000  0.89042000  1.0
  C  C96  1  0.94841000  0.12797000  0.61143000  1.0
  C  C97  1  0.55159000  0.62796000  0.11142000  1.0
  C  C98  1  0.05158000  0.87204000  0.38858000  1.0
  C  C99  1  0.44842000  0.37203000  0.88858000  1.0
  C  C100  1  0.83499000  0.20002000  0.66305000  1.0
  C  C101  1  0.66501000  0.70002000  0.16306000  1.0
  C  C102  1  0.16501000  0.79998000  0.33695000  1.0
  C  C103  1  0.33499000  0.29998000  0.83694000  1.0
  C  C104  1  0.72415000  0.01794000  0.70577000  1.0
  C  C105  1  0.77584000  0.51794000  0.20577000  1.0
  C  C106  1  0.27584000  0.98206000  0.29422000  1.0
  C  C107  1  0.22416000  0.48206000  0.79422000  1.0
  N  N108  1  0.84160000  0.58124000  0.66519000  1.0
  N  N109  1  0.65840000  0.08123000  0.16519000  1.0
  N  N110  1  0.15840000  0.41876000  0.33481000  1.0
  N  N111  1  0.34160000  0.91876000  0.83481000  1.0
  N  N112  1  0.83290000  0.94869000  0.65610000  1.0
  N  N113  1  0.66710000  0.44869000  0.15610000  1.0
  N  N114  1  0.16710000  0.05131000  0.34390000  1.0
  N  N115  1  0.33290000  0.55131000  0.84390000  1.0
  O  O116  1  0.58991000  0.76536000  0.67752000  1.0
  O  O117  1  0.91009000  0.26536000  0.17752000  1.0
  O  O118  1  0.41009000  0.23464000  0.32249000  1.0
  O  O119  1  0.08991000  0.73464000  0.82248000  1.0
  O  O120  1  0.61829000  0.77658000  0.41308000  1.0
  O  O121  1  0.88172000  0.27659000  0.91308000  1.0
  O  O122  1  0.38171000  0.22342000  0.58692000  1.0
  O  O123  1  0.11828000  0.72341000  0.08692000  1.0
  O  O124  1  0.79885000  0.74934000  0.52022000  1.0
  O  O125  1  0.70115000  0.24934000  0.02022000  1.0
  O  O126  1  0.20115000  0.25066000  0.47978000  1.0
  O  O127  1  0.29885000  0.75066000  0.97978000  1.0
  O  O128  1  0.08162000  0.74798000  0.62256000  1.0
  O  O129  1  0.41838000  0.24798000  0.12256000  1.0
  O  O130  1  0.91838000  0.25202000  0.37744000  1.0
  O  O131  1  0.58162000  0.75202000  0.87744000  1.0
  O  O132  1  0.34983000  0.68733000  0.70146000  1.0
  O  O133  1  0.15016000  0.18733000  0.20146000  1.0
  O  O134  1  0.65017000  0.31267000  0.29854000  1.0
  O  O135  1  0.84984000  0.81268000  0.79854000  1.0
