# generated using pymatgen
data_AgH3C3SN2O3
_symmetry_space_group_name_H-M   'P 1'
_cell_length_a   5.41287000
_cell_length_b   7.66243000
_cell_length_c   14.05420000
_cell_angle_alpha   90.35640000
_cell_angle_beta   90.00020000
_cell_angle_gamma   89.99990000
_symmetry_Int_Tables_number   1
_chemical_formula_structural   AgH3C3SN2O3
_chemical_formula_sum   'Ag4 H12 C12 S4 N8 O12'
_cell_volume   582.89703246
_cell_formula_units_Z   4
loop_
 _symmetry_equiv_pos_site_id
 _symmetry_equiv_pos_as_xyz
  1  'x, y, z'
loop_
 _atom_site_type_symbol
 _atom_site_label
 _atom_site_symmetry_multiplicity
 _atom_site_fract_x
 _atom_site_fract_y
 _atom_site_fract_z
 _atom_site_occupancy
  Ag  Ag0  1  0.00000000  0.00000000  0.99999000  1.0
  Ag  Ag1  1  0.49999000  0.00001000  0.50000000  1.0
  Ag  Ag2  1  0.50000000  0.49999000  0.50000000  1.0
  Ag  Ag3  1  0.00001000  0.50000000  0.00000000  1.0
  H  H4  1  0.40048000  0.77545000  0.08582000  1.0
  H  H5  1  0.90048000  0.22455000  0.41419000  1.0
  H  H6  1  0.59952000  0.22456000  0.91418000  1.0
  H  H7  1  0.09951000  0.77544000  0.58582000  1.0
  H  H8  1  0.44757000  0.63245000  0.25247000  1.0
  H  H9  1  0.94761000  0.36756000  0.24753000  1.0
  H  H10  1  0.55240000  0.36758000  0.74752000  1.0
  H  H11  1  0.05240000  0.63242000  0.75247000  1.0
  H  H12  1  0.75481000  0.91276000  0.21770000  1.0
  H  H13  1  0.25482000  0.08724000  0.28230000  1.0
  H  H14  1  0.24518000  0.08724000  0.78230000  1.0
  H  H15  1  0.74515000  0.91278000  0.71769000  1.0
  C  C16  1  0.29159000  0.70958000  0.22910000  1.0
  C  C17  1  0.79161000  0.29042000  0.27091000  1.0
  C  C18  1  0.70841000  0.29043000  0.77090000  1.0
  C  C19  1  0.20841000  0.70958000  0.72910000  1.0
  C  C20  1  0.07108000  0.75152000  0.27513000  1.0
  C  C21  1  0.57107000  0.24847000  0.22487000  1.0
  C  C22  1  0.92894000  0.24847000  0.72487000  1.0
  C  C23  1  0.42892000  0.75153000  0.77513000  1.0
  C  C24  1  0.93628000  0.85430000  0.21057000  1.0
  C  C25  1  0.43630000  0.14568000  0.28944000  1.0
  C  C26  1  0.06371000  0.14568000  0.78944000  1.0
  C  C27  1  0.56368000  0.85434000  0.71057000  1.0
  S  S28  1  0.98470000  0.67696000  0.38823000  1.0
  S  S29  1  0.48469000  0.32305000  0.11175000  1.0
  S  S30  1  0.01532000  0.32306000  0.61175000  1.0
  S  S31  1  0.51531000  0.67696000  0.88824000  1.0
  N  N32  1  0.06737000  0.87368000  0.13033000  1.0
  N  N33  1  0.56736000  0.12630000  0.36969000  1.0
  N  N34  1  0.93265000  0.12630000  0.86969000  1.0
  N  N35  1  0.43261000  0.87369000  0.63032000  1.0
  N  N36  1  0.28227000  0.78584000  0.14334000  1.0
  N  N37  1  0.78226000  0.21414000  0.35667000  1.0
  N  N38  1  0.71776000  0.21415000  0.85666000  1.0
  N  N39  1  0.21774000  0.78584000  0.64335000  1.0
  O  O40  1  0.71572000  0.64573000  0.38001000  1.0
  O  O41  1  0.21568000  0.35427000  0.12001000  1.0
  O  O42  1  0.28434000  0.35428000  0.62000000  1.0
  O  O43  1  0.78430000  0.64574000  0.87999000  1.0
  O  O44  1  0.12889000  0.51595000  0.40121000  1.0
  O  O45  1  0.62892000  0.48408000  0.09880000  1.0
  O  O46  1  0.87107000  0.48409000  0.59880000  1.0
  O  O47  1  0.37110000  0.51593000  0.90120000  1.0
  O  O48  1  0.04299000  0.81489000  0.45779000  1.0
  O  O49  1  0.54302000  0.18509000  0.04220000  1.0
  O  O50  1  0.95699000  0.18507000  0.54220000  1.0
  O  O51  1  0.45700000  0.81490000  0.95779000  1.0
