# generated using pymatgen
data_Al6H26C73O35
_symmetry_space_group_name_H-M   'P 1'
_cell_length_a   12.02730000
_cell_length_b   12.52090000
_cell_length_c   26.91200000
_cell_angle_alpha   82.61800000
_cell_angle_beta   81.96420000
_cell_angle_gamma   68.27580000
_symmetry_Int_Tables_number   1
_chemical_formula_structural   Al6H26C73O35
_chemical_formula_sum   'Al6 H26 C73 O35'
_cell_volume   3714.94322754
_cell_formula_units_Z   1
loop_
 _symmetry_equiv_pos_site_id
 _symmetry_equiv_pos_as_xyz
  1  'x, y, z'
loop_
 _atom_site_type_symbol
 _atom_site_label
 _atom_site_symmetry_multiplicity
 _atom_site_fract_x
 _atom_site_fract_y
 _atom_site_fract_z
 _atom_site_occupancy
  Al  Al0  1  0.59641000  0.61134000  0.48669000  1.0
  Al  Al1  1  0.56557000  0.36503000  0.50378000  1.0
  Al  Al2  1  0.34162000  0.57785000  0.50198000  1.0
  Al  Al3  1  0.06056000  0.07297000  0.02067000  1.0
  Al  Al4  1  0.31824000  0.10132000  0.00401000  1.0
  Al  Al5  1  0.09685000  0.31691000  0.00519000  1.0
  H  H6  1  0.91845000  0.15754000  0.71378000  1.0
  H  H7  1  0.75133000  0.52109000  0.79341000  1.0
  H  H8  1  0.92200000  0.47603000  0.70725000  1.0
  H  H9  1  0.01251000  0.83033000  0.75658000  1.0
  H  H10  1  0.00295000  0.96787000  0.72545000  1.0
  H  H11  1  0.91033000  0.95995000  0.78345000  1.0
  H  H12  1  0.71796000  0.10512000  0.75015000  1.0
  H  H13  1  0.58752000  0.22275000  0.77147000  1.0
  H  H14  1  0.63699000  0.09111000  0.81061000  1.0
  H  H15  1  0.13321000  0.24968000  0.71393000  1.0
  H  H16  1  0.17503000  0.57145000  0.78626000  1.0
  H  H17  1  0.17118000  0.50201000  0.22519000  1.0
  H  H18  1  0.14305000  0.70341000  0.81482000  1.0
  H  H19  1  0.28863000  0.59248000  0.81630000  1.0
  H  H20  1  0.56852000  0.64062000  0.78095000  1.0
  H  H21  1  0.34893000  0.13589000  0.72054000  1.0
  H  H22  1  0.52874000  0.43833000  0.78933000  1.0
  H  H23  1  0.14126000  0.33697000  0.30339000  1.0
  H  H24  1  0.37229000  0.50318000  0.26863000  1.0
  H  H25  1  0.52555000  0.32330000  0.20918000  1.0
  H  H26  1  0.49567000  0.15829000  0.28732000  1.0
  H  H27  1  0.29463000  0.15702000  0.24395000  1.0
  H  H28  1  0.18378000  0.03050000  0.69649000  1.0
  H  H29  1  0.52250000  0.82294000  0.70927000  1.0
  H  H30  1  0.70527000  0.72001000  0.44189000  1.0
  H  H31  1  0.95790000  0.95878000  0.06570000  1.0
  C  C32  1  0.70894000  0.41417000  0.56233000  1.0
  C  C33  1  0.30607000  0.89484000  0.79650000  1.0
  C  C34  1  0.43010000  0.84184000  0.72651000  1.0
  C  C35  1  0.37377000  0.40050000  0.58290000  1.0
  C  C36  1  0.32448000  0.83879000  0.69882000  1.0
  C  C37  1  0.39318000  0.77692000  0.77503000  1.0
  C  C38  1  0.28191000  0.77317000  0.74767000  1.0
  C  C39  1  0.29682000  0.91917000  0.84704000  1.0
  C  C40  1  0.33591000  0.80769000  0.64912000  1.0
  C  C41  1  0.88257000  0.41544000  0.72798000  1.0
  C  C42  1  0.78861000  0.44040000  0.77518000  1.0
  C  C43  1  0.33323000  0.35343000  0.73216000  1.0
  C  C44  1  0.90619000  0.29613000  0.89777000  1.0
  C  C45  1  0.75912000  0.38789000  0.60976000  1.0
  C  C46  1  0.95534000  0.29597000  0.75541000  1.0
  C  C47  1  0.38327000  0.72342000  0.56004000  1.0
  C  C48  1  0.86013000  0.32139000  0.80347000  1.0
  C  C49  1  0.87966000  0.23867000  0.73167000  1.0
  C  C50  1  0.80803000  0.35812000  0.70401000  1.0
  C  C51  1  0.78609000  0.26362000  0.77984000  1.0
  C  C52  1  0.71136000  0.38553000  0.75141000  1.0
  C  C53  1  0.88591000  0.30594000  0.85406000  1.0
  C  C54  1  0.33867000  0.36553000  0.68186000  1.0
  C  C55  1  0.78102000  0.37497000  0.65342000  1.0
  C  C56  1  0.22636000  0.33402000  0.28191000  1.0
  C  C57  1  0.24311000  0.42578000  0.23938000  1.0
  C  C58  1  0.31277000  0.30831000  0.11093000  1.0
  C  C59  1  0.71205000  0.40929000  0.42115000  1.0
  C  C60  1  0.35037000  0.35701000  0.40144000  1.0
  C  C61  1  0.31187000  0.23393000  0.25005000  1.0
  C  C62  1  0.32819000  0.32612000  0.20585000  1.0
  C  C63  1  0.42366000  0.23451000  0.27317000  1.0
  C  C64  1  0.33853000  0.33417000  0.30672000  1.0
  C  C65  1  0.34596000  0.37584000  0.63569000  1.0
  C  C66  1  0.44040000  0.32627000  0.23062000  1.0
  C  C67  1  0.35494000  0.42635000  0.26248000  1.0
  C  C68  1  0.32186000  0.31776000  0.15460000  1.0
  C  C69  1  0.34371000  0.34418000  0.35787000  1.0
  C  C70  1  0.30120000  0.90541000  0.13447000  1.0
  C  C71  1  0.37589000  0.38720000  0.44673000  1.0
  C  C72  1  0.31564000  0.87447000  0.17903000  1.0
  C  C73  1  0.33027000  0.84302000  0.22798000  1.0
  C  C74  1  0.34204000  0.81669000  0.27328000  1.0
  C  C75  1  0.35543000  0.78693000  0.32242000  1.0
  C  C76  1  0.24143000  0.95843000  0.71963000  1.0
  C  C77  1  0.36789000  0.75870000  0.36729000  1.0
  C  C78  1  0.89823000  0.30218000  0.13788000  1.0
  C  C79  1  0.87011000  0.31891000  0.18259000  1.0
  C  C80  1  0.84232000  0.33582000  0.23163000  1.0
  C  C81  1  0.81942000  0.34968000  0.27701000  1.0
  C  C82  1  0.79174000  0.36571000  0.32613000  1.0
  C  C83  1  0.39288000  0.71181000  0.41799000  1.0
  C  C84  1  0.76439000  0.38103000  0.37100000  1.0
  C  C85  1  0.26221000  0.97368000  0.94131000  1.0
  C  C86  1  0.29156000  0.28579000  0.92737000  1.0
  C  C87  1  0.19971000  0.89386000  0.76861000  1.0
  C  C88  1  0.95174000  0.27345000  0.94608000  1.0
  C  C89  1  0.27244000  0.95846000  0.08484000  1.0
  C  C90  1  0.28564000  0.28377000  0.06467000  1.0
  C  C91  1  0.95064000  0.27172000  0.08788000  1.0
  C  C92  1  0.31928000  0.31394000  0.87485000  1.0
  C  C93  1  0.32644000  0.32645000  0.82870000  1.0
  C  C94  1  0.33144000  0.34029000  0.77843000  1.0
  C  C95  1  0.99824000  0.91996000  0.76258000  1.0
  C  C96  1  0.66689000  0.15001000  0.78342000  1.0
  C  C97  1  0.08738000  0.24210000  0.75285000  1.0
  C  C98  1  0.28568000  0.93720000  0.89119000  1.0
  C  C99  1  0.21195000  0.63472000  0.79394000  1.0
  C  C100  1  0.47945000  0.68045000  0.80326000  1.0
  C  C101  1  0.38999000  0.05797000  0.74645000  1.0
  C  C102  1  0.57960000  0.43667000  0.75113000  1.0
  C  C103  1  0.35105000  0.77693000  0.60676000  1.0
  C  C104  1  0.34674000  0.96146000  0.74659000  1.0
  O  O105  1  0.48900000  0.70415000  0.53949000  1.0
  O  O106  1  0.19488000  0.35498000  0.94872000  1.0
  O  O107  1  0.98469000  0.35222000  0.95925000  1.0
  O  O108  1  0.69031000  0.51374000  0.54055000  1.0
  O  O109  1  0.97148000  0.16983000  0.07817000  1.0
  O  O110  1  0.16866000  0.97563000  0.07345000  1.0
  O  O111  1  0.35490000  0.98773000  0.05726000  1.0
  O  O112  1  0.35669000  0.19130000  0.04530000  1.0
  O  O113  1  0.18814000  0.35319000  0.04719000  1.0
  O  O114  1  0.97580000  0.35102000  0.05832000  1.0
  O  O115  1  0.15964000  0.16472000  0.01015000  1.0
  O  O116  1  0.47334000  0.32105000  0.46525000  1.0
  O  O117  1  0.68279000  0.33333333  0.54697000  1.0
  O  O118  1  0.47155000  0.33069000  0.56250000  1.0
  O  O119  1  0.30238000  0.49264000  0.56172000  1.0
  O  O120  1  0.30198000  0.69588000  0.54376000  1.0
  O  O121  1  0.49416000  0.69971000  0.43078000  1.0
  O  O122  1  0.69555000  0.50887000  0.43278000  1.0
  O  O123  1  0.68213000  0.33048000  0.44900000  1.0
  O  O124  1  0.08555000  0.92467000  0.79275000  1.0
  O  O125  1  0.74052000  0.18939000  0.80879000  1.0
  O  O126  1  0.14561000  0.19032000  0.78797000  1.0
  O  O127  1  0.30341000  0.48147000  0.46442000  1.0
  O  O128  1  0.25055000  0.68060000  0.74519000  1.0
  O  O129  1  0.46031000  0.64329000  0.84662000  1.0
  O  O130  1  0.46901000  0.05247000  0.77186000  1.0
  O  O131  1  0.52722000  0.47525000  0.71317000  1.0
  O  O132  1  0.30987000  0.68280000  0.44529000  1.0
  O  O133  1  0.50028000  0.51703000  0.49711000  1.0
  O  O134  1  0.96069000  0.17839000  0.97068000  1.0
  O  O135  1  0.15949000  0.98758000  0.96426000  1.0
  O  O136  1  0.34793000  0.99307000  0.95823000  1.0
  O  O137  1  0.36169000  0.19095000  0.94713000  1.0
  O  O138  1  0.68358000  0.69824000  0.47660000  1.0
  O  O139  1  0.96996000  0.98948000  0.03141000  1.0
