# generated using pymatgen
data_ZnH22C18(NO)6
_symmetry_space_group_name_H-M   'P 1'
_cell_length_a   10.35490000
_cell_length_b   10.72640000
_cell_length_c   12.47400000
_cell_angle_alpha   104.36900000
_cell_angle_beta   102.25000000
_cell_angle_gamma   110.71100000
_symmetry_Int_Tables_number   1
_chemical_formula_structural   ZnH22C18(NO)6
_chemical_formula_sum   'Zn2 H44 C36 N12 O12'
_cell_volume   1184.64413897
_cell_formula_units_Z   2
loop_
 _symmetry_equiv_pos_site_id
 _symmetry_equiv_pos_as_xyz
  1  'x, y, z'
loop_
 _atom_site_type_symbol
 _atom_site_label
 _atom_site_symmetry_multiplicity
 _atom_site_fract_x
 _atom_site_fract_y
 _atom_site_fract_z
 _atom_site_occupancy
  Zn  Zn0  1  0.55582000  0.94821000  0.72332000  1.0
  Zn  Zn1  1  0.44418000  0.05179000  0.27668000  1.0
  H  H2  1  0.64243000  0.61977000  0.81458000  1.0
  H  H3  1  0.35757000  0.38023000  0.18542000  1.0
  H  H4  1  0.80031000  0.82456000  0.80586000  1.0
  H  H5  1  0.19969000  0.17544000  0.19414000  1.0
  H  H6  1  0.85762000  0.55277000  0.37139000  1.0
  H  H7  1  0.14238000  0.44723000  0.62861000  1.0
  H  H8  1  0.61933000  0.42595000  0.34725000  1.0
  H  H9  1  0.38067000  0.57405000  0.65275000  1.0
  H  H10  1  0.82960000  0.21304000  0.85340000  1.0
  H  H11  1  0.17039000  0.78696000  0.14660000  1.0
  H  H12  1  0.91230000  0.47334000  0.90442000  1.0
  H  H13  1  0.08770000  0.52666000  0.09558000  1.0
  H  H14  1  0.46466000  0.38824000  0.73225000  1.0
  H  H15  1  0.53534000  0.61176000  0.26775000  1.0
  H  H16  1  0.40124000  0.13016000  0.68224000  1.0
  H  H17  1  0.59876000  0.86984000  0.31776000  1.0
  H  H18  1  0.00509000  0.03084000  0.88690000  1.0
  H  H19  1  0.99491000  0.96916000  0.11310000  1.0
  H  H20  1  0.10267000  0.94536000  0.95281000  1.0
  H  H21  1  0.89733000  0.05464000  0.04719000  1.0
  H  H22  1  0.35929000  0.80735000  0.46409000  1.0
  H  H23  1  0.64071000  0.19265000  0.53591000  1.0
  H  H24  1  0.09282000  0.65984000  0.35785000  1.0
  H  H25  1  0.90718000  0.34016000  0.64215000  1.0
  H  H26  1  0.02891000  0.72367000  0.69632000  1.0
  H  H27  1  0.97109000  0.27633000  0.30368000  1.0
  H  H28  1  0.29875000  0.86165000  0.78729000  1.0
  H  H29  1  0.70125000  0.13835000  0.21271000  1.0
  H  H30  1  0.54913000  0.40194000  0.55179000  1.0
  H  H31  1  0.45086000  0.59805000  0.44821000  1.0
  H  H32  1  0.42791000  0.34937000  0.40727000  1.0
  H  H33  1  0.57209000  0.65064000  0.59273000  1.0
  H  H34  1  0.82579000  0.85741000  0.47467000  1.0
  H  H35  1  0.17421000  0.14260000  0.52532000  1.0
  H  H36  1  0.93501000  0.90802000  0.62438000  1.0
  H  H37  1  0.06499000  0.09198000  0.37562000  1.0
  H  H38  1  0.91856000  0.03941000  0.56450000  1.0
  H  H39  1  0.08144000  0.96059000  0.43550000  1.0
  H  H40  1  0.48731000  0.69457000  0.00942000  1.0
  H  H41  1  0.51270000  0.30543000  0.99059000  1.0
  H  H42  1  0.55797000  0.88568000  0.06857000  1.0
  H  H43  1  0.44203000  0.11432000  0.93143000  1.0
  H  H44  1  0.67560000  0.80225000  0.04129000  1.0
  H  H45  1  0.32440000  0.19775000  0.95871000  1.0
  C  C46  1  0.75193000  0.25539000  0.82588000  1.0
  C  C47  1  0.24807000  0.74461000  0.17412000  1.0
  C  C48  1  0.79852000  0.40094000  0.85505000  1.0
  C  C49  1  0.20147000  0.59906000  0.14495000  1.0
  C  C50  1  0.69541000  0.45419000  0.82173000  1.0
  C  C51  1  0.30459000  0.54581000  0.17828000  1.0
  C  C52  1  0.54870000  0.35313000  0.76010000  1.0
  C  C53  1  0.45130000  0.64687000  0.23990000  1.0
  C  C54  1  0.51256000  0.20968000  0.73334000  1.0
  C  C55  1  0.48744000  0.79032000  0.26666000  1.0
  C  C56  1  0.86674000  0.70992000  0.90061000  1.0
  C  C57  1  0.13326000  0.29008000  0.09939000  1.0
  C  C58  1  0.00289000  0.96284000  0.93995000  1.0
  C  C59  1  0.99711000  0.03716000  0.06005000  1.0
  C  C60  1  0.28179000  0.78455000  0.51139000  1.0
  C  C61  1  0.71821000  0.21545000  0.48861000  1.0
  C  C62  1  0.13297000  0.70408000  0.45351000  1.0
  C  C63  1  0.86703000  0.29591000  0.54649000  1.0
  C  C64  1  0.03640000  0.67879000  0.51850000  1.0
  C  C65  1  0.96359000  0.32121000  0.48149000  1.0
  C  C66  1  0.09811000  0.73903000  0.64206000  1.0
  C  C67  1  0.90189000  0.26097000  0.35794000  1.0
  C  C68  1  0.24790000  0.81626000  0.69211000  1.0
  C  C69  1  0.75210000  0.18374000  0.30788000  1.0
  C  C70  1  0.77812000  0.56547000  0.51178000  1.0
  C  C71  1  0.22188000  0.43453000  0.48822000  1.0
  C  C72  1  0.52067000  0.43852000  0.47902000  1.0
  C  C73  1  0.47933000  0.56148000  0.52098000  1.0
  C  C74  1  0.72831000  0.92463000  0.60010000  1.0
  C  C75  1  0.27170000  0.07537000  0.39990000  1.0
  C  C76  1  0.86065000  0.93150000  0.56469000  1.0
  C  C77  1  0.13935000  0.06851000  0.43531000  1.0
  C  C78  1  0.53796000  0.80051000  0.88703000  1.0
  C  C79  1  0.46204000  0.19950000  0.11297000  1.0
  C  C80  1  0.56484000  0.79560000  0.00953000  1.0
  C  C81  1  0.43516000  0.20440000  0.99047000  1.0
  N  N82  1  0.61168000  0.15940000  0.76513000  1.0
  N  N83  1  0.38832000  0.84060000  0.23486000  1.0
  N  N84  1  0.72823000  0.59499000  0.84310000  1.0
  N  N85  1  0.27177000  0.40501000  0.15690000  1.0
  N  N86  1  0.87496000  0.82869000  0.87667000  1.0
  N  N87  1  0.12504000  0.17131000  0.12333000  1.0
  N  N88  1  0.34008000  0.83938000  0.62959000  1.0
  N  N89  1  0.65992000  0.16062000  0.37041000  1.0
  N  N90  1  0.88873000  0.59727000  0.46005000  1.0
  N  N91  1  0.11127000  0.40273000  0.53995000  1.0
  N  N92  1  0.64188000  0.48042000  0.43439000  1.0
  N  N93  1  0.35812000  0.51958000  0.56561000  1.0
  O  O94  1  0.96941000  0.70437000  0.96878000  1.0
  O  O95  1  0.03059000  0.29563000  0.03122000  1.0
  O  O96  1  0.80436000  0.61375000  0.61895000  1.0
  O  O97  1  0.19564000  0.38625000  0.38105000  1.0
  O  O98  1  0.73182000  0.91990000  0.70410000  1.0
  O  O99  1  0.26818000  0.08009000  0.29589000  1.0
  O  O100  1  0.62195000  0.92770000  0.53268000  1.0
  O  O101  1  0.37805000  0.07230000  0.46732000  1.0
  O  O102  1  0.55752000  0.92194000  0.87809000  1.0
  O  O103  1  0.44249000  0.07806000  0.12191000  1.0
  O  O104  1  0.50132000  0.68777000  0.80098000  1.0
  O  O105  1  0.49867000  0.31223000  0.19902000  1.0
