# generated using pymatgen
data_ZnH6C8O5
_symmetry_space_group_name_H-M   'P 1'
_cell_length_a   6.61693000
_cell_length_b   12.13050000
_cell_length_c   16.57350000
_cell_angle_alpha   90.00060000
_cell_angle_beta   90.00040000
_cell_angle_gamma   98.16530000
_symmetry_Int_Tables_number   1
_chemical_formula_structural   ZnH6C8O5
_chemical_formula_sum   'Zn4 H24 C32 O20'
_cell_volume   1316.81363835
_cell_formula_units_Z   4
loop_
 _symmetry_equiv_pos_site_id
 _symmetry_equiv_pos_as_xyz
  1  'x, y, z'
loop_
 _atom_site_type_symbol
 _atom_site_label
 _atom_site_symmetry_multiplicity
 _atom_site_fract_x
 _atom_site_fract_y
 _atom_site_fract_z
 _atom_site_occupancy
  Zn  Zn0  1  0.30920000  0.92856000  0.99763000  1.0
  Zn  Zn1  1  0.19080000  0.57144000  0.49763000  1.0
  Zn  Zn2  1  0.69081000  0.07144000  0.00236000  1.0
  Zn  Zn3  1  0.80919000  0.42856000  0.50236000  1.0
  H  H4  1  0.98327000  0.88432000  0.17599000  1.0
  H  H5  1  0.51674000  0.61567000  0.67599000  1.0
  H  H6  1  0.01672000  0.11569000  0.82401000  1.0
  H  H7  1  0.48327000  0.38431000  0.32402000  1.0
  H  H8  1  0.10133000  0.77753000  0.29127000  1.0
  H  H9  1  0.39866000  0.72246000  0.79127000  1.0
  H  H10  1  0.89862000  0.22248000  0.70874000  1.0
  H  H11  1  0.60137000  0.27751000  0.20875000  1.0
  H  H12  1  0.50994000  0.57707000  0.30207000  1.0
  H  H13  1  0.99004000  0.92294000  0.80207000  1.0
  H  H14  1  0.49004000  0.42295000  0.69794000  1.0
  H  H15  1  0.01000000  0.07704000  0.19794000  1.0
  H  H16  1  0.39122000  0.68446000  0.18710000  1.0
  H  H17  1  0.10876000  0.81556000  0.68710000  1.0
  H  H18  1  0.60877000  0.31556000  0.81290000  1.0
  H  H19  1  0.89125000  0.18443000  0.31290000  1.0
  H  H20  1  0.93347000  0.87708000  0.03320000  1.0
  H  H21  1  0.56651000  0.62293000  0.53320000  1.0
  H  H22  1  0.06653000  0.12292000  0.96680000  1.0
  H  H23  1  0.43349000  0.37708000  0.46680000  1.0
  H  H24  1  0.95013000  0.89084000  0.94194000  1.0
  H  H25  1  0.54985000  0.60917000  0.44195000  1.0
  H  H26  1  0.04987000  0.10917000  0.05806000  1.0
  H  H27  1  0.45013000  0.39083000  0.55805000  1.0
  C  C28  1  0.67932000  0.79090000  0.17480000  1.0
  C  C29  1  0.82071000  0.70911000  0.67479000  1.0
  C  C30  1  0.32069000  0.20911000  0.82521000  1.0
  C  C31  1  0.17931000  0.29088000  0.32520000  1.0
  C  C32  1  0.88012000  0.81680000  0.20364000  1.0
  C  C33  1  0.61988000  0.68319000  0.70364000  1.0
  C  C34  1  0.11987000  0.18320000  0.79636000  1.0
  C  C35  1  0.38015000  0.31680000  0.29636000  1.0
  C  C36  1  0.94664000  0.75747000  0.26782000  1.0
  C  C37  1  0.55337000  0.74252000  0.76780000  1.0
  C  C38  1  0.05337000  0.24254000  0.73219000  1.0
  C  C39  1  0.44666000  0.25747000  0.23220000  1.0
  C  C40  1  0.81317000  0.67137000  0.30389000  1.0
  C  C41  1  0.68684000  0.82865000  0.80389000  1.0
  C  C42  1  0.18681000  0.32865000  0.69610000  1.0
  C  C43  1  0.31318000  0.17136000  0.19611000  1.0
  C  C44  1  0.61311000  0.64456000  0.27437000  1.0
  C  C45  1  0.88686000  0.85545000  0.77437000  1.0
  C  C46  1  0.38684000  0.35544000  0.72563000  1.0
  C  C47  1  0.11316000  0.14455000  0.22562000  1.0
  C  C48  1  0.54636000  0.70401000  0.21025000  1.0
  C  C49  1  0.95362000  0.79600000  0.71024000  1.0
  C  C50  1  0.45361000  0.29599000  0.78976000  1.0
  C  C51  1  0.04637000  0.20399000  0.28975000  1.0
  C  C52  1  0.60704000  0.85764000  0.10759000  1.0
  C  C53  1  0.89296000  0.64237000  0.60759000  1.0
  C  C54  1  0.39294000  0.14237000  0.89240000  1.0
  C  C55  1  0.10705000  0.35764000  0.39240000  1.0
  C  C56  1  0.88263000  0.60976000  0.37458000  1.0
  C  C57  1  0.61733000  0.89022000  0.87458000  1.0
  C  C58  1  0.11735000  0.39023000  0.62543000  1.0
  C  C59  1  0.38268000  0.10977000  0.12543000  1.0
  O  O60  1  0.42326000  0.83520000  0.08414000  1.0
  O  O61  1  0.07675000  0.66479000  0.58415000  1.0
  O  O62  1  0.57674000  0.16479000  0.91585000  1.0
  O  O63  1  0.92326000  0.33520000  0.41586000  1.0
  O  O64  1  0.73863000  0.93505000  0.07766000  1.0
  O  O65  1  0.76138000  0.56497000  0.57765000  1.0
  O  O66  1  0.26137000  0.06496000  0.92234000  1.0
  O  O67  1  0.23865000  0.43505000  0.42233000  1.0
  O  O68  1  0.74970000  0.53530000  0.40681000  1.0
  O  O69  1  0.75025000  0.96470000  0.90682000  1.0
  O  O70  1  0.25025000  0.46469000  0.59318000  1.0
  O  O71  1  0.24976000  0.03529000  0.09318000  1.0
  O  O72  1  0.06513000  0.63549000  0.39899000  1.0
  O  O73  1  0.43484000  0.86450000  0.89898000  1.0
  O  O74  1  0.93486000  0.36452000  0.60102000  1.0
  O  O75  1  0.56520000  0.13550000  0.10102000  1.0
  O  O76  1  0.01777000  0.85668000  0.98711000  1.0
  O  O77  1  0.48221000  0.64333000  0.48712000  1.0
  O  O78  1  0.98223000  0.14332000  0.01289000  1.0
  O  O79  1  0.51778000  0.35667000  0.51288000  1.0
