# generated using pymatgen
data_ZnH21C24S(NO2)3
_symmetry_space_group_name_H-M   'P 1'
_cell_length_a   9.63198000
_cell_length_b   9.91133000
_cell_length_c   12.61000000
_cell_angle_alpha   76.68910000
_cell_angle_beta   71.21350000
_cell_angle_gamma   80.56900000
_symmetry_Int_Tables_number   1
_chemical_formula_structural   ZnH21C24S(NO2)3
_chemical_formula_sum   'Zn2 H42 C48 S2 N6 O12'
_cell_volume   1103.80077994
_cell_formula_units_Z   2
loop_
 _symmetry_equiv_pos_site_id
 _symmetry_equiv_pos_as_xyz
  1  'x, y, z'
loop_
 _atom_site_type_symbol
 _atom_site_label
 _atom_site_symmetry_multiplicity
 _atom_site_fract_x
 _atom_site_fract_y
 _atom_site_fract_z
 _atom_site_occupancy
  Zn  Zn0  1  0.51632000  0.96130000  0.34558000  1.0
  Zn  Zn1  1  0.48367000  0.03870000  0.65442000  1.0
  H  H2  1  0.86152000  0.65405000  0.48722000  1.0
  H  H3  1  0.13848000  0.34595000  0.51278000  1.0
  H  H4  1  0.94545000  0.86731000  0.34788000  1.0
  H  H5  1  0.05454000  0.13269000  0.65212000  1.0
  H  H6  1  0.92845000  0.95396000  0.45936000  1.0
  H  H7  1  0.07154000  0.04605000  0.54064000  1.0
  H  H8  1  0.10584000  0.74772000  0.52912000  1.0
  H  H9  1  0.89415000  0.25229000  0.47088000  1.0
  H  H10  1  0.13935000  0.69753000  0.39785000  1.0
  H  H11  1  0.86064000  0.30247000  0.60215000  1.0
  H  H12  1  0.68830000  0.48430000  0.57062000  1.0
  H  H13  1  0.31171000  0.51570000  0.42938000  1.0
  H  H14  1  0.44246000  0.41319000  0.60018000  1.0
  H  H15  1  0.55755000  0.58681000  0.39981000  1.0
  H  H16  1  0.29301000  0.51695000  0.93501000  1.0
  H  H17  1  0.70700000  0.48305000  0.06499000  1.0
  H  H18  1  0.54055000  0.58971000  0.90492000  1.0
  H  H19  1  0.45945000  0.41029000  0.09508000  1.0
  H  H20  1  0.21635000  0.29689000  0.79742000  1.0
  H  H21  1  0.78365000  0.70311000  0.20258000  1.0
  H  H22  1  0.15852000  0.45144000  0.71593000  1.0
  H  H23  1  0.84148000  0.54856000  0.28408000  1.0
  H  H24  1  0.12147000  0.43982000  0.86506000  1.0
  H  H25  1  0.87853000  0.56018000  0.13494000  1.0
  H  H26  1  0.42487000  0.78606000  0.20130000  1.0
  H  H27  1  0.57513000  0.21394000  0.79871000  1.0
  H  H28  1  0.51938000  0.74490000  0.00080000  1.0
  H  H29  1  0.48062000  0.25510000  0.99920000  1.0
  H  H30  1  0.72330000  0.88040000  0.86018000  1.0
  H  H31  1  0.27670000  0.11959000  0.13982000  1.0
  H  H32  1  0.99849000  0.22395000  0.89433000  1.0
  H  H33  1  0.00151000  0.77605000  0.10567000  1.0
  H  H34  1  0.89130000  0.06541000  0.82088000  1.0
  H  H35  1  0.10870000  0.93460000  0.17912000  1.0
  H  H36  1  0.02366000  0.30040000  0.06905000  1.0
  H  H37  1  0.97635000  0.69960000  0.93095000  1.0
  H  H38  1  0.92476000  0.29863000  0.27691000  1.0
  H  H39  1  0.07524000  0.70137000  0.72309000  1.0
  H  H40  1  0.69890000  0.17561000  0.39229000  1.0
  H  H41  1  0.30110000  0.82439000  0.60771000  1.0
  H  H42  1  0.79300000  0.82539000  0.66771000  1.0
  H  H43  1  0.20700000  0.17461000  0.33229000  1.0
  C  C44  1  0.68422000  0.82063000  0.49645000  1.0
  C  C45  1  0.31578000  0.17937000  0.50355000  1.0
  C  C46  1  0.83394000  0.75604000  0.51336000  1.0
  C  C47  1  0.16606000  0.24396000  0.48664000  1.0
  C  C48  1  0.95324000  0.85111000  0.43491000  1.0
  C  C49  1  0.04675000  0.14889000  0.56509000  1.0
  C  C50  1  0.10649000  0.78821000  0.44025000  1.0
  C  C51  1  0.89350000  0.21179000  0.55975000  1.0
  C  C52  1  0.22607000  0.88660000  0.38563000  1.0
  C  C53  1  0.77393000  0.11340000  0.61437000  1.0
  C  C54  1  0.62830000  0.54337000  0.73608000  1.0
  C  C55  1  0.37170000  0.45663000  0.26392000  1.0
  C  C56  1  0.60098000  0.49495000  0.64939000  1.0
  C  C57  1  0.39902000  0.50505000  0.35061000  1.0
  C  C58  1  0.46199000  0.45574000  0.66599000  1.0
  C  C59  1  0.53801000  0.54426000  0.33400000  1.0
  C  C60  1  0.34916000  0.46267000  0.76868000  1.0
  C  C61  1  0.65085000  0.53733000  0.23131000  1.0
  C  C62  1  0.37856000  0.51260000  0.85397000  1.0
  C  C63  1  0.62145000  0.48740000  0.14603000  1.0
  C  C64  1  0.51673000  0.55341000  0.83804000  1.0
  C  C65  1  0.48328000  0.44659000  0.16196000  1.0
  C  C66  1  0.20332000  0.41103000  0.78817000  1.0
  C  C67  1  0.79668000  0.58897000  0.21183000  1.0
  C  C68  1  0.51482000  0.84119000  0.13883000  1.0
  C  C69  1  0.48518000  0.15881000  0.86117000  1.0
  C  C70  1  0.56851000  0.81896000  0.02598000  1.0
  C  C71  1  0.43149000  0.18104000  0.97402000  1.0
  C  C72  1  0.68109000  0.89249000  0.94889000  1.0
  C  C73  1  0.31891000  0.10751000  0.05111000  1.0
  C  C74  1  0.74053000  0.98893000  0.98526000  1.0
  C  C75  1  0.25947000  0.01107000  0.01474000  1.0
  C  C76  1  0.68275000  0.00149000  0.10136000  1.0
  C  C77  1  0.31725000  0.99851000  0.89864000  1.0
  C  C78  1  0.74452000  0.09237000  0.14449000  1.0
  C  C79  1  0.25548000  0.90762000  0.85551000  1.0
  C  C80  1  0.86290000  0.16850000  0.07026000  1.0
  C  C81  1  0.13710000  0.83150000  0.92975000  1.0
  C  C82  1  0.91178000  0.16065000  0.95158000  1.0
  C  C83  1  0.08822000  0.83935000  0.04842000  1.0
  C  C84  1  0.85355000  0.07376000  0.91070000  1.0
  C  C85  1  0.14645000  0.92624000  0.08930000  1.0
  C  C86  1  0.92871000  0.24394000  0.12066000  1.0
  C  C87  1  0.07129000  0.75606000  0.87935000  1.0
  C  C88  1  0.87352000  0.24360000  0.23635000  1.0
  C  C89  1  0.12648000  0.75640000  0.76365000  1.0
  C  C90  1  0.74927000  0.17272000  0.30170000  1.0
  C  C91  1  0.25073000  0.82728000  0.69830000  1.0
  S  S92  1  0.80655000  0.58887000  0.71895000  1.0
  S  S93  1  0.19345000  0.41114000  0.28105000  1.0
  N  N94  1  0.68776000  0.09838000  0.25661000  1.0
  N  N95  1  0.31224000  0.90162000  0.74340000  1.0
  N  N96  1  0.57115000  0.92894000  0.17556000  1.0
  N  N97  1  0.42885000  0.07106000  0.82444000  1.0
  N  N98  1  0.83346000  0.73734000  0.63181000  1.0
  N  N99  1  0.16654000  0.26266000  0.36819000  1.0
  O  O100  1  0.67026000  0.81979000  0.39943000  1.0
  O  O101  1  0.32973000  0.18021000  0.60057000  1.0
  O  O102  1  0.58850000  0.87276000  0.57514000  1.0
  O  O103  1  0.41150000  0.12724000  0.42486000  1.0
  O  O104  1  0.20718000  0.99561000  0.31522000  1.0
  O  O105  1  0.79282000  0.00440000  0.68478000  1.0
  O  O106  1  0.34446000  0.84732000  0.41637000  1.0
  O  O107  1  0.65554000  0.15268000  0.58363000  1.0
  O  O108  1  0.80811000  0.61136000  0.82829000  1.0
  O  O109  1  0.19189000  0.38864000  0.17170000  1.0
  O  O110  1  0.91147000  0.48444000  0.66425000  1.0
  O  O111  1  0.08854000  0.51556000  0.33575000  1.0
