# generated using pymatgen
data_CsH8C14NO4
_symmetry_space_group_name_H-M   'P 1'
_cell_length_a   5.04157000
_cell_length_b   15.62748257
_cell_length_c   16.53280000
_cell_angle_alpha   101.48117320
_cell_angle_beta   90.02970000
_cell_angle_gamma   99.25248644
_symmetry_Int_Tables_number   1
_chemical_formula_structural   CsH8C14NO4
_chemical_formula_sum   'Cs4 H32 C56 N4 O16'
_cell_volume   1259.18575937
_cell_formula_units_Z   4
loop_
 _symmetry_equiv_pos_site_id
 _symmetry_equiv_pos_as_xyz
  1  'x, y, z'
loop_
 _atom_site_type_symbol
 _atom_site_label
 _atom_site_symmetry_multiplicity
 _atom_site_fract_x
 _atom_site_fract_y
 _atom_site_fract_z
 _atom_site_occupancy
  Cs  Cs0  1  0.99999000  0.00000000  0.50000000  1.0
  Cs  Cs1  1  0.00000000  0.00000000  0.00000000  1.0
  Cs  Cs2  1  0.19507000  0.00008000  0.25000000  1.0
  Cs  Cs3  1  0.80493000  0.99992000  0.75000000  1.0
  H  H4  1  0.28042000  0.47129000  0.51624000  1.0
  H  H5  1  0.81133000  0.52904000  0.98424000  1.0
  H  H6  1  0.71957000  0.52870000  0.48375000  1.0
  H  H7  1  0.18861000  0.47096000  0.01576000  1.0
  H  H8  1  0.95834000  0.53117000  0.61776000  1.0
  H  H9  1  0.42963000  0.46888000  0.88267000  1.0
  H  H10  1  0.04165000  0.46882000  0.38224000  1.0
  H  H11  1  0.57032000  0.53114000  0.11732000  1.0
  H  H12  1  0.82746000  0.45790000  0.73571000  1.0
  H  H13  1  0.37086000  0.54205000  0.76467000  1.0
  H  H14  1  0.17254000  0.54209000  0.26429000  1.0
  H  H15  1  0.62914000  0.45796000  0.23532000  1.0
  H  H16  1  0.87120000  0.34034000  0.81480000  1.0
  H  H17  1  0.53162000  0.65932000  0.68532000  1.0
  H  H18  1  0.12880000  0.65965000  0.18520000  1.0
  H  H19  1  0.46839000  0.34069000  0.31467000  1.0
  H  H20  1  0.06502000  0.20785000  0.82870000  1.0
  H  H21  1  0.85765000  0.79166000  0.67111000  1.0
  H  H22  1  0.93498000  0.79214000  0.17131000  1.0
  H  H23  1  0.14236000  0.20835000  0.32888000  1.0
  H  H24  1  0.39177000  0.15089000  0.72774000  1.0
  H  H25  1  0.24172000  0.84877000  0.77199000  1.0
  H  H26  1  0.60823000  0.84910000  0.27227000  1.0
  H  H27  1  0.75828000  0.15124000  0.22802000  1.0
  H  H28  1  0.96540000  0.19652000  0.48847000  1.0
  H  H29  1  0.77080000  0.80355000  0.01152000  1.0
  H  H30  1  0.03459000  0.80346000  0.51154000  1.0
  H  H31  1  0.22919000  0.19646000  0.98848000  1.0
  H  H32  1  0.85255000  0.26279000  0.42418000  1.0
  H  H33  1  0.59187000  0.73744000  0.07590000  1.0
  H  H34  1  0.14747000  0.73720000  0.57582000  1.0
  H  H35  1  0.40812000  0.26256000  0.92410000  1.0
  C  C36  1  0.52233000  0.33058000  0.51523000  1.0
  C  C37  1  0.19372000  0.66969000  0.98501000  1.0
  C  C38  1  0.47769000  0.66942000  0.48477000  1.0
  C  C39  1  0.80625000  0.33031000  0.01500000  1.0
  C  C40  1  0.33580000  0.36602000  0.57692000  1.0
  C  C41  1  0.97134000  0.63422000  0.92341000  1.0
  C  C42  1  0.66422000  0.63398000  0.42308000  1.0
  C  C43  1  0.02865000  0.36579000  0.07659000  1.0
  C  C44  1  0.26757000  0.32433000  0.64448000  1.0
  C  C45  1  0.94441000  0.67579000  0.85577000  1.0
  C  C46  1  0.73244000  0.67566000  0.35553000  1.0
  C  C47  1  0.05561000  0.32422000  0.14422000  1.0
  C  C48  1  0.37942000  0.24924000  0.65440000  1.0
  C  C49  1  0.13133000  0.75075000  0.84566000  1.0
  C  C50  1  0.62059000  0.75076000  0.34561000  1.0
  C  C51  1  0.86867000  0.24926000  0.15434000  1.0
  C  C52  1  0.56740000  0.21313000  0.59357000  1.0
  C  C53  1  0.35579000  0.78688000  0.90638000  1.0
  C  C54  1  0.43262000  0.78687000  0.40644000  1.0
  C  C55  1  0.64420000  0.21313000  0.09362000  1.0
  C  C56  1  0.22406000  0.43938000  0.56790000  1.0
  C  C57  1  0.78663000  0.56087000  0.93251000  1.0
  C  C58  1  0.77595000  0.56061000  0.43210000  1.0
  C  C59  1  0.21334000  0.43914000  0.06749000  1.0
  C  C60  1  0.04170000  0.47297000  0.62542000  1.0
  C  C61  1  0.57059000  0.52717000  0.87502000  1.0
  C  C62  1  0.95829000  0.52702000  0.37458000  1.0
  C  C63  1  0.42939000  0.47284000  0.12498000  1.0
  C  C64  1  0.96993000  0.43262000  0.69124000  1.0
  C  C65  1  0.53865000  0.56742000  0.80914000  1.0
  C  C66  1  0.03008000  0.56737000  0.30876000  1.0
  C  C67  1  0.46133000  0.43258000  0.19085000  1.0
  C  C68  1  0.08091000  0.35785000  0.70278000  1.0
  C  C69  1  0.72407000  0.64218000  0.79752000  1.0
  C  C70  1  0.91910000  0.64214000  0.29723000  1.0
  C  C71  1  0.27595000  0.35783000  0.20247000  1.0
  C  C72  1  0.01169000  0.31495000  0.76958000  1.0
  C  C73  1  0.69750000  0.68486000  0.73055000  1.0
  C  C74  1  0.98833000  0.68505000  0.23042000  1.0
  C  C75  1  0.30251000  0.31515000  0.26945000  1.0
  C  C76  1  0.12182000  0.24147000  0.77788000  1.0
  C  C77  1  0.88107000  0.75822000  0.72206000  1.0
  C  C78  1  0.87821000  0.75853000  0.22213000  1.0
  C  C79  1  0.11895000  0.24179000  0.27793000  1.0
  C  C80  1  0.30600000  0.20875000  0.72050000  1.0
  C  C81  1  0.09809000  0.79104000  0.77940000  1.0
  C  C82  1  0.69401000  0.79124000  0.27950000  1.0
  C  C83  1  0.90191000  0.20897000  0.22060000  1.0
  C  C84  1  0.78680000  0.21440000  0.46272000  1.0
  C  C85  1  0.57443000  0.78580000  0.03732000  1.0
  C  C86  1  0.21321000  0.78559000  0.53728000  1.0
  C  C87  1  0.42557000  0.21421000  0.96268000  1.0
  C  C88  1  0.61579000  0.13148000  0.40833000  1.0
  C  C89  1  0.48676000  0.86881000  0.09171000  1.0
  C  C90  1  0.38421000  0.86851000  0.59167000  1.0
  C  C91  1  0.51326000  0.13120000  0.90829000  1.0
  N  N92  1  0.63161000  0.25718000  0.52859000  1.0
  N  N93  1  0.37610000  0.74302000  0.97151000  1.0
  N  N94  1  0.36839000  0.74281000  0.47141000  1.0
  N  N95  1  0.62387000  0.25698000  0.02850000  1.0
  O  O96  1  0.58215000  0.36279000  0.45377000  1.0
  O  O97  1  0.22189000  0.63754000  0.04649000  1.0
  O  O98  1  0.41785000  0.63720000  0.54623000  1.0
  O  O99  1  0.77807000  0.36246000  0.95351000  1.0
  O  O100  1  0.66514000  0.14589000  0.59751000  1.0
  O  O101  1  0.52106000  0.85391000  0.90219000  1.0
  O  O102  1  0.33485000  0.85410000  0.40249000  1.0
  O  O103  1  0.47892000  0.14609000  0.09782000  1.0
  O  O104  1  0.74329000  0.08174000  0.35815000  1.0
  O  O105  1  0.66412000  0.91835000  0.14198000  1.0
  O  O106  1  0.25672000  0.91826000  0.64184000  1.0
  O  O107  1  0.33592000  0.08166000  0.85802000  1.0
  O  O108  1  0.36436000  0.12090000  0.41753000  1.0
  O  O109  1  0.24618000  0.87966000  0.08241000  1.0
  O  O110  1  0.63564000  0.87909000  0.58247000  1.0
  O  O111  1  0.75383000  0.12035000  0.91760000  1.0
