# generated using pymatgen
data_ZnH12C17N12O
_symmetry_space_group_name_H-M   'P 1'
_cell_length_a   7.68166000
_cell_length_b   11.05710000
_cell_length_c   12.03860000
_cell_angle_alpha   114.92800000
_cell_angle_beta   90.00000000
_cell_angle_gamma   89.99990000
_symmetry_Int_Tables_number   1
_chemical_formula_structural   ZnH12C17N12O
_chemical_formula_sum   'Zn2 H24 C34 N24 O2'
_cell_volume   927.26119350
_cell_formula_units_Z   2
loop_
 _symmetry_equiv_pos_site_id
 _symmetry_equiv_pos_as_xyz
  1  'x, y, z'
loop_
 _atom_site_type_symbol
 _atom_site_label
 _atom_site_symmetry_multiplicity
 _atom_site_fract_x
 _atom_site_fract_y
 _atom_site_fract_z
 _atom_site_occupancy
  Zn  Zn0  1  0.65489000  0.85522000  0.09122000  1.0
  Zn  Zn1  1  0.15489000  0.14478000  0.90878000  1.0
  H  H2  1  0.40774000  0.10651000  0.52629000  1.0
  H  H3  1  0.90775000  0.89349000  0.47371000  1.0
  H  H4  1  0.43213000  0.91740000  0.58820000  1.0
  H  H5  1  0.93213000  0.08260000  0.41180000  1.0
  H  H6  1  0.57669000  0.70567000  0.44399000  1.0
  H  H7  1  0.07670000  0.29433000  0.55601000  1.0
  H  H8  1  0.69717000  0.69350000  0.24610000  1.0
  H  H9  1  0.19717000  0.30650000  0.75391000  1.0
  H  H10  1  0.29743000  0.45592000  0.49321000  1.0
  H  H11  1  0.79743000  0.54408000  0.50679000  1.0
  H  H12  1  0.32464000  0.59544000  0.72091000  1.0
  H  H13  1  0.82464000  0.40456000  0.27909000  1.0
  H  H14  1  0.55324000  0.53431000  0.83620000  1.0
  H  H15  1  0.05324000  0.46569000  0.16380000  1.0
  H  H16  1  0.74649000  0.33774000  0.72071000  1.0
  H  H17  1  0.24649000  0.66225000  0.27929000  1.0
  H  H18  1  0.16977000  0.69630000  0.05817000  1.0
  H  H19  1  0.66977000  0.30370000  0.94182000  1.0
  H  H20  1  0.22923000  0.83882000  0.03270000  1.0
  H  H21  1  0.72923000  0.16118000  0.96729000  1.0
  H  H22  1  0.25713000  0.84146000  0.18090000  1.0
  H  H23  1  0.75713000  0.15854000  0.81910000  1.0
  H  H24  1  0.44494000  0.63949000  0.05616000  1.0
  H  H25  1  0.94493000  0.36051000  0.94384000  1.0
  C  C26  1  0.47132000  0.01805000  0.97930000  1.0
  C  C27  1  0.97132000  0.98195000  0.02070000  1.0
  C  C28  1  0.40844000  0.33222000  0.10903000  1.0
  C  C29  1  0.90844000  0.66778000  0.89096000  1.0
  C  C30  1  0.46673000  0.10564000  0.11038000  1.0
  C  C31  1  0.96673000  0.89436000  0.88962000  1.0
  C  C32  1  0.43859000  0.24486000  0.17078000  1.0
  C  C33  1  0.93859000  0.75514000  0.82922000  1.0
  C  C34  1  0.48702000  0.23812000  0.35960000  1.0
  C  C35  1  0.98702000  0.76188000  0.64040000  1.0
  C  C36  1  0.51138000  0.09761000  0.30049000  1.0
  C  C37  1  0.01139000  0.90239000  0.69951000  1.0
  C  C38  1  0.53938000  0.99961000  0.35402000  1.0
  C  C39  1  0.03938000  0.00039000  0.64599000  1.0
  C  C40  1  0.47286000  0.01464000  0.46721000  1.0
  C  C41  1  0.97287000  0.98536000  0.53279000  1.0
  C  C42  1  0.48558000  0.90904000  0.50130000  1.0
  C  C43  1  0.98559000  0.09096000  0.49871000  1.0
  C  C44  1  0.56701000  0.79141000  0.42205000  1.0
  C  C45  1  0.06702000  0.20859000  0.57796000  1.0
  C  C46  1  0.63360000  0.78370000  0.31162000  1.0
  C  C47  1  0.13361000  0.21630000  0.68838000  1.0
  C  C48  1  0.50228000  0.32169000  0.49293000  1.0
  C  C49  1  0.00228000  0.67831000  0.50708000  1.0
  C  C50  1  0.39278000  0.43277000  0.54845000  1.0
  C  C51  1  0.89278000  0.56723000  0.45155000  1.0
  C  C52  1  0.40942000  0.51004000  0.67391000  1.0
  C  C53  1  0.90942000  0.48996000  0.32609000  1.0
  C  C54  1  0.53683000  0.47586000  0.73817000  1.0
  C  C55  1  0.03683000  0.52414000  0.26183000  1.0
  C  C56  1  0.64252000  0.36528000  0.67402000  1.0
  C  C57  1  0.14252000  0.63472000  0.32598000  1.0
  C  C58  1  0.26381000  0.77805000  0.08159000  1.0
  C  C59  1  0.76381000  0.22195000  0.91841000  1.0
  N  N60  1  0.56920000  0.90656000  0.93885000  1.0
  N  N61  1  0.06919000  0.09344000  0.06115000  1.0
  N  N62  1  0.54127000  0.84356000  0.81761000  1.0
  N  N63  1  0.04127000  0.15644000  0.18239000  1.0
  N  N64  1  0.42849000  0.91307000  0.78539000  1.0
  N  N65  1  0.92849000  0.08694000  0.21461000  1.0
  N  N66  1  0.38255000  0.02335000  0.88539000  1.0
  N  N67  1  0.88255000  0.97665000  0.11461000  1.0
  N  N68  1  0.31140000  0.30392000  0.00720000  1.0
  N  N69  1  0.81140000  0.69608000  0.99280000  1.0
  N  N70  1  0.32157000  0.41019000  0.98157000  1.0
  N  N71  1  0.82158000  0.58982000  0.01843000  1.0
  N  N72  1  0.42319000  0.49861000  0.06532000  1.0
  N  N73  1  0.92319000  0.50139000  0.93468000  1.0
  N  N74  1  0.47899000  0.45454000  0.14692000  1.0
  N  N75  1  0.97898000  0.54546000  0.85308000  1.0
  N  N76  1  0.50337000  0.03904000  0.17824000  1.0
  N  N77  1  0.00337000  0.96096000  0.82176000  1.0
  N  N78  1  0.45164000  0.30632000  0.29298000  1.0
  N  N79  1  0.95163000  0.69368000  0.70701000  1.0
  N  N80  1  0.61908000  0.88491000  0.27810000  1.0
  N  N81  1  0.11909000  0.11509000  0.72190000  1.0
  N  N82  1  0.62581000  0.28804000  0.55405000  1.0
  N  N83  1  0.12581000  0.71196000  0.44595000  1.0
  O  O84  1  0.43414000  0.72512000  0.04350000  1.0
  O  O85  1  0.93414000  0.27488000  0.95649000  1.0
