# generated using pymatgen
data_UH18C14(NO4)2
_symmetry_space_group_name_H-M   'P 1'
_cell_length_a   6.44193000
_cell_length_b   9.63902000
_cell_length_c   14.16770000
_cell_angle_alpha   89.99970000
_cell_angle_beta   97.68500000
_cell_angle_gamma   89.99990000
_symmetry_Int_Tables_number   1
_chemical_formula_structural   UH18C14(NO4)2
_chemical_formula_sum   'U2 H36 C28 N4 O16'
_cell_volume   871.82613559
_cell_formula_units_Z   2
loop_
 _symmetry_equiv_pos_site_id
 _symmetry_equiv_pos_as_xyz
  1  'x, y, z'
loop_
 _atom_site_type_symbol
 _atom_site_label
 _atom_site_symmetry_multiplicity
 _atom_site_fract_x
 _atom_site_fract_y
 _atom_site_fract_z
 _atom_site_occupancy
  U  U0  1  0.00000000  0.00000000  0.50000000  1.0
  U  U1  1  0.50000000  0.50000000  0.00001000  1.0
  H  H2  1  0.52327000  0.01782000  0.63022000  1.0
  H  H3  1  0.97673000  0.51782000  0.86979000  1.0
  H  H4  1  0.47674000  0.98218000  0.36979000  1.0
  H  H5  1  0.02327000  0.48218000  0.13022000  1.0
  H  H6  1  0.84241000  0.49578000  0.43725000  1.0
  H  H7  1  0.65760000  0.99579000  0.06275000  1.0
  H  H8  1  0.15759000  0.50422000  0.56274000  1.0
  H  H9  1  0.34241000  0.00422000  0.93725000  1.0
  H  H10  1  0.37630000  0.71995000  0.56665000  1.0
  H  H11  1  0.12371000  0.21995000  0.93335000  1.0
  H  H12  1  0.62370000  0.28005000  0.43335000  1.0
  H  H13  1  0.87630000  0.78005000  0.06665000  1.0
  H  H14  1  0.76551000  0.32964000  0.79742000  1.0
  H  H15  1  0.73448000  0.82963000  0.70257000  1.0
  H  H16  1  0.23448000  0.67037000  0.20257000  1.0
  H  H17  1  0.26551000  0.17035000  0.29742000  1.0
  H  H18  1  0.59817000  0.42090000  0.70775000  1.0
  H  H19  1  0.90182000  0.92089000  0.79224000  1.0
  H  H20  1  0.40182000  0.57911000  0.29224000  1.0
  H  H21  1  0.09817000  0.07910000  0.20775000  1.0
  H  H22  1  0.82326000  0.33031000  0.67644000  1.0
  H  H23  1  0.67673000  0.83030000  0.82355000  1.0
  H  H24  1  0.17673000  0.66970000  0.32356000  1.0
  H  H25  1  0.32326000  0.16969000  0.17644000  1.0
  H  H26  1  0.27586000  0.27861000  0.72383000  1.0
  H  H27  1  0.22414000  0.77861000  0.77617000  1.0
  H  H28  1  0.72413000  0.72139000  0.27617000  1.0
  H  H29  1  0.77586000  0.22138000  0.22383000  1.0
  H  H30  1  0.42033000  0.19342000  0.82277000  1.0
  H  H31  1  0.07967000  0.69341000  0.67723000  1.0
  H  H32  1  0.57966000  0.80658000  0.17723000  1.0
  H  H33  1  0.92033000  0.30657000  0.32277000  1.0
  H  H34  1  0.30235000  0.09428000  0.72192000  1.0
  H  H35  1  0.19766000  0.59428000  0.77808000  1.0
  H  H36  1  0.69766000  0.90572000  0.27808000  1.0
  H  H37  1  0.80234000  0.40571000  0.22193000  1.0
  C  C38  1  0.63239000  0.10523000  0.64515000  1.0
  C  C39  1  0.86761000  0.60523000  0.85486000  1.0
  C  C40  1  0.36762000  0.89477000  0.35486000  1.0
  C  C41  1  0.13238000  0.39477000  0.14515000  1.0
  C  C42  1  0.75329000  0.74696000  0.50343000  1.0
  C  C43  1  0.74671000  0.24697000  0.99658000  1.0
  C  C44  1  0.24670000  0.25304000  0.49657000  1.0
  C  C45  1  0.25330000  0.75304000  0.00343000  1.0
  C  C46  1  0.62273000  0.61949000  0.50264000  1.0
  C  C47  1  0.87728000  0.11950000  0.99736000  1.0
  C  C48  1  0.37727000  0.38051000  0.49735000  1.0
  C  C49  1  0.12273000  0.88051000  0.00264000  1.0
  C  C50  1  0.69183000  0.49630000  0.46419000  1.0
  C  C51  1  0.80817000  0.99631000  0.03581000  1.0
  C  C52  1  0.30816000  0.50370000  0.53580000  1.0
  C  C53  1  0.19184000  0.00370000  0.96420000  1.0
  C  C54  1  0.43004000  0.62310000  0.53853000  1.0
  C  C55  1  0.06997000  0.12310000  0.96147000  1.0
  C  C56  1  0.56995000  0.37690000  0.46146000  1.0
  C  C57  1  0.93004000  0.87690000  0.03853000  1.0
  C  C58  1  0.69864000  0.32908000  0.72191000  1.0
  C  C59  1  0.80136000  0.82908000  0.77808000  1.0
  C  C60  1  0.30135000  0.67093000  0.27808000  1.0
  C  C61  1  0.19864000  0.17091000  0.22191000  1.0
  C  C62  1  0.38161000  0.19140000  0.74491000  1.0
  C  C63  1  0.11839000  0.69140000  0.75509000  1.0
  C  C64  1  0.61839000  0.80860000  0.25509000  1.0
  C  C65  1  0.88161000  0.30859000  0.24491000  1.0
  N  N66  1  0.57218000  0.20483000  0.70068000  1.0
  N  N67  1  0.92782000  0.70483000  0.79932000  1.0
  N  N68  1  0.42782000  0.79517000  0.29932000  1.0
  N  N69  1  0.07218000  0.29517000  0.20068000  1.0
  O  O70  1  0.82630000  0.06127000  0.39668000  1.0
  O  O71  1  0.67371000  0.56128000  0.10332000  1.0
  O  O72  1  0.17371000  0.93872000  0.60332000  1.0
  O  O73  1  0.32630000  0.43873000  0.89669000  1.0
  O  O74  1  0.92428000  0.74571000  0.46724000  1.0
  O  O75  1  0.57573000  0.24571000  0.03276000  1.0
  O  O76  1  0.07571000  0.25430000  0.53276000  1.0
  O  O77  1  0.42429000  0.75430000  0.96725000  1.0
  O  O78  1  0.69460000  0.85985000  0.53966000  1.0
  O  O79  1  0.80540000  0.35986000  0.96034000  1.0
  O  O80  1  0.30540000  0.14015000  0.46034000  1.0
  O  O81  1  0.19460000  0.64014000  0.03966000  1.0
  O  O82  1  0.80313000  0.11033000  0.61112000  1.0
  O  O83  1  0.69688000  0.61033000  0.88889000  1.0
  O  O84  1  0.19689000  0.88967000  0.38889000  1.0
  O  O85  1  0.30312000  0.38968000  0.11112000  1.0
