# generated using pymatgen
data_H14PbC20(N2O3)3
_symmetry_space_group_name_H-M   'P 1'
_cell_length_a   6.76638000
_cell_length_b   11.76850000
_cell_length_c   14.20208606
_cell_angle_alpha   86.09089682
_cell_angle_beta   76.24402844
_cell_angle_gamma   73.40520000
_symmetry_Int_Tables_number   1
_chemical_formula_structural   H14PbC20(N2O3)3
_chemical_formula_sum   'H28 Pb2 C40 N12 O18'
_cell_volume   1052.72322899
_cell_formula_units_Z   2
loop_
 _symmetry_equiv_pos_site_id
 _symmetry_equiv_pos_as_xyz
  1  'x, y, z'
loop_
 _atom_site_type_symbol
 _atom_site_label
 _atom_site_symmetry_multiplicity
 _atom_site_fract_x
 _atom_site_fract_y
 _atom_site_fract_z
 _atom_site_occupancy
  H  H0  1  0.29016000  0.49412000  0.92023000  1.0
  H  H1  1  0.70502000  0.50603000  0.07954000  1.0
  H  H2  1  0.96064000  0.99408000  0.57970000  1.0
  H  H3  1  0.53490000  0.00577000  0.42052000  1.0
  H  H4  1  0.27266000  0.70346000  0.94793000  1.0
  H  H5  1  0.92378000  0.29682000  0.05201000  1.0
  H  H6  1  0.97087000  0.20341000  0.55196000  1.0
  H  H7  1  0.72612000  0.79657000  0.44815000  1.0
  H  H8  1  0.33935000  0.83572000  0.80274000  1.0
  H  H9  1  0.97749000  0.16484000  0.19727000  1.0
  H  H10  1  0.89244000  0.33568000  0.69710000  1.0
  H  H11  1  0.92480000  0.66459000  0.30292000  1.0
  H  H12  1  0.40608000  0.75276000  0.63790000  1.0
  H  H13  1  0.79692000  0.24794000  0.36204000  1.0
  H  H14  1  0.79430000  0.25270000  0.86193000  1.0
  H  H15  1  0.90859000  0.74773000  0.13813000  1.0
  H  H16  1  0.35244000  0.30005000  0.87799000  1.0
  H  H17  1  0.53021000  0.70016000  0.12204000  1.0
  H  H18  1  0.98057000  0.80000000  0.62206000  1.0
  H  H19  1  0.40257000  0.19999000  0.37801000  1.0
  H  H20  1  0.87824000  0.47201000  0.44809000  1.0
  H  H21  1  0.79890000  0.52773000  0.55178000  1.0
  H  H22  1  0.07631000  0.97231000  0.05195000  1.0
  H  H23  1  0.10032000  0.02807000  0.94827000  1.0
  H  H24  1  0.40446000  0.03430000  0.64974000  1.0
  H  H25  1  0.08848000  0.96532000  0.35036000  1.0
  H  H26  1  0.80441000  0.53421000  0.85034000  1.0
  H  H27  1  0.18925000  0.46522000  0.14950000  1.0
  Pb  Pb28  1  0.38725000  0.50007000  0.49994000  1.0
  Pb  Pb29  1  0.63732000  0.00006000  0.99998000  1.0
  C  C30  1  0.40326000  0.23948000  0.65517000  1.0
  C  C31  1  0.29772000  0.76036000  0.34480000  1.0
  C  C32  1  0.80876000  0.73938000  0.84483000  1.0
  C  C33  1  0.39278000  0.26023000  0.15516000  1.0
  C  C34  1  0.37028000  0.20400000  0.75249000  1.0
  C  C35  1  0.32657000  0.79593000  0.24758000  1.0
  C  C36  1  0.87310000  0.70391000  0.74752000  1.0
  C  C37  1  0.32454000  0.29579000  0.25239000  1.0
  C  C38  1  0.43384000  0.17451000  0.56525000  1.0
  C  C39  1  0.17388000  0.82524000  0.43472000  1.0
  C  C40  1  0.74927000  0.67442000  0.93476000  1.0
  C  C41  1  0.35881000  0.32510000  0.06521000  1.0
  C  C42  1  0.34751000  0.09061000  0.79910000  1.0
  C  C43  1  0.23686000  0.90932000  0.20093000  1.0
  C  C44  1  0.89693000  0.59050000  0.70096000  1.0
  C  C45  1  0.18836000  0.40920000  0.29896000  1.0
  C  C46  1  0.37124000  0.39253000  0.74040000  1.0
  C  C47  1  0.50430000  0.60770000  0.25958000  1.0
  C  C48  1  0.86199000  0.89245000  0.75961000  1.0
  C  C49  1  0.51400000  0.10751000  0.24048000  1.0
  C  C50  1  0.35951000  0.51345000  0.76334000  1.0
  C  C51  1  0.63692000  0.48686000  0.23645000  1.0
  C  C52  1  0.87320000  0.01337000  0.73659000  1.0
  C  C53  1  0.62340000  0.98663000  0.26362000  1.0
  C  C54  1  0.31659000  0.55283000  0.85879000  1.0
  C  C55  1  0.72864000  0.44749000  0.14104000  1.0
  C  C56  1  0.92555000  0.05279000  0.64114000  1.0
  C  C57  1  0.61988000  0.94726000  0.35904000  1.0
  C  C58  1  0.30713000  0.67000000  0.87432000  1.0
  C  C59  1  0.85153000  0.33040000  0.12559000  1.0
  C  C60  1  0.93183000  0.16992000  0.62556000  1.0
  C  C61  1  0.72726000  0.83014000  0.37455000  1.0
  C  C62  1  0.34325000  0.74364000  0.79484000  1.0
  C  C63  1  0.88170000  0.25687000  0.20509000  1.0
  C  C64  1  0.88848000  0.24359000  0.70500000  1.0
  C  C65  1  0.83680000  0.75663000  0.29507000  1.0
  C  C66  1  0.38220000  0.69716000  0.70204000  1.0
  C  C67  1  0.78182000  0.30337000  0.29782000  1.0
  C  C68  1  0.83462000  0.19710000  0.79781000  1.0
  C  C69  1  0.82942000  0.80313000  0.20232000  1.0
  N  N70  1  0.40278000  0.35560000  0.64979000  1.0
  N  N71  1  0.40812000  0.64427000  0.35013000  1.0
  N  N72  1  0.80292000  0.85551000  0.85020000  1.0
  N  N73  1  0.50831000  0.14411000  0.14991000  1.0
  N  N74  1  0.35073000  0.30237000  0.80443000  1.0
  N  N75  1  0.45743000  0.69775000  0.19559000  1.0
  N  N76  1  0.90551000  0.80229000  0.69560000  1.0
  N  N77  1  0.40330000  0.19759000  0.30442000  1.0
  N  N78  1  0.38880000  0.58536000  0.68553000  1.0
  N  N79  1  0.66035000  0.41513000  0.31425000  1.0
  N  N80  1  0.82462000  0.08529000  0.81439000  1.0
  N  N81  1  0.72444000  0.91491000  0.18585000  1.0
  O  O82  1  0.45806000  0.22752000  0.48576000  1.0
  O  O83  1  0.17168000  0.77234000  0.51424000  1.0
  O  O84  1  0.69401000  0.72735000  0.01426000  1.0
  O  O85  1  0.43609000  0.27220000  0.98570000  1.0
  O  O86  1  0.43352000  0.06320000  0.57213000  1.0
  O  O87  1  0.06968000  0.93651000  0.42788000  1.0
  O  O88  1  0.75588000  0.56310000  0.92792000  1.0
  O  O89  1  0.24760000  0.43633000  0.07199000  1.0
  O  O90  1  0.36911000  0.00495000  0.74243000  1.0
  O  O91  1  0.11558000  0.99466000  0.25753000  1.0
  O  O92  1  0.86183000  0.50484000  0.75765000  1.0
  O  O93  1  0.12409000  0.49460000  0.24226000  1.0
  O  O94  1  0.30557000  0.08461000  0.89043000  1.0
  O  O95  1  0.28060000  0.91523000  0.10960000  1.0
  O  O96  1  0.94630000  0.58451000  0.60963000  1.0
  O  O97  1  0.14061000  0.41515000  0.39029000  1.0
  O  O98  1  0.74744000  0.49982000  0.49995000  1.0
  O  O99  1  0.99699000  0.00038000  0.00019000  1.0
