# generated using pymatgen
data_CuP2H18C18(NO3)2
_symmetry_space_group_name_H-M   'P 1'
_cell_length_a   9.86616000
_cell_length_b   9.92409000
_cell_length_c   11.28850000
_cell_angle_alpha   108.52700000
_cell_angle_beta   109.69200000
_cell_angle_gamma   91.09680000
_symmetry_Int_Tables_number   1
_chemical_formula_structural   CuP2H18C18(NO3)2
_chemical_formula_sum   'Cu2 P4 H36 C36 N4 O12'
_cell_volume   976.80363069
_cell_formula_units_Z   2
loop_
 _symmetry_equiv_pos_site_id
 _symmetry_equiv_pos_as_xyz
  1  'x, y, z'
loop_
 _atom_site_type_symbol
 _atom_site_label
 _atom_site_symmetry_multiplicity
 _atom_site_fract_x
 _atom_site_fract_y
 _atom_site_fract_z
 _atom_site_occupancy
  Cu  Cu0  1  0.86961000  0.75075000  0.95683000  1.0
  Cu  Cu1  1  0.13040000  0.24925000  0.04317000  1.0
  P  P2  1  0.58392000  0.68121000  0.64919000  1.0
  P  P3  1  0.41608000  0.31878000  0.35081000  1.0
  P  P4  1  0.01348000  0.93430000  0.83401000  1.0
  P  P5  1  0.98653000  0.06570000  0.16600000  1.0
  H  H6  1  0.77758000  0.90216000  0.78296000  1.0
  H  H7  1  0.22242000  0.09784000  0.21704000  1.0
  H  H8  1  0.44617000  0.47485000  0.58696000  1.0
  H  H9  1  0.55383000  0.52514000  0.41305000  1.0
  H  H10  1  0.71114000  0.81653000  0.15011000  1.0
  H  H11  1  0.28885000  0.18347000  0.84989000  1.0
  H  H12  1  0.60287000  0.67034000  0.25298000  1.0
  H  H13  1  0.39712000  0.32967000  0.74701000  1.0
  H  H14  1  0.60363000  0.40648000  0.17809000  1.0
  H  H15  1  0.39637000  0.59353000  0.82191000  1.0
  H  H16  1  0.71614000  0.29415000  0.00551000  1.0
  H  H17  1  0.28386000  0.70586000  0.99449000  1.0
  H  H18  1  0.80778000  0.21745000  0.85310000  1.0
  H  H19  1  0.19222000  0.78255000  0.14690000  1.0
  H  H20  1  0.91314000  0.15504000  0.67706000  1.0
  H  H21  1  0.08686000  0.84496000  0.32295000  1.0
  H  H22  1  0.00349000  0.35150000  0.61391000  1.0
  H  H23  1  0.99650000  0.64850000  0.38609000  1.0
  H  H24  1  0.98439000  0.60705000  0.73789000  1.0
  H  H25  1  0.01561000  0.39295000  0.26211000  1.0
  H  H26  1  0.14717000  0.79915000  0.70425000  1.0
  H  H27  1  0.85283000  0.20085000  0.29574000  1.0
  H  H28  1  0.95549000  0.73836000  0.63072000  1.0
  H  H29  1  0.04451000  0.26165000  0.36928000  1.0
  H  H30  1  0.24642000  0.00154000  0.65668000  1.0
  H  H31  1  0.75358000  0.99847000  0.34332000  1.0
  H  H32  1  0.21298000  0.14718000  0.50933000  1.0
  H  H33  1  0.78702000  0.85282000  0.49066000  1.0
  H  H34  1  0.34471000  0.68532000  0.50271000  1.0
  H  H35  1  0.65529000  0.31467000  0.49729000  1.0
  H  H36  1  0.38524000  0.80887000  0.66782000  1.0
  H  H37  1  0.61476000  0.19112000  0.33218000  1.0
  H  H38  1  0.43580000  0.74806000  0.34434000  1.0
  H  H39  1  0.56421000  0.25193000  0.65566000  1.0
  H  H40  1  0.49344000  0.94309000  0.26723000  1.0
  H  H41  1  0.50656000  0.05690000  0.73277000  1.0
  C  C42  1  0.70599000  0.70040000  0.12076000  1.0
  C  C43  1  0.29401000  0.29960000  0.87923000  1.0
  C  C44  1  0.64755000  0.61869000  0.17662000  1.0
  C  C45  1  0.35245000  0.38131000  0.82338000  1.0
  C  C46  1  0.64962000  0.47073000  0.13475000  1.0
  C  C47  1  0.35038000  0.52927000  0.86525000  1.0
  C  C48  1  0.70951000  0.40882000  0.03803000  1.0
  C  C49  1  0.29049000  0.59118000  0.96197000  1.0
  C  C50  1  0.76572000  0.49690000  0.98552000  1.0
  C  C51  1  0.23427000  0.50311000  0.01448000  1.0
  C  C52  1  0.83204000  0.44561000  0.88376000  1.0
  C  C53  1  0.16796000  0.55439000  0.11624000  1.0
  C  C54  1  0.84407000  0.30220000  0.82416000  1.0
  C  C55  1  0.15593000  0.69780000  0.17584000  1.0
  C  C56  1  0.90502000  0.26678000  0.72518000  1.0
  C  C57  1  0.09498000  0.73322000  0.27482000  1.0
  C  C58  1  0.95430000  0.37528000  0.68992000  1.0
  C  C59  1  0.04570000  0.62472000  0.31008000  1.0
  C  C60  1  0.94309000  0.51673000  0.75654000  1.0
  C  C61  1  0.05691000  0.48327000  0.24346000  1.0
  C  C62  1  0.03903000  0.83374000  0.67749000  1.0
  C  C63  1  0.96097000  0.16627000  0.32251000  1.0
  C  C64  1  0.01965000  0.91694000  0.58429000  1.0
  C  C65  1  0.98035000  0.08306000  0.41571000  1.0
  C  C66  1  0.13768000  0.00169000  0.58867000  1.0
  C  C67  1  0.86232000  0.99832000  0.41133000  1.0
  C  C68  1  0.11919000  0.08386000  0.50607000  1.0
  C  C69  1  0.88081000  0.91614000  0.49393000  1.0
  C  C70  1  0.42765000  0.76941000  0.58644000  1.0
  C  C71  1  0.57234000  0.23058000  0.41356000  1.0
  C  C72  1  0.46463000  0.88865000  0.54280000  1.0
  C  C73  1  0.53537000  0.11134000  0.45720000  1.0
  C  C74  1  0.46402000  0.85907000  0.41266000  1.0
  C  C75  1  0.53598000  0.14092000  0.58734000  1.0
  C  C76  1  0.49750000  0.96842000  0.37010000  1.0
  C  C77  1  0.50250000  0.03157000  0.62989000  1.0
  N  N78  1  0.76371000  0.64059000  0.02804000  1.0
  N  N79  1  0.23629000  0.35942000  0.97196000  1.0
  N  N80  1  0.88364000  0.55054000  0.85065000  1.0
  N  N81  1  0.11637000  0.44946000  0.14935000  1.0
  O  O82  1  0.12818000  0.06792000  0.90413000  1.0
  O  O83  1  0.87182000  0.93208000  0.09587000  1.0
  O  O84  1  0.02307000  0.82986000  0.91078000  1.0
  O  O85  1  0.97695000  0.17014000  0.08923000  1.0
  O  O86  1  0.68449000  0.78646000  0.78491000  1.0
  O  O87  1  0.31551000  0.21354000  0.21509000  1.0
  O  O88  1  0.85681000  0.97895000  0.78958000  1.0
  O  O89  1  0.14320000  0.02105000  0.21043000  1.0
  O  O90  1  0.51725000  0.55198000  0.67679000  1.0
  O  O91  1  0.48275000  0.44802000  0.32322000  1.0
  O  O92  1  0.65168000  0.62840000  0.54258000  1.0
  O  O93  1  0.34832000  0.37159000  0.45742000  1.0
