# generated using pymatgen
data_CdH12C12(IN)2
_symmetry_space_group_name_H-M   'P 1'
_cell_length_a   7.82474000
_cell_length_b   10.03620000
_cell_length_c   10.44024995
_cell_angle_alpha   61.27250110
_cell_angle_beta   81.63186811
_cell_angle_gamma   89.99970000
_symmetry_Int_Tables_number   1
_chemical_formula_structural   CdH12C12(IN)2
_chemical_formula_sum   'Cd2 H24 C24 I4 N4'
_cell_volume   708.99536541
_cell_formula_units_Z   2
loop_
 _symmetry_equiv_pos_site_id
 _symmetry_equiv_pos_as_xyz
  1  'x, y, z'
loop_
 _atom_site_type_symbol
 _atom_site_label
 _atom_site_symmetry_multiplicity
 _atom_site_fract_x
 _atom_site_fract_y
 _atom_site_fract_z
 _atom_site_occupancy
  Cd  Cd0  1  0.75000000  0.07720000  0.00000000  1.0
  Cd  Cd1  1  0.25000000  0.92280000  0.00000000  1.0
  H  H2  1  0.03758000  0.30520000  0.71792000  1.0
  H  H3  1  0.46241000  0.02312000  0.28208000  1.0
  H  H4  1  0.96241000  0.69481000  0.28207000  1.0
  H  H5  1  0.53759000  0.97688000  0.71792000  1.0
  H  H6  1  0.32469000  0.63104000  0.55596000  1.0
  H  H7  1  0.17531000  0.18699000  0.44404000  1.0
  H  H8  1  0.67531000  0.36897000  0.44403000  1.0
  H  H9  1  0.82469000  0.81300000  0.55596000  1.0
  H  H10  1  0.15914000  0.69321000  0.44767000  1.0
  H  H11  1  0.34086000  0.14088000  0.55233000  1.0
  H  H12  1  0.84086000  0.30679000  0.55233000  1.0
  H  H13  1  0.65914000  0.85912000  0.44767000  1.0
  H  H14  1  0.22524000  0.50458000  0.50997000  1.0
  H  H15  1  0.27476000  0.01455000  0.49002000  1.0
  H  H16  1  0.77476000  0.49543000  0.49002000  1.0
  H  H17  1  0.72524000  0.98546000  0.50997000  1.0
  H  H18  1  0.06572000  0.74937000  0.68758000  1.0
  H  H19  1  0.43428000  0.43695000  0.31243000  1.0
  H  H20  1  0.93428000  0.25062000  0.31242000  1.0
  H  H21  1  0.56572000  0.56305000  0.68757000  1.0
  H  H22  1  0.84436000  0.65012000  0.90951000  1.0
  H  H23  1  0.65564000  0.55963000  0.09049000  1.0
  H  H24  1  0.15564000  0.34988000  0.09049000  1.0
  H  H25  1  0.34436000  0.44037000  0.90951000  1.0
  C  C26  1  0.99619000  0.38685000  0.75500000  1.0
  C  C27  1  0.50381000  0.14185000  0.24500000  1.0
  C  C28  1  0.00381000  0.61315000  0.24500000  1.0
  C  C29  1  0.49619000  0.85815000  0.75500000  1.0
  C  C30  1  0.06887000  0.53754000  0.67861000  1.0
  C  C31  1  0.43113000  0.21614000  0.32140000  1.0
  C  C32  1  0.93113000  0.46245000  0.32140000  1.0
  C  C33  1  0.56887000  0.78386000  0.67860000  1.0
  C  C34  1  0.20067000  0.59366000  0.54109000  1.0
  C  C35  1  0.29933000  0.13475000  0.45891000  1.0
  C  C36  1  0.79933000  0.40634000  0.45891000  1.0
  C  C37  1  0.70067000  0.86525000  0.54109000  1.0
  C  C38  1  0.01190000  0.63128000  0.73879000  1.0
  C  C39  1  0.48810000  0.37008000  0.26121000  1.0
  C  C40  1  0.98811000  0.36872000  0.26121000  1.0
  C  C41  1  0.51190000  0.62992000  0.73879000  1.0
  C  C42  1  0.88657000  0.57478000  0.86527000  1.0
  C  C43  1  0.61342000  0.44004000  0.13473000  1.0
  C  C44  1  0.11343000  0.42522000  0.13473000  1.0
  C  C45  1  0.38658000  0.55996000  0.86527000  1.0
  C  C46  1  0.81759000  0.42297000  0.93290000  1.0
  C  C47  1  0.68241000  0.35588000  0.06710000  1.0
  C  C48  1  0.18241000  0.57702000  0.06710000  1.0
  C  C49  1  0.31759000  0.64413000  0.93290000  1.0
  I  I50  1  0.95528000  0.98910000  0.80416000  1.0
  I  I51  1  0.54472000  0.79327000  0.19583000  1.0
  I  I52  1  0.04472000  0.01091000  0.19583000  1.0
  I  I53  1  0.45528000  0.20674000  0.80416000  1.0
  N  N54  1  0.87489000  0.33215000  0.87645000  1.0
  N  N55  1  0.62510000  0.20860000  0.12355000  1.0
  N  N56  1  0.12510000  0.66785000  0.12355000  1.0
  N  N57  1  0.37490000  0.79140000  0.87645000  1.0
