# generated using pymatgen
data_Ag2H24Pt3C12N6O19
_symmetry_space_group_name_H-M   'P 1'
_cell_length_a   8.15049000
_cell_length_b   18.26190000
_cell_length_c   21.80560000
_cell_angle_alpha   90.00000000
_cell_angle_beta   90.00000000
_cell_angle_gamma   92.48930000
_symmetry_Int_Tables_number   1
_chemical_formula_structural   Ag2H24Pt3C12N6O19
_chemical_formula_sum   'Ag8 H96 Pt12 C48 N24 O76'
_cell_volume   3242.55764048
_cell_formula_units_Z   4
loop_
 _symmetry_equiv_pos_site_id
 _symmetry_equiv_pos_as_xyz
  1  'x, y, z'
loop_
 _atom_site_type_symbol
 _atom_site_label
 _atom_site_symmetry_multiplicity
 _atom_site_fract_x
 _atom_site_fract_y
 _atom_site_fract_z
 _atom_site_occupancy
  Ag  Ag0  1  0.87754000  0.63593000  0.69421000  1.0
  Ag  Ag1  1  0.62246000  0.86407000  0.19421000  1.0
  Ag  Ag2  1  0.12246000  0.36407000  0.30579000  1.0
  Ag  Ag3  1  0.37754000  0.13593000  0.80579000  1.0
  Ag  Ag4  1  0.48256000  0.75881000  0.37479000  1.0
  Ag  Ag5  1  0.01744000  0.74119000  0.87479000  1.0
  Ag  Ag6  1  0.51744000  0.24119000  0.62521000  1.0
  Ag  Ag7  1  0.98256000  0.25881000  0.12521000  1.0
  H  H8  1  0.75231000  0.44267000  0.73614000  1.0
  H  H9  1  0.74769000  0.05733000  0.23614000  1.0
  H  H10  1  0.24769000  0.55733000  0.26386000  1.0
  H  H11  1  0.25231000  0.94267000  0.76386000  1.0
  H  H12  1  0.93733000  0.40304000  0.76092000  1.0
  H  H13  1  0.56267000  0.09696000  0.26092000  1.0
  H  H14  1  0.06267000  0.59696000  0.23908000  1.0
  H  H15  1  0.43733000  0.90304000  0.73908000  1.0
  H  H16  1  0.99463000  0.51318000  0.82913000  1.0
  H  H17  1  0.50537000  0.98682000  0.32913000  1.0
  H  H18  1  0.00537000  0.48682000  0.17087000  1.0
  H  H19  1  0.49462000  0.01318000  0.67087000  1.0
  H  H20  1  0.81921000  0.45562000  0.84920000  1.0
  H  H21  1  0.68079000  0.04438000  0.34920000  1.0
  H  H22  1  0.18079000  0.54438000  0.15080000  1.0
  H  H23  1  0.31921000  0.95562000  0.65080000  1.0
  H  H24  1  0.87793000  0.60693000  0.88555000  1.0
  H  H25  1  0.62207000  0.89307000  0.38555000  1.0
  H  H26  1  0.12207000  0.39307000  0.11445000  1.0
  H  H27  1  0.37793000  0.10693000  0.61445000  1.0
  H  H28  1  0.68904000  0.55647000  0.90050000  1.0
  H  H29  1  0.81096000  0.94354000  0.40050000  1.0
  H  H30  1  0.31096000  0.44354000  0.09950000  1.0
  H  H31  1  0.18904000  0.05646000  0.59950000  1.0
  H  H32  1  0.54436000  0.64963000  0.83424000  1.0
  H  H33  1  0.95564000  0.85037000  0.33424000  1.0
  H  H34  1  0.45564000  0.35036000  0.16576000  1.0
  H  H35  1  0.04436000  0.14963000  0.66576000  1.0
  H  H36  1  0.63375000  0.68525000  0.90371000  1.0
  H  H37  1  0.86625000  0.81475000  0.40371000  1.0
  H  H38  1  0.36625000  0.31475000  0.09629000  1.0
  H  H39  1  0.13374000  0.18525000  0.59629000  1.0
  H  H40  1  0.64523000  0.80779000  0.84592000  1.0
  H  H41  1  0.85477000  0.69221000  0.34592000  1.0
  H  H42  1  0.35477000  0.19221000  0.15408000  1.0
  H  H43  1  0.14523000  0.30779000  0.65408000  1.0
  H  H44  1  0.56244000  0.75923000  0.78100000  1.0
  H  H45  1  0.93756000  0.74077000  0.28100000  1.0
  H  H46  1  0.43756000  0.24077000  0.21900000  1.0
  H  H47  1  0.06244000  0.25923000  0.71900000  1.0
  H  H48  1  0.73591000  0.87670000  0.75781000  1.0
  H  H49  1  0.76409000  0.62330000  0.25781000  1.0
  H  H50  1  0.26409000  0.12330000  0.24219000  1.0
  H  H51  1  0.23591000  0.37670000  0.74219000  1.0
  H  H52  1  0.90901000  0.83169000  0.78689000  1.0
  H  H53  1  0.59099000  0.66831000  0.28689000  1.0
  H  H54  1  0.09099000  0.16831000  0.21311000  1.0
  H  H55  1  0.40901000  0.33169000  0.71311000  1.0
  H  H56  1  0.05384000  0.82829000  0.69595000  1.0
  H  H57  1  0.44616000  0.67171000  0.19595000  1.0
  H  H58  1  0.94616000  0.17171000  0.30405000  1.0
  H  H59  1  0.55384000  0.32829000  0.80405000  1.0
  H  H60  1  0.90045000  0.88762000  0.66882000  1.0
  H  H61  1  0.59955000  0.61238000  0.16882000  1.0
  H  H62  1  0.09955000  0.11238000  0.33118000  1.0
  H  H63  1  0.40045000  0.38762000  0.83118000  1.0
  H  H64  1  0.82655000  0.79643000  0.58553000  1.0
  H  H65  1  0.67345000  0.70357000  0.08553000  1.0
  H  H66  1  0.17345000  0.20357000  0.41447000  1.0
  H  H67  1  0.32655000  0.29643000  0.91447000  1.0
  H  H68  1  0.03210000  0.83494000  0.58118000  1.0
  H  H69  1  0.46790000  0.66506000  0.08118000  1.0
  H  H70  1  0.96790000  0.16506000  0.41882000  1.0
  H  H71  1  0.53210000  0.33494000  0.91882000  1.0
  H  H72  1  0.89587000  0.68929000  0.53143000  1.0
  H  H73  1  0.60413000  0.81071000  0.03143000  1.0
  H  H74  1  0.10413000  0.31071000  0.46857000  1.0
  H  H75  1  0.39587000  0.18929000  0.96857000  1.0
  H  H76  1  0.09795000  0.73043000  0.52172000  1.0
  H  H77  1  0.40205000  0.76957000  0.02172000  1.0
  H  H78  1  0.90205000  0.26957000  0.47828000  1.0
  H  H79  1  0.59795000  0.23043000  0.97828000  1.0
  H  H80  1  0.22258000  0.62951000  0.57623000  1.0
  H  H81  1  0.27742000  0.87049000  0.07623000  1.0
  H  H82  1  0.77742000  0.37049000  0.42377000  1.0
  H  H83  1  0.72258000  0.12951000  0.92377000  1.0
  H  H84  1  0.10812000  0.59774000  0.51102000  1.0
  H  H85  1  0.39188000  0.90226000  0.01102000  1.0
  H  H86  1  0.89188000  0.40226000  0.48898000  1.0
  H  H87  1  0.60812000  0.09774000  0.98898000  1.0
  H  H88  1  0.10388000  0.47794000  0.56667000  1.0
  H  H89  1  0.39612000  0.02206000  0.06667000  1.0
  H  H90  1  0.89612000  0.52206000  0.43333000  1.0
  H  H91  1  0.60388000  0.97794000  0.93333000  1.0
  H  H92  1  0.20645000  0.52397000  0.62839000  1.0
  H  H93  1  0.29355000  0.97603000  0.12840000  1.0
  H  H94  1  0.79356000  0.47603000  0.37160000  1.0
  H  H95  1  0.70644000  0.02397000  0.87160000  1.0
  H  H96  1  0.04828000  0.41084000  0.66047000  1.0
  H  H97  1  0.45172000  0.08917000  0.16047000  1.0
  H  H98  1  0.95172000  0.58917000  0.33953000  1.0
  H  H99  1  0.54828000  0.91083000  0.83953000  1.0
  H  H100  1  0.86181000  0.44748000  0.63443000  1.0
  H  H101  1  0.63819000  0.05252000  0.13443000  1.0
  H  H102  1  0.13819000  0.55252000  0.36557000  1.0
  H  H103  1  0.36181000  0.94748000  0.86557000  1.0
  Pt  Pt104  1  0.54570000  0.51836000  0.63828000  1.0
  Pt  Pt105  1  0.95430000  0.98164000  0.13828000  1.0
  Pt  Pt106  1  0.45430000  0.48164000  0.36172000  1.0
  Pt  Pt107  1  0.04570000  0.01836000  0.86172000  1.0
  Pt  Pt108  1  0.55108000  0.68631000  0.58597000  1.0
  Pt  Pt109  1  0.94892000  0.81369000  0.08597000  1.0
  Pt  Pt110  1  0.44892000  0.31369000  0.41403000  1.0
  Pt  Pt111  1  0.05108000  0.18631000  0.91403000  1.0
  Pt  Pt112  1  0.39674000  0.64824000  0.72053000  1.0
  Pt  Pt113  1  0.10326000  0.85176000  0.22053000  1.0
  Pt  Pt114  1  0.60326000  0.35176000  0.27947000  1.0
  Pt  Pt115  1  0.89674000  0.14824000  0.77947000  1.0
  C  C116  1  0.87707000  0.45546000  0.75389000  1.0
  C  C117  1  0.62293000  0.04454000  0.25389000  1.0
  C  C118  1  0.12293000  0.54454000  0.24611000  1.0
  C  C119  1  0.37707000  0.95546000  0.74611000  1.0
  C  C120  1  0.86975000  0.49461000  0.81451000  1.0
  C  C121  1  0.63026000  0.00539000  0.31451000  1.0
  C  C122  1  0.13026000  0.50539000  0.18549000  1.0
  C  C123  1  0.36974000  0.99461000  0.68549000  1.0
  C  C124  1  0.75395000  0.59262000  0.86678000  1.0
  C  C125  1  0.74605000  0.90738000  0.36678000  1.0
  C  C126  1  0.24605000  0.40738000  0.13322000  1.0
  C  C127  1  0.25395000  0.09262000  0.63322000  1.0
  C  C128  1  0.66082000  0.66133000  0.85855000  1.0
  C  C129  1  0.83918000  0.83867000  0.35855000  1.0
  C  C130  1  0.33918000  0.33867000  0.14145000  1.0
  C  C131  1  0.16082000  0.16133000  0.64145000  1.0
  C  C132  1  0.67681000  0.77600000  0.80487000  1.0
  C  C133  1  0.82319000  0.72400000  0.30487000  1.0
  C  C134  1  0.32319000  0.22400000  0.19513000  1.0
  C  C135  1  0.17681000  0.27600000  0.69513000  1.0
  C  C136  1  0.78841000  0.82245000  0.76439000  1.0
  C  C137  1  0.71159000  0.67755000  0.26439000  1.0
  C  C138  1  0.21159000  0.17755000  0.23561000  1.0
  C  C139  1  0.28841000  0.32245000  0.73561000  1.0
  C  C140  1  0.93423000  0.82978000  0.67205000  1.0
  C  C141  1  0.56576000  0.67022000  0.17205000  1.0
  C  C142  1  0.06576000  0.17022000  0.32795000  1.0
  C  C143  1  0.43424000  0.32978000  0.82795000  1.0
  C  C144  1  0.94753000  0.79881000  0.60848000  1.0
  C  C145  1  0.55247000  0.70119000  0.10848000  1.0
  C  C146  1  0.05247000  0.20119000  0.39152000  1.0
  C  C147  1  0.44753000  0.29881000  0.89152000  1.0
  C  C148  1  0.01960000  0.69495000  0.55170000  1.0
  C  C149  1  0.48040000  0.80505000  0.05170000  1.0
  C  C150  1  0.98040000  0.30505000  0.44830000  1.0
  C  C151  1  0.51960000  0.19495000  0.94830000  1.0
  C  C152  1  0.09714000  0.62215000  0.55705000  1.0
  C  C153  1  0.40286000  0.87785000  0.05705000  1.0
  C  C154  1  0.90286000  0.37785000  0.44295000  1.0
  C  C155  1  0.59714000  0.12215000  0.94295000  1.0
  C  C156  1  0.08385000  0.50909000  0.60918000  1.0
  C  C157  1  0.41615000  0.99091000  0.10918000  1.0
  C  C158  1  0.91615000  0.49091000  0.39082000  1.0
  C  C159  1  0.58385000  0.00909000  0.89082000  1.0
  C  C160  1  0.98435000  0.46217000  0.65319000  1.0
  C  C161  1  0.51565000  0.03783000  0.15319000  1.0
  C  C162  1  0.01565000  0.53783000  0.34681000  1.0
  C  C163  1  0.48435000  0.96217000  0.84681000  1.0
  N  N164  1  0.39462000  0.54909000  0.75562000  1.0
  N  N165  1  0.10538000  0.95091000  0.25562000  1.0
  N  N166  1  0.60538000  0.45091000  0.24438000  1.0
  N  N167  1  0.89462000  0.04909000  0.74438000  1.0
  N  N168  1  0.45900000  0.76640000  0.63264000  1.0
  N  N169  1  0.04100000  0.73360000  0.13264000  1.0
  N  N170  1  0.54100000  0.23360000  0.36736000  1.0
  N  N171  1  0.95900000  0.26640000  0.86736000  1.0
  N  N172  1  0.63764000  0.53741000  0.55673000  1.0
  N  N173  1  0.86236000  0.96259000  0.05673000  1.0
  N  N174  1  0.36236000  0.46259000  0.44327000  1.0
  N  N175  1  0.13764000  0.03741000  0.94327000  1.0
  N  N176  1  0.50859000  0.41126000  0.62120000  1.0
  N  N177  1  0.99141000  0.08873000  0.12120000  1.0
  N  N178  1  0.49141000  0.58873000  0.37880000  1.0
  N  N179  1  0.00859000  0.91126000  0.87880000  1.0
  N  N180  1  0.22608000  0.67768000  0.77979000  1.0
  N  N181  1  0.27392000  0.82232000  0.27979000  1.0
  N  N182  1  0.77392000  0.32232000  0.22021000  1.0
  N  N183  1  0.72608000  0.17768000  0.72021000  1.0
  N  N184  1  0.52905000  0.73978000  0.50674000  1.0
  N  N185  1  0.97095000  0.76022000  0.00674000  1.0
  N  N186  1  0.47095000  0.26022000  0.49326000  1.0
  N  N187  1  0.02905000  0.23978000  0.99326000  1.0
  O  O188  1  0.58436000  0.62564000  0.66307000  1.0
  O  O189  1  0.91564000  0.87436000  0.16307000  1.0
  O  O190  1  0.41564000  0.37436000  0.33693000  1.0
  O  O191  1  0.08436000  0.12564000  0.83693000  1.0
  O  O192  1  0.45550000  0.49530000  0.72336000  1.0
  O  O193  1  0.04450000  0.00470000  0.22336000  1.0
  O  O194  1  0.54450000  0.50470000  0.27664000  1.0
  O  O195  1  0.95550000  0.99530000  0.77664000  1.0
  O  O196  1  0.34184000  0.53232000  0.80637000  1.0
  O  O197  1  0.15816000  0.96768000  0.30637000  1.0
  O  O198  1  0.65816000  0.46768000  0.19363000  1.0
  O  O199  1  0.84184000  0.03232000  0.69363000  1.0
  O  O200  1  0.39604000  0.75250000  0.68777000  1.0
  O  O201  1  0.10396000  0.74750000  0.18777000  1.0
  O  O202  1  0.60396000  0.24750000  0.31223000  1.0
  O  O203  1  0.89604000  0.25250000  0.81223000  1.0
  O  O204  1  0.45345000  0.82979000  0.61524000  1.0
  O  O205  1  0.04655000  0.67021000  0.11524000  1.0
  O  O206  1  0.54655000  0.17021000  0.38476000  1.0
  O  O207  1  0.95345000  0.32979000  0.88476000  1.0
  O  O208  1  0.64742000  0.60534000  0.53554000  1.0
  O  O209  1  0.85257000  0.89466000  0.03554000  1.0
  O  O210  1  0.35257000  0.39466000  0.46446000  1.0
  O  O211  1  0.14743000  0.10534000  0.96446000  1.0
  O  O212  1  0.68950000  0.49073000  0.52265000  1.0
  O  O213  1  0.81050000  0.00927000  0.02265000  1.0
  O  O214  1  0.31050000  0.50927000  0.47735000  1.0
  O  O215  1  0.18950000  0.99073000  0.97735000  1.0
  O  O216  1  0.62191000  0.36943000  0.63465000  1.0
  O  O217  1  0.87809000  0.13057000  0.13465000  1.0
  O  O218  1  0.37809000  0.63057000  0.36535000  1.0
  O  O219  1  0.12191000  0.86943000  0.86535000  1.0
  O  O220  1  0.37377000  0.38653000  0.60236000  1.0
  O  O221  1  0.12623000  0.11347000  0.10236000  1.0
  O  O222  1  0.62623000  0.61347000  0.39763000  1.0
  O  O223  1  0.87377000  0.88653000  0.89764000  1.0
  O  O224  1  0.08114000  0.65201000  0.77904000  1.0
  O  O225  1  0.41886000  0.84799000  0.27904000  1.0
  O  O226  1  0.91886000  0.34799000  0.22096000  1.0
  O  O227  1  0.58114000  0.15201000  0.72096000  1.0
  O  O228  1  0.26972000  0.72361000  0.82007000  1.0
  O  O229  1  0.23028000  0.77639000  0.32007000  1.0
  O  O230  1  0.73028000  0.27639000  0.17993000  1.0
  O  O231  1  0.76972000  0.22361000  0.67993000  1.0
  O  O232  1  0.65528000  0.76123000  0.47846000  1.0
  O  O233  1  0.84472000  0.73877000  0.97846000  1.0
  O  O234  1  0.34472000  0.23877000  0.52154000  1.0
  O  O235  1  0.15528000  0.26123000  0.02154000  1.0
  O  O236  1  0.38982000  0.74538000  0.48319000  1.0
  O  O237  1  0.11018000  0.75462000  0.98319000  1.0
  O  O238  1  0.61018000  0.25462000  0.51681000  1.0
  O  O239  1  0.88982000  0.24538000  0.01681000  1.0
  O  O240  1  0.96910000  0.49981000  0.71055000  1.0
  O  O241  1  0.53090000  0.00019000  0.21055000  1.0
  O  O242  1  0.03090000  0.50019000  0.28945000  1.0
  O  O243  1  0.46910000  0.99981000  0.78945000  1.0
  O  O244  1  0.76770000  0.55611000  0.80942000  1.0
  O  O245  1  0.73230000  0.94389000  0.30942000  1.0
  O  O246  1  0.23230000  0.44389000  0.19058000  1.0
  O  O247  1  0.26770000  0.05611000  0.69058000  1.0
  O  O248  1  0.76116000  0.71212000  0.82299000  1.0
  O  O249  1  0.73884000  0.78788000  0.32299000  1.0
  O  O250  1  0.23884000  0.28788000  0.17701000  1.0
  O  O251  1  0.26116000  0.21212000  0.67701000  1.0
  O  O252  1  0.81179000  0.78831000  0.70620000  1.0
  O  O253  1  0.68821000  0.71169000  0.20620000  1.0
  O  O254  1  0.18821000  0.21169000  0.29380000  1.0
  O  O255  1  0.31179000  0.28831000  0.79380000  1.0
  O  O256  1  0.01052000  0.72707000  0.61170000  1.0
  O  O257  1  0.48948000  0.77293000  0.11170000  1.0
  O  O258  1  0.98948000  0.27293000  0.38830000  1.0
  O  O259  1  0.51052000  0.22707000  0.88830000  1.0
  O  O260  1  0.99979000  0.57456000  0.59610000  1.0
  O  O261  1  0.50021000  0.92544000  0.09610000  1.0
  O  O262  1  0.00021000  0.42544000  0.40390000  1.0
  O  O263  1  0.49979000  0.07456000  0.90390000  1.0
