# generated using pymatgen
data_CoH12C14(O3F)2
_symmetry_space_group_name_H-M   'P 1'
_cell_length_a   6.51194000
_cell_length_b   7.23689000
_cell_length_c   15.22757012
_cell_angle_alpha   96.49190201
_cell_angle_beta   89.99961722
_cell_angle_gamma   89.99680000
_symmetry_Int_Tables_number   1
_chemical_formula_structural   CoH12C14(O3F)2
_chemical_formula_sum   'Co2 H24 C28 O12 F4'
_cell_volume   713.01594066
_cell_formula_units_Z   2
loop_
 _symmetry_equiv_pos_site_id
 _symmetry_equiv_pos_as_xyz
  1  'x, y, z'
loop_
 _atom_site_type_symbol
 _atom_site_label
 _atom_site_symmetry_multiplicity
 _atom_site_fract_x
 _atom_site_fract_y
 _atom_site_fract_z
 _atom_site_occupancy
  Co  Co0  1  0.00000000  0.00000000  0.50000000  1.0
  Co  Co1  1  0.50000000  0.50000000  0.50000000  1.0
  H  H2  1  0.36856000  0.07803000  0.43414000  1.0
  H  H3  1  0.86856000  0.42193000  0.56584000  1.0
  H  H4  1  0.63145000  0.92198000  0.56587000  1.0
  H  H5  1  0.13145000  0.57808000  0.43416000  1.0
  H  H6  1  0.35252000  0.88277000  0.47376000  1.0
  H  H7  1  0.85251000  0.61719000  0.52624000  1.0
  H  H8  1  0.64748000  0.11723000  0.52624000  1.0
  H  H9  1  0.14750000  0.38281000  0.47376000  1.0
  H  H10  1  0.32931000  0.29069000  0.31957000  1.0
  H  H11  1  0.82932000  0.20928000  0.68042000  1.0
  H  H12  1  0.67069000  0.70929000  0.68043000  1.0
  H  H13  1  0.17068000  0.79073000  0.31958000  1.0
  H  H14  1  0.21586000  0.29476000  0.16293000  1.0
  H  H15  1  0.71589000  0.20524000  0.83706000  1.0
  H  H16  1  0.78412000  0.70521000  0.83707000  1.0
  H  H17  1  0.28411000  0.79476000  0.16293000  1.0
  H  H18  1  0.80455000  0.08256000  0.07130000  1.0
  H  H19  1  0.30455000  0.41743000  0.92869000  1.0
  H  H20  1  0.19545000  0.91744000  0.92870000  1.0
  H  H21  1  0.69545000  0.58257000  0.07130000  1.0
  H  H22  1  0.91948000  0.07785000  0.22887000  1.0
  H  H23  1  0.41945000  0.42216000  0.77112000  1.0
  H  H24  1  0.08052000  0.92216000  0.77113000  1.0
  H  H25  1  0.58055000  0.57784000  0.22888000  1.0
  C  C26  1  0.70246000  0.17650000  0.37644000  1.0
  C  C27  1  0.20249000  0.32350000  0.62355000  1.0
  C  C28  1  0.29754000  0.82350000  0.62356000  1.0
  C  C29  1  0.79751000  0.67650000  0.37645000  1.0
  C  C30  1  0.63225000  0.18278000  0.28396000  1.0
  C  C31  1  0.13224000  0.31719000  0.71602000  1.0
  C  C32  1  0.36775000  0.81723000  0.71604000  1.0
  C  C33  1  0.86777000  0.68282000  0.28398000  1.0
  C  C34  1  0.43284000  0.24231000  0.26568000  1.0
  C  C35  1  0.93287000  0.25767000  0.73432000  1.0
  C  C36  1  0.56716000  0.75769000  0.73432000  1.0
  C  C37  1  0.06713000  0.74233000  0.26568000  1.0
  C  C38  1  0.36858000  0.24620000  0.17861000  1.0
  C  C39  1  0.86859000  0.25378000  0.82137000  1.0
  C  C40  1  0.63140000  0.75380000  0.82139000  1.0
  C  C41  1  0.13141000  0.74621000  0.17862000  1.0
  C  C42  1  0.50646000  0.18947000  0.11115000  1.0
  C  C43  1  0.00649000  0.31053000  0.88885000  1.0
  C  C44  1  0.49354000  0.81053000  0.88885000  1.0
  C  C45  1  0.99351000  0.68947000  0.11115000  1.0
  C  C46  1  0.70384000  0.12703000  0.12664000  1.0
  C  C47  1  0.20383000  0.37295000  0.87335000  1.0
  C  C48  1  0.29616000  0.87299000  0.87337000  1.0
  C  C49  1  0.79617000  0.62705000  0.12665000  1.0
  C  C50  1  0.76608000  0.12517000  0.21389000  1.0
  C  C51  1  0.26609000  0.37483000  0.78611000  1.0
  C  C52  1  0.23392000  0.87484000  0.78611000  1.0
  C  C53  1  0.73391000  0.62518000  0.21389000  1.0
  O  O54  1  0.88102000  0.11845000  0.39067000  1.0
  O  O55  1  0.38098000  0.38159000  0.60934000  1.0
  O  O56  1  0.11898000  0.88155000  0.60934000  1.0
  O  O57  1  0.61902000  0.61842000  0.39066000  1.0
  O  O58  1  0.27737000  0.96869000  0.43770000  1.0
  O  O59  1  0.77738000  0.53130000  0.56231000  1.0
  O  O60  1  0.72263000  0.03132000  0.56231000  1.0
  O  O61  1  0.22263000  0.46870000  0.43769000  1.0
  O  O62  1  0.57254000  0.22562000  0.44049000  1.0
  O  O63  1  0.07255000  0.27437000  0.55950000  1.0
  O  O64  1  0.42746000  0.77439000  0.55952000  1.0
  O  O65  1  0.92745000  0.72563000  0.44050000  1.0
  F  F66  1  0.44575000  0.19757000  0.02575000  1.0
  F  F67  1  0.94577000  0.30240000  0.97424000  1.0
  F  F68  1  0.55424000  0.80241000  0.97425000  1.0
  F  F69  1  0.05423000  0.69759000  0.02576000  1.0
