# generated using pymatgen
data_MgH10C14(SO5)2
_symmetry_space_group_name_H-M   'P 1'
_cell_length_a   4.85760000
_cell_length_b   5.59564000
_cell_length_c   13.52170000
_cell_angle_alpha   91.51840000
_cell_angle_beta   90.07320000
_cell_angle_gamma   98.15880000
_symmetry_Int_Tables_number   1
_chemical_formula_structural   MgH10C14(SO5)2
_chemical_formula_sum   'Mg1 H10 C14 S2 O10'
_cell_volume   363.68598758
_cell_formula_units_Z   1
loop_
 _symmetry_equiv_pos_site_id
 _symmetry_equiv_pos_as_xyz
  1  'x, y, z'
loop_
 _atom_site_type_symbol
 _atom_site_label
 _atom_site_symmetry_multiplicity
 _atom_site_fract_x
 _atom_site_fract_y
 _atom_site_fract_z
 _atom_site_occupancy
  Mg  Mg0  1  0.00000000  0.50000000  0.00000000  1.0
  H  H1  1  0.62233000  0.26775000  0.74420000  1.0
  H  H2  1  0.37766000  0.73225000  0.25581000  1.0
  H  H3  1  0.46153000  0.11101000  0.57785000  1.0
  H  H4  1  0.53847000  0.88898000  0.42215000  1.0
  H  H5  1  0.10626000  0.83522000  0.72288000  1.0
  H  H6  1  0.89375000  0.16478000  0.27711000  1.0
  H  H7  1  0.23289000  0.10061000  0.93136000  1.0
  H  H8  1  0.76710000  0.89939000  0.06863000  1.0
  H  H9  1  0.93964000  0.10460000  0.88524000  1.0
  H  H10  1  0.06035000  0.89541000  0.11476000  1.0
  C  C11  1  0.37986000  0.56356000  0.74250000  1.0
  C  C12  1  0.62014000  0.43643000  0.25750000  1.0
  C  C13  1  0.47638000  0.35765000  0.70294000  1.0
  C  C14  1  0.52363000  0.64235000  0.29706000  1.0
  C  C15  1  0.38309000  0.26845000  0.60995000  1.0
  C  C16  1  0.61692000  0.73154000  0.39005000  1.0
  C  C17  1  0.19515000  0.38321000  0.55656000  1.0
  C  C18  1  0.80486000  0.61679000  0.44344000  1.0
  C  C19  1  0.09397000  0.58714000  0.59834000  1.0
  C  C20  1  0.90604000  0.41287000  0.40166000  1.0
  C  C21  1  0.18706000  0.67745000  0.69193000  1.0
  C  C22  1  0.81295000  0.32255000  0.30807000  1.0
  C  C23  1  0.10932000  0.28962000  0.45569000  1.0
  C  C24  1  0.89069000  0.71037000  0.54430000  1.0
  S  S25  1  0.52345000  0.69757000  0.85514000  1.0
  S  S26  1  0.47654000  0.30244000  0.14487000  1.0
  O  O27  1  0.09752000  0.20966000  0.91830000  1.0
  O  O28  1  0.90247000  0.79035000  0.08170000  1.0
  O  O29  1  0.28946000  0.73959000  0.92068000  1.0
  O  O30  1  0.71052000  0.26040000  0.07932000  1.0
  O  O31  1  0.68367000  0.92752000  0.82772000  1.0
  O  O32  1  0.31632000  0.07249000  0.17229000  1.0
  O  O33  1  0.69214000  0.52514000  0.89582000  1.0
  O  O34  1  0.30786000  0.47487000  0.10419000  1.0
  O  O35  1  0.20568000  0.11649000  0.41734000  1.0
  O  O36  1  0.79433000  0.88350000  0.58266000  1.0
