# generated using pymatgen
data_CdH12C13(N2O)3
_symmetry_space_group_name_H-M   'P 1'
_cell_length_a   7.30672000
_cell_length_b   13.15210000
_cell_length_c   14.60800000
_cell_angle_alpha   90.00000000
_cell_angle_beta   90.00000000
_cell_angle_gamma   91.26550000
_symmetry_Int_Tables_number   1
_chemical_formula_structural   CdH12C13(N2O)3
_chemical_formula_sum   'Cd4 H48 C52 N24 O12'
_cell_volume   1403.46758184
_cell_formula_units_Z   4
loop_
 _symmetry_equiv_pos_site_id
 _symmetry_equiv_pos_as_xyz
  1  'x, y, z'
loop_
 _atom_site_type_symbol
 _atom_site_label
 _atom_site_symmetry_multiplicity
 _atom_site_fract_x
 _atom_site_fract_y
 _atom_site_fract_z
 _atom_site_occupancy
  Cd  Cd0  1  0.24578000  0.69130000  0.44957000  1.0
  Cd  Cd1  1  0.25422000  0.80870000  0.94958000  1.0
  Cd  Cd2  1  0.75422000  0.30870000  0.55042000  1.0
  Cd  Cd3  1  0.74578000  0.19130000  0.05043000  1.0
  H  H4  1  0.03116000  0.80112000  0.63749000  1.0
  H  H5  1  0.46885000  0.69889000  0.13749000  1.0
  H  H6  1  0.96885000  0.19888000  0.36251000  1.0
  H  H7  1  0.53115000  0.30111000  0.86250000  1.0
  H  H8  1  0.93168000  0.74419000  0.79591000  1.0
  H  H9  1  0.56833000  0.75581000  0.29590000  1.0
  H  H10  1  0.06832000  0.25581000  0.20409000  1.0
  H  H11  1  0.43168000  0.24418000  0.70409000  1.0
  H  H12  1  0.96656000  0.55809000  0.83422000  1.0
  H  H13  1  0.53343000  0.94191000  0.33422000  1.0
  H  H14  1  0.03344000  0.44191000  0.16578000  1.0
  H  H15  1  0.46657000  0.05808000  0.66578000  1.0
  H  H16  1  0.46914000  0.30786000  0.36600000  1.0
  H  H17  1  0.03086000  0.19215000  0.86600000  1.0
  H  H18  1  0.53085000  0.69214000  0.63400000  1.0
  H  H19  1  0.96913000  0.80785000  0.13400000  1.0
  H  H20  1  0.60767000  0.19114000  0.24855000  1.0
  H  H21  1  0.89233000  0.30886000  0.74855000  1.0
  H  H22  1  0.39233000  0.80886000  0.75145000  1.0
  H  H23  1  0.10766000  0.69114000  0.25145000  1.0
  H  H24  1  0.56772000  0.40999000  0.04627000  1.0
  H  H25  1  0.93230000  0.09001000  0.54627000  1.0
  H  H26  1  0.43228000  0.59001000  0.95373000  1.0
  H  H27  1  0.06774000  0.90999000  0.45373000  1.0
  H  H28  1  0.42296000  0.53364000  0.15528000  1.0
  H  H29  1  0.07706000  0.96636000  0.65528000  1.0
  H  H30  1  0.57705000  0.46636000  0.84473000  1.0
  H  H31  1  0.92296000  0.03364000  0.34473000  1.0
  H  H32  1  0.65880000  0.97672000  0.52971000  1.0
  H  H33  1  0.84120000  0.52328000  0.02972000  1.0
  H  H34  1  0.34121000  0.02328000  0.47028000  1.0
  H  H35  1  0.15880000  0.47672000  0.97028000  1.0
  H  H36  1  0.78863000  0.86402000  0.54064000  1.0
  H  H37  1  0.71137000  0.63598000  0.04065000  1.0
  H  H38  1  0.21137000  0.13597000  0.45934000  1.0
  H  H39  1  0.28862000  0.36402000  0.95934000  1.0
  H  H40  1  0.65096000  0.90739000  0.63398000  1.0
  H  H41  1  0.84904000  0.59261000  0.13398000  1.0
  H  H42  1  0.34905000  0.09261000  0.36602000  1.0
  H  H43  1  0.15094000  0.40739000  0.86602000  1.0
  H  H44  1  0.28810000  0.33895000  0.54846000  1.0
  H  H45  1  0.21190000  0.16106000  0.04846000  1.0
  H  H46  1  0.71190000  0.66106000  0.45154000  1.0
  H  H47  1  0.78809000  0.83894000  0.95154000  1.0
  H  H48  1  0.18162000  0.37476000  0.65140000  1.0
  H  H49  1  0.31837000  0.12524000  0.15141000  1.0
  H  H50  1  0.81838000  0.62524000  0.34860000  1.0
  H  H51  1  0.68162000  0.87476000  0.84860000  1.0
  C  C52  1  0.03729000  0.72193000  0.65884000  1.0
  C  C53  1  0.46272000  0.77807000  0.15884000  1.0
  C  C54  1  0.96272000  0.27807000  0.34116000  1.0
  C  C55  1  0.53728000  0.22193000  0.84116000  1.0
  C  C56  1  0.98277000  0.69062000  0.74593000  1.0
  C  C57  1  0.51723000  0.80939000  0.24593000  1.0
  C  C58  1  0.01723000  0.30939000  0.25407000  1.0
  C  C59  1  0.48277000  0.19061000  0.75407000  1.0
  C  C60  1  0.00515000  0.58843000  0.76717000  1.0
  C  C61  1  0.49484000  0.91157000  0.26717000  1.0
  C  C62  1  0.99485000  0.41157000  0.23283000  1.0
  C  C63  1  0.50515000  0.08843000  0.73283000  1.0
  C  C64  1  0.12144000  0.55922000  0.62475000  1.0
  C  C65  1  0.37855000  0.94078000  0.12476000  1.0
  C  C66  1  0.87856000  0.44078000  0.37525000  1.0
  C  C67  1  0.62144000  0.05922000  0.87525000  1.0
  C  C68  1  0.19923000  0.48673000  0.55864000  1.0
  C  C69  1  0.30077000  0.01328000  0.05865000  1.0
  C  C70  1  0.80077000  0.51328000  0.44136000  1.0
  C  C71  1  0.69922000  0.98672000  0.94136000  1.0
  C  C72  1  0.36418000  0.50232000  0.33794000  1.0
  C  C73  1  0.13582000  0.99769000  0.83794000  1.0
  C  C74  1  0.63580000  0.49768000  0.66206000  1.0
  C  C75  1  0.86418000  0.00232000  0.16206000  1.0
  C  C76  1  0.43930000  0.43014000  0.26976000  1.0
  C  C77  1  0.06070000  0.06986000  0.76976000  1.0
  C  C78  1  0.56069000  0.56986000  0.73025000  1.0
  C  C79  1  0.93930000  0.93014000  0.23025000  1.0
  C  C80  1  0.48824000  0.33156000  0.29532000  1.0
  C  C81  1  0.01177000  0.16845000  0.79532000  1.0
  C  C82  1  0.51176000  0.66844000  0.70468000  1.0
  C  C83  1  0.98823000  0.83155000  0.20469000  1.0
  C  C84  1  0.56281000  0.26730000  0.23094000  1.0
  C  C85  1  0.93720000  0.23270000  0.73094000  1.0
  C  C86  1  0.43719000  0.73270000  0.76906000  1.0
  C  C87  1  0.06280000  0.76730000  0.26906000  1.0
  C  C88  1  0.54007000  0.39009000  0.11743000  1.0
  C  C89  1  0.95994000  0.10992000  0.61743000  1.0
  C  C90  1  0.45993000  0.60992000  0.88257000  1.0
  C  C91  1  0.04007000  0.89008000  0.38257000  1.0
  C  C92  1  0.46425000  0.45876000  0.17818000  1.0
  C  C93  1  0.03577000  0.04124000  0.67818000  1.0
  C  C94  1  0.53575000  0.54124000  0.82183000  1.0
  C  C95  1  0.96425000  0.95876000  0.32183000  1.0
  C  C96  1  0.49743000  0.83856000  0.52367000  1.0
  C  C97  1  0.00256000  0.66145000  0.02367000  1.0
  C  C98  1  0.50256000  0.16144000  0.47632000  1.0
  C  C99  1  0.99744000  0.33855000  0.97633000  1.0
  C  C100  1  0.66000000  0.89978000  0.55923000  1.0
  C  C101  1  0.84000000  0.60021000  0.05923000  1.0
  C  C102  1  0.34001000  0.10021000  0.44076000  1.0
  C  C103  1  0.15999000  0.39978000  0.94076000  1.0
  N  N104  1  0.10489000  0.65675000  0.59809000  1.0
  N  N105  1  0.39511000  0.84326000  0.09809000  1.0
  N  N106  1  0.89511000  0.34325000  0.40191000  1.0
  N  N107  1  0.60489000  0.15674000  0.90191000  1.0
  N  N108  1  0.07567000  0.52238000  0.70758000  1.0
  N  N109  1  0.42432000  0.97763000  0.20759000  1.0
  N  N110  1  0.92432000  0.47763000  0.29242000  1.0
  N  N111  1  0.57568000  0.02237000  0.79242000  1.0
  N  N112  1  0.20940000  0.38880000  0.58448000  1.0
  N  N113  1  0.29059000  0.11121000  0.08448000  1.0
  N  N114  1  0.79059000  0.61120000  0.41552000  1.0
  N  N115  1  0.70940000  0.88879000  0.91552000  1.0
  N  N116  1  0.24959000  0.52341000  0.47863000  1.0
  N  N117  1  0.25041000  0.97659000  0.97863000  1.0
  N  N118  1  0.75041000  0.47659000  0.52138000  1.0
  N  N119  1  0.74958000  0.02341000  0.02138000  1.0
  N  N120  1  0.31993000  0.45728000  0.41770000  1.0
  N  N121  1  0.18007000  0.04273000  0.91771000  1.0
  N  N122  1  0.68007000  0.54272000  0.58230000  1.0
  N  N123  1  0.81992000  0.95727000  0.08230000  1.0
  N  N124  1  0.58954000  0.29624000  0.14296000  1.0
  N  N125  1  0.91047000  0.20376000  0.64296000  1.0
  N  N126  1  0.41046000  0.70376000  0.85704000  1.0
  N  N127  1  0.08954000  0.79624000  0.35704000  1.0
  O  O128  1  0.34784000  0.59592000  0.31595000  1.0
  O  O129  1  0.15217000  0.90409000  0.81595000  1.0
  O  O130  1  0.65214000  0.40408000  0.68405000  1.0
  O  O131  1  0.84784000  0.09591000  0.18405000  1.0
  O  O132  1  0.53100000  0.76124000  0.47202000  1.0
  O  O133  1  0.96901000  0.73875000  0.97202000  1.0
  O  O134  1  0.46900000  0.23875000  0.52798000  1.0
  O  O135  1  0.03099000  0.26124000  0.02798000  1.0
  O  O136  1  0.33693000  0.86349000  0.54468000  1.0
  O  O137  1  0.16307000  0.63651000  0.04468000  1.0
  O  O138  1  0.66307000  0.13651000  0.45532000  1.0
  O  O139  1  0.83693000  0.36349000  0.95532000  1.0
