# generated using pymatgen
data_CdH16(C3N7)2
_symmetry_space_group_name_H-M   'P 1'
_cell_length_a   7.74590000
_cell_length_b   7.87173000
_cell_length_c   9.02375000
_cell_angle_alpha   65.15500000
_cell_angle_beta   66.28740000
_cell_angle_gamma   73.24730000
_symmetry_Int_Tables_number   1
_chemical_formula_structural   CdH16(C3N7)2
_chemical_formula_sum   'Cd1 H16 C6 N14'
_cell_volume   452.39982551
_cell_formula_units_Z   1
loop_
 _symmetry_equiv_pos_site_id
 _symmetry_equiv_pos_as_xyz
  1  'x, y, z'
loop_
 _atom_site_type_symbol
 _atom_site_label
 _atom_site_symmetry_multiplicity
 _atom_site_fract_x
 _atom_site_fract_y
 _atom_site_fract_z
 _atom_site_occupancy
  Cd  Cd0  1  0.00001000  0.00000000  0.50000000  1.0
  H  H1  1  0.37578000  0.93385000  0.27783000  1.0
  H  H2  1  0.62423000  0.06615000  0.72215000  1.0
  H  H3  1  0.84660000  0.24520000  0.22769000  1.0
  H  H4  1  0.15339000  0.75480000  0.77232000  1.0
  H  H5  1  0.24415000  0.79480000  0.28493000  1.0
  H  H6  1  0.75585000  0.20519000  0.71506000  1.0
  H  H7  1  0.23455000  0.31588000  0.13913000  1.0
  H  H8  1  0.76545000  0.68412000  0.86087000  1.0
  H  H9  1  0.91565000  0.38991000  0.27745000  1.0
  H  H10  1  0.08435000  0.61008000  0.72256000  1.0
  H  H11  1  0.11579000  0.01233000  0.08410000  1.0
  H  H12  1  0.88419000  0.98767000  0.91592000  1.0
  H  H13  1  0.12036000  0.35761000  0.98852000  1.0
  H  H14  1  0.87963000  0.64238000  0.01149000  1.0
  H  H15  1  0.34745000  0.07487000  0.99260000  1.0
  H  H16  1  0.65253000  0.92513000  0.00740000  1.0
  C  C17  1  0.33026000  0.16515000  0.58642000  1.0
  C  C18  1  0.66974000  0.83486000  0.41358000  1.0
  C  C19  1  0.13514000  0.26301000  0.11480000  1.0
  C  C20  1  0.86485000  0.73699000  0.88520000  1.0
  C  C21  1  0.21769000  0.06478000  0.10587000  1.0
  C  C22  1  0.78230000  0.93522000  0.89413000  1.0
  N  N23  1  0.15971000  0.17830000  0.56976000  1.0
  N  N24  1  0.84029000  0.82170000  0.43024000  1.0
  N  N25  1  0.31944000  0.28109000  0.66666667  1.0
  N  N26  1  0.68057000  0.71892000  0.33327000  1.0
  N  N27  1  0.13961000  0.36629000  0.69874000  1.0
  N  N28  1  0.86040000  0.63371000  0.30125000  1.0
  N  N29  1  0.04273000  0.30428000  0.64162000  1.0
  N  N30  1  0.95727000  0.69572000  0.35839000  1.0
  N  N31  1  0.49992000  0.05041000  0.53995000  1.0
  N  N32  1  0.50008000  0.94962000  0.46003000  1.0
  N  N33  1  0.25020000  0.93015000  0.26772000  1.0
  N  N34  1  0.74980000  0.06985000  0.73228000  1.0
  N  N35  1  0.95357000  0.26203000  0.25709000  1.0
  N  N36  1  0.04643000  0.73797000  0.74292000  1.0
