# generated using pymatgen
data_CdH16C8SN2O7
_symmetry_space_group_name_H-M   'P 1'
_cell_length_a   6.49208000
_cell_length_b   9.15514000
_cell_length_c   11.24320000
_cell_angle_alpha   84.97690000
_cell_angle_beta   86.54100000
_cell_angle_gamma   74.42460000
_symmetry_Int_Tables_number   1
_chemical_formula_structural   CdH16C8SN2O7
_chemical_formula_sum   'Cd2 H32 C16 S2 N4 O14'
_cell_volume   640.76568552
_cell_formula_units_Z   2
loop_
 _symmetry_equiv_pos_site_id
 _symmetry_equiv_pos_as_xyz
  1  'x, y, z'
loop_
 _atom_site_type_symbol
 _atom_site_label
 _atom_site_symmetry_multiplicity
 _atom_site_fract_x
 _atom_site_fract_y
 _atom_site_fract_z
 _atom_site_occupancy
  Cd  Cd0  1  0.49999000  0.50000000  0.50000000  1.0
  Cd  Cd1  1  0.50000000  0.50000000  0.00000000  1.0
  H  H2  1  0.76329000  0.65675000  0.35671000  1.0
  H  H3  1  0.23671000  0.34325000  0.64330000  1.0
  H  H4  1  0.54192000  0.78619000  0.38526000  1.0
  H  H5  1  0.45808000  0.21382000  0.61475000  1.0
  H  H6  1  0.90568000  0.34570000  0.40077000  1.0
  H  H7  1  0.09431000  0.65430000  0.59923000  1.0
  H  H8  1  0.89273000  0.33001000  0.54506000  1.0
  H  H9  1  0.10727000  0.66999000  0.45495000  1.0
  H  H10  1  0.81099000  0.36950000  0.18872000  1.0
  H  H11  1  0.18901000  0.63050000  0.81128000  1.0
  H  H12  1  0.57336000  0.36709000  0.22445000  1.0
  H  H13  1  0.42665000  0.63291000  0.77556000  1.0
  H  H14  1  0.67173000  0.22858000  0.83160000  1.0
  H  H15  1  0.32827000  0.77142000  0.16840000  1.0
  H  H16  1  0.25468000  0.93071000  0.86252000  1.0
  H  H17  1  0.74532000  0.06928000  0.13747000  1.0
  H  H18  1  0.00777000  0.11848000  0.99645000  1.0
  H  H19  1  0.99223000  0.88152000  0.00354000  1.0
  H  H20  1  0.12062000  0.34406000  0.04623000  1.0
  H  H21  1  0.87938000  0.65594000  0.95377000  1.0
  H  H22  1  0.78338000  0.98679000  0.74422000  1.0
  H  H23  1  0.21662000  0.01320000  0.25578000  1.0
  H  H24  1  0.63046000  0.85177000  0.76070000  1.0
  H  H25  1  0.36954000  0.14823000  0.23930000  1.0
  H  H26  1  0.22305000  0.02794000  0.65823000  1.0
  H  H27  1  0.77695000  0.97206000  0.34177000  1.0
  H  H28  1  0.38642000  0.85248000  0.60875000  1.0
  H  H29  1  0.61358000  0.14752000  0.39125000  1.0
  H  H30  1  0.76609000  0.84257000  0.54047000  1.0
  H  H31  1  0.23391000  0.15743000  0.45953000  1.0
  H  H32  1  0.85430000  0.00986000  0.54788000  1.0
  H  H33  1  0.14570000  0.99015000  0.45212000  1.0
  C  C34  1  0.52741000  0.19803000  0.86705000  1.0
  C  C35  1  0.47260000  0.80196000  0.13295000  1.0
  C  C36  1  0.47883000  0.06791000  0.83387000  1.0
  C  C37  1  0.52116000  0.93209000  0.16613000  1.0
  C  C38  1  0.29188000  0.03512000  0.88319000  1.0
  C  C39  1  0.70813000  0.96488000  0.11680000  1.0
  C  C40  1  0.15862000  0.13585000  0.95891000  1.0
  C  C41  1  0.84138000  0.86415000  0.04108000  1.0
  C  C42  1  0.21877000  0.26300000  0.98693000  1.0
  C  C43  1  0.78124000  0.73700000  0.01307000  1.0
  C  C44  1  0.62017000  0.97381000  0.74219000  1.0
  C  C45  1  0.37984000  0.02619000  0.25780000  1.0
  C  C46  1  0.35414000  0.97738000  0.59550000  1.0
  C  C47  1  0.64586000  0.02262000  0.40450000  1.0
  C  C48  1  0.71651000  0.96803000  0.53076000  1.0
  C  C49  1  0.28349000  0.03197000  0.46924000  1.0
  S  S50  1  0.15150000  0.50183000  0.26096000  1.0
  S  S51  1  0.84850000  0.49817000  0.73904000  1.0
  N  N52  1  0.40248000  0.29218000  0.94320000  1.0
  N  N53  1  0.59751000  0.70782000  0.05680000  1.0
  N  N54  1  0.54511000  0.02640000  0.61978000  1.0
  N  N55  1  0.45489000  0.97361000  0.38022000  1.0
  O  O56  1  0.60875000  0.67193000  0.37833000  1.0
  O  O57  1  0.39124000  0.32807000  0.62168000  1.0
  O  O58  1  0.82012000  0.31842000  0.47188000  1.0
  O  O59  1  0.17987000  0.68159000  0.52812000  1.0
  O  O60  1  0.68627000  0.34097000  0.15980000  1.0
  O  O61  1  0.31374000  0.65902000  0.84021000  1.0
  O  O62  1  0.02109000  0.38926000  0.26657000  1.0
  O  O63  1  0.97891000  0.61074000  0.73343000  1.0
  O  O64  1  0.03070000  0.63866000  0.32342000  1.0
  O  O65  1  0.96930000  0.36134000  0.67659000  1.0
  O  O66  1  0.35739000  0.42884000  0.32200000  1.0
  O  O67  1  0.64262000  0.57116000  0.67801000  1.0
  O  O68  1  0.19629000  0.54811000  0.13433000  1.0
  O  O69  1  0.80371000  0.45189000  0.86567000  1.0
