# generated using pymatgen
data_AgH22C18(NO3)3
_symmetry_space_group_name_H-M   'P 1'
_cell_length_a   7.98454000
_cell_length_b   8.71837000
_cell_length_c   15.25320000
_cell_angle_alpha   89.17880000
_cell_angle_beta   79.35470000
_cell_angle_gamma   76.59180000
_symmetry_Int_Tables_number   1
_chemical_formula_structural   AgH22C18(NO3)3
_chemical_formula_sum   'Ag2 H44 C36 N6 O18'
_cell_volume   1014.63904328
_cell_formula_units_Z   2
loop_
 _symmetry_equiv_pos_site_id
 _symmetry_equiv_pos_as_xyz
  1  'x, y, z'
loop_
 _atom_site_type_symbol
 _atom_site_label
 _atom_site_symmetry_multiplicity
 _atom_site_fract_x
 _atom_site_fract_y
 _atom_site_fract_z
 _atom_site_occupancy
  Ag  Ag0  1  0.72358000  0.07817000  0.06728000  1.0
  Ag  Ag1  1  0.27641000  0.92183000  0.93272000  1.0
  H  H2  1  0.46347000  0.24609000  0.95476000  1.0
  H  H3  1  0.53653000  0.75390000  0.04524000  1.0
  H  H4  1  0.95579000  0.30130000  0.97943000  1.0
  H  H5  1  0.04421000  0.69870000  0.02057000  1.0
  H  H6  1  0.93154000  0.53334000  0.88171000  1.0
  H  H7  1  0.06846000  0.46665000  0.11829000  1.0
  H  H8  1  0.65431000  0.62869000  0.82011000  1.0
  H  H9  1  0.34569000  0.37131000  0.17989000  1.0
  H  H10  1  0.12294000  0.72943000  0.80390000  1.0
  H  H11  1  0.87706000  0.27057000  0.19610000  1.0
  H  H12  1  0.15495000  0.55154000  0.73981000  1.0
  H  H13  1  0.84505000  0.44846000  0.26019000  1.0
  H  H14  1  0.12026000  0.79821000  0.65099000  1.0
  H  H15  1  0.87974000  0.20179000  0.34901000  1.0
  H  H16  1  0.31846000  0.83021000  0.67811000  1.0
  H  H17  1  0.68154000  0.16979000  0.32189000  1.0
  H  H18  1  0.45798000  0.62590000  0.46491000  1.0
  H  H19  1  0.54202000  0.37410000  0.53509000  1.0
  H  H20  1  0.44804000  0.80660000  0.52286000  1.0
  H  H21  1  0.55196000  0.19341000  0.47714000  1.0
  H  H22  1  0.25292000  0.76785000  0.49486000  1.0
  H  H23  1  0.74708000  0.23216000  0.50514000  1.0
  H  H24  1  0.98238000  0.92079000  0.18788000  1.0
  H  H25  1  0.01762000  0.07922000  0.81212000  1.0
  H  H26  1  0.44676000  0.97432000  0.20444000  1.0
  H  H27  1  0.55324000  0.02568000  0.79556000  1.0
  H  H28  1  0.42926000  0.79027000  0.32968000  1.0
  H  H29  1  0.57075000  0.20972000  0.67032000  1.0
  H  H30  1  0.70977000  0.65967000  0.38449000  1.0
  H  H31  1  0.29023000  0.34033000  0.61551000  1.0
  H  H32  1  0.31383000  0.53062000  0.34120000  1.0
  H  H33  1  0.68617000  0.46938000  0.65880000  1.0
  H  H34  1  0.18468000  0.53712000  0.45126000  1.0
  H  H35  1  0.81532000  0.46288000  0.54874000  1.0
  H  H36  1  0.20544000  0.27671000  0.31449000  1.0
  H  H37  1  0.79455000  0.72329000  0.68551000  1.0
  H  H38  1  0.37107000  0.26783000  0.37944000  1.0
  H  H39  1  0.62893000  0.73217000  0.62056000  1.0
  H  H40  1  0.09633000  0.06766000  0.52015000  1.0
  H  H41  1  0.90367000  0.93234000  0.47985000  1.0
  H  H42  1  0.31467000  0.05942000  0.46165000  1.0
  H  H43  1  0.68533000  0.94058000  0.53835000  1.0
  H  H44  1  0.14972000  0.03757000  0.40081000  1.0
  H  H45  1  0.85027000  0.96243000  0.59919000  1.0
  C  C46  1  0.56490000  0.31173000  0.93621000  1.0
  C  C47  1  0.43510000  0.68827000  0.06379000  1.0
  C  C48  1  0.83947000  0.34385000  0.95009000  1.0
  C  C49  1  0.16054000  0.65614000  0.04991000  1.0
  C  C50  1  0.82428000  0.47375000  0.89534000  1.0
  C  C51  1  0.17572000  0.52625000  0.10466000  1.0
  C  C52  1  0.67231000  0.52404000  0.86036000  1.0
  C  C53  1  0.32769000  0.47595000  0.13964000  1.0
  C  C54  1  0.54079000  0.44003000  0.88021000  1.0
  C  C55  1  0.45921000  0.55997000  0.11979000  1.0
  C  C56  1  0.37193000  0.48546000  0.84800000  1.0
  C  C57  1  0.62808000  0.51453000  0.15200000  1.0
  C  C58  1  0.21290000  0.64999000  0.75152000  1.0
  C  C59  1  0.78710000  0.35001000  0.24848000  1.0
  C  C60  1  0.24803000  0.73867000  0.66770000  1.0
  C  C61  1  0.75197000  0.26133000  0.33230000  1.0
  C  C62  1  0.37784000  0.71323000  0.51586000  1.0
  C  C63  1  0.62216000  0.28677000  0.48414000  1.0
  C  C64  1  0.86332000  0.88673000  0.22014000  1.0
  C  C65  1  0.13668000  0.11328000  0.77986000  1.0
  C  C66  1  0.56404000  0.91615000  0.22978000  1.0
  C  C67  1  0.43597000  0.08385000  0.77022000  1.0
  C  C68  1  0.55562000  0.81428000  0.30079000  1.0
  C  C69  1  0.44438000  0.18572000  0.69921000  1.0
  C  C70  1  0.70908000  0.74331000  0.33073000  1.0
  C  C71  1  0.29092000  0.25669000  0.66927000  1.0
  C  C72  1  0.86543000  0.78177000  0.29025000  1.0
  C  C73  1  0.13457000  0.21823000  0.70975000  1.0
  C  C74  1  0.03402000  0.71535000  0.32000000  1.0
  C  C75  1  0.96597000  0.28464000  0.68000000  1.0
  C  C76  1  0.20222000  0.49430000  0.38207000  1.0
  C  C77  1  0.79778000  0.50570000  0.61794000  1.0
  C  C78  1  0.23124000  0.31790000  0.37766000  1.0
  C  C79  1  0.76875000  0.68209000  0.62235000  1.0
  C  C80  1  0.17390000  0.09898000  0.45842000  1.0
  C  C81  1  0.82610000  0.90102000  0.54158000  1.0
  N  N82  1  0.71103000  0.26503000  0.97107000  1.0
  N  N83  1  0.28897000  0.73497000  0.02893000  1.0
  N  N84  1  0.71601000  0.95018000  0.18912000  1.0
  N  N85  1  0.28399000  0.04982000  0.81088000  1.0
  N  N86  1  0.79638000  0.88298000  0.88773000  1.0
  N  N87  1  0.20362000  0.11702000  0.11227000  1.0
  O  O88  1  0.24233000  0.43530000  0.87844000  1.0
  O  O89  1  0.75767000  0.56471000  0.12156000  1.0
  O  O90  1  0.37805000  0.58919000  0.78153000  1.0
  O  O91  1  0.62195000  0.41082000  0.21847000  1.0
  O  O92  1  0.34915000  0.63227000  0.59679000  1.0
  O  O93  1  0.65085000  0.36773000  0.40321000  1.0
  O  O94  1  0.14960000  0.78759000  0.31791000  1.0
  O  O95  1  0.85042000  0.21241000  0.68209000  1.0
  O  O96  1  0.04365000  0.56717000  0.34861000  1.0
  O  O97  1  0.95635000  0.43284000  0.65139000  1.0
  O  O98  1  0.12473000  0.26582000  0.45264000  1.0
  O  O99  1  0.87527000  0.73418000  0.54736000  1.0
  O  O100  1  0.81845000  0.85754000  0.80448000  1.0
  O  O101  1  0.18156000  0.14247000  0.19552000  1.0
  O  O102  1  0.64373000  0.90989000  0.93538000  1.0
  O  O103  1  0.35627000  0.09011000  0.06462000  1.0
  O  O104  1  0.92722000  0.88441000  0.92449000  1.0
  O  O105  1  0.07278000  0.11560000  0.07551000  1.0
