# generated using pymatgen
data_Al2H17C20O13
_symmetry_space_group_name_H-M   'P 1'
_cell_length_a   6.65364000
_cell_length_b   13.99840000
_cell_length_c   16.02670000
_cell_angle_alpha   89.76960000
_cell_angle_beta   89.45020000
_cell_angle_gamma   89.26380000
_symmetry_Int_Tables_number   1
_chemical_formula_structural   Al2H17C20O13
_chemical_formula_sum   'Al4 H34 C40 O26'
_cell_volume   1492.52858938
_cell_formula_units_Z   2
loop_
 _symmetry_equiv_pos_site_id
 _symmetry_equiv_pos_as_xyz
  1  'x, y, z'
loop_
 _atom_site_type_symbol
 _atom_site_label
 _atom_site_symmetry_multiplicity
 _atom_site_fract_x
 _atom_site_fract_y
 _atom_site_fract_z
 _atom_site_occupancy
  Al  Al0  1  0.88490000  0.49904000  0.50119000  1.0
  Al  Al1  1  0.38537000  0.49619000  0.50118000  1.0
  Al  Al2  1  0.37985000  0.00405000  0.00230000  1.0
  Al  Al3  1  0.88034000  0.99829000  0.00200000  1.0
  H  H4  1  0.90276000  0.65931000  0.92697000  1.0
  H  H5  1  0.70035000  0.61451000  0.75971000  1.0
  H  H6  1  0.88974000  0.54314000  0.80849000  1.0
  H  H7  1  0.83227000  0.82972000  0.20975000  1.0
  H  H8  1  0.82699000  0.71249000  0.32769000  1.0
  H  H9  1  0.45760000  0.65587000  0.28822000  1.0
  H  H10  1  0.88895000  0.23629000  0.63679000  1.0
  H  H11  1  0.37087000  0.37685000  0.74522000  1.0
  H  H12  1  0.89317000  0.11743000  0.24015000  1.0
  H  H13  1  0.37986000  0.26798000  0.14216000  1.0
  H  H14  1  0.60043000  0.76905000  0.53114000  1.0
  H  H15  1  0.61217000  0.70423000  0.62842000  1.0
  H  H16  1  0.64908000  0.83109000  0.62555000  1.0
  H  H17  1  0.69447000  0.72957000  0.07075000  1.0
  H  H18  1  0.43473000  0.73521000  0.04166000  1.0
  H  H19  1  0.52622000  0.63846000  0.10609000  1.0
  H  H20  1  0.16207000  0.16832000  0.71835000  1.0
  H  H21  1  0.18751000  0.04344000  0.74214000  1.0
  H  H22  1  0.13395000  0.12657000  0.82435000  1.0
  H  H23  1  0.37361000  0.25777000  0.86275000  1.0
  H  H24  1  0.16836000  0.16654000  0.31512000  1.0
  H  H25  1  0.00729000  0.08627000  0.37207000  1.0
  H  H26  1  0.16776000  0.16621000  0.42692000  1.0
  H  H27  1  0.11487000  0.47019000  0.24074000  1.0
  H  H28  1  0.12788000  0.38045000  0.32033000  1.0
  H  H29  1  0.12531000  0.34678000  0.21191000  1.0
  H  H30  1  0.66799000  0.83301000  0.75458000  1.0
  H  H31  1  0.58012000  0.89926000  0.84341000  1.0
  H  H32  1  0.67482000  0.96058000  0.75281000  1.0
  H  H33  1  0.71189000  0.73106000  0.87889000  1.0
  H  H34  1  0.62676000  0.62098000  0.52253000  1.0
  H  H35  1  0.13268000  0.37009000  0.50677000  1.0
  H  H36  1  0.62487000  0.89259000  0.04962000  1.0
  H  H37  1  0.11868000  0.11720000  0.03861000  1.0
  C  C38  1  0.62940000  0.38372000  0.61442000  1.0
  C  C39  1  0.64935000  0.38462000  0.38917000  1.0
  C  C40  1  0.14449000  0.61057000  0.38802000  1.0
  C  C41  1  0.12320000  0.61497000  0.61156000  1.0
  C  C42  1  0.00528000  0.67707000  0.75126000  1.0
  C  C43  1  0.12757000  0.68581000  0.68058000  1.0
  C  C44  1  0.25804000  0.76514000  0.67885000  1.0
  C  C45  1  0.27079000  0.82881000  0.74745000  1.0
  C  C46  1  0.14223000  0.81870000  0.81807000  1.0
  C  C47  1  0.01129000  0.74171000  0.81696000  1.0
  C  C48  1  0.85125000  0.69011000  0.86752000  1.0
  C  C49  1  0.84422000  0.61673000  0.79272000  1.0
  C  C50  1  0.96897000  0.79145000  0.22746000  1.0
  C  C51  1  0.96536000  0.72650000  0.29319000  1.0
  C  C52  1  0.14258000  0.67833000  0.31579000  1.0
  C  C53  1  0.32050000  0.69421000  0.27095000  1.0
  C  C54  1  0.32444000  0.75880000  0.20454000  1.0
  C  C55  1  0.14694000  0.80939000  0.18233000  1.0
  C  C56  1  0.77813000  0.24167000  0.68712000  1.0
  C  C57  1  0.77443000  0.17269000  0.75035000  1.0
  C  C58  1  0.63059000  0.18017000  0.81514000  1.0
  C  C59  1  0.48596000  0.25402000  0.81287000  1.0
  C  C60  1  0.48505000  0.32050000  0.74836000  1.0
  C  C61  1  0.63316000  0.31469000  0.68559000  1.0
  C  C62  1  0.78979000  0.23921000  0.31352000  1.0
  C  C63  1  0.78422000  0.17549000  0.24672000  1.0
  C  C64  1  0.63298000  0.18534000  0.18690000  1.0
  C  C65  1  0.49138000  0.25957000  0.19101000  1.0
  C  C66  1  0.50491000  0.32668000  0.25510000  1.0
  C  C67  1  0.64879000  0.31568000  0.31821000  1.0
  C  C68  1  0.63099000  0.11727000  0.11546000  1.0
  C  C69  1  0.62855000  0.11205000  0.88692000  1.0
  C  C70  1  0.13541000  0.88763000  0.88890000  1.0
  C  C71  1  0.14005000  0.88253000  0.11430000  1.0
  C  C72  1  0.56600000  0.77178000  0.59830000  1.0
  C  C73  1  0.54027000  0.71510000  0.09156000  1.0
  C  C74  1  0.10801000  0.10984000  0.75844000  1.0
  C  C75  1  0.07455000  0.15775000  0.37157000  1.0
  C  C76  1  0.17746000  0.39988000  0.25704000  1.0
  C  C77  1  0.59067000  0.89873000  0.77524000  1.0
  O  O78  1  0.48372000  0.39739000  0.42831000  1.0
  O  O79  1  0.79492000  0.39930000  0.57629000  1.0
  O  O80  1  0.95281000  0.57905000  0.59483000  1.0
  O  O81  1  0.81458000  0.42416000  0.40588000  1.0
  O  O82  1  0.97814000  0.59632000  0.42575000  1.0
  O  O83  1  0.45871000  0.42037000  0.59676000  1.0
  O  O84  1  0.63285000  0.55639000  0.50112000  1.0
  O  O85  1  0.31314000  0.57306000  0.40680000  1.0
  O  O86  1  0.28921000  0.59393000  0.57583000  1.0
  O  O87  1  0.13524000  0.43892000  0.50134000  1.0
  O  O88  1  0.79558000  0.08818000  0.91902000  1.0
  O  O89  1  0.46173000  0.09988000  0.08233000  1.0
  O  O90  1  0.30549000  0.91983000  0.09202000  1.0
  O  O91  1  0.45650000  0.08534000  0.91277000  1.0
  O  O92  1  0.30011000  0.91231000  0.92129000  1.0
  O  O93  1  0.80103000  0.08252000  0.09286000  1.0
  O  O94  1  0.62969000  0.94179000  0.00668000  1.0
  O  O95  1  0.96141000  0.91443000  0.91362000  1.0
  O  O96  1  0.96801000  0.90310000  0.08370000  1.0
  O  O97  1  0.12602000  0.06049000  0.00408000  1.0
  O  O98  1  0.35274000  0.78651000  0.60475000  1.0
  O  O99  1  0.50727000  0.77209000  0.16483000  1.0
  O  O100  1  0.89685000  0.09337000  0.74574000  1.0
  O  O101  1  0.92334000  0.23129000  0.37724000  1.0
  O  O102  1  0.39256000  0.40940000  0.25445000  1.0
  O  O103  1  0.39304000  0.90650000  0.73821000  1.0
