# generated using pymatgen
data_Cu2Mo4H12C7(N2O5)3
_symmetry_space_group_name_H-M   'P 1'
_cell_length_a   8.95041000
_cell_length_b   10.46650000
_cell_length_c   12.13060000
_cell_angle_alpha   70.50800000
_cell_angle_beta   71.30580000
_cell_angle_gamma   85.18600000
_symmetry_Int_Tables_number   1
_chemical_formula_structural   Cu2Mo4H12C7(N2O5)3
_chemical_formula_sum   'Cu4 Mo8 H24 C14 N12 O30'
_cell_volume   1014.40536518
_cell_formula_units_Z   2
loop_
 _symmetry_equiv_pos_site_id
 _symmetry_equiv_pos_as_xyz
  1  'x, y, z'
loop_
 _atom_site_type_symbol
 _atom_site_label
 _atom_site_symmetry_multiplicity
 _atom_site_fract_x
 _atom_site_fract_y
 _atom_site_fract_z
 _atom_site_occupancy
  Cu  Cu0  1  0.50000000  0.00000000  0.50000000  1.0
  Cu  Cu1  1  0.73399000  0.08759000  0.21062000  1.0
  Cu  Cu2  1  0.26601000  0.91241000  0.78938000  1.0
  Cu  Cu3  1  0.00000000  0.00000000  0.00000000  1.0
  Mo  Mo4  1  0.63490000  0.42525000  0.28303000  1.0
  Mo  Mo5  1  0.36510000  0.57475000  0.71697000  1.0
  Mo  Mo6  1  0.58734000  0.75607000  0.18563000  1.0
  Mo  Mo7  1  0.41266000  0.24393000  0.81437000  1.0
  Mo  Mo8  1  0.27090000  0.70124000  0.43746000  1.0
  Mo  Mo9  1  0.72910000  0.29876000  0.56254000  1.0
  Mo  Mo10  1  0.33865000  0.38321000  0.52545000  1.0
  Mo  Mo11  1  0.66135000  0.61679000  0.47455000  1.0
  H  H12  1  0.76566000  0.08775000  0.40134000  1.0
  H  H13  1  0.23434000  0.91225000  0.59867000  1.0
  H  H14  1  0.94162000  0.92908000  0.23055000  1.0
  H  H15  1  0.05837000  0.07091000  0.76944000  1.0
  H  H16  1  0.16729000  0.11605000  0.44644000  1.0
  H  H17  1  0.83270000  0.88394000  0.55357000  1.0
  H  H18  1  0.45414000  0.18823000  0.07597000  1.0
  H  H19  1  0.54586000  0.81177000  0.92403000  1.0
  H  H20  1  0.95031000  0.69487000  0.22964000  1.0
  H  H21  1  0.04969000  0.30513000  0.77036000  1.0
  H  H22  1  0.34854000  0.61429000  0.96002000  1.0
  H  H23  1  0.65146000  0.38571000  0.03998000  1.0
  H  H24  1  0.02779000  0.20990000  0.28973000  1.0
  H  H25  1  0.97221000  0.79009000  0.71027000  1.0
  H  H26  1  0.10721000  0.16137000  0.15637000  1.0
  H  H27  1  0.89279000  0.83863000  0.84363000  1.0
  H  H28  1  0.06008000  0.39659000  0.08448000  1.0
  H  H29  1  0.93992000  0.60340000  0.91553000  1.0
  H  H30  1  0.26682000  0.38638000  0.05269000  1.0
  H  H31  1  0.73318000  0.61362000  0.94731000  1.0
  H  H32  1  0.03603000  0.45095000  0.27819000  1.0
  H  H33  1  0.96397000  0.54905000  0.72181000  1.0
  H  H34  1  0.24550000  0.45478000  0.23817000  1.0
  H  H35  1  0.75450000  0.54522000  0.76183000  1.0
  C  C36  1  0.26781000  0.12076000  0.36633000  1.0
  C  C37  1  0.73218000  0.87924000  0.63367000  1.0
  C  C38  1  0.41514000  0.15799000  0.17618000  1.0
  C  C39  1  0.58486000  0.84201000  0.82382000  1.0
  C  C40  1  0.04814000  0.70751000  0.14608000  1.0
  C  C41  1  0.95186000  0.29249000  0.85392000  1.0
  C  C42  1  0.25182000  0.66498000  0.00815000  1.0
  C  C43  1  0.74818000  0.33502000  0.99185000  1.0
  C  C44  1  0.12962000  0.22357000  0.20674000  1.0
  C  C45  1  0.87038000  0.77643000  0.79326000  1.0
  C  C46  1  0.15424000  0.37229000  0.12756000  1.0
  C  C47  1  0.84576000  0.62771000  0.87244000  1.0
  C  C48  1  0.14617000  0.46724000  0.20136000  1.0
  C  C49  1  0.85383000  0.53276000  0.79865000  1.0
  N  N50  1  0.41268000  0.08385000  0.36626000  1.0
  N  N51  1  0.58732000  0.91615000  0.63374000  1.0
  N  N52  1  0.50478000  0.10809000  0.24766000  1.0
  N  N53  1  0.49522000  0.89191000  0.75234000  1.0
  N  N54  1  0.26563000  0.16794000  0.24827000  1.0
  N  N55  1  0.73437000  0.83206000  0.75174000  1.0
  N  N56  1  0.08727000  0.81915000  0.04958000  1.0
  N  N57  1  0.91273000  0.18085000  0.95042000  1.0
  N  N58  1  0.21432000  0.79221000  0.96318000  1.0
  N  N59  1  0.78568000  0.20779000  0.03682000  1.0
  N  N60  1  0.14884000  0.60850000  0.12225000  1.0
  N  N61  1  0.85116000  0.39149000  0.87775000  1.0
  O  O62  1  0.70986000  0.02287000  0.38375000  1.0
  O  O63  1  0.29014000  0.97713000  0.61625000  1.0
  O  O64  1  0.93892000  0.01331000  0.16487000  1.0
  O  O65  1  0.06108000  0.98669000  0.83513000  1.0
  O  O66  1  0.53255000  0.30226000  0.45153000  1.0
  O  O67  1  0.46746000  0.69774000  0.54847000  1.0
  O  O68  1  0.79257000  0.32741000  0.23864000  1.0
  O  O69  1  0.20743000  0.67259000  0.76136000  1.0
  O  O70  1  0.72115000  0.60186000  0.18235000  1.0
  O  O71  1  0.27885000  0.39814000  0.81765000  1.0
  O  O72  1  0.46727000  0.55454000  0.38814000  1.0
  O  O73  1  0.53274000  0.44547000  0.61185000  1.0
  O  O74  1  0.50670000  0.40756000  0.20906000  1.0
  O  O75  1  0.49330000  0.59244000  0.79094000  1.0
  O  O76  1  0.70301000  0.89409000  0.08092000  1.0
  O  O77  1  0.29699000  0.10591000  0.91908000  1.0
  O  O78  1  0.42707000  0.81997000  0.30145000  1.0
  O  O79  1  0.57293000  0.18004000  0.69855000  1.0
  O  O80  1  0.47247000  0.72137000  0.10824000  1.0
  O  O81  1  0.52753000  0.27863000  0.89176000  1.0
  O  O82  1  0.17191000  0.81451000  0.51092000  1.0
  O  O83  1  0.82809000  0.18549000  0.48908000  1.0
  O  O84  1  0.23584000  0.53340000  0.58180000  1.0
  O  O85  1  0.76416000  0.46661000  0.41820000  1.0
  O  O86  1  0.14958000  0.66953000  0.36573000  1.0
  O  O87  1  0.85043000  0.33047000  0.63427000  1.0
  O  O88  1  0.29038000  0.25802000  0.67350000  1.0
  O  O89  1  0.70962000  0.74198000  0.32650000  1.0
  O  O90  1  0.21333000  0.35005000  0.45792000  1.0
  O  O91  1  0.78668000  0.64995000  0.54208000  1.0
