# generated using pymatgen
data_Zn3H23C49Cl11O12
_symmetry_space_group_name_H-M   'P 1'
_cell_length_a   21.05790000
_cell_length_b   21.14960000
_cell_length_c   21.32170000
_cell_angle_alpha   60.77240000
_cell_angle_beta   61.28240000
_cell_angle_gamma   89.79870000
_symmetry_Int_Tables_number   1
_chemical_formula_structural   Zn3H23C49Cl11O12
_chemical_formula_sum   'Zn6 H46 C98 Cl22 O24'
_cell_volume   6928.44491211
_cell_formula_units_Z   2
loop_
 _symmetry_equiv_pos_site_id
 _symmetry_equiv_pos_as_xyz
  1  'x, y, z'
loop_
 _atom_site_type_symbol
 _atom_site_label
 _atom_site_symmetry_multiplicity
 _atom_site_fract_x
 _atom_site_fract_y
 _atom_site_fract_z
 _atom_site_occupancy
  Zn  Zn0  1  0.42071000  0.00249000  0.08121000  1.0
  Zn  Zn1  1  0.55000000  0.54381000  0.50153000  1.0
  Zn  Zn2  1  0.46271000  0.45590000  0.49532000  1.0
  Zn  Zn3  1  0.00048000  0.57313000  0.92382000  1.0
  Zn  Zn4  1  0.53873000  0.00065000  0.95283000  1.0
  Zn  Zn5  1  0.00834000  0.45136000  0.04273000  1.0
  H  H6  1  0.61108000  0.92286000  0.08913000  1.0
  H  H7  1  0.30789000  0.56142000  0.90321000  1.0
  H  H8  1  0.24782000  0.49147000  0.01434000  1.0
  H  H9  1  0.47757000  0.79924000  0.04455000  1.0
  H  H10  1  0.46450000  0.71371000  0.05051000  1.0
  H  H11  1  0.52432000  0.80003000  0.94951000  1.0
  H  H12  1  0.21143000  0.52178000  0.94843000  1.0
  H  H13  1  0.08534000  0.38740000  0.90169000  1.0
  H  H14  1  0.99913000  0.41279000  0.88199000  1.0
  H  H15  1  0.98415000  0.40530000  0.81098000  1.0
  H  H16  1  0.97364000  0.48486000  0.81864000  1.0
  H  H17  1  0.57569000  0.00486000  0.12877000  1.0
  H  H18  1  0.57952000  0.03175000  0.19359000  1.0
  H  H19  1  0.50576000  0.04224000  0.17466000  1.0
  H  H20  1  0.73409000  0.24183000  0.22273000  1.0
  H  H21  1  0.82225000  0.30953000  0.16574000  1.0
  H  H22  1  0.73920000  0.33815000  0.18397000  1.0
  H  H23  1  0.79289000  0.23965000  0.77754000  1.0
  H  H24  1  0.72575000  0.15019000  0.83688000  1.0
  H  H25  1  0.70259000  0.23487000  0.79218000  1.0
  H  H26  1  0.27826000  0.01246000  0.93052000  1.0
  H  H27  1  0.35094000  0.97722000  0.94053000  1.0
  H  H28  1  0.32289000  0.04589000  0.96502000  1.0
  H  H29  1  0.02612000  0.62590000  0.13275000  1.0
  H  H30  1  0.01941000  0.54491000  0.12931000  1.0
  H  H31  1  0.62546000  0.67077000  0.27285000  1.0
  H  H32  1  0.98410000  0.61791000  0.08168000  1.0
  H  H33  1  0.29317000  0.99471000  0.83059000  1.0
  H  H34  1  0.36898000  0.00231000  0.73761000  1.0
  H  H35  1  0.36687000  0.95696000  0.83452000  1.0
  H  H36  1  0.34450000  0.38596000  0.72156000  1.0
  H  H37  1  0.01936000  0.59967000  0.24705000  1.0
  H  H38  1  0.98357000  0.51243000  0.34717000  1.0
  H  H39  1  0.02938000  0.51556000  0.25015000  1.0
  H  H40  1  0.13631000  0.79892000  0.89018000  1.0
  H  H41  1  0.14791000  0.73955000  0.85140000  1.0
  H  H42  1  0.06126000  0.71657000  0.94403000  1.0
  H  H43  1  0.18437000  0.81782000  0.16277000  1.0
  H  H44  1  0.26315000  0.82909000  0.17058000  1.0
  H  H45  1  0.25125000  0.90895000  0.09960000  1.0
  H  H46  1  0.08640000  0.84169000  0.97246000  1.0
  H  H47  1  0.04693000  0.74220000  0.03338000  1.0
  H  H48  1  0.04624000  0.78761000  0.08413000  1.0
  H  H49  1  0.10694000  0.84309000  0.11938000  1.0
  H  H50  1  0.19756000  0.91103000  0.04023000  1.0
  H  H51  1  0.13561000  0.89907000  0.01091000  1.0
  C  C52  1  0.46724000  0.88841000  0.15365000  1.0
  C  C53  1  0.18877000  0.81061000  0.03655000  1.0
  C  C54  1  0.91438000  0.54700000  0.22101000  1.0
  C  C55  1  0.39719000  0.07951000  0.76586000  1.0
  C  C56  1  0.91581000  0.52481000  0.29362000  1.0
  C  C57  1  0.44723000  0.13944000  0.67807000  1.0
  C  C58  1  0.84620000  0.48782000  0.37496000  1.0
  C  C59  1  0.47766000  0.21177000  0.65422000  1.0
  C  C60  1  0.15574000  0.77682000  0.01361000  1.0
  C  C61  1  0.77697000  0.48024000  0.38227000  1.0
  C  C62  1  0.45937000  0.22672000  0.71843000  1.0
  C  C63  1  0.77448000  0.51098000  0.30738000  1.0
  C  C64  1  0.42512000  0.16240000  0.80458000  1.0
  C  C65  1  0.84414000  0.53552000  0.22749000  1.0
  C  C66  1  0.43209000  0.17275000  0.86314000  1.0
  C  C67  1  0.83928000  0.54599000  0.15795000  1.0
  C  C68  1  0.45370000  0.24492000  0.84327000  1.0
  C  C69  1  0.77073000  0.54496000  0.16390000  1.0
  C  C70  1  0.46646000  0.30958000  0.76576000  1.0
  C  C71  1  0.39065000  0.68760000  0.97490000  1.0
  C  C72  1  0.70548000  0.53729000  0.23680000  1.0
  C  C73  1  0.59249000  0.08832000  0.98369000  1.0
  C  C74  1  0.91155000  0.40812000  0.01230000  1.0
  C  C75  1  0.47291000  0.30138000  0.70219000  1.0
  C  C76  1  0.70627000  0.51824000  0.30856000  1.0
  C  C77  1  0.34723000  0.63947000  0.97397000  1.0
  C  C78  1  0.63673000  0.51340000  0.38270000  1.0
  C  C79  1  0.48281000  0.36918000  0.62291000  1.0
  C  C80  1  0.48505000  0.60147000  0.38539000  1.0
  C  C81  1  0.40609000  0.52606000  0.60711000  1.0
  C  C82  1  0.23208000  0.60438000  0.97326000  1.0
  C  C83  1  0.40167000  0.78480000  0.00876000  1.0
  C  C84  1  0.17165000  0.62789000  0.96657000  1.0
  C  C85  1  0.36697000  0.83351000  0.03221000  1.0
  C  C86  1  0.15857000  0.69627000  0.95806000  1.0
  C  C87  1  0.29030000  0.82911000  0.06066000  1.0
  C  C88  1  0.18838000  0.72700000  0.98790000  1.0
  C  C89  1  0.25616000  0.79615000  0.03569000  1.0
  C  C90  1  0.25192000  0.70724000  0.99266000  1.0
  C  C91  1  0.29068000  0.74831000  0.00784000  1.0
  C  C92  1  0.25043000  0.54107000  0.95986000  1.0
  C  C93  1  0.61222000  0.86722000  0.13104000  1.0
  C  C94  1  0.47118000  0.77440000  0.01258000  1.0
  C  C95  1  0.96361000  0.42324000  0.85573000  1.0
  C  C96  1  0.56639000  0.04737000  0.14499000  1.0
  C  C97  1  0.76949000  0.30012000  0.16888000  1.0
  C  C98  1  0.73264000  0.20744000  0.82357000  1.0
  C  C99  1  0.14262000  0.38925000  0.86069000  1.0
  C  C100  1  0.33323000  0.02878000  0.92102000  1.0
  C  C101  1  0.98933000  0.58573000  0.13671000  1.0
  C  C102  1  0.35494000  0.00467000  0.79274000  1.0
  C  C103  1  0.99061000  0.53836000  0.28470000  1.0
  C  C104  1  0.12305000  0.73985000  0.90970000  1.0
  C  C105  1  0.24464000  0.84820000  0.12594000  1.0
  C  C106  1  0.08040000  0.78753000  0.02586000  1.0
  C  C107  1  0.15591000  0.86864000  0.05295000  1.0
  C  C108  1  0.11314000  0.53139000  0.84130000  1.0
  C  C109  1  0.68202000  0.85720000  0.11448000  1.0
  C  C110  1  0.15693000  0.32093000  0.87751000  1.0
  C  C111  1  0.68647000  0.78453000  0.16562000  1.0
  C  C112  1  0.23163000  0.31998000  0.82776000  1.0
  C  C113  1  0.62068000  0.72524000  0.23348000  1.0
  C  C114  1  0.28834000  0.38783000  0.76043000  1.0
  C  C115  1  0.54821000  0.73448000  0.25258000  1.0
  C  C116  1  0.27453000  0.45875000  0.74089000  1.0
  C  C117  1  0.54369000  0.80666000  0.19898000  1.0
  C  C118  1  0.20047000  0.45992000  0.79387000  1.0
  C  C119  1  0.47059000  0.81543000  0.21611000  1.0
  C  C120  1  0.18737000  0.53170000  0.77724000  1.0
  C  C121  1  0.41430000  0.89655000  0.01947000  1.0
  C  C122  1  0.11362000  0.57753000  0.97586000  1.0
  C  C123  1  0.40515000  0.75456000  0.28453000  1.0
  C  C124  1  0.27694000  0.64827000  0.97985000  1.0
  C  C125  1  0.24616000  0.59901000  0.70869000  1.0
  C  C126  1  0.40973000  0.68332000  0.33971000  1.0
  C  C127  1  0.31908000  0.59750000  0.65335000  1.0
  C  C128  1  0.47977000  0.67336000  0.32352000  1.0
  C  C129  1  0.33311000  0.52896000  0.66963000  1.0
  C  C130  1  0.36258000  0.74032000  0.99783000  1.0
  C  C131  1  0.88172000  0.37900000  0.92845000  1.0
  C  C132  1  0.61786000  0.12523000  0.06525000  1.0
  C  C133  1  0.85832000  0.36304000  0.00994000  1.0
  C  C134  1  0.64178000  0.13944000  0.98408000  1.0
  C  C135  1  0.78660000  0.31460000  0.08490000  1.0
  C  C136  1  0.70248000  0.20294000  0.90614000  1.0
  C  C137  1  0.73555000  0.27908000  0.07773000  1.0
  C  C138  1  0.73708000  0.25760000  0.90971000  1.0
  C  C139  1  0.75878000  0.29109000  0.99653000  1.0
  C  C140  1  0.71454000  0.24465000  0.99106000  1.0
  C  C141  1  0.82925000  0.34703000  0.92063000  1.0
  C  C142  1  0.65035000  0.18126000  0.06828000  1.0
  C  C143  1  0.65798000  0.23198000  0.14760000  1.0
  C  C144  1  0.79303000  0.33007000  0.83463000  1.0
  C  C145  1  0.43764000  0.10753000  0.93270000  1.0
  C  C146  1  0.90254000  0.54243000  0.08594000  1.0
  C  C147  1  0.61880000  0.18280000  0.14449000  1.0
  C  C148  1  0.83891000  0.37127000  0.83945000  1.0
  C  C149  1  0.38823000  0.09093000  0.82844000  1.0
  Cl  Cl150  1  0.32726000  0.61170000  0.42866000  1.0
  Cl  Cl151  1  0.89822000  0.46088000  0.75003000  1.0
  Cl  Cl152  1  0.52431000  0.13417000  0.22625000  1.0
  Cl  Cl153  1  0.47001000  0.25844000  0.90822000  1.0
  Cl  Cl154  1  0.76047000  0.54788000  0.08723000  1.0
  Cl  Cl155  1  0.47049000  0.12298000  0.59901000  1.0
  Cl  Cl156  1  0.84667000  0.45155000  0.46696000  1.0
  Cl  Cl157  1  0.38825000  0.68167000  0.56420000  1.0
  Cl  Cl158  1  0.54357000  0.28022000  0.54758000  1.0
  Cl  Cl159  1  0.69508000  0.42756000  0.48311000  1.0
  Cl  Cl160  1  0.47048000  0.39486000  0.75707000  1.0
  Cl  Cl161  1  0.62734000  0.55367000  0.23198000  1.0
  Cl  Cl162  1  0.48289000  0.68508000  0.94156000  1.0
  Cl  Cl163  1  0.38339000  0.56949000  0.96267000  1.0
  Cl  Cl164  1  0.31720000  0.76105000  0.30281000  1.0
  Cl  Cl165  1  0.23559000  0.68589000  0.68999000  1.0
  Cl  Cl166  1  0.76299000  0.93326000  0.03136000  1.0
  Cl  Cl167  1  0.08355000  0.23750000  0.95936000  1.0
  Cl  Cl168  1  0.77300000  0.76937000  0.14386000  1.0
  Cl  Cl169  1  0.25215000  0.23551000  0.85005000  1.0
  Cl  Cl170  1  0.60879000  0.24554000  0.22999000  1.0
  Cl  Cl171  1  0.79345000  0.37277000  0.74156000  1.0
  O  O172  1  0.41961000  0.92097000  0.18126000  1.0
  O  O173  1  0.46965000  0.55536000  0.59082000  1.0
  O  O174  1  0.45545000  0.53764000  0.40271000  1.0
  O  O175  1  0.51993000  0.61099000  0.41611000  1.0
  O  O176  1  0.39735000  0.49248000  0.57505000  1.0
  O  O177  1  0.51329000  0.91301000  0.07512000  1.0
  O  O178  1  0.08870000  0.48097000  0.91929000  1.0
  O  O179  1  0.07928000  0.57954000  0.81729000  1.0
  O  O180  1  0.38448000  0.92187000  0.06680000  1.0
  O  O181  1  0.08801000  0.60768000  0.92854000  1.0
  O  O182  1  0.48384000  0.92655000  0.95376000  1.0
  O  O183  1  0.08773000  0.50630000  0.03752000  1.0
  O  O184  1  0.39092000  0.08257000  0.01217000  1.0
  O  O185  1  0.92856000  0.59598000  0.00773000  1.0
  O  O186  1  0.49304000  0.08375000  0.90337000  1.0
  O  O187  1  0.92287000  0.48279000  0.11042000  1.0
  O  O188  1  0.52154000  0.07668000  0.03002000  1.0
  O  O189  1  0.92262000  0.47951000  0.96985000  1.0
  O  O190  1  0.62125000  0.06066000  0.93745000  1.0
  O  O191  1  0.94195000  0.37482000  0.05473000  1.0
  O  O192  1  0.57431000  0.46720000  0.41702000  1.0
  O  O193  1  0.53201000  0.43088000  0.58513000  1.0
  O  O194  1  0.64593000  0.55973000  0.40239000  1.0
  O  O195  1  0.43798000  0.36067000  0.60076000  1.0
