# generated using pymatgen
data_AgH7(C4O)2
_symmetry_space_group_name_H-M   'P 1'
_cell_length_a   5.60602000
_cell_length_b   6.99668000
_cell_length_c   18.21160000
_cell_angle_alpha   91.58970000
_cell_angle_beta   95.43680000
_cell_angle_gamma   90.15000000
_symmetry_Int_Tables_number   1
_chemical_formula_structural   AgH7(C4O)2
_chemical_formula_sum   'Ag4 H28 C32 O8'
_cell_volume   710.82611544
_cell_formula_units_Z   4
loop_
 _symmetry_equiv_pos_site_id
 _symmetry_equiv_pos_as_xyz
  1  'x, y, z'
loop_
 _atom_site_type_symbol
 _atom_site_label
 _atom_site_symmetry_multiplicity
 _atom_site_fract_x
 _atom_site_fract_y
 _atom_site_fract_z
 _atom_site_occupancy
  Ag  Ag0  1  0.19294000  0.06937000  0.96635000  1.0
  Ag  Ag1  1  0.80704000  0.93071000  0.03365000  1.0
  Ag  Ag2  1  0.30711000  0.57372000  0.03359000  1.0
  Ag  Ag3  1  0.69292000  0.42628000  0.96641000  1.0
  H  H4  1  0.73810000  0.14321000  0.16623000  1.0
  H  H5  1  0.26187000  0.85682000  0.83377000  1.0
  H  H6  1  0.94907000  0.18023000  0.29099000  1.0
  H  H7  1  0.05093000  0.81978000  0.70901000  1.0
  H  H8  1  0.36139000  0.90437000  0.38224000  1.0
  H  H9  1  0.63864000  0.09562000  0.61776000  1.0
  H  H10  1  0.14991000  0.86781000  0.25636000  1.0
  H  H11  1  0.85009000  0.13220000  0.74364000  1.0
  H  H12  1  0.80568000  0.22762000  0.43825000  1.0
  H  H13  1  0.19435000  0.77234000  0.56176000  1.0
  H  H14  1  0.71194000  0.99720000  0.46319000  1.0
  H  H15  1  0.28810000  0.00276000  0.53680000  1.0
  H  H16  1  0.98607000  0.02720000  0.42246000  1.0
  H  H17  1  0.01397000  0.97278000  0.57753000  1.0
  H  H18  1  0.76376000  0.61577000  0.83365000  1.0
  H  H19  1  0.23626000  0.38426000  0.16635000  1.0
  H  H20  1  0.55180000  0.63280000  0.70899000  1.0
  H  H21  1  0.44820000  0.36721000  0.29102000  1.0
  H  H22  1  0.13689000  0.34212000  0.61789000  1.0
  H  H23  1  0.86310000  0.65786000  0.38210000  1.0
  H  H24  1  0.34916000  0.32502000  0.74370000  1.0
  H  H25  1  0.65086000  0.67498000  0.25630000  1.0
  H  H26  1  0.69576000  0.65789000  0.56151000  1.0
  H  H27  1  0.30420000  0.34205000  0.43848000  1.0
  H  H28  1  0.51426000  0.45978000  0.57744000  1.0
  H  H29  1  0.48571000  0.54016000  0.42257000  1.0
  H  H30  1  0.78845000  0.42366000  0.53707000  1.0
  H  H31  1  0.21150000  0.57627000  0.46293000  1.0
  C  C32  1  0.42865000  0.00419000  0.20322000  1.0
  C  C33  1  0.57135000  0.99583000  0.79679000  1.0
  C  C34  1  0.65533000  0.09083000  0.21354000  1.0
  C  C35  1  0.34465000  0.90918000  0.78646000  1.0
  C  C36  1  0.77363000  0.11159000  0.28394000  1.0
  C  C37  1  0.22636000  0.88843000  0.71606000  1.0
  C  C38  1  0.66977000  0.04702000  0.34587000  1.0
  C  C39  1  0.33023000  0.95296000  0.65414000  1.0
  C  C40  1  0.44420000  0.95854000  0.33500000  1.0
  C  C41  1  0.55581000  0.04145000  0.66501000  1.0
  C  C42  1  0.32475000  0.93674000  0.26460000  1.0
  C  C43  1  0.67525000  0.06328000  0.73541000  1.0
  C  C44  1  0.29377000  0.98996000  0.12855000  1.0
  C  C45  1  0.70623000  0.01008000  0.87145000  1.0
  C  C46  1  0.79924000  0.07513000  0.42147000  1.0
  C  C47  1  0.20080000  0.92484000  0.57853000  1.0
  C  C48  1  0.07195000  0.47070000  0.79673000  1.0
  C  C49  1  0.92806000  0.52931000  0.20326000  1.0
  C  C50  1  0.84575000  0.55578000  0.78639000  1.0
  C  C51  1  0.15426000  0.44424000  0.21360000  1.0
  C  C52  1  0.72690000  0.56534000  0.71607000  1.0
  C  C53  1  0.27310000  0.43468000  0.28392000  1.0
  C  C54  1  0.83023000  0.49127000  0.65420000  1.0
  C  C55  1  0.16977000  0.50871000  0.34580000  1.0
  C  C56  1  0.05499000  0.40396000  0.66511000  1.0
  C  C57  1  0.94499000  0.59604000  0.33488000  1.0
  C  C58  1  0.17485000  0.39305000  0.73546000  1.0
  C  C59  1  0.82517000  0.60696000  0.26453000  1.0
  C  C60  1  0.20699000  0.46853000  0.87135000  1.0
  C  C61  1  0.79301000  0.53150000  0.12865000  1.0
  C  C62  1  0.70136000  0.50809000  0.57857000  1.0
  C  C63  1  0.29860000  0.49186000  0.42143000  1.0
  O  O64  1  0.39699000  0.05473000  0.07412000  1.0
  O  O65  1  0.60297000  0.94532000  0.92588000  1.0
  O  O66  1  0.08382000  0.91763000  0.12457000  1.0
  O  O67  1  0.91615000  0.08242000  0.87544000  1.0
  O  O68  1  0.10405000  0.54142000  0.92573000  1.0
  O  O69  1  0.89598000  0.45859000  0.07427000  1.0
  O  O70  1  0.41670000  0.39719000  0.87540000  1.0
  O  O71  1  0.58329000  0.60281000  0.12458000  1.0
