# generated using pymatgen
data_CuH13C19N5O6
_symmetry_space_group_name_H-M   'P 1'
_cell_length_a   8.78388000
_cell_length_b   9.03449000
_cell_length_c   13.46550000
_cell_angle_alpha   76.30300000
_cell_angle_beta   80.34210000
_cell_angle_gamma   87.02620000
_symmetry_Int_Tables_number   1
_chemical_formula_structural   CuH13C19N5O6
_chemical_formula_sum   'Cu2 H26 C38 N10 O12'
_cell_volume   1023.40742483
_cell_formula_units_Z   2
loop_
 _symmetry_equiv_pos_site_id
 _symmetry_equiv_pos_as_xyz
  1  'x, y, z'
loop_
 _atom_site_type_symbol
 _atom_site_label
 _atom_site_symmetry_multiplicity
 _atom_site_fract_x
 _atom_site_fract_y
 _atom_site_fract_z
 _atom_site_occupancy
  Cu  Cu0  1  0.78596000  0.90152000  0.91554000  1.0
  Cu  Cu1  1  0.21423000  0.09853000  0.08439000  1.0
  H  H2  1  0.43504000  0.50706000  0.70765000  1.0
  H  H3  1  0.56509000  0.49261000  0.29258000  1.0
  H  H4  1  0.21228000  0.34917000  0.64994000  1.0
  H  H5  1  0.78742000  0.65066000  0.35007000  1.0
  H  H6  1  0.60876000  0.83299000  0.77236000  1.0
  H  H7  1  0.39043000  0.16698000  0.22808000  1.0
  H  H8  1  0.82089000  0.56438000  0.00648000  1.0
  H  H9  1  0.17998000  0.43591000  0.99321000  1.0
  H  H10  1  0.71009000  0.32499000  0.98261000  1.0
  H  H11  1  0.29145000  0.67501000  0.01700000  1.0
  H  H12  1  0.54193000  0.34548000  0.84811000  1.0
  H  H13  1  0.45923000  0.65419000  0.15174000  1.0
  H  H14  1  0.49398000  0.90350000  0.44146000  1.0
  H  H15  1  0.50572000  0.09650000  0.55905000  1.0
  H  H16  1  0.37109000  0.85741000  0.29541000  1.0
  H  H17  1  0.62904000  0.14271000  0.70488000  1.0
  H  H18  1  0.21392000  0.61739000  0.33010000  1.0
  H  H19  1  0.78628000  0.38273000  0.66996000  1.0
  H  H20  1  0.97730000  0.18893000  0.77093000  1.0
  H  H21  1  0.02265000  0.81087000  0.22897000  1.0
  H  H22  1  0.93454000  0.75853000  0.72090000  1.0
  H  H23  1  0.06480000  0.24160000  0.27861000  1.0
  H  H24  1  0.10919000  0.82156000  0.55272000  1.0
  H  H25  1  0.88995000  0.17873000  0.44673000  1.0
  H  H26  1  0.22978000  0.08210000  0.49197000  1.0
  H  H27  1  0.76980000  0.91802000  0.50774000  1.0
  C  C28  1  0.03531000  0.91890000  0.01014000  1.0
  C  C29  1  0.96507000  0.08102000  0.98967000  1.0
  C  C30  1  0.49449000  0.04307000  0.94267000  1.0
  C  C31  1  0.50569000  0.95710000  0.05752000  1.0
  C  C32  1  0.62959000  0.71898000  0.81640000  1.0
  C  C33  1  0.37008000  0.28099000  0.18388000  1.0
  C  C34  1  0.74640000  0.56737000  0.94898000  1.0
  C  C35  1  0.25422000  0.43275000  0.05089000  1.0
  C  C36  1  0.68427000  0.43604000  0.93538000  1.0
  C  C37  1  0.31674000  0.56394000  0.06442000  1.0
  C  C38  1  0.59312000  0.44725000  0.85876000  1.0
  C  C39  1  0.40767000  0.55259000  0.14118000  1.0
  C  C40  1  0.56781000  0.59116000  0.79598000  1.0
  C  C41  1  0.43225000  0.40868000  0.20421000  1.0
  C  C42  1  0.48380000  0.72381000  0.63094000  1.0
  C  C43  1  0.51576000  0.27608000  0.36945000  1.0
  C  C44  1  0.40920000  0.69333000  0.54535000  1.0
  C  C45  1  0.59049000  0.30656000  0.45497000  1.0
  C  C46  1  0.42821000  0.80109000  0.45066000  1.0
  C  C47  1  0.57160000  0.19889000  0.54971000  1.0
  C  C48  1  0.35819000  0.77629000  0.37061000  1.0
  C  C49  1  0.64185000  0.22377000  0.62965000  1.0
  C  C50  1  0.27209000  0.64459000  0.38872000  1.0
  C  C51  1  0.72798000  0.35545000  0.61141000  1.0
  C  C52  1  0.26199000  0.54165000  0.48518000  1.0
  C  C53  1  0.73793000  0.45834000  0.51492000  1.0
  C  C54  1  0.17665000  0.39589000  0.50104000  1.0
  C  C55  1  0.82324000  0.60415000  0.49892000  1.0
  C  C56  1  0.11185000  0.15458000  0.62737000  1.0
  C  C57  1  0.88791000  0.84535000  0.37244000  1.0
  C  C58  1  0.01122000  0.10963000  0.72097000  1.0
  C  C59  1  0.98860000  0.89023000  0.27886000  1.0
  C  C60  1  0.98763000  0.87030000  0.69354000  1.0
  C  C61  1  0.01184000  0.12977000  0.30607000  1.0
  C  C62  1  0.08675000  0.90597000  0.59921000  1.0
  C  C63  1  0.91263000  0.09419000  0.40038000  1.0
  C  C64  1  0.15113000  0.05017000  0.56501000  1.0
  C  C65  1  0.84845000  0.94991000  0.43467000  1.0
  N  N66  1  0.71669000  0.70577000  0.89116000  1.0
  N  N67  1  0.28329000  0.29435000  0.10894000  1.0
  N  N68  1  0.95052000  0.97014000  0.75372000  1.0
  N  N69  1  0.04921000  0.02978000  0.24601000  1.0
  N  N70  1  0.48465000  0.60311000  0.71439000  1.0
  N  N71  1  0.51524000  0.39665000  0.28592000  1.0
  N  N72  1  0.17158000  0.30320000  0.59751000  1.0
  N  N73  1  0.82827000  0.69670000  0.40241000  1.0
  N  N74  1  0.32936000  0.56440000  0.56275000  1.0
  N  N75  1  0.67041000  0.43547000  0.43746000  1.0
  O  O76  1  0.97049000  0.81612000  0.98284000  1.0
  O  O77  1  0.02983000  0.18384000  0.01699000  1.0
  O  O78  1  0.60107000  0.01468000  0.87157000  1.0
  O  O79  1  0.39903000  0.98550000  0.12859000  1.0
  O  O80  1  0.38495000  0.13449000  0.92502000  1.0
  O  O81  1  0.61528000  0.86576000  0.07517000  1.0
  O  O82  1  0.15394000  0.89900000  0.05384000  1.0
  O  O83  1  0.84649000  0.10096000  0.94593000  1.0
  O  O84  1  0.54215000  0.84883000  0.62268000  1.0
  O  O85  1  0.45710000  0.15117000  0.37783000  1.0
  O  O86  1  0.11965000  0.36520000  0.43036000  1.0
  O  O87  1  0.88028000  0.63499000  0.56955000  1.0
