# generated using pymatgen
data_YbH6(C2N3)3
_symmetry_space_group_name_H-M   'P 1'
_cell_length_a   9.18723000
_cell_length_b   9.18723000
_cell_length_c   12.47780000
_cell_angle_alpha   91.56830000
_cell_angle_beta   91.56840000
_cell_angle_gamma   118.92200000
_symmetry_Int_Tables_number   1
_chemical_formula_structural   YbH6(C2N3)3
_chemical_formula_sum   'Yb4 H24 C24 N36'
_cell_volume   920.49775090
_cell_formula_units_Z   4
loop_
 _symmetry_equiv_pos_site_id
 _symmetry_equiv_pos_as_xyz
  1  'x, y, z'
loop_
 _atom_site_type_symbol
 _atom_site_label
 _atom_site_symmetry_multiplicity
 _atom_site_fract_x
 _atom_site_fract_y
 _atom_site_fract_z
 _atom_site_occupancy
  Yb  Yb0  1  0.74076000  0.47684000  0.57224000  1.0
  Yb  Yb1  1  0.52316000  0.25924000  0.92776000  1.0
  Yb  Yb2  1  0.25924000  0.52316000  0.42776000  1.0
  Yb  Yb3  1  0.47684000  0.74076000  0.07224000  1.0
  H  H4  1  0.70759000  0.77177000  0.76616000  1.0
  H  H5  1  0.22823000  0.29241000  0.73384000  1.0
  H  H6  1  0.29241000  0.22823000  0.23384000  1.0
  H  H7  1  0.77177000  0.70759000  0.26616000  1.0
  H  H8  1  0.46522000  0.86814000  0.73123000  1.0
  H  H9  1  0.13186000  0.53478000  0.76877000  1.0
  H  H10  1  0.53478000  0.13186000  0.26877000  1.0
  H  H11  1  0.86814000  0.46521000  0.23123000  1.0
  H  H12  1  0.74822000  0.09774000  0.66398000  1.0
  H  H13  1  0.90226000  0.25178000  0.83602000  1.0
  H  H14  1  0.25177000  0.90226000  0.33602000  1.0
  H  H15  1  0.09774000  0.74822000  0.16398000  1.0
  H  H16  1  0.00013000  0.02987000  0.60207000  1.0
  H  H17  1  0.97013000  0.99987000  0.89793000  1.0
  H  H18  1  0.99987000  0.97013000  0.39793000  1.0
  H  H19  1  0.02987000  0.00013000  0.10207000  1.0
  H  H20  1  0.11951000  0.83655000  0.84102000  1.0
  H  H21  1  0.16345000  0.88049000  0.65898000  1.0
  H  H22  1  0.88049000  0.16345000  0.15898000  1.0
  H  H23  1  0.83655000  0.11951000  0.34102000  1.0
  H  H24  1  0.92634000  0.62772000  0.99767000  1.0
  H  H25  1  0.37228000  0.07367000  0.50233000  1.0
  H  H26  1  0.07367000  0.37228000  0.00233000  1.0
  H  H27  1  0.62772000  0.92634000  0.49767000  1.0
  C  C28  1  0.61011000  0.73219000  0.70373000  1.0
  C  C29  1  0.26781000  0.38989000  0.79627000  1.0
  C  C30  1  0.38988000  0.26781000  0.29627000  1.0
  C  C31  1  0.73219000  0.61011000  0.20373000  1.0
  C  C32  1  0.48985000  0.78076000  0.68594000  1.0
  C  C33  1  0.21924000  0.51015000  0.81406000  1.0
  C  C34  1  0.51015000  0.21924000  0.31406000  1.0
  C  C35  1  0.78076000  0.48985000  0.18594000  1.0
  C  C36  1  0.85676000  0.16967000  0.61824000  1.0
  C  C37  1  0.83033000  0.14324000  0.88176000  1.0
  C  C38  1  0.14324000  0.83033000  0.38176000  1.0
  C  C39  1  0.16967000  0.85676000  0.11824000  1.0
  C  C40  1  0.98204000  0.13579000  0.58712000  1.0
  C  C41  1  0.86421000  0.01796000  0.91288000  1.0
  C  C42  1  0.01796000  0.86421000  0.41288000  1.0
  C  C43  1  0.13579000  0.98204000  0.08712000  1.0
  C  C44  1  0.00353000  0.71996000  0.83291000  1.0
  C  C45  1  0.28004000  0.99647000  0.66709000  1.0
  C  C46  1  0.99647000  0.28004000  0.16709000  1.0
  C  C47  1  0.71996000  0.00353000  0.33291000  1.0
  C  C48  1  0.90817000  0.61550000  0.91127000  1.0
  C  C49  1  0.38450000  0.09183000  0.58873000  1.0
  C  C50  1  0.09183000  0.38450000  0.08873000  1.0
  C  C51  1  0.61550000  0.90817000  0.41127000  1.0
  N  N52  1  0.58639000  0.61529000  0.62640000  1.0
  N  N53  1  0.38471000  0.41361000  0.87360000  1.0
  N  N54  1  0.41361000  0.38471000  0.37360000  1.0
  N  N55  1  0.61529000  0.58639000  0.12640000  1.0
  N  N56  1  0.45536000  0.59292000  0.56492000  1.0
  N  N57  1  0.40708000  0.54464000  0.93508000  1.0
  N  N58  1  0.54464000  0.40708000  0.43508000  1.0
  N  N59  1  0.59292000  0.45536000  0.06492000  1.0
  N  N60  1  0.39492000  0.69101000  0.59845000  1.0
  N  N61  1  0.30899000  0.60508000  0.90155000  1.0
  N  N62  1  0.60508000  0.30899000  0.40155000  1.0
  N  N63  1  0.69101000  0.39492000  0.09845000  1.0
  N  N64  1  0.88888000  0.31798000  0.57910000  1.0
  N  N65  1  0.68203000  0.11112000  0.92090000  1.0
  N  N66  1  0.11112000  0.68203000  0.42090000  1.0
  N  N67  1  0.31797000  0.88888000  0.07910000  1.0
  N  N68  1  0.02895000  0.37170000  0.52621000  1.0
  N  N69  1  0.62830000  0.97105000  0.97378000  1.0
  N  N70  1  0.97105000  0.62830000  0.47379000  1.0
  N  N71  1  0.37170000  0.02895000  0.02622000  1.0
  N  N72  1  0.08758000  0.26464000  0.52938000  1.0
  N  N73  1  0.73536000  0.91242000  0.97062000  1.0
  N  N74  1  0.91241000  0.73536000  0.47062000  1.0
  N  N75  1  0.26464000  0.08758000  0.02938000  1.0
  N  N76  1  0.92775000  0.64694000  0.73643000  1.0
  N  N77  1  0.35306000  0.07225000  0.76357000  1.0
  N  N78  1  0.07225000  0.35306000  0.26357000  1.0
  N  N79  1  0.64694000  0.92775000  0.23643000  1.0
  N  N80  1  0.79260000  0.50445000  0.75598000  1.0
  N  N81  1  0.49555000  0.20740000  0.74401000  1.0
  N  N82  1  0.20740000  0.49555000  0.24402000  1.0
  N  N83  1  0.50445000  0.79260000  0.25598000  1.0
  N  N84  1  0.77650000  0.48205000  0.86131000  1.0
  N  N85  1  0.51795000  0.22350000  0.63869000  1.0
  N  N86  1  0.22350000  0.51795000  0.13869000  1.0
  N  N87  1  0.48206000  0.77650000  0.36131000  1.0
