# generated using pymatgen
data_ZnH28C20(NO2)4
_symmetry_space_group_name_H-M   'P 1'
_cell_length_a   7.75386000
_cell_length_b   7.87966000
_cell_length_c   9.67380000
_cell_angle_alpha   69.30630000
_cell_angle_beta   83.86620000
_cell_angle_gamma   75.49280000
_symmetry_Int_Tables_number   1
_chemical_formula_structural   ZnH28C20(NO2)4
_chemical_formula_sum   'Zn1 H28 C20 N4 O8'
_cell_volume   535.17631902
_cell_formula_units_Z   1
loop_
 _symmetry_equiv_pos_site_id
 _symmetry_equiv_pos_as_xyz
  1  'x, y, z'
loop_
 _atom_site_type_symbol
 _atom_site_label
 _atom_site_symmetry_multiplicity
 _atom_site_fract_x
 _atom_site_fract_y
 _atom_site_fract_z
 _atom_site_occupancy
  Zn  Zn0  1  0.50000000  0.50000000  0.49999000  1.0
  H  H1  1  0.37037000  0.95045000  0.98233000  1.0
  H  H2  1  0.62965000  0.04957000  0.01768000  1.0
  H  H3  1  0.53980000  0.21378000  0.42733000  1.0
  H  H4  1  0.46019000  0.78622000  0.57266000  1.0
  H  H5  1  0.62246000  0.35311000  0.76639000  1.0
  H  H6  1  0.37751000  0.64689000  0.23361000  1.0
  H  H7  1  0.57923000  0.95998000  0.66605000  1.0
  H  H8  1  0.42075000  0.04002000  0.33395000  1.0
  H  H9  1  0.46613000  0.12457000  0.74832000  1.0
  H  H10  1  0.53385000  0.87542000  0.25168000  1.0
  H  H11  1  0.80457000  0.05763000  0.76414000  1.0
  H  H12  1  0.19541000  0.94236000  0.23587000  1.0
  H  H13  1  0.81423000  0.15579000  0.56814000  1.0
  H  H14  1  0.18576000  0.84420000  0.43187000  1.0
  H  H15  1  0.91923000  0.40778000  0.55338000  1.0
  H  H16  1  0.08076000  0.59221000  0.44662000  1.0
  H  H17  1  0.93876000  0.34766000  0.74697000  1.0
  H  H18  1  0.06123000  0.65233000  0.25303000  1.0
  H  H19  1  0.92847000  0.66892000  0.64612000  1.0
  H  H20  1  0.07152000  0.33106000  0.35388000  1.0
  H  H21  1  0.71688000  0.65626000  0.72857000  1.0
  H  H22  1  0.28312000  0.34372000  0.27143000  1.0
  H  H23  1  0.26589000  0.08910000  0.52912000  1.0
  H  H24  1  0.73410000  0.91089000  0.47089000  1.0
  H  H25  1  0.20771000  0.27051000  0.60420000  1.0
  H  H26  1  0.79228000  0.72949000  0.39579000  1.0
  H  H27  1  0.00343000  0.83087000  0.86371000  1.0
  H  H28  1  0.99660000  0.16914000  0.13631000  1.0
  C  C29  1  0.55568000  0.10715000  0.65631000  1.0
  C  C30  1  0.44430000  0.89284000  0.34369000  1.0
  C  C31  1  0.72992000  0.15824000  0.66685000  1.0
  C  C32  1  0.27006000  0.84175000  0.33315000  1.0
  C  C33  1  0.84854000  0.42696000  0.65314000  1.0
  C  C34  1  0.15144000  0.57303000  0.34686000  1.0
  C  C35  1  0.80317000  0.63384000  0.63536000  1.0
  C  C36  1  0.19682000  0.36615000  0.36463000  1.0
  C  C37  1  0.27932000  0.23149000  0.51166000  1.0
  C  C38  1  0.72067000  0.76850000  0.48834000  1.0
  C  C39  1  0.13890000  0.54830000  0.89672000  1.0
  C  C40  1  0.86112000  0.45171000  0.10328000  1.0
  C  C41  1  0.13894000  0.35995000  0.97569000  1.0
  C  C42  1  0.86108000  0.64006000  0.02432000  1.0
  C  C43  1  0.00133000  0.68574000  0.92493000  1.0
  C  C44  1  0.99869000  0.31428000  0.07508000  1.0
  C  C45  1  0.26476000  0.60671000  0.76634000  1.0
  C  C46  1  0.73525000  0.39331000  0.23366000  1.0
  C  C47  1  0.29675000  0.20821000  0.97011000  1.0
  C  C48  1  0.70330000  0.79181000  0.02989000  1.0
  N  N49  1  0.46682000  0.23496000  0.51890000  1.0
  N  N50  1  0.53317000  0.76503000  0.48110000  1.0
  N  N51  1  0.69052000  0.34960000  0.67012000  1.0
  N  N52  1  0.30946000  0.65039000  0.32988000  1.0
  O  O53  1  0.29583000  0.50230000  0.68620000  1.0
  O  O54  1  0.70417000  0.49772000  0.31380000  1.0
  O  O55  1  0.31710000  0.75372000  0.74250000  1.0
  O  O56  1  0.68291000  0.24629000  0.25750000  1.0
  O  O57  1  0.45163000  0.22290000  0.97626000  1.0
  O  O58  1  0.54838000  0.77712000  0.02373000  1.0
  O  O59  1  0.25735000  0.05385000  0.96910000  1.0
  O  O60  1  0.74267000  0.94617000  0.03091000  1.0
