# generated using pymatgen
data_CdH20C31N4O5
_symmetry_space_group_name_H-M   'P 1'
_cell_length_a   11.57400000
_cell_length_b   11.89490000
_cell_length_c   25.69220000
_cell_angle_alpha   89.99970000
_cell_angle_beta   89.99980000
_cell_angle_gamma   80.87010000
_symmetry_Int_Tables_number   1
_chemical_formula_structural   CdH20C31N4O5
_chemical_formula_sum   'Cd4 H80 C124 N16 O20'
_cell_volume   3492.27472479
_cell_formula_units_Z   4
loop_
 _symmetry_equiv_pos_site_id
 _symmetry_equiv_pos_as_xyz
  1  'x, y, z'
loop_
 _atom_site_type_symbol
 _atom_site_label
 _atom_site_symmetry_multiplicity
 _atom_site_fract_x
 _atom_site_fract_y
 _atom_site_fract_z
 _atom_site_occupancy
  Cd  Cd0  1  0.19113000  0.51619000  0.85222000  1.0
  Cd  Cd1  1  0.30887000  0.48382000  0.35222000  1.0
  Cd  Cd2  1  0.80887000  0.48381000  0.14778000  1.0
  Cd  Cd3  1  0.69113000  0.51618000  0.64778000  1.0
  H  H4  1  0.87600000  0.64320000  0.73334000  1.0
  H  H5  1  0.62399000  0.35680000  0.23334000  1.0
  H  H6  1  0.12400000  0.35680000  0.26666000  1.0
  H  H7  1  0.37600000  0.64319000  0.76666000  1.0
  H  H8  1  0.72684000  0.78985000  0.68906000  1.0
  H  H9  1  0.77316000  0.21015000  0.18906000  1.0
  H  H10  1  0.27316000  0.21015000  0.31094000  1.0
  H  H11  1  0.22684000  0.78984000  0.81094000  1.0
  H  H12  1  0.83034000  0.05129000  0.78632000  1.0
  H  H13  1  0.66965000  0.94872000  0.28633000  1.0
  H  H14  1  0.16966000  0.94871000  0.21368000  1.0
  H  H15  1  0.33035000  0.05128000  0.71368000  1.0
  H  H16  1  0.97686000  0.90517000  0.83050000  1.0
  H  H17  1  0.52314000  0.09483000  0.33050000  1.0
  H  H18  1  0.02314000  0.09482000  0.16950000  1.0
  H  H19  1  0.47686000  0.90517000  0.66950000  1.0
  H  H20  1  0.59242000  0.98701000  0.79784000  1.0
  H  H21  1  0.90757000  0.01300000  0.29784000  1.0
  H  H22  1  0.40758000  0.01299000  0.20216000  1.0
  H  H23  1  0.09243000  0.98701000  0.70216000  1.0
  H  H24  1  0.44578000  0.12721000  0.84520000  1.0
  H  H25  1  0.05421000  0.87280000  0.34520000  1.0
  H  H26  1  0.55422000  0.87280000  0.15480000  1.0
  H  H27  1  0.94578000  0.12720000  0.65480000  1.0
  H  H28  1  0.47942000  0.38160000  0.72985000  1.0
  H  H29  1  0.02058000  0.61841000  0.22985000  1.0
  H  H30  1  0.52059000  0.61841000  0.27015000  1.0
  H  H31  1  0.97941000  0.38159000  0.77014000  1.0
  H  H32  1  0.62138000  0.23889000  0.68006000  1.0
  H  H33  1  0.87862000  0.76113000  0.18006000  1.0
  H  H34  1  0.37864000  0.76113000  0.31994000  1.0
  H  H35  1  0.12138000  0.23888000  0.81994000  1.0
  H  H36  1  0.33969000  0.46090000  0.97292000  1.0
  H  H37  1  0.16031000  0.53909000  0.47292000  1.0
  H  H38  1  0.66032000  0.53908000  0.02709000  1.0
  H  H39  1  0.83968000  0.46091000  0.52708000  1.0
  H  H40  1  0.42745000  0.63058000  0.02732000  1.0
  H  H41  1  0.07254000  0.36942000  0.52732000  1.0
  H  H42  1  0.57255000  0.36941000  0.97268000  1.0
  H  H43  1  0.92745000  0.63058000  0.47268000  1.0
  H  H44  1  0.30344000  0.75477000  0.87961000  1.0
  H  H45  1  0.19656000  0.24523000  0.37961000  1.0
  H  H46  1  0.69656000  0.24522000  0.12039000  1.0
  H  H47  1  0.80344000  0.75476000  0.62039000  1.0
  H  H48  1  0.52737000  0.77263000  0.02998000  1.0
  H  H49  1  0.97262000  0.22736000  0.52998000  1.0
  H  H50  1  0.47263000  0.22736000  0.97002000  1.0
  H  H51  1  0.02737000  0.77263000  0.47002000  1.0
  H  H52  1  0.64223000  0.89428000  0.07924000  1.0
  H  H53  1  0.85778000  0.10570000  0.57925000  1.0
  H  H54  1  0.35778000  0.10570000  0.92076000  1.0
  H  H55  1  0.14222000  0.89429000  0.42075000  1.0
  H  H56  1  0.70123000  0.07876000  0.09469000  1.0
  H  H57  1  0.79878000  0.92122000  0.59469000  1.0
  H  H58  1  0.29878000  0.92122000  0.90531000  1.0
  H  H59  1  0.20121000  0.07878000  0.40531000  1.0
  H  H60  1  0.83433000  0.41490000  0.97650000  1.0
  H  H61  1  0.66568000  0.58511000  0.47650000  1.0
  H  H62  1  0.16567000  0.58511000  0.02350000  1.0
  H  H63  1  0.33433000  0.41489000  0.52350000  1.0
  H  H64  1  0.92310000  0.57870000  0.91721000  1.0
  H  H65  1  0.57690000  0.42131000  0.41721000  1.0
  H  H66  1  0.07690000  0.42131000  0.08279000  1.0
  H  H67  1  0.42310000  0.57869000  0.58279000  1.0
  H  H68  1  0.16578000  0.27453000  0.91455000  1.0
  H  H69  1  0.33421000  0.72547000  0.41455000  1.0
  H  H70  1  0.83421000  0.72547000  0.08545000  1.0
  H  H71  1  0.66578000  0.27453000  0.58545000  1.0
  H  H72  1  0.05670000  0.10874000  0.90955000  1.0
  H  H73  1  0.44329000  0.89126000  0.40954000  1.0
  H  H74  1  0.94330000  0.89126000  0.09046000  1.0
  H  H75  1  0.55671000  0.10874000  0.59045000  1.0
  H  H76  1  0.08685000  0.89777000  0.90703000  1.0
  H  H77  1  0.41315000  0.10224000  0.40703000  1.0
  H  H78  1  0.91316000  0.10224000  0.09297000  1.0
  H  H79  1  0.58685000  0.89776000  0.59297000  1.0
  H  H80  1  0.07563000  0.71491000  0.94985000  1.0
  H  H81  1  0.42437000  0.28510000  0.44985000  1.0
  H  H82  1  0.92436000  0.28510000  0.05015000  1.0
  H  H83  1  0.57563000  0.71490000  0.55015000  1.0
  C  C84  1  0.02646000  0.67987000  0.80943000  1.0
  C  C85  1  0.47353000  0.32013000  0.30944000  1.0
  C  C86  1  0.97354000  0.32012000  0.19056000  1.0
  C  C87  1  0.52646000  0.67987000  0.69056000  1.0
  C  C88  1  0.93638000  0.76654000  0.78368000  1.0
  C  C89  1  0.56360000  0.23347000  0.28368000  1.0
  C  C90  1  0.06361000  0.23346000  0.21632000  1.0
  C  C91  1  0.43639000  0.76653000  0.71632000  1.0
  C  C92  1  0.86620000  0.73323000  0.74371000  1.0
  C  C93  1  0.63379000  0.26677000  0.24372000  1.0
  C  C94  1  0.13380000  0.26677000  0.25629000  1.0
  C  C95  1  0.36620000  0.73323000  0.75628000  1.0
  C  C96  1  0.78562000  0.81465000  0.71864000  1.0
  C  C97  1  0.71437000  0.18535000  0.21864000  1.0
  C  C98  1  0.21437000  0.18535000  0.28136000  1.0
  C  C99  1  0.28563000  0.81465000  0.78136000  1.0
  C  C100  1  0.77296000  0.92949000  0.73357000  1.0
  C  C101  1  0.72703000  0.07052000  0.23357000  1.0
  C  C102  1  0.22704000  0.07051000  0.26644000  1.0
  C  C103  1  0.27296000  0.92949000  0.76643000  1.0
  C  C104  1  0.84044000  0.96207000  0.77467000  1.0
  C  C105  1  0.65955000  0.03793000  0.27467000  1.0
  C  C106  1  0.15956000  0.03793000  0.22533000  1.0
  C  C107  1  0.34044000  0.96206000  0.72533000  1.0
  C  C108  1  0.92247000  0.88092000  0.79915000  1.0
  C  C109  1  0.57752000  0.11908000  0.29915000  1.0
  C  C110  1  0.07753000  0.11907000  0.20085000  1.0
  C  C111  1  0.42248000  0.88092000  0.70085000  1.0
  C  C112  1  0.69044000  0.01654000  0.70484000  1.0
  C  C113  1  0.80956000  0.98349000  0.20484000  1.0
  C  C114  1  0.30956000  0.98347000  0.29516000  1.0
  C  C115  1  0.19044000  0.01652000  0.79516000  1.0
  C  C116  1  0.61457000  0.10443000  0.73568000  1.0
  C  C117  1  0.88543000  0.89559000  0.23568000  1.0
  C  C118  1  0.38544000  0.89558000  0.26432000  1.0
  C  C119  1  0.11458000  0.10442000  0.76432000  1.0
  C  C120  1  0.56780000  0.07344000  0.78306000  1.0
  C  C121  1  0.93220000  0.92657000  0.28306000  1.0
  C  C122  1  0.43221000  0.92656000  0.21694000  1.0
  C  C123  1  0.06780000  0.07343000  0.71694000  1.0
  C  C124  1  0.48613000  0.15120000  0.80948000  1.0
  C  C125  1  0.01388000  0.84882000  0.30948000  1.0
  C  C126  1  0.51388000  0.84881000  0.19052000  1.0
  C  C127  1  0.98612000  0.15119000  0.69052000  1.0
  C  C128  1  0.45313000  0.26152000  0.78992000  1.0
  C  C129  1  0.04686000  0.73849000  0.28992000  1.0
  C  C130  1  0.54687000  0.73848000  0.21007000  1.0
  C  C131  1  0.95313000  0.26151000  0.71008000  1.0
  C  C132  1  0.50322000  0.29419000  0.74356000  1.0
  C  C133  1  0.99679000  0.70582000  0.24355000  1.0
  C  C134  1  0.49680000  0.70581000  0.25644000  1.0
  C  C135  1  0.00321000  0.29419000  0.75644000  1.0
  C  C136  1  0.58199000  0.21530000  0.71619000  1.0
  C  C137  1  0.91801000  0.78471000  0.21619000  1.0
  C  C138  1  0.41803000  0.78470000  0.28382000  1.0
  C  C139  1  0.08199000  0.21530000  0.78381000  1.0
  C  C140  1  0.36225000  0.34340000  0.81807000  1.0
  C  C141  1  0.13775000  0.65661000  0.31807000  1.0
  C  C142  1  0.63775000  0.65661000  0.18193000  1.0
  C  C143  1  0.86225000  0.34339000  0.68193000  1.0
  C  C144  1  0.34567000  0.54758000  0.96150000  1.0
  C  C145  1  0.15432000  0.45242000  0.46150000  1.0
  C  C146  1  0.65433000  0.45241000  0.03850000  1.0
  C  C147  1  0.84567000  0.54758000  0.53850000  1.0
  C  C148  1  0.39016000  0.63051000  0.98872000  1.0
  C  C149  1  0.10984000  0.36949000  0.48872000  1.0
  C  C150  1  0.60985000  0.36948000  0.01129000  1.0
  C  C151  1  0.89015000  0.63051000  0.51128000  1.0
  C  C152  1  0.32446000  0.69707000  0.91197000  1.0
  C  C153  1  0.17554000  0.30292000  0.41197000  1.0
  C  C154  1  0.67554000  0.30291000  0.08804000  1.0
  C  C155  1  0.82446000  0.69707000  0.58803000  1.0
  C  C156  1  0.41029000  0.83359000  0.96692000  1.0
  C  C157  1  0.08972000  0.16641000  0.46692000  1.0
  C  C158  1  0.58972000  0.16640000  0.03308000  1.0
  C  C159  1  0.91028000  0.83359000  0.53308000  1.0
  C  C160  1  0.48938000  0.84490000  0.00607000  1.0
  C  C161  1  0.01062000  0.15509000  0.50606000  1.0
  C  C162  1  0.51063000  0.15508000  0.99394000  1.0
  C  C163  1  0.98937000  0.84490000  0.49393000  1.0
  C  C164  1  0.52374000  0.95195000  0.01567000  1.0
  C  C165  1  0.97627000  0.04804000  0.51567000  1.0
  C  C166  1  0.47627000  0.04804000  0.98433000  1.0
  C  C167  1  0.02374000  0.95195000  0.48433000  1.0
  C  C168  1  0.60500000  0.96708000  0.05537000  1.0
  C  C169  1  0.89500000  0.03290000  0.55537000  1.0
  C  C170  1  0.39501000  0.03291000  0.94463000  1.0
  C  C171  1  0.10499000  0.96709000  0.44462000  1.0
  C  C172  1  0.63778000  0.07166000  0.06406000  1.0
  C  C173  1  0.86222000  0.92833000  0.56405000  1.0
  C  C174  1  0.36222000  0.92833000  0.93595000  1.0
  C  C175  1  0.13777000  0.07167000  0.43594000  1.0
  C  C176  1  0.91557000  0.41191000  0.95526000  1.0
  C  C177  1  0.58443000  0.58810000  0.45526000  1.0
  C  C178  1  0.08443000  0.58809000  0.04474000  1.0
  C  C179  1  0.41557000  0.41191000  0.54474000  1.0
  C  C180  1  0.96042000  0.49122000  0.92588000  1.0
  C  C181  1  0.53958000  0.50878000  0.42588000  1.0
  C  C182  1  0.03958000  0.50878000  0.07412000  1.0
  C  C183  1  0.46042000  0.49122000  0.57412000  1.0
  C  C184  1  0.08820000  0.33564000  0.92310000  1.0
  C  C185  1  0.41180000  0.66436000  0.42310000  1.0
  C  C186  1  0.91181000  0.66436000  0.07690000  1.0
  C  C187  1  0.58820000  0.33564000  0.57690000  1.0
  C  C188  1  0.98970000  0.20677000  0.97693000  1.0
  C  C189  1  0.51030000  0.79323000  0.47693000  1.0
  C  C190  1  0.01030000  0.79323000  0.02307000  1.0
  C  C191  1  0.48970000  0.20677000  0.52307000  1.0
  C  C192  1  0.02538000  0.10735000  0.94960000  1.0
  C  C193  1  0.47462000  0.89266000  0.44960000  1.0
  C  C194  1  0.97462000  0.89266000  0.05040000  1.0
  C  C195  1  0.52539000  0.10735000  0.55040000  1.0
  C  C196  1  0.02128000  0.00110000  0.97379000  1.0
  C  C197  1  0.47872000  0.99891000  0.47379000  1.0
  C  C198  1  0.97872000  0.99891000  0.02621000  1.0
  C  C199  1  0.52128000  0.00110000  0.52621000  1.0
  C  C200  1  0.05683000  0.89666000  0.94721000  1.0
  C  C201  1  0.44317000  0.10334000  0.44721000  1.0
  C  C202  1  0.94317000  0.10334000  0.05280000  1.0
  C  C203  1  0.55683000  0.89666000  0.55279000  1.0
  C  C204  1  0.05135000  0.79424000  0.97122000  1.0
  C  C205  1  0.44865000  0.20576000  0.47122000  1.0
  C  C206  1  0.94865000  0.20576000  0.02878000  1.0
  C  C207  1  0.55135000  0.79424000  0.52878000  1.0
  N  N208  1  0.30484000  0.59046000  0.91386000  1.0
  N  N209  1  0.19515000  0.40954000  0.41386000  1.0
  N  N210  1  0.69516000  0.40953000  0.08614000  1.0
  N  N211  1  0.80484000  0.59046000  0.58614000  1.0
  N  N212  1  0.37629000  0.72580000  0.95670000  1.0
  N  N213  1  0.12370000  0.27420000  0.45669000  1.0
  N  N214  1  0.62372000  0.27419000  0.04331000  1.0
  N  N215  1  0.87629000  0.72580000  0.54330000  1.0
  N  N216  1  0.06797000  0.44258000  0.90640000  1.0
  N  N217  1  0.43203000  0.55742000  0.40641000  1.0
  N  N218  1  0.93203000  0.55742000  0.09359000  1.0
  N  N219  1  0.56797000  0.44258000  0.59360000  1.0
  N  N220  1  0.99733000  0.31331000  0.95296000  1.0
  N  N221  1  0.50267000  0.68669000  0.45296000  1.0
  N  N222  1  0.00267000  0.68669000  0.04703000  1.0
  N  N223  1  0.49733000  0.31331000  0.54704000  1.0
  O  O224  1  0.08577000  0.71110000  0.84745000  1.0
  O  O225  1  0.41421000  0.28890000  0.34744000  1.0
  O  O226  1  0.91423000  0.28889000  0.15255000  1.0
  O  O227  1  0.58579000  0.71110000  0.65255000  1.0
  O  O228  1  0.04196000  0.57815000  0.79221000  1.0
  O  O229  1  0.45803000  0.42186000  0.29221000  1.0
  O  O230  1  0.95803000  0.42185000  0.20778000  1.0
  O  O231  1  0.54197000  0.57815000  0.70778000  1.0
  O  O232  1  0.31985000  0.31387000  0.86064000  1.0
  O  O233  1  0.18015000  0.68614000  0.36065000  1.0
  O  O234  1  0.68014000  0.68614000  0.13935000  1.0
  O  O235  1  0.81985000  0.31386000  0.63935000  1.0
  O  O236  1  0.33001000  0.44071000  0.79642000  1.0
  O  O237  1  0.16999000  0.55930000  0.29642000  1.0
  O  O238  1  0.66999000  0.55930000  0.20358000  1.0
  O  O239  1  0.83000000  0.44070000  0.70358000  1.0
  O  O240  1  0.68334000  0.01407000  0.65660000  1.0
  O  O241  1  0.81666000  0.98595000  0.15660000  1.0
  O  O242  1  0.31666000  0.98594000  0.34340000  1.0
  O  O243  1  0.18335000  0.01406000  0.84340000  1.0
