# generated using pymatgen
data_CoP2H7C4N3O7
_symmetry_space_group_name_H-M   'P 1'
_cell_length_a   5.12956000
_cell_length_b   9.52309000
_cell_length_c   10.88270000
_cell_angle_alpha   64.67460000
_cell_angle_beta   87.69900000
_cell_angle_gamma   74.98920000
_symmetry_Int_Tables_number   1
_chemical_formula_structural   CoP2H7C4N3O7
_chemical_formula_sum   'Co2 P4 H14 C8 N6 O14'
_cell_volume   462.60169155
_cell_formula_units_Z   2
loop_
 _symmetry_equiv_pos_site_id
 _symmetry_equiv_pos_as_xyz
  1  'x, y, z'
loop_
 _atom_site_type_symbol
 _atom_site_label
 _atom_site_symmetry_multiplicity
 _atom_site_fract_x
 _atom_site_fract_y
 _atom_site_fract_z
 _atom_site_occupancy
  Co  Co0  1  0.43411000  0.94531000  0.37951000  1.0
  Co  Co1  1  0.56589000  0.05469000  0.62049000  1.0
  P  P2  1  0.85108000  0.17403000  0.19625000  1.0
  P  P3  1  0.14892000  0.82597000  0.80375000  1.0
  P  P4  1  0.98882000  0.25732000  0.42291000  1.0
  P  P5  1  0.01118000  0.74268000  0.57709000  1.0
  H  H6  1  0.91221000  0.48944000  0.42912000  1.0
  H  H7  1  0.08779000  0.51056000  0.57088000  1.0
  H  H8  1  0.93446000  0.28106000  0.97449000  1.0
  H  H9  1  0.06554000  0.71894000  0.02551000  1.0
  H  H10  1  0.66785000  0.52395000  0.06289000  1.0
  H  H11  1  0.33215000  0.47605000  0.93711000  1.0
  H  H12  1  0.48569000  0.45074000  0.21003000  1.0
  H  H13  1  0.51430000  0.54926000  0.78997000  1.0
  H  H14  1  0.37877000  0.61900000  0.34303000  1.0
  H  H15  1  0.62122000  0.38100000  0.65697000  1.0
  H  H16  1  0.92625000  0.90124000  0.17510000  1.0
  H  H17  1  0.07375000  0.09876000  0.82490000  1.0
  H  H18  1  0.31040000  0.27611000  0.20305000  1.0
  H  H19  1  0.68960000  0.72390000  0.79695000  1.0
  C  C20  1  0.67480000  0.48145000  0.17382000  1.0
  C  C21  1  0.32520000  0.51855000  0.82618000  1.0
  C  C22  1  0.91968000  0.33323000  0.23607000  1.0
  C  C23  1  0.08032000  0.66677000  0.76393000  1.0
  C  C24  1  0.53440000  0.67101000  0.28556000  1.0
  C  C25  1  0.46559000  0.32899000  0.71444000  1.0
  C  C26  1  0.80998000  0.81401000  0.19656000  1.0
  C  C27  1  0.19002000  0.18599000  0.80344000  1.0
  N  N28  1  0.61323000  0.79476000  0.28562000  1.0
  N  N29  1  0.38677000  0.20523000  0.71437000  1.0
  N  N30  1  0.68142000  0.61758000  0.20103000  1.0
  N  N31  1  0.31859000  0.38242000  0.79897000  1.0
  N  N32  1  0.85588000  0.70865000  0.14325000  1.0
  N  N33  1  0.14412000  0.29135000  0.85675000  1.0
  O  O34  1  0.24578000  0.11829000  0.47018000  1.0
  O  O35  1  0.75422000  0.88171000  0.52982000  1.0
  O  O36  1  0.59338000  0.13313000  0.25777000  1.0
  O  O37  1  0.40662000  0.86687000  0.74224000  1.0
  O  O38  1  0.10872000  0.03743000  0.23764000  1.0
  O  O39  1  0.89128000  0.96257000  0.76236000  1.0
  O  O40  1  0.73156000  0.23651000  0.49256000  1.0
  O  O41  1  0.26844000  0.76349000  0.50744000  1.0
  O  O42  1  0.15038000  0.37410000  0.16802000  1.0
  O  O43  1  0.84963000  0.62590000  0.83198000  1.0
  O  O44  1  0.07359000  0.40387000  0.43566000  1.0
  O  O45  1  0.92641000  0.59613000  0.56434000  1.0
  O  O46  1  0.78103000  0.25756000  0.03671000  1.0
  O  O47  1  0.21897000  0.74244000  0.96329000  1.0
