# generated using pymatgen
data_Ag3PH5C7S2N(O3F2)3
_symmetry_space_group_name_H-M   'P 1'
_cell_length_a   9.05552000
_cell_length_b   9.53442000
_cell_length_c   12.34420000
_cell_angle_alpha   93.58570000
_cell_angle_beta   106.48200000
_cell_angle_gamma   117.51100000
_symmetry_Int_Tables_number   1
_chemical_formula_structural   Ag3PH5C7S2N(O3F2)3
_chemical_formula_sum   'Ag6 P2 H10 C14 S4 N2 O18 F12'
_cell_volume   882.63250500
_cell_formula_units_Z   2
loop_
 _symmetry_equiv_pos_site_id
 _symmetry_equiv_pos_as_xyz
  1  'x, y, z'
loop_
 _atom_site_type_symbol
 _atom_site_label
 _atom_site_symmetry_multiplicity
 _atom_site_fract_x
 _atom_site_fract_y
 _atom_site_fract_z
 _atom_site_occupancy
  Ag  Ag0  1  0.34644000  0.49697000  0.51218000  1.0
  Ag  Ag1  1  0.65356000  0.50303000  0.48782000  1.0
  Ag  Ag2  1  0.33929000  0.84371000  0.45871000  1.0
  Ag  Ag3  1  0.66071000  0.15629000  0.54129000  1.0
  Ag  Ag4  1  0.04931000  0.87204000  0.51713000  1.0
  Ag  Ag5  1  0.95069000  0.12796000  0.48287000  1.0
  P  P6  1  0.72177000  0.85196000  0.61364000  1.0
  P  P7  1  0.27823000  0.14804000  0.38636000  1.0
  H  H8  1  0.91331000  0.72739000  0.78157000  1.0
  H  H9  1  0.08669000  0.27261000  0.21843000  1.0
  H  H10  1  0.94301000  0.71773000  0.98897000  1.0
  H  H11  1  0.05699000  0.28227000  0.01103000  1.0
  H  H12  1  0.80220000  0.83608000  0.08591000  1.0
  H  H13  1  0.19780000  0.16392000  0.91409000  1.0
  H  H14  1  0.63698000  0.96060000  0.96915000  1.0
  H  H15  1  0.36302000  0.03940000  0.03085000  1.0
  H  H16  1  0.61781000  0.96221000  0.77722000  1.0
  H  H17  1  0.38219000  0.03779000  0.22278000  1.0
  C  C18  1  0.76179000  0.84749000  0.76646000  1.0
  C  C19  1  0.23821000  0.15252000  0.23354000  1.0
  C  C20  1  0.85566000  0.77830000  0.82658000  1.0
  C  C21  1  0.14434000  0.22170000  0.17342000  1.0
  C  C22  1  0.87130000  0.77354000  0.94207000  1.0
  C  C23  1  0.12870000  0.22647000  0.05794000  1.0
  C  C24  1  0.79372000  0.83859000  0.99633000  1.0
  C  C25  1  0.20628000  0.16141000  0.00367000  1.0
  C  C26  1  0.70268000  0.90843000  0.93391000  1.0
  C  C27  1  0.29732000  0.09157000  0.06609000  1.0
  C  C28  1  0.17216000  0.55697000  0.82528000  1.0
  C  C29  1  0.82784000  0.44303000  0.17472000  1.0
  C  C30  1  0.56231000  0.33158000  0.81051000  1.0
  C  C31  1  0.43770000  0.66842000  0.18949000  1.0
  S  S32  1  0.07805000  0.53077000  0.66516000  1.0
  S  S33  1  0.92195000  0.46923000  0.33484000  1.0
  S  S34  1  0.42433000  0.10529000  0.77090000  1.0
  S  S35  1  0.57567000  0.89471000  0.22910000  1.0
  N  N36  1  0.68950000  0.91068000  0.82279000  1.0
  N  N37  1  0.31050000  0.08932000  0.17721000  1.0
  O  O38  1  0.51704000  0.76156000  0.55865000  1.0
  O  O39  1  0.48296000  0.23844000  0.44135000  1.0
  O  O40  1  0.81023000  0.03281000  0.61231000  1.0
  O  O41  1  0.18977000  0.96719000  0.38769000  1.0
  O  O42  1  0.13107000  0.42189000  0.62026000  1.0
  O  O43  1  0.86893000  0.57811000  0.37974000  1.0
  O  O44  1  0.16259000  0.69459000  0.64672000  1.0
  O  O45  1  0.83740000  0.30541000  0.35328000  1.0
  O  O46  1  0.80683000  0.76383000  0.57142000  1.0
  O  O47  1  0.19317000  0.23616000  0.42858000  1.0
  O  O48  1  0.88613000  0.45476000  0.64228000  1.0
  O  O49  1  0.11387000  0.54524000  0.35771000  1.0
  O  O50  1  0.24758000  0.07688000  0.70527000  1.0
  O  O51  1  0.75242000  0.92312000  0.29473000  1.0
  O  O52  1  0.50992000  0.05779000  0.70183000  1.0
  O  O53  1  0.49007000  0.94221000  0.29817000  1.0
  O  O54  1  0.44627000  0.05841000  0.88151000  1.0
  O  O55  1  0.55373000  0.94159000  0.11849000  1.0
  F  F56  1  0.09820000  0.41163000  0.85486000  1.0
  F  F57  1  0.90180000  0.58837000  0.14514000  1.0
  F  F58  1  0.13939000  0.65911000  0.88299000  1.0
  F  F59  1  0.86061000  0.34089000  0.11701000  1.0
  F  F60  1  0.35039000  0.61876000  0.86132000  1.0
  F  F61  1  0.64961000  0.38124000  0.13867000  1.0
  F  F62  1  0.50572000  0.39602000  0.87957000  1.0
  F  F63  1  0.49429000  0.60398000  0.12043000  1.0
  F  F64  1  0.73599000  0.38050000  0.86850000  1.0
  F  F65  1  0.26401000  0.61949000  0.13150000  1.0
  F  F66  1  0.55210000  0.39345000  0.71420000  1.0
  F  F67  1  0.44791000  0.60655000  0.28580000  1.0
