# generated using pymatgen
data_ZnH6C6(S3N2)2
_symmetry_space_group_name_H-M   'P 1'
_cell_length_a   8.66519000
_cell_length_b   13.32310000
_cell_length_c   13.33150000
_cell_angle_alpha   83.94740000
_cell_angle_beta   71.03110000
_cell_angle_gamma   71.04640000
_symmetry_Int_Tables_number   1
_chemical_formula_structural   ZnH6C6(S3N2)2
_chemical_formula_sum   'Zn4 H24 C24 S24 N16'
_cell_volume   1376.58984374
_cell_formula_units_Z   4
loop_
 _symmetry_equiv_pos_site_id
 _symmetry_equiv_pos_as_xyz
  1  'x, y, z'
loop_
 _atom_site_type_symbol
 _atom_site_label
 _atom_site_symmetry_multiplicity
 _atom_site_fract_x
 _atom_site_fract_y
 _atom_site_fract_z
 _atom_site_occupancy
  Zn  Zn0  1  0.00005000  0.00006000  0.00003000  1.0
  Zn  Zn1  1  0.50006000  0.00006000  0.99998000  1.0
  Zn  Zn2  1  0.74991000  0.50000000  0.50003000  1.0
  Zn  Zn3  1  0.24999000  0.49991000  0.49991000  1.0
  H  H4  1  0.08741000  0.88916000  0.60891000  1.0
  H  H5  1  0.30388000  0.60913000  0.11071000  1.0
  H  H6  1  0.58538000  0.11078000  0.39112000  1.0
  H  H7  1  0.02363000  0.39116000  0.88900000  1.0
  H  H8  1  0.19592000  0.77212000  0.66906000  1.0
  H  H9  1  0.13495000  0.66925000  0.22764000  1.0
  H  H10  1  0.63768000  0.22770000  0.33104000  1.0
  H  H11  1  0.03184000  0.33105000  0.77202000  1.0
  H  H12  1  0.23407000  0.77624000  0.52877000  1.0
  H  H13  1  0.23743000  0.52891000  0.22357000  1.0
  H  H14  1  0.53940000  0.22361000  0.47133000  1.0
  H  H15  1  0.98968000  0.47143000  0.77621000  1.0
  H  H16  1  0.83166000  0.29885000  0.18636000  1.0
  H  H17  1  0.98212000  0.18610000  0.70093000  1.0
  H  H18  1  0.31719000  0.70113000  0.81367000  1.0
  H  H19  1  0.86882000  0.81415000  0.29912000  1.0
  H  H20  1  0.94681000  0.29143000  0.04693000  1.0
  H  H21  1  0.00605000  0.04666000  0.70859000  1.0
  H  H22  1  0.28542000  0.70868000  0.95308000  1.0
  H  H23  1  0.76076000  0.95356000  0.29146000  1.0
  H  H24  1  0.91373000  0.40478000  0.12357000  1.0
  H  H25  1  0.96247000  0.12319000  0.59526000  1.0
  H  H26  1  0.44236000  0.59532000  0.87652000  1.0
  H  H27  1  0.68056000  0.87698000  0.40483000  1.0
  C  C28  1  0.30450000  0.04550000  0.83664000  1.0
  C  C29  1  0.85897000  0.83660000  0.95457000  1.0
  C  C30  1  0.18663000  0.95447000  0.16337000  1.0
  C  C31  1  0.65014000  0.16352000  0.04552000  1.0
  C  C32  1  0.32886000  0.93724000  0.69379000  1.0
  C  C33  1  0.97748000  0.69364000  0.06269000  1.0
  C  C34  1  0.95996000  0.06249000  0.30639000  1.0
  C  C35  1  0.73392000  0.30642000  0.93727000  1.0
  C  C36  1  0.20641000  0.82321000  0.59890000  1.0
  C  C37  1  0.19488000  0.59901000  0.17661000  1.0
  C  C38  1  0.62874000  0.17660000  0.40121000  1.0
  C  C39  1  0.97041000  0.40125000  0.82313000  1.0
  C  C40  1  0.10678000  0.34043000  0.43835000  1.0
  C  C41  1  0.45465000  0.43821000  0.65940000  1.0
  C  C42  1  0.88590000  0.65949000  0.56164000  1.0
  C  C43  1  0.55260000  0.56149000  0.34050000  1.0
  C  C44  1  0.10284000  0.29787000  0.26668000  1.0
  C  C45  1  0.63036000  0.26662000  0.70213000  1.0
  C  C46  1  0.66765000  0.70222000  0.73326000  1.0
  C  C47  1  0.59912000  0.73323000  0.29790000  1.0
  C  C48  1  0.93594000  0.31903000  0.12414000  1.0
  C  C49  1  0.93983000  0.12388000  0.68094000  1.0
  C  C50  1  0.37939000  0.68104000  0.87590000  1.0
  C  C51  1  0.74424000  0.87629000  0.31915000  1.0
  S  S52  1  0.31734000  0.12918000  0.92065000  1.0
  S  S53  1  0.76219000  0.92060000  0.87093000  1.0
  S  S54  1  0.36708000  0.87087000  0.07933000  1.0
  S  S55  1  0.55357000  0.07951000  0.12911000  1.0
  S  S56  1  0.43960000  0.02064000  0.70659000  1.0
  S  S57  1  0.85388000  0.70648000  0.97939000  1.0
  S  S58  1  0.16684000  0.97913000  0.29347000  1.0
  S  S59  1  0.53989000  0.29361000  0.02064000  1.0
  S  S60  1  0.38561000  0.87276000  0.57491000  1.0
  S  S61  1  0.04001000  0.57469000  0.12698000  1.0
  S  S62  1  0.83332000  0.12671000  0.42535000  1.0
  S  S63  1  0.74169000  0.42531000  0.87280000  1.0
  S  S64  1  0.14895000  0.35318000  0.55247000  1.0
  S  S65  1  0.29837000  0.55238000  0.64667000  1.0
  S  S66  1  0.05489000  0.64675000  0.44749000  1.0
  S  S67  1  0.49758000  0.44728000  0.35320000  1.0
  S  S68  1  0.24856000  0.25053000  0.33795000  1.0
  S  S69  1  0.41330000  0.33784000  0.74933000  1.0
  S  S70  1  0.83747000  0.74945000  0.66198000  1.0
  S  S71  1  0.50094000  0.66179000  0.25053000  1.0
  S  S72  1  0.13933000  0.24741000  0.14395000  1.0
  S  S73  1  0.71659000  0.14394000  0.75271000  1.0
  S  S74  1  0.53095000  0.75278000  0.85596000  1.0
  S  S75  1  0.61293000  0.85603000  0.24742000  1.0
  N  N76  1  0.19086000  0.99246000  0.85986000  1.0
  N  N77  1  0.94933000  0.85983000  0.00763000  1.0
  N  N78  1  0.04317000  0.00757000  0.14021000  1.0
  N  N79  1  0.81681000  0.14029000  0.99248000  1.0
  N  N80  1  0.20374000  0.93066000  0.77991000  1.0
  N  N81  1  0.01642000  0.77984000  0.06932000  1.0
  N  N82  1  0.91437000  0.06922000  0.22024000  1.0
  N  N83  1  0.86565000  0.22025000  0.93069000  1.0
  N  N84  1  0.96358000  0.37292000  0.31603000  1.0
  N  N85  1  0.72029000  0.31599000  0.62709000  1.0
  N  N86  1  0.65264000  0.62718000  0.68396000  1.0
  N  N87  1  0.66318000  0.68397000  0.37300000  1.0
  N  N88  1  0.96676000  0.39571000  0.41263000  1.0
  N  N89  1  0.62044000  0.41254000  0.60420000  1.0
  N  N90  1  0.77527000  0.60427000  0.58738000  1.0
  N  N91  1  0.63721000  0.58729000  0.39583000  1.0
