# generated using pymatgen
data_Zn4H24C42O13
_symmetry_space_group_name_H-M   'P 1'
_cell_length_a   24.28200000
_cell_length_b   24.40920000
_cell_length_c   24.43780000
_cell_angle_alpha   60.62470000
_cell_angle_beta   60.54310000
_cell_angle_gamma   60.51880000
_symmetry_Int_Tables_number   1
_chemical_formula_structural   Zn4H24C42O13
_chemical_formula_sum   'Zn8 H48 C84 O26'
_cell_volume   10372.06731290
_cell_formula_units_Z   2
loop_
 _symmetry_equiv_pos_site_id
 _symmetry_equiv_pos_as_xyz
  1  'x, y, z'
loop_
 _atom_site_type_symbol
 _atom_site_label
 _atom_site_symmetry_multiplicity
 _atom_site_fract_x
 _atom_site_fract_y
 _atom_site_fract_z
 _atom_site_occupancy
  Zn  Zn0  1  0.96261000  0.10771000  0.95945000  1.0
  Zn  Zn1  1  0.96144000  0.97847000  0.95682000  1.0
  Zn  Zn2  1  0.96065000  0.97774000  0.08870000  1.0
  Zn  Zn3  1  0.09260000  0.97692000  0.96065000  1.0
  Zn  Zn4  1  0.52790000  0.41273000  0.52263000  1.0
  Zn  Zn5  1  0.52731000  0.54458000  0.52312000  1.0
  Zn  Zn6  1  0.39600000  0.54244000  0.52544000  1.0
  Zn  Zn7  1  0.52562000  0.54117000  0.39410000  1.0
  H  H8  1  0.87412000  0.24574000  0.81100000  1.0
  H  H9  1  0.80473000  0.31818000  0.73680000  1.0
  H  H10  1  0.74380000  0.15443000  0.79141000  1.0
  H  H11  1  0.81612000  0.08179000  0.86274000  1.0
  H  H12  1  0.74694000  0.20634000  0.68336000  1.0
  H  H13  1  0.67361000  0.27837000  0.61302000  1.0
  H  H14  1  0.62573000  0.44540000  0.66403000  1.0
  H  H15  1  0.69660000  0.37348000  0.73684000  1.0
  H  H16  1  0.81929000  0.24489000  0.05980000  1.0
  H  H17  1  0.74688000  0.31643000  0.13181000  1.0
  H  H18  1  0.79903000  0.14880000  0.29867000  1.0
  H  H19  1  0.86877000  0.07719000  0.22670000  1.0
  H  H20  1  0.69105000  0.20266000  0.35056000  1.0
  H  H21  1  0.61983000  0.27452000  0.42232000  1.0
  H  H22  1  0.67463000  0.44050000  0.25749000  1.0
  H  H23  1  0.74899000  0.36835000  0.18614000  1.0
  H  H24  1  0.06508000  0.24329000  0.86798000  1.0
  H  H25  1  0.13691000  0.31524000  0.79538000  1.0
  H  H26  1  0.30214000  0.14891000  0.73774000  1.0
  H  H27  1  0.23053000  0.07686000  0.81301000  1.0
  H  H28  1  0.35677000  0.20274000  0.74000000  1.0
  H  H29  1  0.42833000  0.27498000  0.66691000  1.0
  H  H30  1  0.25996000  0.44000000  0.61506000  1.0
  H  H31  1  0.18852000  0.36760000  0.68517000  1.0
  H  H32  1  0.86913000  0.83113000  0.05558000  1.0
  H  H33  1  0.79980000  0.75670000  0.12731000  1.0
  H  H34  1  0.74340000  0.81472000  0.29324000  1.0
  H  H35  1  0.81531000  0.88656000  0.22160000  1.0
  H  H36  1  0.74952000  0.70476000  0.34555000  1.0
  H  H37  1  0.67533000  0.63525000  0.41893000  1.0
  H  H38  1  0.61801000  0.68581000  0.25516000  1.0
  H  H39  1  0.68928000  0.75828000  0.18189000  1.0
  H  H40  1  0.06349000  0.88411000  0.81322000  1.0
  H  H41  1  0.13575000  0.81281000  0.74096000  1.0
  H  H42  1  0.30236000  0.75843000  0.79844000  1.0
  H  H43  1  0.23016000  0.83210000  0.86835000  1.0
  H  H44  1  0.35592000  0.76064000  0.68970000  1.0
  H  H45  1  0.42775000  0.68784000  0.61889000  1.0
  H  H46  1  0.26025000  0.63390000  0.67091000  1.0
  H  H47  1  0.18865000  0.70389000  0.74451000  1.0
  H  H48  1  0.05898000  0.83166000  0.22782000  1.0
  H  H49  1  0.13006000  0.75802000  0.30038000  1.0
  H  H50  1  0.29839000  0.81383000  0.13723000  1.0
  H  H51  1  0.22740000  0.88487000  0.06454000  1.0
  H  H52  1  0.35067000  0.70472000  0.18844000  1.0
  H  H53  1  0.42287000  0.63330000  0.25996000  1.0
  H  H54  1  0.25631000  0.68506000  0.42709000  1.0
  H  H55  1  0.18395000  0.75866000  0.35575000  1.0
  C  C56  1  0.89194000  0.11564000  0.88511000  1.0
  C  C57  1  0.84955000  0.15926000  0.84128000  1.0
  C  C58  1  0.84545000  0.22625000  0.80616000  1.0
  C  C59  1  0.80608000  0.26667000  0.76521000  1.0
  C  C60  1  0.76914000  0.24162000  0.75865000  1.0
  C  C61  1  0.77335000  0.17442000  0.79442000  1.0
  C  C62  1  0.81317000  0.13370000  0.83491000  1.0
  C  C63  1  0.72696000  0.28455000  0.71557000  1.0
  C  C64  1  0.71961000  0.25847000  0.68028000  1.0
  C  C65  1  0.67917000  0.29856000  0.64041000  1.0
  C  C66  1  0.64521000  0.36619000  0.63430000  1.0
  C  C67  1  0.65258000  0.39291000  0.66872000  1.0
  C  C68  1  0.69275000  0.35253000  0.70890000  1.0
  C  C69  1  0.60133000  0.40896000  0.59199000  1.0
  C  C70  1  0.89074000  0.11375000  0.09582000  1.0
  C  C71  1  0.84832000  0.15672000  0.13890000  1.0
  C  C72  1  0.81438000  0.22444000  0.11225000  1.0
  C  C73  1  0.77449000  0.26428000  0.15262000  1.0
  C  C74  1  0.76774000  0.23782000  0.22049000  1.0
  C  C75  1  0.80234000  0.16989000  0.24659000  1.0
  C  C76  1  0.84187000  0.12975000  0.20651000  1.0
  C  C77  1  0.72520000  0.28030000  0.26312000  1.0
  C  C78  1  0.68869000  0.25445000  0.33027000  1.0
  C  C79  1  0.64830000  0.29450000  0.37043000  1.0
  C  C80  1  0.64273000  0.36189000  0.34421000  1.0
  C  C81  1  0.67882000  0.38823000  0.27735000  1.0
  C  C82  1  0.71974000  0.34782000  0.23755000  1.0
  C  C83  1  0.59884000  0.40511000  0.38702000  1.0
  C  C84  1  0.10035000  0.11258000  0.88935000  1.0
  C  C85  1  0.14346000  0.15565000  0.84512000  1.0
  C  C86  1  0.11716000  0.22317000  0.83927000  1.0
  C  C87  1  0.15737000  0.26328000  0.79812000  1.0
  C  C88  1  0.22479000  0.23730000  0.76127000  1.0
  C  C89  1  0.25052000  0.16958000  0.76717000  1.0
  C  C90  1  0.21059000  0.12919000  0.80871000  1.0
  C  C91  1  0.26741000  0.27994000  0.71796000  1.0
  C  C92  1  0.33559000  0.25441000  0.71167000  1.0
  C  C93  1  0.37567000  0.29467000  0.67143000  1.0
  C  C94  1  0.34838000  0.36190000  0.63687000  1.0
  C  C95  1  0.28054000  0.38787000  0.64264000  1.0
  C  C96  1  0.24076000  0.34732000  0.68241000  1.0
  C  C97  1  0.39108000  0.40539000  0.59457000  1.0
  C  C98  1  0.88900000  0.90711000  0.09167000  1.0
  C  C99  1  0.84654000  0.86331000  0.13424000  1.0
  C  C100  1  0.84136000  0.82708000  0.10777000  1.0
  C  C101  1  0.80206000  0.78598000  0.14800000  1.0
  C  C102  1  0.76652000  0.78024000  0.21556000  1.0
  C  C103  1  0.77187000  0.81710000  0.24146000  1.0
  C  C104  1  0.81142000  0.85787000  0.20153000  1.0
  C  C105  1  0.72441000  0.73706000  0.25846000  1.0
  C  C106  1  0.71974000  0.70187000  0.32575000  1.0
  C  C107  1  0.67887000  0.66245000  0.36688000  1.0
  C  C108  1  0.64199000  0.65652000  0.34158000  1.0
  C  C109  1  0.64698000  0.69054000  0.27437000  1.0
  C  C110  1  0.68741000  0.73046000  0.23353000  1.0
  C  C111  1  0.59783000  0.61450000  0.38578000  1.0
  C  C112  1  0.09909000  0.90590000  0.88782000  1.0
  C  C113  1  0.14242000  0.86247000  0.84516000  1.0
  C  C114  1  0.11592000  0.85631000  0.80958000  1.0
  C  C115  1  0.15642000  0.81594000  0.76972000  1.0
  C  C116  1  0.22431000  0.78037000  0.76453000  1.0
  C  C117  1  0.25030000  0.78680000  0.80059000  1.0
  C  C118  1  0.21006000  0.82739000  0.84023000  1.0
  C  C119  1  0.26705000  0.73757000  0.72218000  1.0
  C  C120  1  0.33502000  0.73196000  0.68671000  1.0
  C  C121  1  0.37524000  0.69188000  0.64656000  1.0
  C  C122  1  0.34832000  0.65665000  0.64039000  1.0
  C  C123  1  0.28064000  0.66186000  0.67552000  1.0
  C  C124  1  0.24073000  0.70154000  0.71605000  1.0
  C  C125  1  0.39108000  0.61413000  0.59682000  1.0
  C  C126  1  0.09652000  0.90569000  0.09786000  1.0
  C  C127  1  0.13890000  0.86256000  0.14169000  1.0
  C  C128  1  0.11156000  0.82726000  0.20854000  1.0
  C  C129  1  0.15143000  0.78663000  0.24901000  1.0
  C  C130  1  0.21951000  0.78045000  0.22407000  1.0
  C  C131  1  0.24623000  0.81654000  0.15707000  1.0
  C  C132  1  0.20666000  0.85683000  0.11633000  1.0
  C  C133  1  0.26205000  0.73714000  0.26679000  1.0
  C  C134  1  0.32994000  0.70152000  0.24049000  1.0
  C  C135  1  0.37043000  0.66108000  0.28030000  1.0
  C  C136  1  0.34396000  0.65488000  0.34781000  1.0
  C  C137  1  0.27632000  0.68981000  0.37470000  1.0
  C  C138  1  0.23603000  0.73045000  0.33464000  1.0
  C  C139  1  0.38754000  0.61175000  0.39038000  1.0
  O  O140  1  0.99437000  0.01008000  0.99123000  1.0
  O  O141  1  0.89934000  0.05353000  0.90962000  1.0
  O  O142  1  0.91746000  0.14387000  0.89469000  1.0
  O  O143  1  0.57582000  0.47114000  0.58446000  1.0
  O  O144  1  0.59265000  0.37980000  0.56681000  1.0
  O  O145  1  0.91530000  0.05140000  0.12457000  1.0
  O  O146  1  0.89915000  0.14268000  0.03361000  1.0
  O  O147  1  0.58926000  0.46760000  0.35814000  1.0
  O  O148  1  0.57420000  0.37632000  0.44922000  1.0
  O  O149  1  0.12916000  0.05019000  0.89787000  1.0
  O  O150  1  0.03800000  0.14153000  0.91521000  1.0
  O  O151  1  0.36128000  0.46778000  0.57152000  1.0
  O  O152  1  0.45400000  0.37677000  0.58493000  1.0
  O  O153  1  0.89657000  0.93286000  0.12113000  1.0
  O  O154  1  0.91441000  0.91536000  0.02939000  1.0
  O  O155  1  0.57219000  0.60470000  0.35787000  1.0
  O  O156  1  0.58913000  0.59179000  0.44797000  1.0
  O  O157  1  0.12777000  0.91332000  0.91460000  1.0
  O  O158  1  0.03678000  0.93221000  0.89417000  1.0
  O  O159  1  0.36165000  0.58898000  0.58831000  1.0
  O  O160  1  0.45370000  0.60626000  0.57138000  1.0
  O  O161  1  0.12622000  0.93112000  0.03608000  1.0
  O  O162  1  0.03386000  0.91379000  0.12553000  1.0
  O  O163  1  0.35950000  0.60533000  0.45226000  1.0
  O  O164  1  0.44956000  0.58466000  0.36152000  1.0
  O  O165  1  0.49422000  0.51033000  0.49156000  1.0
