# generated using pymatgen
data_AgH12C8N12O2F3
_symmetry_space_group_name_H-M   'P 1'
_cell_length_a   8.76260000
_cell_length_b   8.80912000
_cell_length_c   11.66620000
_cell_angle_alpha   109.75400000
_cell_angle_beta   102.05300000
_cell_angle_gamma   95.60330000
_symmetry_Int_Tables_number   1
_chemical_formula_structural   AgH12C8N12O2F3
_chemical_formula_sum   'Ag2 H24 C16 N24 O4 F6'
_cell_volume   814.88538022
_cell_formula_units_Z   2
loop_
 _symmetry_equiv_pos_site_id
 _symmetry_equiv_pos_as_xyz
  1  'x, y, z'
loop_
 _atom_site_type_symbol
 _atom_site_label
 _atom_site_symmetry_multiplicity
 _atom_site_fract_x
 _atom_site_fract_y
 _atom_site_fract_z
 _atom_site_occupancy
  Ag  Ag0  1  0.99413000  0.02153000  0.75856000  1.0
  Ag  Ag1  1  0.00587000  0.97847000  0.24144000  1.0
  H  H2  1  0.11199000  0.78130000  0.00598000  1.0
  H  H3  1  0.88801000  0.21870000  0.99402000  1.0
  H  H4  1  0.11191000  0.82276000  0.86844000  1.0
  H  H5  1  0.88809000  0.17724000  0.13156000  1.0
  H  H6  1  0.47535000  0.83772000  0.04538000  1.0
  H  H7  1  0.52465000  0.16228000  0.95462000  1.0
  H  H8  1  0.64783000  0.80813000  0.13581000  1.0
  H  H9  1  0.35217000  0.19188000  0.86419000  1.0
  H  H10  1  0.49024000  0.88748000  0.66151000  1.0
  H  H11  1  0.50976000  0.11252000  0.33849000  1.0
  H  H12  1  0.67116000  0.88308000  0.61657000  1.0
  H  H13  1  0.32884000  0.11692000  0.38343000  1.0
  H  H14  1  0.18890000  0.87557000  0.60917000  1.0
  H  H15  1  0.81110000  0.12443000  0.39083000  1.0
  H  H16  1  0.21190000  0.87140000  0.46168000  1.0
  H  H17  1  0.78810000  0.12860000  0.53832000  1.0
  H  H18  1  0.11997000  0.50277000  0.46898000  1.0
  H  H19  1  0.88003000  0.49723000  0.53102000  1.0
  H  H20  1  0.14803000  0.32097000  0.35988000  1.0
  H  H21  1  0.85197000  0.67903000  0.64012000  1.0
  H  H22  1  0.15432000  0.35267000  0.91397000  1.0
  H  H23  1  0.84568000  0.64733000  0.08603000  1.0
  H  H24  1  0.14219000  0.53186000  0.87851000  1.0
  H  H25  1  0.85781000  0.46815000  0.12149000  1.0
  C  C26  1  0.73870000  0.27128000  0.78360000  1.0
  C  C27  1  0.26130000  0.72872000  0.21640000  1.0
  C  C28  1  0.61774000  0.36675000  0.73316000  1.0
  C  C29  1  0.38226000  0.63324000  0.26684000  1.0
  C  C30  1  0.89843000  0.81611000  0.90849000  1.0
  C  C31  1  0.10157000  0.18389000  0.09151000  1.0
  C  C32  1  0.66636000  0.82329000  0.96837000  1.0
  C  C33  1  0.33364000  0.17670000  0.03163000  1.0
  C  C34  1  0.67697000  0.86425000  0.78815000  1.0
  C  C35  1  0.32302000  0.13575000  0.21185000  1.0
  C  C36  1  0.18815000  0.09221000  0.58516000  1.0
  C  C37  1  0.81185000  0.90779000  0.41484000  1.0
  C  C38  1  0.15916000  0.31933000  0.53694000  1.0
  C  C39  1  0.84084000  0.68067000  0.46306000  1.0
  C  C40  1  0.15319000  0.32967000  0.73254000  1.0
  C  C41  1  0.84681000  0.67033000  0.26746000  1.0
  N  N42  1  0.83659000  0.85949000  0.80923000  1.0
  N  N43  1  0.16341000  0.14051000  0.19077000  1.0
  N  N44  1  0.81828000  0.79465000  0.98965000  1.0
  N  N45  1  0.18172000  0.20534000  0.01035000  1.0
  N  N46  1  0.58982000  0.85267000  0.86743000  1.0
  N  N47  1  0.41018000  0.14733000  0.13257000  1.0
  N  N48  1  0.16350000  0.16621000  0.70081000  1.0
  N  N49  1  0.83651000  0.83379000  0.29919000  1.0
  N  N50  1  0.18799000  0.16327000  0.50009000  1.0
  N  N51  1  0.81201000  0.83673000  0.49991000  1.0
  N  N52  1  0.14607000  0.40904000  0.65194000  1.0
  N  N53  1  0.85393000  0.59096000  0.34806000  1.0
  N  N54  1  0.04961000  0.79220000  0.92419000  1.0
  N  N55  1  0.95039000  0.20780000  0.07581000  1.0
  N  N56  1  0.58898000  0.81954000  0.05511000  1.0
  N  N57  1  0.41102000  0.18046000  0.94489000  1.0
  N  N58  1  0.60739000  0.88225000  0.68110000  1.0
  N  N59  1  0.39261000  0.11775000  0.31890000  1.0
  N  N60  1  0.21762000  0.93713000  0.55489000  1.0
  N  N61  1  0.78238000  0.06287000  0.44511000  1.0
  N  N62  1  0.14068000  0.38687000  0.44841000  1.0
  N  N63  1  0.85932000  0.61313000  0.55159000  1.0
  N  N64  1  0.15109000  0.41174000  0.85128000  1.0
  N  N65  1  0.84892000  0.58827000  0.14873000  1.0
  O  O66  1  0.81685000  0.20649000  0.70654000  1.0
  O  O67  1  0.18315000  0.79351000  0.29346000  1.0
  O  O68  1  0.74548000  0.27024000  0.89166000  1.0
  O  O69  1  0.25452000  0.72976000  0.10833000  1.0
  F  F70  1  0.52372000  0.26978000  0.61628000  1.0
  F  F71  1  0.47628000  0.73022000  0.38372000  1.0
  F  F72  1  0.52070000  0.42238000  0.80829000  1.0
  F  F73  1  0.47930000  0.57762000  0.19171000  1.0
  F  F74  1  0.69565000  0.49957000  0.71951000  1.0
  F  F75  1  0.30435000  0.50043000  0.28049000  1.0
