# generated using pymatgen
data_Co3H18(C6O5)2
_symmetry_space_group_name_H-M   'P 1'
_cell_length_a   5.67566000
_cell_length_b   12.07820000
_cell_length_c   12.20120000
_cell_angle_alpha   73.22640000
_cell_angle_beta   84.11260000
_cell_angle_gamma   81.34290000
_symmetry_Int_Tables_number   1
_chemical_formula_structural   Co3H18(C6O5)2
_chemical_formula_sum   'Co6 H36 C24 O20'
_cell_volume   790.15597224
_cell_formula_units_Z   2
loop_
 _symmetry_equiv_pos_site_id
 _symmetry_equiv_pos_as_xyz
  1  'x, y, z'
loop_
 _atom_site_type_symbol
 _atom_site_label
 _atom_site_symmetry_multiplicity
 _atom_site_fract_x
 _atom_site_fract_y
 _atom_site_fract_z
 _atom_site_occupancy
  Co  Co0  1  0.22937000  0.05209000  0.24423000  1.0
  Co  Co1  1  0.77024000  0.94800000  0.75597000  1.0
  Co  Co2  1  0.50004000  0.99993000  0.50009000  1.0
  Co  Co3  1  0.77045000  0.94844000  0.25363000  1.0
  Co  Co4  1  0.22913000  0.05154000  0.74647000  1.0
  Co  Co5  1  0.99977000  0.00003000  0.00009000  1.0
  H  H6  1  0.78827000  0.35186000  0.27481000  1.0
  H  H7  1  0.21083000  0.64822000  0.72549000  1.0
  H  H8  1  0.07755000  0.27563000  0.26233000  1.0
  H  H9  1  0.92154000  0.72461000  0.73747000  1.0
  H  H10  1  0.68695000  0.44324000  0.43317000  1.0
  H  H11  1  0.31423000  0.55714000  0.56707000  1.0
  H  H12  1  0.81673000  0.37746000  0.56717000  1.0
  H  H13  1  0.18446000  0.62248000  0.43299000  1.0
  H  H14  1  0.61953000  0.30424000  0.51704000  1.0
  H  H15  1  0.38085000  0.69621000  0.48303000  1.0
  H  H16  1  0.33097000  0.34781000  0.35741000  1.0
  H  H17  1  0.66942000  0.65172000  0.64233000  1.0
  H  H18  1  0.22052000  0.40793000  0.47281000  1.0
  H  H19  1  0.78078000  0.59171000  0.52695000  1.0
  H  H20  1  0.10124000  0.46903000  0.33594000  1.0
  H  H21  1  0.89975000  0.53077000  0.66392000  1.0
  H  H22  1  0.02769000  0.42080000  0.90462000  1.0
  H  H23  1  0.97231000  0.57936000  0.09514000  1.0
  H  H24  1  0.10647000  0.33278000  0.04360000  1.0
  H  H25  1  0.89362000  0.66770000  0.95626000  1.0
  H  H26  1  0.24598000  0.46009000  0.97598000  1.0
  H  H27  1  0.75426000  0.54026000  0.02349000  1.0
  H  H28  1  0.60745000  0.34637000  0.74789000  1.0
  H  H29  1  0.39262000  0.65314000  0.25212000  1.0
  H  H30  1  0.31592000  0.42308000  0.73160000  1.0
  H  H31  1  0.68445000  0.57673000  0.26821000  1.0
  H  H32  1  0.52585000  0.46951000  0.80263000  1.0
  H  H33  1  0.47482000  0.53020000  0.19711000  1.0
  H  H34  1  0.75276000  0.24833000  0.93091000  1.0
  H  H35  1  0.24699000  0.75154000  0.06917000  1.0
  H  H36  1  0.62783000  0.34567000  0.01164000  1.0
  H  H37  1  0.37205000  0.65431000  0.98832000  1.0
  H  H38  1  0.22390000  0.87939000  0.17779000  1.0
  H  H39  1  0.77577000  0.12070000  0.82236000  1.0
  H  H40  1  0.41682000  0.87456000  0.38164000  1.0
  H  H41  1  0.58288000  0.12540000  0.61839000  1.0
  C  C42  1  0.97748000  0.30426000  0.43087000  1.0
  C  C43  1  0.02277000  0.69574000  0.56913000  1.0
  C  C44  1  0.80666000  0.16832000  0.34362000  1.0
  C  C45  1  0.19303000  0.83172000  0.65652000  1.0
  C  C46  1  0.91714000  0.27948000  0.32006000  1.0
  C  C47  1  0.08236000  0.72064000  0.68000000  1.0
  C  C48  1  0.76181000  0.36030000  0.49083000  1.0
  C  C49  1  0.23897000  0.63991000  0.50928000  1.0
  C  C50  1  0.17043000  0.38708000  0.39733000  1.0
  C  C51  1  0.83033000  0.61265000  0.60250000  1.0
  C  C52  1  0.28185000  0.20694000  0.88989000  1.0
  C  C53  1  0.71769000  0.79310000  0.11020000  1.0
  C  C54  1  0.37441000  0.31525000  0.90565000  1.0
  C  C55  1  0.62548000  0.68477000  0.09429000  1.0
  C  C56  1  0.17585000  0.38582000  0.96137000  1.0
  C  C57  1  0.82421000  0.61444000  0.03837000  1.0
  C  C58  1  0.46173000  0.39278000  0.79004000  1.0
  C  C59  1  0.53853000  0.60697000  0.20983000  1.0
  C  C60  1  0.59289000  0.27237000  0.98155000  1.0
  C  C61  1  0.40686000  0.72759000  0.01849000  1.0
  C  C62  1  0.55730000  0.17076000  0.08498000  1.0
  C  C63  1  0.44227000  0.82926000  0.91509000  1.0
  C  C64  1  0.08714000  0.18997000  0.51368000  1.0
  C  C65  1  0.91285000  0.80992000  0.48627000  1.0
  O  O66  1  0.13295000  0.15758000  0.96706000  1.0
  O  O67  1  0.86670000  0.84248000  0.03310000  1.0
  O  O68  1  0.63674000  0.15142000  0.41794000  1.0
  O  O69  1  0.36337000  0.84849000  0.58242000  1.0
  O  O70  1  0.88982000  0.09532000  0.28415000  1.0
  O  O71  1  0.10965000  0.90479000  0.71590000  1.0
  O  O72  1  0.39551000  0.18651000  0.16196000  1.0
  O  O73  1  0.60405000  0.81358000  0.83810000  1.0
  O  O74  1  0.18203000  0.10807000  0.47110000  1.0
  O  O75  1  0.81817000  0.89194000  0.52872000  1.0
  O  O76  1  0.07865000  0.18599000  0.61946000  1.0
  O  O77  1  0.92101000  0.81379000  0.38050000  1.0
  O  O78  1  0.36420000  0.17360000  0.80200000  1.0
  O  O79  1  0.63516000  0.82634000  0.19811000  1.0
  O  O80  1  0.68391000  0.07214000  0.09191000  1.0
  O  O81  1  0.31564000  0.92786000  0.90820000  1.0
  O  O82  1  0.11604000  0.95250000  0.16179000  1.0
  O  O83  1  0.88359000  0.04757000  0.83838000  1.0
  O  O84  1  0.45502000  0.95460000  0.35317000  1.0
  O  O85  1  0.54468000  0.04536000  0.64695000  1.0
