# generated using pymatgen
data_ZnH10C15N4O3
_symmetry_space_group_name_H-M   'P 1'
_cell_length_a   7.85700000
_cell_length_b   11.23820000
_cell_length_c   15.12790000
_cell_angle_alpha   87.47340000
_cell_angle_beta   89.99980000
_cell_angle_gamma   89.99950000
_symmetry_Int_Tables_number   1
_chemical_formula_structural   ZnH10C15N4O3
_chemical_formula_sum   'Zn4 H40 C60 N16 O12'
_cell_volume   1334.47289141
_cell_formula_units_Z   4
loop_
 _symmetry_equiv_pos_site_id
 _symmetry_equiv_pos_as_xyz
  1  'x, y, z'
loop_
 _atom_site_type_symbol
 _atom_site_label
 _atom_site_symmetry_multiplicity
 _atom_site_fract_x
 _atom_site_fract_y
 _atom_site_fract_z
 _atom_site_occupancy
  Zn  Zn0  1  0.21237000  0.38938000  0.25298000  1.0
  Zn  Zn1  1  0.71237000  0.11062000  0.24702000  1.0
  Zn  Zn2  1  0.78762000  0.61062000  0.74703000  1.0
  Zn  Zn3  1  0.28762000  0.88938000  0.75298000  1.0
  H  H4  1  0.32824000  0.23434000  0.57837000  1.0
  H  H5  1  0.82824000  0.26566000  0.92163000  1.0
  H  H6  1  0.67176000  0.76566000  0.42163000  1.0
  H  H7  1  0.17176000  0.73434000  0.07837000  1.0
  H  H8  1  0.63736000  0.32144000  0.60435000  1.0
  H  H9  1  0.13736000  0.17855000  0.89565000  1.0
  H  H10  1  0.36265000  0.67855000  0.39564000  1.0
  H  H11  1  0.86264000  0.82145000  0.10436000  1.0
  H  H12  1  0.88373000  0.42735000  0.53191000  1.0
  H  H13  1  0.38373000  0.07264000  0.96809000  1.0
  H  H14  1  0.11627000  0.57264000  0.46808000  1.0
  H  H15  1  0.61627000  0.92736000  0.03192000  1.0
  H  H16  1  0.86209000  0.49916000  0.37127000  1.0
  H  H17  1  0.36208000  0.00083000  0.12873000  1.0
  H  H18  1  0.13792000  0.50083000  0.62873000  1.0
  H  H19  1  0.63792000  0.99918000  0.87127000  1.0
  H  H20  1  0.58835000  0.47057000  0.29050000  1.0
  H  H21  1  0.08834000  0.02943000  0.20950000  1.0
  H  H22  1  0.41166000  0.52943000  0.70950000  1.0
  H  H23  1  0.91165000  0.97057000  0.79050000  1.0
  H  H24  1  0.06299000  0.71501000  0.24035000  1.0
  H  H25  1  0.56299000  0.78499000  0.25965000  1.0
  H  H26  1  0.93701000  0.28499000  0.75965000  1.0
  H  H27  1  0.43700000  0.21501000  0.74035000  1.0
  H  H28  1  0.61743000  0.00428000  0.44708000  1.0
  H  H29  1  0.11742000  0.49573000  0.05292000  1.0
  H  H30  1  0.38257000  0.99572000  0.55292000  1.0
  H  H31  1  0.88257000  0.50428000  0.94708000  1.0
  H  H32  1  0.08060000  0.20324000  0.60813000  1.0
  H  H33  1  0.58059000  0.29676000  0.89186000  1.0
  H  H34  1  0.91941000  0.79676000  0.39186000  1.0
  H  H35  1  0.41940000  0.70324000  0.10814000  1.0
  H  H36  1  0.63596000  0.97921000  0.61421000  1.0
  H  H37  1  0.13595000  0.52079000  0.88579000  1.0
  H  H38  1  0.36404000  0.02079000  0.38579000  1.0
  H  H39  1  0.86405000  0.47920000  0.11421000  1.0
  H  H40  1  0.86715000  0.08598000  0.69268000  1.0
  H  H41  1  0.36714000  0.41402000  0.80732000  1.0
  H  H42  1  0.13285000  0.91402000  0.30732000  1.0
  H  H43  1  0.63286000  0.58598000  0.19268000  1.0
  C  C44  1  0.07025000  0.23395000  0.42403000  1.0
  C  C45  1  0.57025000  0.26605000  0.07597000  1.0
  C  C46  1  0.92975000  0.76605000  0.57597000  1.0
  C  C47  1  0.42975000  0.73395000  0.92403000  1.0
  C  C48  1  0.34007000  0.27807000  0.51363000  1.0
  C  C49  1  0.84007000  0.22192000  0.98637000  1.0
  C  C50  1  0.65994000  0.72193000  0.48637000  1.0
  C  C51  1  0.15993000  0.77807000  0.01363000  1.0
  C  C52  1  0.98936000  0.22274000  0.34060000  1.0
  C  C53  1  0.48935000  0.27726000  0.15940000  1.0
  C  C54  1  0.01065000  0.77726000  0.65940000  1.0
  C  C55  1  0.51064000  0.72275000  0.84060000  1.0
  C  C56  1  0.23178000  0.28707000  0.44061000  1.0
  C  C57  1  0.73178000  0.21293000  0.05940000  1.0
  C  C58  1  0.76822000  0.71293000  0.55940000  1.0
  C  C59  1  0.26822000  0.78707000  0.94060000  1.0
  C  C60  1  0.46828000  0.38203000  0.40210000  1.0
  C  C61  1  0.96828000  0.11797000  0.09790000  1.0
  C  C62  1  0.53172000  0.61797000  0.59789000  1.0
  C  C63  1  0.03172000  0.88203000  0.90210000  1.0
  C  C64  1  0.63484000  0.35515000  0.53577000  1.0
  C  C65  1  0.13484000  0.14485000  0.96422000  1.0
  C  C66  1  0.36516000  0.64485000  0.46422000  1.0
  C  C67  1  0.86516000  0.85516000  0.03578000  1.0
  C  C68  1  0.76771000  0.41414000  0.49434000  1.0
  C  C69  1  0.26771000  0.08585000  0.00565000  1.0
  C  C70  1  0.23229000  0.58585000  0.50565000  1.0
  C  C71  1  0.73229000  0.91415000  0.99435000  1.0
  C  C72  1  0.75433000  0.45624000  0.40501000  1.0
  C  C73  1  0.25433000  0.04376000  0.09499000  1.0
  C  C74  1  0.24568000  0.54376000  0.59499000  1.0
  C  C75  1  0.74567000  0.95624000  0.90502000  1.0
  C  C76  1  0.60448000  0.44084000  0.35925000  1.0
  C  C77  1  0.10448000  0.05916000  0.14075000  1.0
  C  C78  1  0.39552000  0.55915000  0.64075000  1.0
  C  C79  1  0.89552000  0.94085000  0.85925000  1.0
  C  C80  1  0.14972000  0.63667000  0.24457000  1.0
  C  C81  1  0.64970000  0.86333000  0.25543000  1.0
  C  C82  1  0.85029000  0.36333000  0.75543000  1.0
  C  C83  1  0.35029000  0.13667000  0.74457000  1.0
  C  C84  1  0.71661000  0.04661000  0.48478000  1.0
  C  C85  1  0.21660000  0.45339000  0.01522000  1.0
  C  C86  1  0.28339000  0.95339000  0.51522000  1.0
  C  C87  1  0.78339000  0.54661000  0.98478000  1.0
  C  C88  1  0.83671000  0.11668000  0.43864000  1.0
  C  C89  1  0.33670000  0.38332000  0.06135000  1.0
  C  C90  1  0.16330000  0.88332000  0.56136000  1.0
  C  C91  1  0.66330000  0.61669000  0.93864000  1.0
  C  C92  1  0.97908000  0.15742000  0.57501000  1.0
  C  C93  1  0.47908000  0.34258000  0.92499000  1.0
  C  C94  1  0.02092000  0.84259000  0.42499000  1.0
  C  C95  1  0.52092000  0.65741000  0.07501000  1.0
  C  C96  1  0.72759000  0.03321000  0.57628000  1.0
  C  C97  1  0.22758000  0.46679000  0.92372000  1.0
  C  C98  1  0.27241000  0.96679000  0.42372000  1.0
  C  C99  1  0.77242000  0.53321000  0.07628000  1.0
  C  C100  1  0.85836000  0.09114000  0.62102000  1.0
  C  C101  1  0.35836000  0.40886000  0.87898000  1.0
  C  C102  1  0.14164000  0.90886000  0.37898000  1.0
  C  C103  1  0.64165000  0.59114000  0.12102000  1.0
  N  N104  1  0.48793000  0.33767000  0.48908000  1.0
  N  N105  1  0.98792000  0.16233000  0.01092000  1.0
  N  N106  1  0.51208000  0.66233000  0.51092000  1.0
  N  N107  1  0.01207000  0.83767000  0.98908000  1.0
  N  N108  1  0.31221000  0.35391000  0.37315000  1.0
  N  N109  1  0.81220000  0.14609000  0.12685000  1.0
  N  N110  1  0.68780000  0.64609000  0.62685000  1.0
  N  N111  1  0.18779000  0.85391000  0.87315000  1.0
  N  N112  1  0.97034000  0.16874000  0.48480000  1.0
  N  N113  1  0.47033000  0.33126000  0.01521000  1.0
  N  N114  1  0.02966000  0.83125000  0.51520000  1.0
  N  N115  1  0.52966000  0.66874000  0.98480000  1.0
  N  N116  1  0.84986000  0.14812000  0.35169000  1.0
  N  N117  1  0.34986000  0.35189000  0.14831000  1.0
  N  N118  1  0.15014000  0.85188000  0.64831000  1.0
  N  N119  1  0.65014000  0.64812000  0.85170000  1.0
  O  O120  1  0.02750000  0.26876000  0.26427000  1.0
  O  O121  1  0.52750000  0.23125000  0.23573000  1.0
  O  O122  1  0.97250000  0.73125000  0.73573000  1.0
  O  O123  1  0.47250000  0.76875000  0.76427000  1.0
  O  O124  1  0.07078000  0.53579000  0.24298000  1.0
  O  O125  1  0.57078000  0.96422000  0.25703000  1.0
  O  O126  1  0.92922000  0.46422000  0.75703000  1.0
  O  O127  1  0.42922000  0.03579000  0.74298000  1.0
  O  O128  1  0.30687000  0.65099000  0.25020000  1.0
  O  O129  1  0.80688000  0.84901000  0.24980000  1.0
  O  O130  1  0.69313000  0.34901000  0.74980000  1.0
  O  O131  1  0.19311000  0.15099000  0.75020000  1.0
