# generated using pymatgen
data_CuH4C6BrN2
_symmetry_space_group_name_H-M   'P 1'
_cell_length_a   3.81976000
_cell_length_b   12.65320000
_cell_length_c   14.87590000
_cell_angle_alpha   89.99990000
_cell_angle_beta   89.99950000
_cell_angle_gamma   82.32340000
_symmetry_Int_Tables_number   1
_chemical_formula_structural   CuH4C6BrN2
_chemical_formula_sum   'Cu4 H16 C24 Br4 N8'
_cell_volume   712.54112588
_cell_formula_units_Z   4
loop_
 _symmetry_equiv_pos_site_id
 _symmetry_equiv_pos_as_xyz
  1  'x, y, z'
loop_
 _atom_site_type_symbol
 _atom_site_label
 _atom_site_symmetry_multiplicity
 _atom_site_fract_x
 _atom_site_fract_y
 _atom_site_fract_z
 _atom_site_occupancy
  Cu  Cu0  1  0.48902000  0.96403000  0.74614000  1.0
  Cu  Cu1  1  0.51099000  0.53597000  0.24614000  1.0
  Cu  Cu2  1  0.51098000  0.03597000  0.25386000  1.0
  Cu  Cu3  1  0.48902000  0.46402000  0.75386000  1.0
  H  H4  1  0.30776000  0.74594000  0.72107000  1.0
  H  H5  1  0.69222000  0.75406000  0.22107000  1.0
  H  H6  1  0.69222000  0.25406000  0.27892000  1.0
  H  H7  1  0.30774000  0.24593000  0.77893000  1.0
  H  H8  1  0.28715000  0.61739000  0.59747000  1.0
  H  H9  1  0.71283000  0.88261000  0.09749000  1.0
  H  H10  1  0.71284000  0.38261000  0.40251000  1.0
  H  H11  1  0.28713000  0.11739000  0.90253000  1.0
  H  H12  1  0.72506000  0.84285000  0.42293000  1.0
  H  H13  1  0.27495000  0.65715000  0.92294000  1.0
  H  H14  1  0.27497000  0.15715000  0.57706000  1.0
  H  H15  1  0.72506000  0.34286000  0.07707000  1.0
  H  H16  1  0.74326000  0.96019000  0.55776000  1.0
  H  H17  1  0.25675000  0.53982000  0.05775000  1.0
  H  H18  1  0.25675000  0.03982000  0.44224000  1.0
  H  H19  1  0.74326000  0.46018000  0.94224000  1.0
  C  C20  1  0.40031000  0.76470000  0.65448000  1.0
  C  C21  1  0.59968000  0.73529000  0.15448000  1.0
  C  C22  1  0.59967000  0.23529000  0.34552000  1.0
  C  C23  1  0.40030000  0.26471000  0.84553000  1.0
  C  C24  1  0.38644000  0.69269000  0.58452000  1.0
  C  C25  1  0.61355000  0.80731000  0.08452000  1.0
  C  C26  1  0.61356000  0.30731000  0.41547000  1.0
  C  C27  1  0.38642000  0.19269000  0.91549000  1.0
  C  C28  1  0.50215000  0.71996000  0.49898000  1.0
  C  C29  1  0.49786000  0.78004000  0.99898000  1.0
  C  C30  1  0.49787000  0.28004000  0.50101000  1.0
  C  C31  1  0.50212000  0.21997000  0.00102000  1.0
  C  C32  1  0.63056000  0.81859000  0.48794000  1.0
  C  C33  1  0.36946000  0.68141000  0.98794000  1.0
  C  C34  1  0.36944000  0.18142000  0.51206000  1.0
  C  C35  1  0.63056000  0.31859000  0.01206000  1.0
  C  C36  1  0.63881000  0.88417000  0.56223000  1.0
  C  C37  1  0.36120000  0.61584000  0.06223000  1.0
  C  C38  1  0.36119000  0.11584000  0.43777000  1.0
  C  C39  1  0.63878000  0.38416000  0.93777000  1.0
  C  C40  1  0.49290000  0.65092000  0.42431000  1.0
  C  C41  1  0.50711000  0.84908000  0.92432000  1.0
  C  C42  1  0.50714000  0.34907000  0.57568000  1.0
  C  C43  1  0.49290000  0.15093000  0.07569000  1.0
  Br  Br44  1  0.93764000  0.08435000  0.71148000  1.0
  Br  Br45  1  0.06237000  0.41565000  0.21149000  1.0
  Br  Br46  1  0.06236000  0.91566000  0.28851000  1.0
  Br  Br47  1  0.93766000  0.58434000  0.78852000  1.0
  N  N48  1  0.52331000  0.85911000  0.64441000  1.0
  N  N49  1  0.47668000  0.64088000  0.14441000  1.0
  N  N50  1  0.47666000  0.14088000  0.35559000  1.0
  N  N51  1  0.52333000  0.35911000  0.85559000  1.0
  N  N52  1  0.49190000  0.59618000  0.36075000  1.0
  N  N53  1  0.50813000  0.90383000  0.86075000  1.0
  N  N54  1  0.50815000  0.40382000  0.63925000  1.0
  N  N55  1  0.49189000  0.09617000  0.13926000  1.0
