# generated using pymatgen
data_NaH12C6SNO3
_symmetry_space_group_name_H-M   'P 1'
_cell_length_a   6.27613000
_cell_length_b   8.44235000
_cell_length_c   15.73141514
_cell_angle_alpha   86.27643193
_cell_angle_beta   78.50183144
_cell_angle_gamma   89.99260000
_symmetry_Int_Tables_number   1
_chemical_formula_structural   NaH12C6SNO3
_chemical_formula_sum   'Na4 H48 C24 S4 N4 O12'
_cell_volume   815.01111622
_cell_formula_units_Z   4
loop_
 _symmetry_equiv_pos_site_id
 _symmetry_equiv_pos_as_xyz
  1  'x, y, z'
loop_
 _atom_site_type_symbol
 _atom_site_label
 _atom_site_symmetry_multiplicity
 _atom_site_fract_x
 _atom_site_fract_y
 _atom_site_fract_z
 _atom_site_occupancy
  Na  Na0  1  0.60203000  0.18735000  0.53767000  1.0
  Na  Na1  1  0.13975000  0.31266000  0.46240000  1.0
  Na  Na2  1  0.39797000  0.81265000  0.46233000  1.0
  Na  Na3  1  0.86025000  0.68734000  0.53760000  1.0
  H  H4  1  0.11246000  0.87944000  0.77311000  1.0
  H  H5  1  0.88553000  0.62035000  0.22692000  1.0
  H  H6  1  0.88755000  0.12055000  0.22689000  1.0
  H  H7  1  0.11447000  0.37965000  0.77308000  1.0
  H  H8  1  0.47188000  0.90336000  0.67118000  1.0
  H  H9  1  0.14289000  0.59596000  0.32885000  1.0
  H  H10  1  0.52812000  0.09664000  0.32882000  1.0
  H  H11  1  0.85711000  0.40403000  0.67115000  1.0
  H  H12  1  0.53815000  0.07189000  0.72298000  1.0
  H  H13  1  0.26055000  0.42723000  0.27710000  1.0
  H  H14  1  0.46186000  0.92811000  0.27701000  1.0
  H  H15  1  0.73946000  0.57277000  0.72289000  1.0
  H  H16  1  0.70866000  0.83314000  0.77695000  1.0
  H  H17  1  0.48572000  0.66571000  0.22321000  1.0
  H  H18  1  0.29134000  0.16686000  0.22305000  1.0
  H  H19  1  0.51427000  0.33428000  0.77680000  1.0
  H  H20  1  0.45550000  0.73181000  0.80253000  1.0
  H  H21  1  0.25845000  0.76736000  0.19749000  1.0
  H  H22  1  0.54449000  0.26819000  0.19747000  1.0
  H  H23  1  0.74155000  0.23264000  0.80251000  1.0
  H  H24  1  0.54335000  0.82669000  0.93749000  1.0
  H  H25  1  0.48105000  0.67235000  0.06262000  1.0
  H  H26  1  0.45664000  0.17330000  0.06251000  1.0
  H  H27  1  0.51896000  0.32765000  0.93738000  1.0
  H  H28  1  0.58638000  0.02196000  0.88955000  1.0
  H  H29  1  0.47581000  0.47699000  0.11049000  1.0
  H  H30  1  0.41361000  0.97804000  0.11046000  1.0
  H  H31  1  0.52419000  0.52300000  0.88951000  1.0
  H  H32  1  0.22309000  0.00354000  0.98448000  1.0
  H  H33  1  0.20741000  0.49602000  0.01552000  1.0
  H  H34  1  0.77691000  0.99645000  0.01552000  1.0
  H  H35  1  0.79260000  0.50398000  0.98448000  1.0
  H  H36  1  0.15195000  0.83892000  0.93196000  1.0
  H  H37  1  0.08432000  0.66082000  0.06812000  1.0
  H  H38  1  0.84804000  0.16108000  0.06804000  1.0
  H  H39  1  0.91568000  0.33918000  0.93188000  1.0
  H  H40  1  0.24861000  0.17695000  0.84947000  1.0
  H  H41  1  0.09742000  0.32261000  0.15052000  1.0
  H  H42  1  0.75140000  0.82305000  0.15053000  1.0
  H  H43  1  0.90258000  0.67739000  0.84948000  1.0
  H  H44  1  0.99003000  0.08233000  0.87602000  1.0
  H  H45  1  0.86577000  0.41764000  0.12388000  1.0
  H  H46  1  0.00997000  0.91767000  0.12398000  1.0
  H  H47  1  0.13423000  0.58237000  0.87612000  1.0
  H  H48  1  0.18993000  0.20553000  0.69190000  1.0
  H  H49  1  0.88168000  0.29428000  0.30816000  1.0
  H  H50  1  0.81007000  0.79448000  0.30810000  1.0
  H  H51  1  0.11832000  0.70572000  0.69184000  1.0
  C  C52  1  0.20502000  0.99170000  0.76553000  1.0
  C  C53  1  0.97032000  0.50797000  0.23445000  1.0
  C  C54  1  0.79499000  0.00830000  0.23447000  1.0
  C  C55  1  0.02968000  0.49203000  0.76555000  1.0
  C  C56  1  0.44667000  0.95848000  0.73370000  1.0
  C  C57  1  0.18015000  0.54080000  0.26635000  1.0
  C  C58  1  0.55333000  0.04153000  0.26630000  1.0
  C  C59  1  0.81984000  0.45919000  0.73366000  1.0
  C  C60  1  0.53358000  0.84934000  0.80008000  1.0
  C  C61  1  0.33378000  0.64976000  0.20004000  1.0
  C  C62  1  0.46642000  0.15067000  0.19992000  1.0
  C  C63  1  0.66622000  0.35024000  0.79997000  1.0
  C  C64  1  0.48936000  0.91269000  0.89071000  1.0
  C  C65  1  0.38020000  0.58642000  0.10938000  1.0
  C  C66  1  0.51064000  0.08731000  0.10929000  1.0
  C  C67  1  0.61980000  0.41358000  0.89063000  1.0
  C  C68  1  0.24875000  0.94993000  0.92145000  1.0
  C  C69  1  0.17029000  0.54960000  0.07857000  1.0
  C  C70  1  0.75124000  0.05007000  0.07855000  1.0
  C  C71  1  0.82971000  0.45040000  0.92143000  1.0
  C  C72  1  0.16485000  0.06074000  0.85493000  1.0
  C  C73  1  0.01950000  0.43894000  0.14503000  1.0
  C  C74  1  0.83515000  0.93926000  0.14507000  1.0
  C  C75  1  0.98049000  0.56106000  0.85497000  1.0
  S  S76  1  0.07028000  0.03734000  0.61225000  1.0
  S  S77  1  0.68258000  0.46256000  0.38782000  1.0
  S  S78  1  0.92972000  0.96267000  0.38775000  1.0
  S  S79  1  0.31742000  0.53744000  0.61218000  1.0
  N  N80  1  0.10779000  0.09834000  0.70608000  1.0
  N  N81  1  0.81364000  0.40147000  0.29396000  1.0
  N  N82  1  0.89221000  0.90166000  0.29392000  1.0
  N  N83  1  0.18636000  0.59853000  0.70604000  1.0
  O  O84  1  0.92573000  0.15733000  0.58316000  1.0
  O  O85  1  0.50859000  0.34290000  0.41683000  1.0
  O  O86  1  0.07427000  0.84267000  0.41684000  1.0
  O  O87  1  0.49142000  0.65709000  0.58316000  1.0
  O  O88  1  0.28005000  0.03847000  0.54882000  1.0
  O  O89  1  0.82882000  0.46091000  0.45132000  1.0
  O  O90  1  0.71995000  0.96153000  0.45119000  1.0
  O  O91  1  0.17118000  0.53909000  0.54868000  1.0
  O  O92  1  0.97436000  0.87725000  0.63153000  1.0
  O  O93  1  0.60663000  0.62289000  0.36859000  1.0
  O  O94  1  0.02564000  0.12274000  0.36847000  1.0
  O  O95  1  0.39336000  0.37711000  0.63141000  1.0
