# generated using pymatgen
data_Zn4H49C53N17O13
_symmetry_space_group_name_H-M   'P 1'
_cell_length_a   17.80220000
_cell_length_b   19.25160000
_cell_length_c   19.28410000
_cell_angle_alpha   94.35980000
_cell_angle_beta   98.99940000
_cell_angle_gamma   104.41300000
_symmetry_Int_Tables_number   1
_chemical_formula_structural   Zn4H49C53N17O13
_chemical_formula_sum   'Zn4 H49 C53 N17 O13'
_cell_volume   6276.44160080
_cell_formula_units_Z   1
loop_
 _symmetry_equiv_pos_site_id
 _symmetry_equiv_pos_as_xyz
  1  'x, y, z'
loop_
 _atom_site_type_symbol
 _atom_site_label
 _atom_site_symmetry_multiplicity
 _atom_site_fract_x
 _atom_site_fract_y
 _atom_site_fract_z
 _atom_site_occupancy
  Zn  Zn0  1  0.57307000  0.45771000  0.45476000  1.0
  Zn  Zn1  1  0.43227000  0.43031000  0.54819000  1.0
  Zn  Zn2  1  0.43914000  0.54125000  0.43683000  1.0
  Zn  Zn3  1  0.56838000  0.57591000  0.57756000  1.0
  H  H4  1  0.61421000  0.53448000  0.93424000  1.0
  H  H5  1  0.96305000  0.64853000  0.69692000  1.0
  H  H6  1  0.80586000  0.48655000  0.48611000  1.0
  H  H7  1  0.14898000  0.54629000  0.60207000  1.0
  H  H8  1  0.85683000  0.43289000  0.42599000  1.0
  H  H9  1  0.07732000  0.66653000  0.70400000  1.0
  H  H10  1  0.15394000  0.63293000  0.69375000  1.0
  H  H11  1  0.98019000  0.30681000  0.31570000  1.0
  H  H12  1  0.02821000  0.24457000  0.23585000  1.0
  H  H13  1  0.10796000  0.25483000  0.30815000  1.0
  H  H14  1  0.11473000  0.31658000  0.24358000  1.0
  H  H15  1  0.59236000  0.43463000  0.24610000  1.0
  H  H16  1  0.68928000  0.56133000  0.85038000  1.0
  H  H17  1  0.68962000  0.45360000  0.77533000  1.0
  H  H18  1  0.72676000  0.53474000  0.73669000  1.0
  H  H19  1  0.62953000  0.48177000  0.70656000  1.0
  H  H20  1  0.65184000  0.40914000  0.14041000  1.0
  H  H21  1  0.61218000  0.42860000  0.05914000  1.0
  H  H22  1  0.39159000  0.59581000  0.10952000  1.0
  H  H23  1  0.42535000  0.56641000  0.03476000  1.0
  H  H24  1  0.34589000  0.47824000  0.93051000  1.0
  H  H25  1  0.22457000  0.45978000  0.85810000  1.0
  H  H26  1  0.37677000  0.47140000  0.74552000  1.0
  H  H27  1  0.25993000  0.41603000  0.79049000  1.0
  H  H28  1  0.27488000  0.51158000  0.79828000  1.0
  H  H29  1  0.45001000  0.64658000  0.20902000  1.0
  H  H30  1  0.44551000  0.60212000  0.28155000  1.0
  H  H31  1  0.63554000  0.30651000  0.47626000  1.0
  H  H32  1  0.68375000  0.24254000  0.50077000  1.0
  H  H33  1  0.61543000  0.05828000  0.49082000  1.0
  H  H34  1  0.65729000  0.13693000  0.45422000  1.0
  H  H35  1  0.64949000  0.74865000  0.56457000  1.0
  H  H36  1  0.70115000  0.83959000  0.58023000  1.0
  H  H37  1  0.20164000  0.49681000  0.54506000  1.0
  H  H38  1  0.34542000  0.85457000  0.41984000  1.0
  H  H39  1  0.27728000  0.91606000  0.48566000  1.0
  H  H40  1  0.30742000  0.85577000  0.54391000  1.0
  H  H41  1  0.36306000  0.94835000  0.55249000  1.0
  H  H42  1  0.32292000  0.75920000  0.45878000  1.0
  H  H43  1  0.36916000  0.68928000  0.45624000  1.0
  H  H44  1  0.85993000  0.67520000  0.71981000  1.0
  H  H45  1  0.82974000  0.75735000  0.63844000  1.0
  H  H46  1  0.74971000  0.72652000  0.68450000  1.0
  H  H47  1  0.74455000  0.68779000  0.59702000  1.0
  H  H48  1  0.64361000  0.93242000  0.55462000  1.0
  H  H49  1  0.38160000  0.21374000  0.52487000  1.0
  H  H50  1  0.37574000  0.08393000  0.53880000  1.0
  H  H51  1  0.19465000  0.37214000  0.34971000  1.0
  H  H52  1  0.92257000  0.37122000  0.35168000  1.0
  C  C53  1  0.50233000  0.50652000  0.69163000  1.0
  C  C54  1  0.91981000  0.43927000  0.44237000  1.0
  C  C55  1  0.95735000  0.40363000  0.40034000  1.0
  C  C56  1  0.51960000  0.50848000  0.32012000  1.0
  C  C57  1  0.03989000  0.41131000  0.41717000  1.0
  C  C58  1  0.08391000  0.45617000  0.48027000  1.0
  C  C59  1  0.08018000  0.37677000  0.37152000  1.0
  C  C60  1  0.16232000  0.39363000  0.38569000  1.0
  C  C61  1  0.16628000  0.46543000  0.49640000  1.0
  C  C62  1  0.52151000  0.51033000  0.24375000  1.0
  C  C63  1  0.48129000  0.55207000  0.20230000  1.0
  C  C64  1  0.85002000  0.61087000  0.63138000  1.0
  C  C65  1  0.47842000  0.54452000  0.12795000  1.0
  C  C66  1  0.52260000  0.50229000  0.09694000  1.0
  C  C67  1  0.56654000  0.46354000  0.14095000  1.0
  C  C68  1  0.49897000  0.31457000  0.49679000  1.0
  C  C69  1  0.56332000  0.46674000  0.21250000  1.0
  C  C70  1  0.56274000  0.52209000  0.89181000  1.0
  C  C71  1  0.57246000  0.52351000  0.82120000  1.0
  C  C72  1  0.48841000  0.50808000  0.91141000  1.0
  C  C73  1  0.50273000  0.50517000  0.76888000  1.0
  C  C74  1  0.42814000  0.48726000  0.78784000  1.0
  C  C75  1  0.84304000  0.52250000  0.53149000  1.0
  C  C76  1  0.41859000  0.49043000  0.85863000  1.0
  C  C77  1  0.51152000  0.76537000  0.50794000  1.0
  C  C78  1  0.44319000  0.79025000  0.48407000  1.0
  C  C79  1  0.44624000  0.86516000  0.48958000  1.0
  C  C80  1  0.50597000  0.68832000  0.50912000  1.0
  C  C81  1  0.52021000  0.91543000  0.51562000  1.0
  C  C82  1  0.58771000  0.89165000  0.53629000  1.0
  C  C83  1  0.58534000  0.81865000  0.53398000  1.0
  C  C84  1  0.56060000  0.13743000  0.49870000  1.0
  C  C85  1  0.56451000  0.21186000  0.49229000  1.0
  C  C86  1  0.92358000  0.52578000  0.54823000  1.0
  C  C87  1  0.49190000  0.09193000  0.51631000  1.0
  C  C88  1  0.49889000  0.23823000  0.50117000  1.0
  C  C89  1  0.43072000  0.19136000  0.51798000  1.0
  C  C90  1  0.42763000  0.12058000  0.52592000  1.0
  C  C91  1  0.29214000  0.45420000  0.46395000  1.0
  C  C92  1  0.71737000  0.54529000  0.54884000  1.0
  C  C93  1  0.80482000  0.56219000  0.57053000  1.0
  C  C94  1  0.20435000  0.43701000  0.44849000  1.0
  C  C95  1  0.92958000  0.61251000  0.64973000  1.0
  C  C96  1  0.07416000  0.28415000  0.27371000  1.0
  C  C97  1  0.96770000  0.57206000  0.61040000  1.0
  C  C98  1  0.67501000  0.50130000  0.75393000  1.0
  C  C99  1  0.27326000  0.46501000  0.82872000  1.0
  C  C100  1  0.32862000  0.90181000  0.51443000  1.0
  C  C101  1  0.78438000  0.70958000  0.64721000  1.0
  C  C102  1  0.96147000  0.48507000  0.50504000  1.0
  C  C103  1  0.04356000  0.49282000  0.52484000  1.0
  C  C104  1  0.08574000  0.53945000  0.58697000  1.0
  C  C105  1  0.05093000  0.57830000  0.62910000  1.0
  N  N106  1  0.52851000  0.49440000  0.02644000  1.0
  N  N107  1  0.34583000  0.47399000  0.87786000  1.0
  N  N108  1  0.43901000  0.59765000  0.22780000  1.0
  N  N109  1  0.63366000  0.25312000  0.47614000  1.0
  N  N110  1  0.62479000  0.11301000  0.48900000  1.0
  N  N111  1  0.65473000  0.80013000  0.55332000  1.0
  N  N112  1  0.37794000  0.88695000  0.46412000  1.0
  N  N113  1  0.37195000  0.74263000  0.45483000  1.0
  N  N114  1  0.81942000  0.65391000  0.67509000  1.0
  N  N115  1  0.47698000  0.51155000  0.98120000  1.0
  N  N116  1  0.53569000  0.99037000  0.51671000  1.0
  N  N117  1  0.47857000  0.01850000  0.52252000  1.0
  N  N118  1  0.09460000  0.62175000  0.69045000  1.0
  N  N119  1  0.03738000  0.32918000  0.31333000  1.0
  N  N120  1  0.64836000  0.54523000  0.80521000  1.0
  N  N121  1  0.60555000  0.41965000  0.10939000  1.0
  N  N122  1  0.43504000  0.58192000  0.08792000  1.0
  O  O123  1  0.50426000  0.50012000  0.50401000  1.0
  O  O124  1  0.32402000  0.44057000  0.52362000  1.0
  O  O125  1  0.67928000  0.57311000  0.58903000  1.0
  O  O126  1  0.32878000  0.48237000  0.41656000  1.0
  O  O127  1  0.68602000  0.50210000  0.49202000  1.0
  O  O128  1  0.55706000  0.35642000  0.47498000  1.0
  O  O129  1  0.56421000  0.66937000  0.54435000  1.0
  O  O130  1  0.45931000  0.45021000  0.65147000  1.0
  O  O131  1  0.48179000  0.54836000  0.34924000  1.0
  O  O132  1  0.54225000  0.56381000  0.67148000  1.0
  O  O133  1  0.55486000  0.46700000  0.35312000  1.0
  O  O134  1  0.44075000  0.33457000  0.51508000  1.0
  O  O135  1  0.44316000  0.64060000  0.47579000  1.0
