# generated using pymatgen
data_KH9C13(NF)2
_symmetry_space_group_name_H-M   'P 1'
_cell_length_a   3.97792000
_cell_length_b   11.53470000
_cell_length_c   25.03500000
_cell_angle_alpha   90.00000000
_cell_angle_beta   91.98640000
_cell_angle_gamma   90.00000000
_symmetry_Int_Tables_number   1
_chemical_formula_structural   KH9C13(NF)2
_chemical_formula_sum   'K4 H36 C52 N8 F8'
_cell_volume   1148.01851069
_cell_formula_units_Z   4
loop_
 _symmetry_equiv_pos_site_id
 _symmetry_equiv_pos_as_xyz
  1  'x, y, z'
loop_
 _atom_site_type_symbol
 _atom_site_label
 _atom_site_symmetry_multiplicity
 _atom_site_fract_x
 _atom_site_fract_y
 _atom_site_fract_z
 _atom_site_occupancy
  K  K0  1  0.59162000  0.14208000  0.02287000  1.0
  K  K1  1  0.09162000  0.35793000  0.52287000  1.0
  K  K2  1  0.40838000  0.85793000  0.97713000  1.0
  K  K3  1  0.90838000  0.64207000  0.47713000  1.0
  H  H4  1  0.24095000  0.51183000  0.96730000  1.0
  H  H5  1  0.74095000  0.98817000  0.46730000  1.0
  H  H6  1  0.75905000  0.48817000  0.03270000  1.0
  H  H7  1  0.25905000  0.01183000  0.53270000  1.0
  H  H8  1  0.52307000  0.54689000  0.88061000  1.0
  H  H9  1  0.02307000  0.95311000  0.38061000  1.0
  H  H10  1  0.47693000  0.45311000  0.11939000  1.0
  H  H11  1  0.97693000  0.04689000  0.61939000  1.0
  H  H12  1  0.60747000  0.37931000  0.81884000  1.0
  H  H13  1  0.10747000  0.12069000  0.31884000  1.0
  H  H14  1  0.39253000  0.62069000  0.18116000  1.0
  H  H15  1  0.89253000  0.87931000  0.68116000  1.0
  H  H16  1  0.41261000  0.18519000  0.84210000  1.0
  H  H17  1  0.91261000  0.31481000  0.34210000  1.0
  H  H18  1  0.58739000  0.81481000  0.15790000  1.0
  H  H19  1  0.08739000  0.68519000  0.65790000  1.0
  H  H20  1  0.93547000  0.60092000  0.81111000  1.0
  H  H21  1  0.43546000  0.89908000  0.31111000  1.0
  H  H22  1  0.06453000  0.39908000  0.18889000  1.0
  H  H23  1  0.56453000  0.10092000  0.68889000  1.0
  H  H24  1  0.57990000  0.68045000  0.73423000  1.0
  H  H25  1  0.07989000  0.81955000  0.23423000  1.0
  H  H26  1  0.42011000  0.31955000  0.26577000  1.0
  H  H27  1  0.92011000  0.18045000  0.76577000  1.0
  H  H28  1  0.38494000  0.88552000  0.73758000  1.0
  H  H29  1  0.88494000  0.61448000  0.23758000  1.0
  H  H30  1  0.61507000  0.11448000  0.26242000  1.0
  H  H31  1  0.11506000  0.38552000  0.76242000  1.0
  H  H32  1  0.53288000  0.00864000  0.81565000  1.0
  H  H33  1  0.03288000  0.49136000  0.31565000  1.0
  H  H34  1  0.46712000  0.99136000  0.18435000  1.0
  H  H35  1  0.96712000  0.50864000  0.68435000  1.0
  H  H36  1  0.98870000  0.08472000  0.85379000  1.0
  H  H37  1  0.48870000  0.41528000  0.35379000  1.0
  H  H38  1  0.01130000  0.91528000  0.14621000  1.0
  H  H39  1  0.51130000  0.58472000  0.64621000  1.0
  C  C40  1  0.20243000  0.23388000  0.91747000  1.0
  C  C41  1  0.70243000  0.26612000  0.41747000  1.0
  C  C42  1  0.79757000  0.76612000  0.08253000  1.0
  C  C43  1  0.29757000  0.73388000  0.58253000  1.0
  C  C44  1  0.17500000  0.33102000  0.95102000  1.0
  C  C45  1  0.67500000  0.16898000  0.45102000  1.0
  C  C46  1  0.82500000  0.66898000  0.04898000  1.0
  C  C47  1  0.32500000  0.83102000  0.54898000  1.0
  C  C48  1  0.28140000  0.44177000  0.93914000  1.0
  C  C49  1  0.78141000  0.05823000  0.43914000  1.0
  C  C50  1  0.71859000  0.55823000  0.06086000  1.0
  C  C51  1  0.21859000  0.94177000  0.56085000  1.0
  C  C52  1  0.43502000  0.46061000  0.89063000  1.0
  C  C53  1  0.93503000  0.03939000  0.39063000  1.0
  C  C54  1  0.56498000  0.53939000  0.10937000  1.0
  C  C55  1  0.06498000  0.96061000  0.60937000  1.0
  C  C56  1  0.47756000  0.36722000  0.85606000  1.0
  C  C57  1  0.97756000  0.13278000  0.35606000  1.0
  C  C58  1  0.52244000  0.63278000  0.14394000  1.0
  C  C59  1  0.02244000  0.86722000  0.64394000  1.0
  C  C60  1  0.36524000  0.25680000  0.86917000  1.0
  C  C61  1  0.86524000  0.24320000  0.36917000  1.0
  C  C62  1  0.63476000  0.74320000  0.13083000  1.0
  C  C63  1  0.13476000  0.75680000  0.63083000  1.0
  C  C64  1  0.82508000  0.87794000  0.85793000  1.0
  C  C65  1  0.32508000  0.62206000  0.35793000  1.0
  C  C66  1  0.17492000  0.12206000  0.14207000  1.0
  C  C67  1  0.67492000  0.37794000  0.64207000  1.0
  C  C68  1  0.92316000  0.76109000  0.85409000  1.0
  C  C69  1  0.42315000  0.73891000  0.35408000  1.0
  C  C70  1  0.07684000  0.23891000  0.14592000  1.0
  C  C71  1  0.57685000  0.26109000  0.64592000  1.0
  C  C72  1  0.84215000  0.68972000  0.81110000  1.0
  C  C73  1  0.34215000  0.81028000  0.31110000  1.0
  C  C74  1  0.15785000  0.31028000  0.18890000  1.0
  C  C75  1  0.65785000  0.18972000  0.68890000  1.0
  C  C76  1  0.64900000  0.73519000  0.76836000  1.0
  C  C77  1  0.14900000  0.76481000  0.26836000  1.0
  C  C78  1  0.35100000  0.26481000  0.23164000  1.0
  C  C79  1  0.85101000  0.23519000  0.73164000  1.0
  C  C80  1  0.54293000  0.85049000  0.77016000  1.0
  C  C81  1  0.04294000  0.64951000  0.27016000  1.0
  C  C82  1  0.45707000  0.14951000  0.22984000  1.0
  C  C83  1  0.95707000  0.35049000  0.72984000  1.0
  C  C84  1  0.62772000  0.92011000  0.81410000  1.0
  C  C85  1  0.12772000  0.57989000  0.31410000  1.0
  C  C86  1  0.37228000  0.07989000  0.18590000  1.0
  C  C87  1  0.87228000  0.42011000  0.68590000  1.0
  C  C88  1  0.99754000  0.05227000  0.89542000  1.0
  C  C89  1  0.49754000  0.44773000  0.39541000  1.0
  C  C90  1  0.00246000  0.94772000  0.10459000  1.0
  C  C91  1  0.50246000  0.55228000  0.60459000  1.0
  N  N92  1  0.08565000  0.12613000  0.93424000  1.0
  N  N93  1  0.58564000  0.37387000  0.43424000  1.0
  N  N94  1  0.91436000  0.87387000  0.06576000  1.0
  N  N95  1  0.41436000  0.62613000  0.56575000  1.0
  N  N96  1  0.92366000  0.94156000  0.90330000  1.0
  N  N97  1  0.42366000  0.55844000  0.40330000  1.0
  N  N98  1  0.07633000  0.05844000  0.09670000  1.0
  N  N99  1  0.57633000  0.44156000  0.59670000  1.0
  F  F100  1  0.02804000  0.31431000  0.00004000  1.0
  F  F101  1  0.52804000  0.18569000  0.50004000  1.0
  F  F102  1  0.97196000  0.68569000  0.99996000  1.0
  F  F103  1  0.47196000  0.81431000  0.49996000  1.0
  F  F104  1  0.12240000  0.71635000  0.89529000  1.0
  F  F105  1  0.62238000  0.78365000  0.39529000  1.0
  F  F106  1  0.87760000  0.28365000  0.10471000  1.0
  F  F107  1  0.37761000  0.21635000  0.60471000  1.0
