# generated using pymatgen
data_Co2H14C24N4Cl4O9
_symmetry_space_group_name_H-M   'P 1'
_cell_length_a   11.13620000
_cell_length_b   11.13590000
_cell_length_c   14.46070000
_cell_angle_alpha   109.69100000
_cell_angle_beta   109.69100000
_cell_angle_gamma   95.40550000
_symmetry_Int_Tables_number   1
_chemical_formula_structural   Co2H14C24N4Cl4O9
_chemical_formula_sum   'Co4 H28 C48 N8 Cl8 O18'
_cell_volume   1545.42882581
_cell_formula_units_Z   2
loop_
 _symmetry_equiv_pos_site_id
 _symmetry_equiv_pos_as_xyz
  1  'x, y, z'
loop_
 _atom_site_type_symbol
 _atom_site_label
 _atom_site_symmetry_multiplicity
 _atom_site_fract_x
 _atom_site_fract_y
 _atom_site_fract_z
 _atom_site_occupancy
  Co  Co0  1  0.21594000  0.46849000  0.20613000  1.0
  Co  Co1  1  0.03150000  0.28407000  0.29386000  1.0
  Co  Co2  1  0.78407000  0.53151000  0.79386000  1.0
  Co  Co3  1  0.96849000  0.71593000  0.70613000  1.0
  H  H4  1  0.80274000  0.08088000  0.92995000  1.0
  H  H5  1  0.41912000  0.69725000  0.57005000  1.0
  H  H6  1  0.19725000  0.91913000  0.07005000  1.0
  H  H7  1  0.58088000  0.30275000  0.42996000  1.0
  H  H8  1  0.68419000  0.23153000  0.68114000  1.0
  H  H9  1  0.26847000  0.81581000  0.81885000  1.0
  H  H10  1  0.31581000  0.76847000  0.31886000  1.0
  H  H11  1  0.73153000  0.18420000  0.18115000  1.0
  H  H12  1  0.88172000  0.49569000  0.99503000  1.0
  H  H13  1  0.00432000  0.61827000  0.50497000  1.0
  H  H14  1  0.11828000  0.50432000  0.00498000  1.0
  H  H15  1  0.99569000  0.38173000  0.49503000  1.0
  H  H16  1  0.45015000  0.57155000  0.41234000  1.0
  H  H17  1  0.92846000  0.04985000  0.08766000  1.0
  H  H18  1  0.54986000  0.42845000  0.58766000  1.0
  H  H19  1  0.07155000  0.95015000  0.91234000  1.0
  H  H20  1  0.41258000  0.43860000  0.09714000  1.0
  H  H21  1  0.06140000  0.08742000  0.40287000  1.0
  H  H22  1  0.58743000  0.56140000  0.90287000  1.0
  H  H23  1  0.93860000  0.91258000  0.59713000  1.0
  H  H24  1  0.80109000  0.60823000  0.34979000  1.0
  H  H25  1  0.89177000  0.69890000  0.15021000  1.0
  H  H26  1  0.19890000  0.39177000  0.65021000  1.0
  H  H27  1  0.10823000  0.30110000  0.84979000  1.0
  H  H28  1  0.19227000  0.22994000  0.18294000  1.0
  H  H29  1  0.27008000  0.30775000  0.31707000  1.0
  H  H30  1  0.80775000  0.77008000  0.81707000  1.0
  H  H31  1  0.72993000  0.69226000  0.68293000  1.0
  C  C32  1  0.93005000  0.33117000  0.09464000  1.0
  C  C33  1  0.16883000  0.56993000  0.40533000  1.0
  C  C34  1  0.06992000  0.66882000  0.90535000  1.0
  C  C35  1  0.83114000  0.43005000  0.59466000  1.0
  C  C36  1  0.85001000  0.29305000  0.97776000  1.0
  C  C37  1  0.20694000  0.64995000  0.52223000  1.0
  C  C38  1  0.14996000  0.70693000  0.02224000  1.0
  C  C39  1  0.79305000  0.35003000  0.47777000  1.0
  C  C40  1  0.79554000  0.16275000  0.90457000  1.0
  C  C41  1  0.33724000  0.70443000  0.59542000  1.0
  C  C42  1  0.20444000  0.83724000  0.09542000  1.0
  C  C43  1  0.66275000  0.29556000  0.40458000  1.0
  C  C44  1  0.73678000  0.14069000  0.79640000  1.0
  C  C45  1  0.35932000  0.76319000  0.70359000  1.0
  C  C46  1  0.26320000  0.85932000  0.20360000  1.0
  C  C47  1  0.64069000  0.23679000  0.29641000  1.0
  C  C48  1  0.72860000  0.24624000  0.76495000  1.0
  C  C49  1  0.25378000  0.77139000  0.73505000  1.0
  C  C50  1  0.27140000  0.75377000  0.23505000  1.0
  C  C51  1  0.74623000  0.22861000  0.26496000  1.0
  C  C52  1  0.83952000  0.39357000  0.94030000  1.0
  C  C53  1  0.10644000  0.66046000  0.55968000  1.0
  C  C54  1  0.16048000  0.60643000  0.05970000  1.0
  C  C55  1  0.89356000  0.33954000  0.44031000  1.0
  C  C56  1  0.70960000  0.66065000  0.51506000  1.0
  C  C57  1  0.83935000  0.79036000  0.98494000  1.0
  C  C58  1  0.29040000  0.33935000  0.48494000  1.0
  C  C59  1  0.16066000  0.20963000  0.01506000  1.0
  C  C60  1  0.63476000  0.59978000  0.39572000  1.0
  C  C61  1  0.90023000  0.86523000  0.10429000  1.0
  C  C62  1  0.36525000  0.40022000  0.60429000  1.0
  C  C63  1  0.09979000  0.13478000  0.89572000  1.0
  C  C64  1  0.49862000  0.55868000  0.35711000  1.0
  C  C65  1  0.94132000  0.00138000  0.14289000  1.0
  C  C66  1  0.50139000  0.44131000  0.64289000  1.0
  C  C67  1  0.05869000  0.99863000  0.85711000  1.0
  C  C68  1  0.47782000  0.48433000  0.18138000  1.0
  C  C69  1  0.01568000  0.02219000  0.31863000  1.0
  C  C70  1  0.52220000  0.51567000  0.81862000  1.0
  C  C71  1  0.98433000  0.97782000  0.68138000  1.0
  C  C72  1  0.61373000  0.52040000  0.21436000  1.0
  C  C73  1  0.97960000  0.88628000  0.28565000  1.0
  C  C74  1  0.38629000  0.47960000  0.78565000  1.0
  C  C75  1  0.02040000  0.11373000  0.71436000  1.0
  C  C76  1  0.69489000  0.57953000  0.32284000  1.0
  C  C77  1  0.92048000  0.80511000  0.17716000  1.0
  C  C78  1  0.30511000  0.42047000  0.67716000  1.0
  C  C79  1  0.07953000  0.19489000  0.82284000  1.0
  N  N80  1  0.77864000  0.37085000  0.83658000  1.0
  N  N81  1  0.12917000  0.72134000  0.66341000  1.0
  N  N82  1  0.22136000  0.62916000  0.16342000  1.0
  N  N83  1  0.87084000  0.27866000  0.33659000  1.0
  N  N84  1  0.42139000  0.50337000  0.25247000  1.0
  N  N85  1  0.99664000  0.07862000  0.24753000  1.0
  N  N86  1  0.57863000  0.49663000  0.74753000  1.0
  N  N87  1  0.00337000  0.92139000  0.75247000  1.0
  Cl  Cl88  1  0.67817000  0.98387000  0.69849000  1.0
  Cl  Cl89  1  0.51614000  0.82181000  0.80150000  1.0
  Cl  Cl90  1  0.32181000  0.01615000  0.30150000  1.0
  Cl  Cl91  1  0.48386000  0.17821000  0.19852000  1.0
  Cl  Cl92  1  0.67918000  0.48945000  0.11819000  1.0
  Cl  Cl93  1  0.01056000  0.82081000  0.38180000  1.0
  Cl  Cl94  1  0.32084000  0.51056000  0.88181000  1.0
  Cl  Cl95  1  0.98944000  0.17918000  0.61818000  1.0
  O  O96  1  0.01618000  0.43855000  0.14011000  1.0
  O  O97  1  0.06145000  0.48378000  0.35988000  1.0
  O  O98  1  0.98377000  0.56145000  0.85988000  1.0
  O  O99  1  0.93852000  0.51620000  0.64012000  1.0
  O  O100  1  0.90822000  0.25407000  0.13823000  1.0
  O  O101  1  0.24592000  0.59179000  0.36177000  1.0
  O  O102  1  0.09180000  0.74592000  0.86179000  1.0
  O  O103  1  0.75406000  0.40820000  0.63823000  1.0
  O  O104  1  0.64149000  0.67238000  0.57127000  1.0
  O  O105  1  0.82761000  0.85848000  0.92874000  1.0
  O  O106  1  0.35851000  0.32761000  0.42873000  1.0
  O  O107  1  0.17240000  0.14152000  0.07127000  1.0
  O  O108  1  0.83449000  0.69350000  0.55048000  1.0
  O  O109  1  0.80648000  0.66547000  0.94951000  1.0
  O  O110  1  0.16550000  0.30648000  0.44950000  1.0
  O  O111  1  0.19353000  0.33453000  0.05049000  1.0
  O  O112  1  0.19521000  0.30481000  0.25000000  1.0
  O  O113  1  0.80479000  0.69520000  0.75000000  1.0
