# generated using pymatgen
data_Ni2H28C40N8O9
_symmetry_space_group_name_H-M   'P 1'
_cell_length_a   13.21110000
_cell_length_b   14.19240000
_cell_length_c   18.69370000
_cell_angle_alpha   86.32320000
_cell_angle_beta   82.10380000
_cell_angle_gamma   62.27860000
_symmetry_Int_Tables_number   1
_chemical_formula_structural   Ni2H28C40N8O9
_chemical_formula_sum   'Ni4 H56 C80 N16 O18'
_cell_volume   3073.29247835
_cell_formula_units_Z   2
loop_
 _symmetry_equiv_pos_site_id
 _symmetry_equiv_pos_as_xyz
  1  'x, y, z'
loop_
 _atom_site_type_symbol
 _atom_site_label
 _atom_site_symmetry_multiplicity
 _atom_site_fract_x
 _atom_site_fract_y
 _atom_site_fract_z
 _atom_site_occupancy
  Ni  Ni0  1  0.01355000  0.21072000  0.22780000  1.0
  Ni  Ni1  1  0.77630000  0.21074000  0.27221000  1.0
  Ni  Ni2  1  0.98650000  0.78924000  0.77221000  1.0
  Ni  Ni3  1  0.22373000  0.78926000  0.72777000  1.0
  H  H4  1  0.14963000  0.99321000  0.07031000  1.0
  H  H5  1  0.85671000  0.99397000  0.42975000  1.0
  H  H6  1  0.85039000  0.00680000  0.92970000  1.0
  H  H7  1  0.14326000  0.00603000  0.57027000  1.0
  H  H8  1  0.19814000  0.48169000  0.98047000  1.0
  H  H9  1  0.31992000  0.48211000  0.51887000  1.0
  H  H10  1  0.80185000  0.51832000  0.01958000  1.0
  H  H11  1  0.68008000  0.51787000  0.48110000  1.0
  H  H12  1  0.20485000  0.91630000  0.94480000  1.0
  H  H13  1  0.87817000  0.91703000  0.55524000  1.0
  H  H14  1  0.79522000  0.08367000  0.05520000  1.0
  H  H15  1  0.12183000  0.08299000  0.44476000  1.0
  H  H16  1  0.19766000  0.17846000  0.09424000  1.0
  H  H17  1  0.62363000  0.17884000  0.40577000  1.0
  H  H18  1  0.80233000  0.82157000  0.90579000  1.0
  H  H19  1  0.37637000  0.82117000  0.59417000  1.0
  H  H20  1  0.57783000  0.98031000  0.11712000  1.0
  H  H21  1  0.44291000  0.97938000  0.38274000  1.0
  H  H22  1  0.42216000  0.01970000  0.88290000  1.0
  H  H23  1  0.55707000  0.02065000  0.61722000  1.0
  H  H24  1  0.15820000  0.34608000  0.05288000  1.0
  H  H25  1  0.49555000  0.34641000  0.44672000  1.0
  H  H26  1  0.84180000  0.65392000  0.94717000  1.0
  H  H27  1  0.50445000  0.65359000  0.55327000  1.0
  H  H28  1  0.95895000  0.31089000  0.38136000  1.0
  H  H29  1  0.73080000  0.31085000  0.11850000  1.0
  H  H30  1  0.04103000  0.68909000  0.61865000  1.0
  H  H31  1  0.26921000  0.68918000  0.88149000  1.0
  H  H32  1  0.15604000  0.50260000  0.41024000  1.0
  H  H33  1  0.34204000  0.50198000  0.09005000  1.0
  H  H34  1  0.84393000  0.49740000  0.58978000  1.0
  H  H35  1  0.65798000  0.49805000  0.90996000  1.0
  H  H36  1  0.12596000  0.57397000  0.53269000  1.0
  H  H37  1  0.29983000  0.57365000  0.96776000  1.0
  H  H38  1  0.87400000  0.42603000  0.46733000  1.0
  H  H39  1  0.70017000  0.42638000  0.03226000  1.0
  H  H40  1  0.70874000  0.94119000  0.00228000  1.0
  H  H41  1  0.35083000  0.94023000  0.49747000  1.0
  H  H42  1  0.29125000  0.05882000  0.99774000  1.0
  H  H43  1  0.64914000  0.05979000  0.50248000  1.0
  H  H44  1  0.45320000  0.92898000  0.20464000  1.0
  H  H45  1  0.61864000  0.92872000  0.29552000  1.0
  H  H46  1  0.54677000  0.07100000  0.79537000  1.0
  H  H47  1  0.38133000  0.07129000  0.70443000  1.0
  H  H48  1  0.10778000  0.38441000  0.18608000  1.0
  H  H49  1  0.50871000  0.38427000  0.31390000  1.0
  H  H50  1  0.89227000  0.61554000  0.81394000  1.0
  H  H51  1  0.49131000  0.61571000  0.68610000  1.0
  H  H52  1  0.24802000  0.03279000  0.29765000  1.0
  H  H53  1  0.71996000  0.03268000  0.20252000  1.0
  H  H54  1  0.75198000  0.96721000  0.70237000  1.0
  H  H55  1  0.28007000  0.96730000  0.79743000  1.0
  H  H56  1  0.11095000  0.50729000  0.29554000  1.0
  H  H57  1  0.38257000  0.50702000  0.20450000  1.0
  H  H58  1  0.88903000  0.49268000  0.70447000  1.0
  H  H59  1  0.61743000  0.49299000  0.79551000  1.0
  C  C60  1  0.96957000  0.04231000  0.07026000  1.0
  C  C61  1  0.98820000  0.04246000  0.42975000  1.0
  C  C62  1  0.03048000  0.95766000  0.92973000  1.0
  C  C63  1  0.01178000  0.95756000  0.57025000  1.0
  C  C64  1  0.08485000  0.99584000  0.03873000  1.0
  C  C65  1  0.91909000  0.99627000  0.46127000  1.0
  C  C66  1  0.91520000  0.00417000  0.96125000  1.0
  C  C67  1  0.08093000  0.00371000  0.53872000  1.0
  C  C68  1  0.97721000  0.42319000  0.04076000  1.0
  C  C69  1  0.59968000  0.42316000  0.45930000  1.0
  C  C70  1  0.02280000  0.57681000  0.95928000  1.0
  C  C71  1  0.40030000  0.57684000  0.54069000  1.0
  C  C72  1  0.42662000  0.02178000  0.06458000  1.0
  C  C73  1  0.55168000  0.02187000  0.43545000  1.0
  C  C74  1  0.57336000  0.97823000  0.93545000  1.0
  C  C75  1  0.44829000  0.97816000  0.56451000  1.0
  C  C76  1  0.01619000  0.46110000  0.43074000  1.0
  C  C77  1  0.52320000  0.46097000  0.06922000  1.0
  C  C78  1  0.98378000  0.53889000  0.56927000  1.0
  C  C79  1  0.47681000  0.53907000  0.93079000  1.0
  C  C80  1  0.95074000  0.34228000  0.08513000  1.0
  C  C81  1  0.70721000  0.34225000  0.41503000  1.0
  C  C82  1  0.04926000  0.65771000  0.91490000  1.0
  C  C83  1  0.29277000  0.65776000  0.58497000  1.0
  C  C84  1  0.93841000  0.09099000  0.14435000  1.0
  C  C85  1  0.97084000  0.09119000  0.35567000  1.0
  C  C86  1  0.06163000  0.90900000  0.85564000  1.0
  C  C87  1  0.02916000  0.90881000  0.64434000  1.0
  C  C88  1  0.11128000  0.48951000  0.98945000  1.0
  C  C89  1  0.39908000  0.48975000  0.51021000  1.0
  C  C90  1  0.88872000  0.51050000  0.01061000  1.0
  C  C91  1  0.60091000  0.51025000  0.48978000  1.0
  C  C92  1  0.11519000  0.95388000  0.96917000  1.0
  C  C93  1  0.93061000  0.95424000  0.53082000  1.0
  C  C94  1  0.88486000  0.04613000  0.03081000  1.0
  C  C95  1  0.06941000  0.04575000  0.46917000  1.0
  C  C96  1  0.23961000  0.12507000  0.13692000  1.0
  C  C97  1  0.63537000  0.12530000  0.36312000  1.0
  C  C98  1  0.76039000  0.87494000  0.86310000  1.0
  C  C99  1  0.36460000  0.87472000  0.63683000  1.0
  C  C100  1  0.54425000  0.98717000  0.06587000  1.0
  C  C101  1  0.46917000  0.98665000  0.43406000  1.0
  C  C102  1  0.45574000  0.01284000  0.93414000  1.0
  C  C103  1  0.53081000  0.01338000  0.56590000  1.0
  C  C104  1  0.08872000  0.41379000  0.02964000  1.0
  C  C105  1  0.49739000  0.41402000  0.47009000  1.0
  C  C106  1  0.91129000  0.58620000  0.97040000  1.0
  C  C107  1  0.50260000  0.58598000  0.52990000  1.0
  C  C108  1  0.00335000  0.34488000  0.34369000  1.0
  C  C109  1  0.65247000  0.34479000  0.15621000  1.0
  C  C110  1  0.99665000  0.65509000  0.65632000  1.0
  C  C111  1  0.34753000  0.65523000  0.84379000  1.0
  C  C112  1  0.08660000  0.50263000  0.44920000  1.0
  C  C113  1  0.41119000  0.50226000  0.05095000  1.0
  C  C114  1  0.91337000  0.49737000  0.55081000  1.0
  C  C115  1  0.58882000  0.49777000  0.94905000  1.0
  C  C116  1  0.07061000  0.54175000  0.51841000  1.0
  C  C117  1  0.38749000  0.54155000  0.98182000  1.0
  C  C118  1  0.92936000  0.45825000  0.48160000  1.0
  C  C119  1  0.61251000  0.45848000  0.01818000  1.0
  C  C120  1  0.61755000  0.96558000  0.00139000  1.0
  C  C121  1  0.41733000  0.96499000  0.49848000  1.0
  C  C122  1  0.38244000  0.03442000  0.99862000  1.0
  C  C123  1  0.58263000  0.03504000  0.50148000  1.0
  C  C124  1  0.37167000  0.99691000  0.19668000  1.0
  C  C125  1  0.63200000  0.99681000  0.30343000  1.0
  C  C126  1  0.62831000  0.00309000  0.80334000  1.0
  C  C127  1  0.36800000  0.00318000  0.69653000  1.0
  C  C128  1  0.08071000  0.38626000  0.24353000  1.0
  C  C129  1  0.53395000  0.38607000  0.25644000  1.0
  C  C130  1  0.91932000  0.61370000  0.75649000  1.0
  C  C131  1  0.46606000  0.61393000  0.74356000  1.0
  C  C132  1  0.27058000  0.04815000  0.24172000  1.0
  C  C133  1  0.68187000  0.04809000  0.25841000  1.0
  C  C134  1  0.72941000  0.95185000  0.75829000  1.0
  C  C135  1  0.31814000  0.95190000  0.74154000  1.0
  C  C136  1  0.08264000  0.44681000  0.29707000  1.0
  C  C137  1  0.47137000  0.44662000  0.20293000  1.0
  C  C138  1  0.91735000  0.55317000  0.70295000  1.0
  C  C139  1  0.52863000  0.55339000  0.79707000  1.0
  N  N140  1  0.35070000  0.04629000  0.12975000  1.0
  N  N141  1  0.60322000  0.04638000  0.37030000  1.0
  N  N142  1  0.64928000  0.95371000  0.87027000  1.0
  N  N143  1  0.39677000  0.95362000  0.62965000  1.0
  N  N144  1  0.19008000  0.12765000  0.20363000  1.0
  N  N145  1  0.68258000  0.12776000  0.29646000  1.0
  N  N146  1  0.80991000  0.87234000  0.79639000  1.0
  N  N147  1  0.31740000  0.87224000  0.70349000  1.0
  N  N148  1  0.03304000  0.42017000  0.36045000  1.0
  N  N149  1  0.54748000  0.42003000  0.13949000  1.0
  N  N150  1  0.96693000  0.57982000  0.63956000  1.0
  N  N151  1  0.45252000  0.57999000  0.86051000  1.0
  N  N152  1  0.03167000  0.32349000  0.27382000  1.0
  N  N153  1  0.64569000  0.32343000  0.22611000  1.0
  N  N154  1  0.96835000  0.67647000  0.72620000  1.0
  N  N155  1  0.35432000  0.67658000  0.77389000  1.0
  O  O156  1  0.02087000  0.09180000  0.17203000  1.0
  O  O157  1  0.88755000  0.09201000  0.32800000  1.0
  O  O158  1  0.97916000  0.90820000  0.82797000  1.0
  O  O159  1  0.11249000  0.90795000  0.67198000  1.0
  O  O160  1  0.86553000  0.33129000  0.07433000  1.0
  O  O161  1  0.80335000  0.33123000  0.42599000  1.0
  O  O162  1  0.13445000  0.66873000  0.92570000  1.0
  O  O163  1  0.19662000  0.66880000  0.57400000  1.0
  O  O164  1  0.83414000  0.12747000  0.17301000  1.0
  O  O165  1  0.03874000  0.12756000  0.32700000  1.0
  O  O166  1  0.16588000  0.87255000  0.82699000  1.0
  O  O167  1  0.96127000  0.87244000  0.67302000  1.0
  O  O168  1  0.02264000  0.29165000  0.13108000  1.0
  O  O169  1  0.68611000  0.29161000  0.36899000  1.0
  O  O170  1  0.97739000  0.70830000  0.86893000  1.0
  O  O171  1  0.31388000  0.70837000  0.63102000  1.0
  O  O172  1  0.86131000  0.27811000  0.25015000  1.0
  O  O173  1  0.13874000  0.72187000  0.74984000  1.0
