# generated using pymatgen
data_NiH6C6S2(BrN)2
_symmetry_space_group_name_H-M   'P 1'
_cell_length_a   3.76712000
_cell_length_b   11.49117565
_cell_length_c   11.94720000
_cell_angle_alpha   97.29834888
_cell_angle_beta   99.04720000
_cell_angle_gamma   99.28879583
_symmetry_Int_Tables_number   1
_chemical_formula_structural   NiH6C6S2(BrN)2
_chemical_formula_sum   'Ni2 H12 C12 S4 Br4 N4'
_cell_volume   497.84466993
_cell_formula_units_Z   2
loop_
 _symmetry_equiv_pos_site_id
 _symmetry_equiv_pos_as_xyz
  1  'x, y, z'
loop_
 _atom_site_type_symbol
 _atom_site_label
 _atom_site_symmetry_multiplicity
 _atom_site_fract_x
 _atom_site_fract_y
 _atom_site_fract_z
 _atom_site_occupancy
  Ni  Ni0  1  0.67044000  0.24989000  0.74977000  1.0
  Ni  Ni1  1  0.32955000  0.75011000  0.25023000  1.0
  H  H2  1  0.78979000  0.42164000  0.98502000  1.0
  H  H3  1  0.37730000  0.07845000  0.51454000  1.0
  H  H4  1  0.21026000  0.57836000  0.01498000  1.0
  H  H5  1  0.62269000  0.92155000  0.48546000  1.0
  H  H6  1  0.86679000  0.08361000  0.13928000  1.0
  H  H7  1  0.63675000  0.41621000  0.36014000  1.0
  H  H8  1  0.13319000  0.91639000  0.86072000  1.0
  H  H9  1  0.36323000  0.58378000  0.63986000  1.0
  H  H10  1  0.72818000  0.05111000  0.90823000  1.0
  H  H11  1  0.77025000  0.44834000  0.59120000  1.0
  H  H12  1  0.27181000  0.94889000  0.09178000  1.0
  H  H13  1  0.22973000  0.55166000  0.40880000  1.0
  C  C14  1  0.80302000  0.33186000  0.00199000  1.0
  C  C15  1  0.46412000  0.16810000  0.49755000  1.0
  C  C16  1  0.19700000  0.66814000  0.99801000  1.0
  C  C17  1  0.53588000  0.83190000  0.50245000  1.0
  C  C18  1  0.84090000  0.15046000  0.08314000  1.0
  C  C19  1  0.60113000  0.34939000  0.41630000  1.0
  C  C20  1  0.15911000  0.84955000  0.91687000  1.0
  C  C21  1  0.39886000  0.65061000  0.58370000  1.0
  C  C22  1  0.76969000  0.13490000  0.96587000  1.0
  C  C23  1  0.66713000  0.36476000  0.53358000  1.0
  C  C24  1  0.23031000  0.86510000  0.03413000  1.0
  C  C25  1  0.33286000  0.63524000  0.46641000  1.0
  S  S26  1  0.88212000  0.29847000  0.13760000  1.0
  S  S27  1  0.43674000  0.20164000  0.36193000  1.0
  S  S28  1  0.11791000  0.70154000  0.86240000  1.0
  S  S29  1  0.56325000  0.79835000  0.63807000  1.0
  Br  Br30  1  0.26728000  0.40958000  0.78268000  1.0
  Br  Br31  1  0.07666000  0.09027000  0.71701000  1.0
  Br  Br32  1  0.73272000  0.59042000  0.21731000  1.0
  Br  Br33  1  0.92335000  0.90973000  0.28299000  1.0
  N  N34  1  0.75064000  0.23857000  0.92035000  1.0
  N  N35  1  0.59028000  0.26116000  0.57915000  1.0
  N  N36  1  0.24936000  0.76143000  0.07965000  1.0
  N  N37  1  0.40971000  0.73884000  0.42085000  1.0
