# generated using pymatgen
data_Cu3H10C9SN12O11
_symmetry_space_group_name_H-M   'P 1'
_cell_length_a   17.71040000
_cell_length_b   17.71030000
_cell_length_c   17.71040000
_cell_angle_alpha   90.00010000
_cell_angle_beta   90.00000000
_cell_angle_gamma   89.99990000
_symmetry_Int_Tables_number   1
_chemical_formula_structural   Cu3H10C9SN12O11
_chemical_formula_sum   'Cu24 H80 C72 S8 N96 O88'
_cell_volume   5554.98202658
_cell_formula_units_Z   8
loop_
 _symmetry_equiv_pos_site_id
 _symmetry_equiv_pos_as_xyz
  1  'x, y, z'
loop_
 _atom_site_type_symbol
 _atom_site_label
 _atom_site_symmetry_multiplicity
 _atom_site_fract_x
 _atom_site_fract_y
 _atom_site_fract_z
 _atom_site_occupancy
  Cu  Cu0  1  0.76713000  0.71975000  0.87133000  1.0
  Cu  Cu1  1  0.71975000  0.87133000  0.76713000  1.0
  Cu  Cu2  1  0.87133000  0.76713000  0.71975000  1.0
  Cu  Cu3  1  0.23287000  0.78025000  0.37133000  1.0
  Cu  Cu4  1  0.26713000  0.28025000  0.62868000  1.0
  Cu  Cu5  1  0.73287000  0.21975000  0.12868000  1.0
  Cu  Cu6  1  0.78025000  0.37133000  0.23287000  1.0
  Cu  Cu7  1  0.28025000  0.62868000  0.26713000  1.0
  Cu  Cu8  1  0.21975000  0.12867000  0.73287000  1.0
  Cu  Cu9  1  0.37133000  0.23287000  0.78025000  1.0
  Cu  Cu10  1  0.62867000  0.26713000  0.28025000  1.0
  Cu  Cu11  1  0.12867000  0.73287000  0.21975000  1.0
  Cu  Cu12  1  0.23287000  0.28025000  0.12867000  1.0
  Cu  Cu13  1  0.28025000  0.12867000  0.23287000  1.0
  Cu  Cu14  1  0.12867000  0.23287000  0.28025000  1.0
  Cu  Cu15  1  0.76713000  0.21975000  0.62867000  1.0
  Cu  Cu16  1  0.73287000  0.71975000  0.37133000  1.0
  Cu  Cu17  1  0.26713000  0.78025000  0.87133000  1.0
  Cu  Cu18  1  0.21975000  0.62867000  0.76713000  1.0
  Cu  Cu19  1  0.71975000  0.37133000  0.73287000  1.0
  Cu  Cu20  1  0.78025000  0.87132000  0.26713000  1.0
  Cu  Cu21  1  0.62867000  0.76713000  0.21975000  1.0
  Cu  Cu22  1  0.37133000  0.73287000  0.71975000  1.0
  Cu  Cu23  1  0.87133000  0.26713000  0.78025000  1.0
  H  H24  1  0.83459000  0.83458000  0.83459000  1.0
  H  H25  1  0.16542000  0.66541000  0.33459000  1.0
  H  H26  1  0.33459000  0.16541000  0.66541000  1.0
  H  H27  1  0.66542000  0.33459000  0.16541000  1.0
  H  H28  1  0.16541000  0.16541000  0.16541000  1.0
  H  H29  1  0.83458000  0.33459000  0.66541000  1.0
  H  H30  1  0.66541000  0.83459000  0.33459000  1.0
  H  H31  1  0.33458000  0.66541000  0.83459000  1.0
  H  H32  1  0.89435000  0.87700000  0.02090000  1.0
  H  H33  1  0.87700000  0.02090000  0.89435000  1.0
  H  H34  1  0.02090000  0.89435000  0.87700000  1.0
  H  H35  1  0.10565000  0.62299000  0.52090000  1.0
  H  H36  1  0.39435000  0.12300000  0.47910000  1.0
  H  H37  1  0.60565000  0.37700000  0.97910000  1.0
  H  H38  1  0.62300000  0.52090000  0.10565000  1.0
  H  H39  1  0.12300000  0.47910000  0.39436000  1.0
  H  H40  1  0.37700000  0.97910000  0.60565000  1.0
  H  H41  1  0.52090000  0.10564000  0.62300000  1.0
  H  H42  1  0.47910000  0.39435000  0.12300000  1.0
  H  H43  1  0.97911000  0.60565000  0.37700000  1.0
  H  H44  1  0.10565000  0.12300000  0.97910000  1.0
  H  H45  1  0.12300000  0.97910000  0.10565000  1.0
  H  H46  1  0.97909000  0.10565000  0.12300000  1.0
  H  H47  1  0.89435000  0.37701000  0.47910000  1.0
  H  H48  1  0.60565000  0.87700000  0.52090000  1.0
  H  H49  1  0.39435000  0.62300000  0.02090000  1.0
  H  H50  1  0.37701000  0.47910000  0.89435000  1.0
  H  H51  1  0.87700000  0.52090000  0.60564000  1.0
  H  H52  1  0.62300000  0.02090000  0.39435000  1.0
  H  H53  1  0.47910000  0.89435000  0.37700000  1.0
  H  H54  1  0.52090000  0.60565000  0.87700000  1.0
  H  H55  1  0.02090000  0.39435000  0.62300000  1.0
  H  H56  1  0.85521000  0.81485000  0.08861000  1.0
  H  H57  1  0.81485000  0.08862000  0.85521000  1.0
  H  H58  1  0.08862000  0.85521000  0.81486000  1.0
  H  H59  1  0.14479000  0.68514000  0.58862000  1.0
  H  H60  1  0.35521000  0.18515000  0.41138000  1.0
  H  H61  1  0.64479000  0.31485000  0.91138000  1.0
  H  H62  1  0.68514000  0.58862000  0.14479000  1.0
  H  H63  1  0.18514000  0.41138000  0.35521000  1.0
  H  H64  1  0.31486000  0.91138000  0.64479000  1.0
  H  H65  1  0.58862000  0.14479000  0.68514000  1.0
  H  H66  1  0.41138000  0.35521000  0.18515000  1.0
  H  H67  1  0.91138000  0.64479000  0.31485000  1.0
  H  H68  1  0.14479000  0.18515000  0.91138000  1.0
  H  H69  1  0.18515000  0.91138000  0.14479000  1.0
  H  H70  1  0.91138000  0.14479000  0.18514000  1.0
  H  H71  1  0.85521000  0.31486000  0.41138000  1.0
  H  H72  1  0.64479000  0.81486000  0.58862000  1.0
  H  H73  1  0.35521000  0.68514000  0.08862000  1.0
  H  H74  1  0.31486000  0.41138000  0.85521000  1.0
  H  H75  1  0.81486000  0.58862000  0.64479000  1.0
  H  H76  1  0.68515000  0.08862000  0.35521000  1.0
  H  H77  1  0.41138000  0.85521000  0.31486000  1.0
  H  H78  1  0.58862000  0.64479000  0.81485000  1.0
  H  H79  1  0.08862000  0.35521000  0.68514000  1.0
  H  H80  1  0.94988000  0.73998000  0.17232000  1.0
  H  H81  1  0.73998000  0.17232000  0.94988000  1.0
  H  H82  1  0.17232000  0.94988000  0.73998000  1.0
  H  H83  1  0.05012000  0.76002000  0.67232000  1.0
  H  H84  1  0.44988000  0.26003000  0.32768000  1.0
  H  H85  1  0.55012000  0.23998000  0.82768000  1.0
  H  H86  1  0.76002000  0.67232000  0.05012000  1.0
  H  H87  1  0.26002000  0.32768000  0.44988000  1.0
  H  H88  1  0.23997000  0.82768000  0.55012000  1.0
  H  H89  1  0.67232000  0.05012000  0.76002000  1.0
  H  H90  1  0.32768000  0.44987000  0.26003000  1.0
  H  H91  1  0.82768000  0.55012000  0.23997000  1.0
  H  H92  1  0.05012000  0.26002000  0.82768000  1.0
  H  H93  1  0.26002000  0.82767000  0.05012000  1.0
  H  H94  1  0.82768000  0.05012000  0.26002000  1.0
  H  H95  1  0.94987000  0.23998000  0.32768000  1.0
  H  H96  1  0.55012000  0.73998000  0.67232000  1.0
  H  H97  1  0.44988000  0.76002000  0.17232000  1.0
  H  H98  1  0.23998000  0.32768000  0.94988000  1.0
  H  H99  1  0.73997000  0.67232000  0.55012000  1.0
  H  H100  1  0.76002000  0.17232000  0.44988000  1.0
  H  H101  1  0.32768000  0.94988000  0.23998000  1.0
  H  H102  1  0.67232000  0.55012000  0.73997000  1.0
  H  H103  1  0.17232000  0.44988000  0.76003000  1.0
  C  C104  1  0.87063000  0.76446000  0.97733000  1.0
  C  C105  1  0.76446000  0.97734000  0.87063000  1.0
  C  C106  1  0.97734000  0.87063000  0.76447000  1.0
  C  C107  1  0.12937000  0.73553000  0.47734000  1.0
  C  C108  1  0.37063000  0.23555000  0.52266000  1.0
  C  C109  1  0.62937000  0.26446000  0.02266000  1.0
  C  C110  1  0.73554000  0.47734000  0.12937000  1.0
  C  C111  1  0.23554000  0.52266000  0.37064000  1.0
  C  C112  1  0.26446000  0.02266000  0.62938000  1.0
  C  C113  1  0.47734000  0.12937000  0.73554000  1.0
  C  C114  1  0.52267000  0.37063000  0.23553000  1.0
  C  C115  1  0.02266000  0.62936000  0.26445000  1.0
  C  C116  1  0.12936000  0.23554000  0.02266000  1.0
  C  C117  1  0.23554000  0.02266000  0.12937000  1.0
  C  C118  1  0.02266000  0.12937000  0.23553000  1.0
  C  C119  1  0.87062000  0.26447000  0.52266000  1.0
  C  C120  1  0.62937000  0.76446000  0.47734000  1.0
  C  C121  1  0.37062000  0.73553000  0.97734000  1.0
  C  C122  1  0.26448000  0.52265000  0.87062000  1.0
  C  C123  1  0.76445000  0.47734000  0.62936000  1.0
  C  C124  1  0.73554000  0.97734000  0.37063000  1.0
  C  C125  1  0.52266000  0.87063000  0.26446000  1.0
  C  C126  1  0.47734000  0.62938000  0.76447000  1.0
  C  C127  1  0.97734000  0.37063000  0.73554000  1.0
  C  C128  1  0.89472000  0.81840000  0.04108000  1.0
  C  C129  1  0.81839000  0.04109000  0.89472000  1.0
  C  C130  1  0.04109000  0.89472000  0.81840000  1.0
  C  C131  1  0.10529000  0.68160000  0.54109000  1.0
  C  C132  1  0.39471000  0.18161000  0.45891000  1.0
  C  C133  1  0.60529000  0.31839000  0.95891000  1.0
  C  C134  1  0.68161000  0.54109000  0.10529000  1.0
  C  C135  1  0.18160000  0.45892000  0.39472000  1.0
  C  C136  1  0.31840000  0.95891000  0.60529000  1.0
  C  C137  1  0.54109000  0.10529000  0.68160000  1.0
  C  C138  1  0.45891000  0.39471000  0.18160000  1.0
  C  C139  1  0.95891000  0.60528000  0.31839000  1.0
  C  C140  1  0.10528000  0.18161000  0.95891000  1.0
  C  C141  1  0.18161000  0.95891000  0.10529000  1.0
  C  C142  1  0.95891000  0.10529000  0.18160000  1.0
  C  C143  1  0.89471000  0.31840000  0.45892000  1.0
  C  C144  1  0.60529000  0.81840000  0.54109000  1.0
  C  C145  1  0.39471000  0.68160000  0.04109000  1.0
  C  C146  1  0.31840000  0.45891000  0.89471000  1.0
  C  C147  1  0.81839000  0.54109000  0.60528000  1.0
  C  C148  1  0.68160000  0.04109000  0.39471000  1.0
  C  C149  1  0.45891000  0.89471000  0.31840000  1.0
  C  C150  1  0.54109000  0.60529000  0.81839000  1.0
  C  C151  1  0.04109000  0.39471000  0.68160000  1.0
  C  C152  1  0.98901000  0.76433000  0.13228000  1.0
  C  C153  1  0.76433000  0.13228000  0.98901000  1.0
  C  C154  1  0.13228000  0.98902000  0.76433000  1.0
  C  C155  1  0.01099000  0.73567000  0.63228000  1.0
  C  C156  1  0.48901000  0.23568000  0.36773000  1.0
  C  C157  1  0.51099000  0.26433000  0.86773000  1.0
  C  C158  1  0.73568000  0.63228000  0.01099000  1.0
  C  C159  1  0.23567000  0.36773000  0.48902000  1.0
  C  C160  1  0.26432000  0.86772000  0.51099000  1.0
  C  C161  1  0.63228000  0.01099000  0.73567000  1.0
  C  C162  1  0.36773000  0.48901000  0.23568000  1.0
  C  C163  1  0.86773000  0.51098000  0.26433000  1.0
  C  C164  1  0.01099000  0.23567000  0.86772000  1.0
  C  C165  1  0.23568000  0.86772000  0.01099000  1.0
  C  C166  1  0.86772000  0.01099000  0.23567000  1.0
  C  C167  1  0.98901000  0.26433000  0.36773000  1.0
  C  C168  1  0.51099000  0.76433000  0.63228000  1.0
  C  C169  1  0.48901000  0.73567000  0.13228000  1.0
  C  C170  1  0.26433000  0.36772000  0.98901000  1.0
  C  C171  1  0.76432000  0.63228000  0.51099000  1.0
  C  C172  1  0.73567000  0.13228000  0.48901000  1.0
  C  C173  1  0.36772000  0.98901000  0.26432000  1.0
  C  C174  1  0.63227000  0.51099000  0.76432000  1.0
  C  C175  1  0.13227000  0.48901000  0.73567000  1.0
  S  S176  1  0.70772000  0.70772000  0.70771000  1.0
  S  S177  1  0.29229000  0.79229000  0.20772000  1.0
  S  S178  1  0.20772000  0.29228000  0.79229000  1.0
  S  S179  1  0.79229000  0.20771000  0.29229000  1.0
  S  S180  1  0.29229000  0.29228000  0.29229000  1.0
  S  S181  1  0.70771000  0.20772000  0.79228000  1.0
  S  S182  1  0.79228000  0.70771000  0.20771000  1.0
  S  S183  1  0.20771000  0.79228000  0.70771000  1.0
  N  N184  1  0.06392000  0.76530000  0.13586000  1.0
  N  N185  1  0.76530000  0.13586000  0.06392000  1.0
  N  N186  1  0.13586000  0.06393000  0.76530000  1.0
  N  N187  1  0.93608000  0.73470000  0.63586000  1.0
  N  N188  1  0.56392000  0.23470000  0.36414000  1.0
  N  N189  1  0.43608000  0.26530000  0.86415000  1.0
  N  N190  1  0.73470000  0.63586000  0.93608000  1.0
  N  N191  1  0.23470000  0.36414000  0.56393000  1.0
  N  N192  1  0.26530000  0.86414000  0.43608000  1.0
  N  N193  1  0.63586000  0.93608000  0.73470000  1.0
  N  N194  1  0.36415000  0.56392000  0.23470000  1.0
  N  N195  1  0.86415000  0.43607000  0.26530000  1.0
  N  N196  1  0.93608000  0.23470000  0.86414000  1.0
  N  N197  1  0.23470000  0.86414000  0.93608000  1.0
  N  N198  1  0.86414000  0.93608000  0.23470000  1.0
  N  N199  1  0.06392000  0.26530000  0.36414000  1.0
  N  N200  1  0.43608000  0.76530000  0.63586000  1.0
  N  N201  1  0.56392000  0.73470000  0.13585000  1.0
  N  N202  1  0.26530000  0.36414000  0.06392000  1.0
  N  N203  1  0.76529000  0.63586000  0.43608000  1.0
  N  N204  1  0.73470000  0.13586000  0.56392000  1.0
  N  N205  1  0.36414000  0.06392000  0.26530000  1.0
  N  N206  1  0.63585000  0.43608000  0.76530000  1.0
  N  N207  1  0.13586000  0.56392000  0.73470000  1.0
  N  N208  1  0.08949000  0.80308000  0.07376000  1.0
  N  N209  1  0.80308000  0.07375000  0.08949000  1.0
  N  N210  1  0.07376000  0.08949000  0.80308000  1.0
  N  N211  1  0.91051000  0.69692000  0.57376000  1.0
  N  N212  1  0.58949000  0.19692000  0.42624000  1.0
  N  N213  1  0.41051000  0.30308000  0.92625000  1.0
  N  N214  1  0.69692000  0.57376000  0.91051000  1.0
  N  N215  1  0.19692000  0.42625000  0.58949000  1.0
  N  N216  1  0.30308000  0.92624000  0.41051000  1.0
  N  N217  1  0.57376000  0.91051000  0.69692000  1.0
  N  N218  1  0.42625000  0.58949000  0.19692000  1.0
  N  N219  1  0.92625000  0.41051000  0.30308000  1.0
  N  N220  1  0.91051000  0.19692000  0.92624000  1.0
  N  N221  1  0.19692000  0.92624000  0.91051000  1.0
  N  N222  1  0.92625000  0.91051000  0.19692000  1.0
  N  N223  1  0.08949000  0.30308000  0.42624000  1.0
  N  N224  1  0.41051000  0.80308000  0.57376000  1.0
  N  N225  1  0.58949000  0.69692000  0.07375000  1.0
  N  N226  1  0.30308000  0.42624000  0.08949000  1.0
  N  N227  1  0.80308000  0.57376000  0.41051000  1.0
  N  N228  1  0.69692000  0.07376000  0.58949000  1.0
  N  N229  1  0.42624000  0.08949000  0.30308000  1.0
  N  N230  1  0.57375000  0.41051000  0.80308000  1.0
  N  N231  1  0.07375000  0.58949000  0.69692000  1.0
  N  N232  1  0.03266000  0.82487000  0.03349000  1.0
  N  N233  1  0.82487000  0.03349000  0.03266000  1.0
  N  N234  1  0.03349000  0.03266000  0.82487000  1.0
  N  N235  1  0.96734000  0.67513000  0.53350000  1.0
  N  N236  1  0.53266000  0.17513000  0.46651000  1.0
  N  N237  1  0.46734000  0.32487000  0.96651000  1.0
  N  N238  1  0.67513000  0.53349000  0.96734000  1.0
  N  N239  1  0.17513000  0.46651000  0.53266000  1.0
  N  N240  1  0.32487000  0.96651000  0.46735000  1.0
  N  N241  1  0.53349000  0.96734000  0.67513000  1.0
  N  N242  1  0.46651000  0.53265000  0.17513000  1.0
  N  N243  1  0.96651000  0.46734000  0.32487000  1.0
  N  N244  1  0.96734000  0.17513000  0.96651000  1.0
  N  N245  1  0.17513000  0.96651000  0.96734000  1.0
  N  N246  1  0.96651000  0.96735000  0.17513000  1.0
  N  N247  1  0.03266000  0.32487000  0.46651000  1.0
  N  N248  1  0.46734000  0.82487000  0.53349000  1.0
  N  N249  1  0.53265000  0.67513000  0.03349000  1.0
  N  N250  1  0.32487000  0.46651000  0.03265000  1.0
  N  N251  1  0.82487000  0.53349000  0.46734000  1.0
  N  N252  1  0.67513000  0.03349000  0.53266000  1.0
  N  N253  1  0.46651000  0.03266000  0.32487000  1.0
  N  N254  1  0.53349000  0.46735000  0.82487000  1.0
  N  N255  1  0.03349000  0.53266000  0.67513000  1.0
  N  N256  1  0.96935000  0.80121000  0.06947000  1.0
  N  N257  1  0.80121000  0.06947000  0.96935000  1.0
  N  N258  1  0.06947000  0.96935000  0.80122000  1.0
  N  N259  1  0.03065000  0.69878000  0.56947000  1.0
  N  N260  1  0.46935000  0.19879000  0.43053000  1.0
  N  N261  1  0.53065000  0.30121000  0.93053000  1.0
  N  N262  1  0.69879000  0.56947000  0.03066000  1.0
  N  N263  1  0.19879000  0.43053000  0.46935000  1.0
  N  N264  1  0.30121000  0.93053000  0.53066000  1.0
  N  N265  1  0.56947000  0.03065000  0.69879000  1.0
  N  N266  1  0.43053000  0.46934000  0.19879000  1.0
  N  N267  1  0.93053000  0.53065000  0.30121000  1.0
  N  N268  1  0.03065000  0.19879000  0.93053000  1.0
  N  N269  1  0.19879000  0.93053000  0.03066000  1.0
  N  N270  1  0.93053000  0.03066000  0.19879000  1.0
  N  N271  1  0.96935000  0.30121000  0.43053000  1.0
  N  N272  1  0.53065000  0.80121000  0.56947000  1.0
  N  N273  1  0.46934000  0.69879000  0.06947000  1.0
  N  N274  1  0.30122000  0.43053000  0.96934000  1.0
  N  N275  1  0.80121000  0.56947000  0.53065000  1.0
  N  N276  1  0.69878000  0.06947000  0.46935000  1.0
  N  N277  1  0.43053000  0.96935000  0.30121000  1.0
  N  N278  1  0.56947000  0.53066000  0.80121000  1.0
  N  N279  1  0.06947000  0.46934000  0.69879000  1.0
  O  O280  1  0.91179000  0.71406000  0.95319000  1.0
  O  O281  1  0.71406000  0.95320000  0.91179000  1.0
  O  O282  1  0.95320000  0.91180000  0.71406000  1.0
  O  O283  1  0.08821000  0.78593000  0.45320000  1.0
  O  O284  1  0.41178000  0.28594000  0.54680000  1.0
  O  O285  1  0.58821000  0.21406000  0.04680000  1.0
  O  O286  1  0.78593000  0.45319000  0.08821000  1.0
  O  O287  1  0.28594000  0.54680000  0.41179000  1.0
  O  O288  1  0.21407000  0.04680000  0.58822000  1.0
  O  O289  1  0.45319000  0.08822000  0.78593000  1.0
  O  O290  1  0.54682000  0.41178000  0.28593000  1.0
  O  O291  1  0.04680000  0.58821000  0.21406000  1.0
  O  O292  1  0.08820000  0.28594000  0.04680000  1.0
  O  O293  1  0.28593000  0.04681000  0.08822000  1.0
  O  O294  1  0.04680000  0.08821000  0.28593000  1.0
  O  O295  1  0.91178000  0.21407000  0.54681000  1.0
  O  O296  1  0.58821000  0.71406000  0.45319000  1.0
  O  O297  1  0.41178000  0.78594000  0.95320000  1.0
  O  O298  1  0.21406000  0.54680000  0.91178000  1.0
  O  O299  1  0.71407000  0.45320000  0.58821000  1.0
  O  O300  1  0.78593000  0.95320000  0.41180000  1.0
  O  O301  1  0.54680000  0.91179000  0.21407000  1.0
  O  O302  1  0.45320000  0.58822000  0.71406000  1.0
  O  O303  1  0.95320000  0.41177000  0.78594000  1.0
  O  O304  1  0.80228000  0.78110000  0.95455000  1.0
  O  O305  1  0.78110000  0.95456000  0.80227000  1.0
  O  O306  1  0.95456000  0.80228000  0.78110000  1.0
  O  O307  1  0.19772000  0.71890000  0.45456000  1.0
  O  O308  1  0.30227000  0.21890000  0.54544000  1.0
  O  O309  1  0.69772000  0.28110000  0.04545000  1.0
  O  O310  1  0.71891000  0.45456000  0.19773000  1.0
  O  O311  1  0.21890000  0.54545000  0.30228000  1.0
  O  O312  1  0.28110000  0.04544000  0.69773000  1.0
  O  O313  1  0.45456000  0.19773000  0.71890000  1.0
  O  O314  1  0.54545000  0.30227000  0.21889000  1.0
  O  O315  1  0.04544000  0.69772000  0.28109000  1.0
  O  O316  1  0.19772000  0.21891000  0.04544000  1.0
  O  O317  1  0.21890000  0.04544000  0.19773000  1.0
  O  O318  1  0.04545000  0.19773000  0.21890000  1.0
  O  O319  1  0.80227000  0.28111000  0.54544000  1.0
  O  O320  1  0.69773000  0.78110000  0.45456000  1.0
  O  O321  1  0.30227000  0.71890000  0.95456000  1.0
  O  O322  1  0.28111000  0.54544000  0.80227000  1.0
  O  O323  1  0.78109000  0.45456000  0.69772000  1.0
  O  O324  1  0.71891000  0.95455000  0.30228000  1.0
  O  O325  1  0.54544000  0.80227000  0.28109000  1.0
  O  O326  1  0.45456000  0.69773000  0.78110000  1.0
  O  O327  1  0.95455000  0.30227000  0.71889000  1.0
  O  O328  1  0.80269000  0.80269000  0.80269000  1.0
  O  O329  1  0.19731000  0.69731000  0.30269000  1.0
  O  O330  1  0.30269000  0.19731000  0.69731000  1.0
  O  O331  1  0.69731000  0.30269000  0.19731000  1.0
  O  O332  1  0.19731000  0.19731000  0.19731000  1.0
  O  O333  1  0.80269000  0.30269000  0.69731000  1.0
  O  O334  1  0.69731000  0.80269000  0.30269000  1.0
  O  O335  1  0.30269000  0.69731000  0.80269000  1.0
  O  O336  1  0.71522000  0.67240000  0.78483000  1.0
  O  O337  1  0.67240000  0.78483000  0.71523000  1.0
  O  O338  1  0.78484000  0.71523000  0.67240000  1.0
  O  O339  1  0.28476000  0.82761000  0.28484000  1.0
  O  O340  1  0.21524000  0.32761000  0.71517000  1.0
  O  O341  1  0.78476000  0.17239000  0.21517000  1.0
  O  O342  1  0.82761000  0.28483000  0.28476000  1.0
  O  O343  1  0.32761000  0.71517000  0.21524000  1.0
  O  O344  1  0.17240000  0.21517000  0.78477000  1.0
  O  O345  1  0.28483000  0.28476000  0.82761000  1.0
  O  O346  1  0.71517000  0.21524000  0.32761000  1.0
  O  O347  1  0.21517000  0.78476000  0.17240000  1.0
  O  O348  1  0.28478000  0.32760000  0.21516000  1.0
  O  O349  1  0.32760000  0.21516000  0.28478000  1.0
  O  O350  1  0.21516000  0.28478000  0.32760000  1.0
  O  O351  1  0.71523000  0.17240000  0.71517000  1.0
  O  O352  1  0.78477000  0.67240000  0.28483000  1.0
  O  O353  1  0.21523000  0.82760000  0.78483000  1.0
  O  O354  1  0.17240000  0.71517000  0.71523000  1.0
  O  O355  1  0.67239000  0.28483000  0.78477000  1.0
  O  O356  1  0.82760000  0.78483000  0.21523000  1.0
  O  O357  1  0.71517000  0.71523000  0.17239000  1.0
  O  O358  1  0.28483000  0.78477000  0.67240000  1.0
  O  O359  1  0.78483000  0.21523000  0.82760000  1.0
  O  O360  1  0.66030000  0.66030000  0.66030000  1.0
  O  O361  1  0.33970000  0.83970000  0.16031000  1.0
  O  O362  1  0.16031000  0.33970000  0.83970000  1.0
  O  O363  1  0.83970000  0.16030000  0.33970000  1.0
  O  O364  1  0.33970000  0.33970000  0.33970000  1.0
  O  O365  1  0.66030000  0.16030000  0.83969000  1.0
  O  O366  1  0.83970000  0.66030000  0.16030000  1.0
  O  O367  1  0.16030000  0.83970000  0.66030000  1.0
