# generated using pymatgen
data_PrP4H20Ru2(CO5)4
_symmetry_space_group_name_H-M   'P 1'
_cell_length_a   9.66208000
_cell_length_b   9.66319000
_cell_length_c   15.69000000
_cell_angle_alpha   92.53690000
_cell_angle_beta   92.53720000
_cell_angle_gamma   97.17190000
_symmetry_Int_Tables_number   1
_chemical_formula_structural   PrP4H20Ru2(CO5)4
_chemical_formula_sum   'Pr2 P8 H40 Ru4 C8 O40'
_cell_volume   1450.20127589
_cell_formula_units_Z   2
loop_
 _symmetry_equiv_pos_site_id
 _symmetry_equiv_pos_as_xyz
  1  'x, y, z'
loop_
 _atom_site_type_symbol
 _atom_site_label
 _atom_site_symmetry_multiplicity
 _atom_site_fract_x
 _atom_site_fract_y
 _atom_site_fract_z
 _atom_site_occupancy
  Pr  Pr0  1  0.99830000  0.00171000  0.24999000  1.0
  Pr  Pr1  1  0.00178000  0.99835000  0.74996000  1.0
  P  P2  1  0.66211000  0.94008000  0.36374000  1.0
  P  P3  1  0.05991000  0.33792000  0.13621000  1.0
  P  P4  1  0.33795000  0.05993000  0.63618000  1.0
  P  P5  1  0.94012000  0.66211000  0.86375000  1.0
  P  P6  1  0.35942000  0.99790000  0.34068000  1.0
  P  P7  1  0.00205000  0.64056000  0.15931000  1.0
  P  P8  1  0.64063000  0.00209000  0.65927000  1.0
  P  P9  1  0.99800000  0.35945000  0.84069000  1.0
  H  H10  1  0.55884000  0.16580000  0.27836000  1.0
  H  H11  1  0.83415000  0.44104000  0.22163000  1.0
  H  H12  1  0.44115000  0.83422000  0.72155000  1.0
  H  H13  1  0.16588000  0.55899000  0.77835000  1.0
  H  H14  1  0.34292000  0.60711000  0.44828000  1.0
  H  H15  1  0.39326000  0.65696000  0.05176000  1.0
  H  H16  1  0.65687000  0.39355000  0.55180000  1.0
  H  H17  1  0.60671000  0.34308000  0.94823000  1.0
  H  H18  1  0.50153000  0.61348000  0.46993000  1.0
  H  H19  1  0.38536000  0.49800000  0.03091000  1.0
  H  H20  1  0.49753000  0.38409000  0.53193000  1.0
  H  H21  1  0.61483000  0.50210000  0.96893000  1.0
  H  H22  1  0.85074000  0.17555000  0.37843000  1.0
  H  H23  1  0.82441000  0.14943000  0.12162000  1.0
  H  H24  1  0.14944000  0.82446000  0.62153000  1.0
  H  H25  1  0.17562000  0.85062000  0.87835000  1.0
  H  H26  1  0.92266000  0.28904000  0.31771000  1.0
  H  H27  1  0.71095000  0.07749000  0.18237000  1.0
  H  H28  1  0.07747000  0.71099000  0.68226000  1.0
  H  H29  1  0.28909000  0.92253000  0.81759000  1.0
  H  H30  1  0.09816000  0.86280000  0.07897000  1.0
  H  H31  1  0.13723000  0.90175000  0.42101000  1.0
  H  H32  1  0.90185000  0.13718000  0.92098000  1.0
  H  H33  1  0.86277000  0.09821000  0.57891000  1.0
  H  H34  1  0.11168000  0.02542000  0.06351000  1.0
  H  H35  1  0.97457000  0.88800000  0.43640000  1.0
  H  H36  1  0.88818000  0.97453000  0.93632000  1.0
  H  H37  1  0.02534000  0.11154000  0.56327000  1.0
  H  H38  1  0.40068000  0.85278000  0.17727000  1.0
  H  H39  1  0.14715000  0.59931000  0.32272000  1.0
  H  H40  1  0.59936000  0.14719000  0.82270000  1.0
  H  H41  1  0.85287000  0.40070000  0.67728000  1.0
  H  H42  1  0.45931000  0.74131000  0.25530000  1.0
  H  H43  1  0.25870000  0.54074000  0.24470000  1.0
  H  H44  1  0.54077000  0.25869000  0.74469000  1.0
  H  H45  1  0.74133000  0.45928000  0.75531000  1.0
  H  H46  1  0.58187000  0.82504000  0.18649000  1.0
  H  H47  1  0.17494000  0.41815000  0.31349000  1.0
  H  H48  1  0.41816000  0.17494000  0.81346000  1.0
  H  H49  1  0.82507000  0.58186000  0.68651000  1.0
  Ru  Ru50  1  0.46332000  0.88112000  0.50425000  1.0
  Ru  Ru51  1  0.11889000  0.53678000  0.99570000  1.0
  Ru  Ru52  1  0.53681000  0.11884000  0.49563000  1.0
  Ru  Ru53  1  0.88116000  0.46327000  0.00429000  1.0
  C  C54  1  0.51705000  0.96145000  0.28573000  1.0
  C  C55  1  0.03851000  0.48298000  0.21425000  1.0
  C  C56  1  0.48303000  0.03856000  0.71421000  1.0
  C  C57  1  0.96152000  0.51708000  0.78574000  1.0
  C  C58  1  0.48790000  0.83714000  0.22167000  1.0
  C  C59  1  0.16283000  0.51212000  0.27831000  1.0
  C  C60  1  0.51215000  0.16284000  0.77828000  1.0
  C  C61  1  0.83719000  0.48790000  0.72169000  1.0
  O  O62  1  0.61008000  0.82402000  0.42463000  1.0
  O  O63  1  0.17600000  0.39002000  0.07534000  1.0
  O  O64  1  0.39008000  0.17603000  0.57531000  1.0
  O  O65  1  0.82401000  0.61003000  0.92464000  1.0
  O  O66  1  0.69246000  0.08486000  0.41590000  1.0
  O  O67  1  0.91517000  0.30762000  0.08405000  1.0
  O  O68  1  0.30763000  0.91523000  0.58401000  1.0
  O  O69  1  0.08489000  0.69245000  0.91594000  1.0
  O  O70  1  0.78607000  0.90830000  0.31516000  1.0
  O  O71  1  0.09171000  0.21400000  0.18479000  1.0
  O  O72  1  0.21405000  0.09177000  0.68476000  1.0
  O  O73  1  0.90833000  0.78606000  0.81518000  1.0
  O  O74  1  0.32151000  0.87727000  0.40286000  1.0
  O  O75  1  0.12271000  0.67852000  0.09711000  1.0
  O  O76  1  0.67855000  0.12272000  0.59704000  1.0
  O  O77  1  0.87735000  0.32152000  0.90288000  1.0
  O  O78  1  0.40581000  0.13872000  0.39299000  1.0
  O  O79  1  0.86121000  0.59419000  0.10695000  1.0
  O  O80  1  0.59426000  0.86125000  0.60693000  1.0
  O  O81  1  0.13881000  0.40584000  0.89303000  1.0
  O  O82  1  0.24373000  0.00721000  0.27472000  1.0
  O  O83  1  0.99274000  0.75628000  0.22526000  1.0
  O  O84  1  0.75634000  0.99283000  0.72522000  1.0
  O  O85  1  0.00732000  0.24377000  0.77474000  1.0
  O  O86  1  0.56031000  0.08501000  0.23859000  1.0
  O  O87  1  0.91497000  0.43964000  0.26139000  1.0
  O  O88  1  0.43972000  0.91500000  0.76133000  1.0
  O  O89  1  0.08506000  0.56037000  0.73859000  1.0
  O  O90  1  0.41313000  0.62756000  0.49527000  1.0
  O  O91  1  0.37294000  0.58632000  0.00498000  1.0
  O  O92  1  0.58571000  0.37352000  0.50530000  1.0
  O  O93  1  0.62703000  0.41380000  0.99496000  1.0
  O  O94  1  0.93441000  0.20086000  0.34560000  1.0
  O  O95  1  0.79918000  0.06582000  0.15451000  1.0
  O  O96  1  0.06578000  0.79919000  0.65439000  1.0
  O  O97  1  0.20087000  0.93423000  0.84546000  1.0
  O  O98  1  0.05987000  0.95063000  0.09291000  1.0
  O  O99  1  0.04937000  0.94004000  0.40712000  1.0
  O  O100  1  0.94016000  0.04937000  0.90704000  1.0
  O  O101  1  0.95063000  0.05998000  0.59288000  1.0
