# generated using pymatgen
data_CoH19C22N5O4
_symmetry_space_group_name_H-M   'P 1'
_cell_length_a   10.07190000
_cell_length_b   11.34702589
_cell_length_c   11.36950000
_cell_angle_alpha   103.66700097
_cell_angle_beta   113.60300000
_cell_angle_gamma   109.39682807
_symmetry_Int_Tables_number   1
_chemical_formula_structural   CoH19C22N5O4
_chemical_formula_sum   'Co2 H38 C44 N10 O8'
_cell_volume   1015.44368306
_cell_formula_units_Z   2
loop_
 _symmetry_equiv_pos_site_id
 _symmetry_equiv_pos_as_xyz
  1  'x, y, z'
loop_
 _atom_site_type_symbol
 _atom_site_label
 _atom_site_symmetry_multiplicity
 _atom_site_fract_x
 _atom_site_fract_y
 _atom_site_fract_z
 _atom_site_occupancy
  Co  Co0  1  0.43771000  0.59352000  0.13033000  1.0
  Co  Co1  1  0.56229000  0.40648000  0.86967000  1.0
  H  H2  1  0.95714000  0.85338000  0.43940000  1.0
  H  H3  1  0.04287000  0.14662000  0.56060000  1.0
  H  H4  1  0.42371000  0.89341000  0.49841000  1.0
  H  H5  1  0.57630000  0.10660000  0.50160000  1.0
  H  H6  1  0.97093000  0.59414000  0.10476000  1.0
  H  H7  1  0.02907000  0.40586000  0.89524000  1.0
  H  H8  1  0.17813000  0.60485000  0.89191000  1.0
  H  H9  1  0.82187000  0.39515000  0.10810000  1.0
  H  H10  1  0.15079000  0.71643000  0.72383000  1.0
  H  H11  1  0.84920000  0.28356000  0.27616000  1.0
  H  H12  1  0.40306000  0.89621000  0.75807000  1.0
  H  H13  1  0.59693000  0.10378000  0.24192000  1.0
  H  H14  1  0.68841000  0.83289000  0.11451000  1.0
  H  H15  1  0.31159000  0.16711000  0.88549000  1.0
  H  H16  1  0.65944000  0.11028000  0.86490000  1.0
  H  H17  1  0.34056000  0.88972000  0.13510000  1.0
  H  H18  1  0.64875000  0.96355000  0.75609000  1.0
  H  H19  1  0.35125000  0.03645000  0.24391000  1.0
  H  H20  1  0.84600000  0.11057000  0.89121000  1.0
  H  H21  1  0.15399000  0.88942000  0.10878000  1.0
  H  H22  1  0.99517000  0.09310000  0.33799000  1.0
  H  H23  1  0.00483000  0.90690000  0.66201000  1.0
  H  H24  1  0.21435000  0.19640000  0.46055000  1.0
  H  H25  1  0.78565000  0.80360000  0.53945000  1.0
  H  H26  1  0.12805000  0.02659000  0.33151000  1.0
  H  H27  1  0.87195000  0.97341000  0.66849000  1.0
  H  H28  1  0.18499000  0.35160000  0.12196000  1.0
  H  H29  1  0.81501000  0.64841000  0.87804000  1.0
  H  H30  1  0.69492000  0.56926000  0.37092000  1.0
  H  H31  1  0.30507000  0.43074000  0.62908000  1.0
  H  H32  1  0.70122000  0.42832000  0.51175000  1.0
  H  H33  1  0.29878000  0.57168000  0.48825000  1.0
  H  H34  1  0.43604000  0.24898000  0.45917000  1.0
  H  H35  1  0.56396000  0.75102000  0.54083000  1.0
  H  H36  1  0.21427000  0.03460000  0.64175000  1.0
  H  H37  1  0.78573000  0.96540000  0.35825000  1.0
  H  H38  1  0.39330000  0.07698000  0.64819000  1.0
  H  H39  1  0.60670000  0.92302000  0.35182000  1.0
  C  C40  1  0.76281000  0.65351000  0.17575000  1.0
  C  C41  1  0.23719000  0.34649000  0.82425000  1.0
  C  C42  1  0.94597000  0.71665000  0.26518000  1.0
  C  C43  1  0.05403000  0.28335000  0.73482000  1.0
  C  C44  1  0.02900000  0.82157000  0.40176000  1.0
  C  C45  1  0.97100000  0.17843000  0.59824000  1.0
  C  C46  1  0.20211000  0.88962000  0.48738000  1.0
  C  C47  1  0.79790000  0.11038000  0.51262000  1.0
  C  C48  1  0.28946000  0.84440000  0.43417000  1.0
  C  C49  1  0.71054000  0.15560000  0.56583000  1.0
  C  C50  1  0.20589000  0.73772000  0.29824000  1.0
  C  C51  1  0.79411000  0.26228000  0.70177000  1.0
  C  C52  1  0.03379000  0.67411000  0.21184000  1.0
  C  C53  1  0.96621000  0.32589000  0.78816000  1.0
  C  C54  1  0.30040000  0.69232000  0.24291000  1.0
  C  C55  1  0.69960000  0.30768000  0.75709000  1.0
  C  C56  1  0.28620000  0.68132000  0.90120000  1.0
  C  C57  1  0.71380000  0.31868000  0.09880000  1.0
  C  C58  1  0.27245000  0.74387000  0.80875000  1.0
  C  C59  1  0.72755000  0.25613000  0.19126000  1.0
  C  C60  1  0.41478000  0.84366000  0.82763000  1.0
  C  C61  1  0.58522000  0.15634000  0.17237000  1.0
  C  C62  1  0.56917000  0.87885000  0.94019000  1.0
  C  C63  1  0.43082000  0.12114000  0.05980000  1.0
  C  C64  1  0.57078000  0.80894000  0.02728000  1.0
  C  C65  1  0.42922000  0.19106000  0.97272000  1.0
  C  C66  1  0.72486000  0.98727000  0.96971000  1.0
  C  C67  1  0.27514000  0.01273000  0.03030000  1.0
  C  C68  1  0.72062000  0.04603000  0.86428000  1.0
  C  C69  1  0.27938000  0.95397000  0.13572000  1.0
  C  C70  1  0.12620000  0.17491000  0.24458000  1.0
  C  C71  1  0.87380000  0.82509000  0.75542000  1.0
  C  C72  1  0.11688000  0.12155000  0.35123000  1.0
  C  C73  1  0.88312000  0.87845000  0.64876000  1.0
  C  C74  1  0.28679000  0.28248000  0.28246000  1.0
  C  C75  1  0.71321000  0.71752000  0.71753000  1.0
  C  C76  1  0.29680000  0.36553000  0.20882000  1.0
  C  C77  1  0.70320000  0.63447000  0.79118000  1.0
  C  C78  1  0.58199000  0.48670000  0.34877000  1.0
  C  C79  1  0.41801000  0.51330000  0.65122000  1.0
  C  C80  1  0.58418000  0.40854000  0.42632000  1.0
  C  C81  1  0.41582000  0.59146000  0.57368000  1.0
  C  C82  1  0.43529000  0.30703000  0.39512000  1.0
  C  C83  1  0.56471000  0.69298000  0.60489000  1.0
  N  N84  1  0.28466000  0.99664000  0.62098000  1.0
  N  N85  1  0.71534000  0.00336000  0.37903000  1.0
  N  N86  1  0.43422000  0.71297000  0.00951000  1.0
  N  N87  1  0.56578000  0.28703000  0.99049000  1.0
  N  N88  1  0.85658000  0.02749000  0.09079000  1.0
  N  N89  1  0.14342000  0.97251000  0.90921000  1.0
  N  N90  1  0.00026000  0.13076000  0.11810000  1.0
  N  N91  1  0.99974000  0.86924000  0.88190000  1.0
  N  N92  1  0.44039000  0.46660000  0.24226000  1.0
  N  N93  1  0.55961000  0.53340000  0.75774000  1.0
  O  O94  1  0.68729000  0.68573000  0.23506000  1.0
  O  O95  1  0.31271000  0.31427000  0.76494000  1.0
  O  O96  1  0.69022000  0.57425000  0.04538000  1.0
  O  O97  1  0.30978000  0.42576000  0.95463000  1.0
  O  O98  1  0.22304000  0.59155000  0.12107000  1.0
  O  O99  1  0.77695000  0.40845000  0.87893000  1.0
  O  O100  1  0.45853000  0.75269000  0.31618000  1.0
  O  O101  1  0.54147000  0.24731000  0.68382000  1.0
