# generated using pymatgen
data_Cd3H8C4S2(N5O3)2
_symmetry_space_group_name_H-M   'P 1'
_cell_length_a   8.60291000
_cell_length_b   10.60530000
_cell_length_c   17.23620000
_cell_angle_alpha   84.07310000
_cell_angle_beta   89.99980000
_cell_angle_gamma   89.99990000
_symmetry_Int_Tables_number   1
_chemical_formula_structural   Cd3H8C4S2(N5O3)2
_chemical_formula_sum   'Cd12 H32 C16 S8 N40 O24'
_cell_volume   1564.16329785
_cell_formula_units_Z   4
loop_
 _symmetry_equiv_pos_site_id
 _symmetry_equiv_pos_as_xyz
  1  'x, y, z'
loop_
 _atom_site_type_symbol
 _atom_site_label
 _atom_site_symmetry_multiplicity
 _atom_site_fract_x
 _atom_site_fract_y
 _atom_site_fract_z
 _atom_site_occupancy
  Cd  Cd0  1  0.14289000  0.18335000  0.05476000  1.0
  Cd  Cd1  1  0.64289000  0.81665000  0.44524000  1.0
  Cd  Cd2  1  0.85711000  0.81665000  0.94524000  1.0
  Cd  Cd3  1  0.35711000  0.18335000  0.55476000  1.0
  Cd  Cd4  1  0.43365000  0.33864000  0.91124000  1.0
  Cd  Cd5  1  0.93365000  0.66136000  0.58876000  1.0
  Cd  Cd6  1  0.56635000  0.66136000  0.08876000  1.0
  Cd  Cd7  1  0.06635000  0.33864000  0.41124000  1.0
  Cd  Cd8  1  0.76216000  0.36653000  0.05866000  1.0
  Cd  Cd9  1  0.26217000  0.63347000  0.44134000  1.0
  Cd  Cd10  1  0.23784000  0.63347000  0.94134000  1.0
  Cd  Cd11  1  0.73784000  0.36653000  0.55866000  1.0
  H  H12  1  0.12864000  0.90842000  0.87637000  1.0
  H  H13  1  0.62864000  0.09158000  0.62363000  1.0
  H  H14  1  0.87136000  0.09157000  0.12363000  1.0
  H  H15  1  0.37136000  0.90843000  0.37637000  1.0
  H  H16  1  0.08480000  0.04551000  0.91418000  1.0
  H  H17  1  0.58480000  0.95449000  0.58582000  1.0
  H  H18  1  0.91519000  0.95450000  0.08582000  1.0
  H  H19  1  0.41520000  0.04551000  0.41418000  1.0
  H  H20  1  0.54975000  0.95274000  0.15833000  1.0
  H  H21  1  0.04975000  0.04726000  0.34167000  1.0
  H  H22  1  0.45025000  0.04726000  0.84167000  1.0
  H  H23  1  0.95025000  0.95274000  0.65833000  1.0
  H  H24  1  0.49330000  0.09475000  0.11502000  1.0
  H  H25  1  0.99331000  0.90525000  0.38499000  1.0
  H  H26  1  0.50670000  0.90525000  0.88499000  1.0
  H  H27  1  0.00669000  0.09475000  0.61501000  1.0
  H  H28  1  0.30171000  0.12036000  0.22361000  1.0
  H  H29  1  0.80171000  0.87964000  0.27639000  1.0
  H  H30  1  0.69829000  0.87964000  0.77639000  1.0
  H  H31  1  0.19829000  0.12036000  0.72361000  1.0
  H  H32  1  0.30415000  0.19415000  0.30841000  1.0
  H  H33  1  0.80416000  0.80585000  0.19159000  1.0
  H  H34  1  0.69585000  0.80585000  0.69159000  1.0
  H  H35  1  0.19585000  0.19415000  0.80841000  1.0
  H  H36  1  0.67211000  0.39982000  0.23168000  1.0
  H  H37  1  0.17210000  0.60018000  0.26832000  1.0
  H  H38  1  0.32790000  0.60018000  0.76832000  1.0
  H  H39  1  0.82789000  0.39982000  0.73168000  1.0
  H  H40  1  0.75026000  0.38907000  0.32541000  1.0
  H  H41  1  0.25026000  0.61093000  0.17459000  1.0
  H  H42  1  0.24974000  0.61093000  0.67459000  1.0
  H  H43  1  0.74973000  0.38907000  0.82541000  1.0
  C  C44  1  0.22741000  0.92762000  0.98005000  1.0
  C  C45  1  0.72741000  0.07238000  0.51995000  1.0
  C  C46  1  0.77259000  0.07238000  0.01995000  1.0
  C  C47  1  0.27259000  0.92762000  0.48005000  1.0
  C  C48  1  0.38578000  0.94867000  0.07371000  1.0
  C  C49  1  0.88578000  0.05134000  0.42629000  1.0
  C  C50  1  0.61422000  0.05133000  0.92629000  1.0
  C  C51  1  0.11422000  0.94867000  0.57371000  1.0
  C  C52  1  0.10952000  0.22676000  0.23962000  1.0
  C  C53  1  0.60953000  0.77324000  0.26038000  1.0
  C  C54  1  0.89048000  0.77324000  0.76038000  1.0
  C  C55  1  0.39047000  0.22676000  0.73962000  1.0
  C  C56  1  0.88976000  0.32319000  0.24210000  1.0
  C  C57  1  0.38976000  0.67681000  0.25790000  1.0
  C  C58  1  0.11025000  0.67681000  0.75790000  1.0
  C  C59  1  0.61023000  0.32319000  0.74210000  1.0
  S  S60  1  0.37260000  0.40597000  0.10951000  1.0
  S  S61  1  0.87260000  0.59403000  0.39049000  1.0
  S  S62  1  0.62740000  0.59403000  0.89049000  1.0
  S  S63  1  0.12740000  0.40597000  0.60951000  1.0
  S  S64  1  0.04210000  0.35376000  0.90822000  1.0
  S  S65  1  0.54209000  0.64624000  0.59178000  1.0
  S  S66  1  0.95791000  0.64624000  0.09178000  1.0
  S  S67  1  0.45790000  0.35376000  0.40822000  1.0
  N  N68  1  0.26781000  0.00938000  0.03208000  1.0
  N  N69  1  0.76781000  0.99062000  0.46792000  1.0
  N  N70  1  0.73219000  0.99062000  0.96793000  1.0
  N  N71  1  0.23219000  0.00938000  0.53207000  1.0
  N  N72  1  0.31112000  0.82165000  0.98881000  1.0
  N  N73  1  0.81112000  0.17835000  0.51119000  1.0
  N  N74  1  0.68888000  0.17835000  0.01119000  1.0
  N  N75  1  0.18888000  0.82165000  0.48881000  1.0
  N  N76  1  0.41527000  0.83591000  0.04926000  1.0
  N  N77  1  0.91527000  0.16409000  0.45074000  1.0
  N  N78  1  0.58472000  0.16409000  0.95074000  1.0
  N  N79  1  0.08472000  0.83591000  0.54926000  1.0
  N  N80  1  0.10887000  0.95034000  0.92624000  1.0
  N  N81  1  0.60887000  0.04966000  0.57376000  1.0
  N  N82  1  0.89113000  0.04966000  0.07376000  1.0
  N  N83  1  0.39113000  0.95034000  0.42624000  1.0
  N  N84  1  0.45896000  0.00416000  0.13324000  1.0
  N  N85  1  0.95896000  0.99584000  0.36676000  1.0
  N  N86  1  0.54104000  0.99584000  0.86676000  1.0
  N  N87  1  0.04104000  0.00416000  0.63324000  1.0
  N  N88  1  0.01792000  0.29009000  0.28709000  1.0
  N  N89  1  0.51792000  0.70991000  0.21291000  1.0
  N  N90  1  0.98208000  0.70991000  0.71291000  1.0
  N  N91  1  0.48208000  0.29009000  0.78709000  1.0
  N  N92  1  0.04764000  0.22473000  0.16909000  1.0
  N  N93  1  0.54764000  0.77527000  0.33091000  1.0
  N  N94  1  0.95236000  0.77527000  0.83091000  1.0
  N  N95  1  0.45236000  0.22473000  0.66909000  1.0
  N  N96  1  0.90211000  0.28560000  0.17032000  1.0
  N  N97  1  0.40211000  0.71440000  0.32968000  1.0
  N  N98  1  0.09789000  0.71440000  0.82968000  1.0
  N  N99  1  0.59789000  0.28560000  0.67032000  1.0
  N  N100  1  0.23890000  0.15939000  0.26524000  1.0
  N  N101  1  0.73890000  0.84062000  0.23476000  1.0
  N  N102  1  0.76110000  0.84061000  0.73476000  1.0
  N  N103  1  0.26110000  0.15938000  0.76524000  1.0
  N  N104  1  0.76680000  0.38711000  0.26724000  1.0
  N  N105  1  0.26680000  0.61290000  0.23276000  1.0
  N  N106  1  0.23320000  0.61289000  0.73276000  1.0
  N  N107  1  0.73320000  0.38711000  0.76724000  1.0
  O  O108  1  0.36715000  0.30974000  0.04716000  1.0
  O  O109  1  0.86715000  0.69026000  0.45284000  1.0
  O  O110  1  0.63285000  0.69026000  0.95285000  1.0
  O  O111  1  0.13285000  0.30974000  0.54715000  1.0
  O  O112  1  0.54482000  0.41196000  0.13364000  1.0
  O  O113  1  0.04483000  0.58804000  0.36637000  1.0
  O  O114  1  0.45518000  0.58804000  0.86637000  1.0
  O  O115  1  0.95517000  0.41196000  0.63363000  1.0
  O  O116  1  0.34641000  0.53959000  0.06370000  1.0
  O  O117  1  0.84641000  0.46041000  0.43630000  1.0
  O  O118  1  0.65359000  0.46041000  0.93630000  1.0
  O  O119  1  0.15359000  0.53959000  0.56370000  1.0
  O  O120  1  0.19416000  0.43324000  0.89929000  1.0
  O  O121  1  0.69416000  0.56676000  0.60071000  1.0
  O  O122  1  0.80584000  0.56676000  0.10071000  1.0
  O  O123  1  0.30584000  0.43324000  0.39929000  1.0
  O  O124  1  0.00090000  0.34886000  0.99627000  1.0
  O  O125  1  0.50090000  0.65114000  0.50373000  1.0
  O  O126  1  0.99910000  0.65114000  0.00373000  1.0
  O  O127  1  0.49910000  0.34886000  0.49627000  1.0
  O  O128  1  0.10159000  0.21853000  0.90103000  1.0
  O  O129  1  0.60158000  0.78146000  0.59898000  1.0
  O  O130  1  0.89842000  0.78146000  0.09898000  1.0
  O  O131  1  0.39841000  0.21854000  0.40103000  1.0
