# generated using pymatgen
data_AlH5C12O5F2
_symmetry_space_group_name_H-M   'P 1'
_cell_length_a   6.63392000
_cell_length_b   14.18410000
_cell_length_c   14.83250000
_cell_angle_alpha   89.87200000
_cell_angle_beta   89.28590000
_cell_angle_gamma   89.67790000
_symmetry_Int_Tables_number   1
_chemical_formula_structural   AlH5C12O5F2
_chemical_formula_sum   'Al4 H20 C48 O20 F8'
_cell_volume   1395.54793999
_cell_formula_units_Z   4
loop_
 _symmetry_equiv_pos_site_id
 _symmetry_equiv_pos_as_xyz
  1  'x, y, z'
loop_
 _atom_site_type_symbol
 _atom_site_label
 _atom_site_symmetry_multiplicity
 _atom_site_fract_x
 _atom_site_fract_y
 _atom_site_fract_z
 _atom_site_occupancy
  Al  Al0  1  0.01921000  0.99625000  0.49916000  1.0
  Al  Al1  1  0.51921000  0.00435000  0.49636000  1.0
  Al  Al2  1  0.00361000  0.50585000  0.00347000  1.0
  Al  Al3  1  0.50254000  0.49849000  0.99918000  1.0
  H  H4  1  0.28359000  0.88133000  0.46754000  1.0
  H  H5  1  0.76597000  0.07737000  0.58661000  1.0
  H  H6  1  0.25894000  0.59279000  0.92044000  1.0
  H  H7  1  0.75731000  0.40383000  0.07391000  1.0
  H  H8  1  0.02851000  0.47874000  0.73218000  1.0
  H  H9  1  0.25328000  0.46391000  0.59909000  1.0
  H  H10  1  0.01705000  0.72263000  0.49026000  1.0
  H  H11  1  0.24608000  0.58544000  0.47730000  1.0
  H  H12  1  0.50650000  0.52488000  0.26525000  1.0
  H  H13  1  0.75113000  0.53276000  0.38939000  1.0
  H  H14  1  0.54306000  0.26524000  0.49066000  1.0
  H  H15  1  0.76940000  0.40265000  0.50243000  1.0
  H  H16  1  0.86165000  0.35575000  0.88121000  1.0
  H  H17  1  0.61149000  0.36479000  0.76159000  1.0
  H  H18  1  0.97850000  0.18420000  0.59431000  1.0
  H  H19  1  0.68091000  0.28534000  0.61307000  1.0
  H  H20  1  0.01545000  0.77273000  0.99061000  1.0
  H  H21  1  0.26529000  0.89992000  0.98234000  1.0
  H  H22  1  0.05428000  0.00887000  0.23741000  1.0
  H  H23  1  0.28752000  0.01780000  0.10679000  1.0
  C  C24  1  0.76962000  0.94124000  0.34665000  1.0
  C  C25  1  0.76430000  0.84451000  0.56685000  1.0
  C  C26  1  0.26199000  0.06856000  0.64772000  1.0
  C  C27  1  0.26161000  0.15336000  0.42594000  1.0
  C  C28  1  0.74168000  0.65822000  0.06456000  1.0
  C  C29  1  0.75901000  0.55680000  0.84641000  1.0
  C  C30  1  0.25059000  0.34509000  0.93779000  1.0
  C  C31  1  0.24194000  0.44887000  0.15475000  1.0
  C  C32  1  0.75302000  0.61803000  0.76420000  1.0
  C  C33  1  0.89066000  0.61003000  0.68902000  1.0
  C  C34  1  0.61479000  0.69141000  0.76478000  1.0
  C  C35  1  0.02612000  0.53259000  0.67989000  1.0
  C  C36  1  0.15143000  0.52427000  0.60525000  1.0
  C  C37  1  0.75298000  0.75968000  0.62690000  1.0
  C  C38  1  0.61533000  0.76164000  0.69741000  1.0
  C  C39  1  0.88859000  0.68087000  0.61934000  1.0
  C  C40  1  0.01930000  0.66968000  0.54346000  1.0
  C  C41  1  0.14760000  0.59303000  0.53637000  1.0
  C  C42  1  0.23431000  0.38734000  0.23679000  1.0
  C  C43  1  0.37973000  0.39111000  0.30730000  1.0
  C  C44  1  0.09375000  0.31602000  0.23850000  1.0
  C  C45  1  0.51382000  0.46829000  0.31472000  1.0
  C  C46  1  0.65036000  0.47258000  0.38401000  1.0
  C  C47  1  0.24851000  0.23953000  0.36795000  1.0
  C  C48  1  0.10059000  0.24306000  0.30316000  1.0
  C  C49  1  0.38801000  0.31653000  0.37301000  1.0
  C  C50  1  0.53279000  0.32278000  0.44240000  1.0
  C  C51  1  0.66025000  0.39909000  0.44808000  1.0
  C  C52  1  0.22888000  0.26459000  0.87332000  1.0
  C  C53  1  0.06818000  0.26356000  0.80875000  1.0
  C  C54  1  0.37931000  0.19712000  0.86606000  1.0
  C  C55  1  0.88952000  0.31875000  0.81844000  1.0
  C  C56  1  0.74893000  0.32348000  0.75091000  1.0
  C  C57  1  0.24789000  0.13581000  0.72545000  1.0
  C  C58  1  0.38490000  0.13149000  0.79465000  1.0
  C  C59  1  0.08943000  0.20513000  0.73003000  1.0
  C  C60  1  0.95171000  0.21910000  0.65841000  1.0
  C  C61  1  0.78545000  0.27693000  0.66853000  1.0
  C  C62  1  0.73881000  0.74270000  0.12460000  1.0
  C  C63  1  0.88713000  0.81614000  0.11916000  1.0
  C  C64  1  0.60004000  0.74484000  0.19483000  1.0
  C  C65  1  0.02263000  0.82409000  0.04469000  1.0
  C  C66  1  0.16334000  0.89529000  0.04046000  1.0
  C  C67  1  0.75842000  0.88057000  0.26451000  1.0
  C  C68  1  0.61038000  0.81248000  0.26392000  1.0
  C  C69  1  0.89805000  0.88503000  0.19007000  1.0
  C  C70  1  0.04534000  0.95707000  0.18371000  1.0
  C  C71  1  0.17544000  0.96192000  0.11060000  1.0
  O  O72  1  0.94102000  0.95231000  0.38252000  1.0
  O  O73  1  0.59865000  0.87939000  0.54016000  1.0
  O  O74  1  0.43603000  0.05237000  0.61391000  1.0
  O  O75  1  0.09584000  0.11645000  0.45096000  1.0
  O  O76  1  0.09695000  0.03559000  0.61916000  1.0
  O  O77  1  0.43608000  0.12264000  0.44505000  1.0
  O  O78  1  0.60356000  0.97275000  0.37736000  1.0
  O  O79  1  0.93980000  0.87640000  0.55000000  1.0
  O  O80  1  0.27307000  0.94893000  0.47582000  1.0
  O  O81  1  0.76942000  0.04984000  0.52658000  1.0
  O  O82  1  0.91491000  0.62761000  0.04027000  1.0
  O  O83  1  0.58994000  0.53247000  0.87973000  1.0
  O  O84  1  0.42730000  0.37743000  0.94792000  1.0
  O  O85  1  0.07691000  0.48238000  0.12636000  1.0
  O  O86  1  0.09144000  0.37909000  0.97393000  1.0
  O  O87  1  0.41351000  0.45692000  0.11624000  1.0
  O  O88  1  0.57422000  0.62131000  0.04489000  1.0
  O  O89  1  0.93041000  0.53796000  0.87990000  1.0
  O  O90  1  0.25471000  0.55073000  0.97206000  1.0
  O  O91  1  0.75433000  0.45183000  0.02722000  1.0
  F  F92  1  0.48511000  0.83397000  0.70967000  1.0
  F  F93  1  0.48123000  0.70504000  0.83349000  1.0
  F  F94  1  0.96451000  0.17372000  0.29287000  1.0
  F  F95  1  0.95214000  0.30701000  0.17409000  1.0
  F  F96  1  0.52992000  0.06437000  0.79716000  1.0
  F  F97  1  0.52680000  0.18988000  0.92756000  1.0
  F  F98  1  0.47677000  0.80144000  0.33296000  1.0
  F  F99  1  0.45683000  0.67827000  0.20603000  1.0
