# generated using pymatgen
data_MnH2(CO2)2
_symmetry_space_group_name_H-M   'P 1'
_cell_length_a   8.40769000
_cell_length_b   11.54590000
_cell_length_c   12.91640000
_cell_angle_alpha   90.01600000
_cell_angle_beta   89.99680000
_cell_angle_gamma   89.99860000
_symmetry_Int_Tables_number   1
_chemical_formula_structural   MnH2(CO2)2
_chemical_formula_sum   'Mn12 H24 C24 O48'
_cell_volume   1253.85105691
_cell_formula_units_Z   12
loop_
 _symmetry_equiv_pos_site_id
 _symmetry_equiv_pos_as_xyz
  1  'x, y, z'
loop_
 _atom_site_type_symbol
 _atom_site_label
 _atom_site_symmetry_multiplicity
 _atom_site_fract_x
 _atom_site_fract_y
 _atom_site_fract_z
 _atom_site_occupancy
  Mn  Mn0  1  0.86370000  0.21814000  0.46539000  1.0
  Mn  Mn1  1  0.13697000  0.71867000  0.53472000  1.0
  Mn  Mn2  1  0.63679000  0.21863000  0.96502000  1.0
  Mn  Mn3  1  0.36413000  0.71849000  0.03485000  1.0
  Mn  Mn4  1  0.12505000  0.35027000  0.30307000  1.0
  Mn  Mn5  1  0.87429000  0.84974000  0.69688000  1.0
  Mn  Mn6  1  0.37415000  0.34989000  0.80325000  1.0
  Mn  Mn7  1  0.62546000  0.85006000  0.19665000  1.0
  Mn  Mn8  1  0.49831000  0.27947000  0.37637000  1.0
  Mn  Mn9  1  0.50189000  0.77946000  0.62336000  1.0
  Mn  Mn10  1  0.00179000  0.27962000  0.87654000  1.0
  Mn  Mn11  1  0.99767000  0.77965000  0.12375000  1.0
  H  H12  1  0.84859000  0.05677000  0.26658000  1.0
  H  H13  1  0.15191000  0.55624000  0.73246000  1.0
  H  H14  1  0.65194000  0.05609000  0.76741000  1.0
  H  H15  1  0.34823000  0.55644000  0.23262000  1.0
  H  H16  1  0.20007000  0.28821000  0.58366000  1.0
  H  H17  1  0.79995000  0.78859000  0.41675000  1.0
  H  H18  1  0.30023000  0.28840000  0.08328000  1.0
  H  H19  1  0.70014000  0.78827000  0.91635000  1.0
  H  H20  1  0.83282000  0.52967000  0.30560000  1.0
  H  H21  1  0.16704000  0.02977000  0.69424000  1.0
  H  H22  1  0.66690000  0.52984000  0.80576000  1.0
  H  H23  1  0.33292000  0.02935000  0.19526000  1.0
  H  H24  1  0.58824000  0.01934000  0.49078000  1.0
  H  H25  1  0.41142000  0.51936000  0.50900000  1.0
  H  H26  1  0.91180000  0.01956000  0.99130000  1.0
  H  H27  1  0.08819000  0.51962000  0.00928000  1.0
  H  H28  1  0.15535000  0.03046000  0.44740000  1.0
  H  H29  1  0.84479000  0.53018000  0.55306000  1.0
  H  H30  1  0.34463000  0.03023000  0.94690000  1.0
  H  H31  1  0.65561000  0.53017000  0.05267000  1.0
  H  H32  1  0.70075000  0.29836000  0.67198000  1.0
  H  H33  1  0.29901000  0.79815000  0.32786000  1.0
  H  H34  1  0.79882000  0.29818000  0.17174000  1.0
  H  H35  1  0.20070000  0.79804000  0.82823000  1.0
  C  C36  1  0.72390000  0.08416000  0.28072000  1.0
  C  C37  1  0.27665000  0.58390000  0.71898000  1.0
  C  C38  1  0.77665000  0.08386000  0.78089000  1.0
  C  C39  1  0.22361000  0.58431000  0.21901000  1.0
  C  C40  1  0.10138000  0.28472000  0.63993000  1.0
  C  C41  1  0.89848000  0.78489000  0.36035000  1.0
  C  C42  1  0.39866000  0.28453000  0.13974000  1.0
  C  C43  1  0.60140000  0.78475000  0.86012000  1.0
  C  C44  1  0.78599000  0.44950000  0.34136000  1.0
  C  C45  1  0.21376000  0.94945000  0.65859000  1.0
  C  C46  1  0.71368000  0.44956000  0.84137000  1.0
  C  C47  1  0.28619000  0.94941000  0.15894000  1.0
  C  C48  1  0.70234000  0.98736000  0.52273000  1.0
  C  C49  1  0.29722000  0.48733000  0.47721000  1.0
  C  C50  1  0.79742000  0.98757000  0.02284000  1.0
  C  C51  1  0.20230000  0.48759000  0.97737000  1.0
  C  C52  1  0.20050000  0.11413000  0.41727000  1.0
  C  C53  1  0.79973000  0.61407000  0.58282000  1.0
  C  C54  1  0.29958000  0.11410000  0.91711000  1.0
  C  C55  1  0.70081000  0.61386000  0.08275000  1.0
  C  C56  1  0.59757000  0.28888000  0.61967000  1.0
  C  C57  1  0.40236000  0.78875000  0.38004000  1.0
  C  C58  1  0.90227000  0.28873000  0.11965000  1.0
  C  C59  1  0.09751000  0.78878000  0.88058000  1.0
  O  O60  1  0.63064000  0.27046000  0.52393000  1.0
  O  O61  1  0.36960000  0.77004000  0.47577000  1.0
  O  O62  1  0.86976000  0.27005000  0.02385000  1.0
  O  O63  1  0.13056000  0.77049000  0.97631000  1.0
  O  O64  1  0.63826000  0.43446000  0.34392000  1.0
  O  O65  1  0.36147000  0.93428000  0.65588000  1.0
  O  O66  1  0.86137000  0.43439000  0.84398000  1.0
  O  O67  1  0.13850000  0.93435000  0.15597000  1.0
  O  O68  1  0.89221000  0.37874000  0.37628000  1.0
  O  O69  1  0.10738000  0.87864000  0.62394000  1.0
  O  O70  1  0.60732000  0.37876000  0.87609000  1.0
  O  O71  1  0.39265000  0.87894000  0.12380000  1.0
  O  O72  1  0.13924000  0.30056000  0.73509000  1.0
  O  O73  1  0.86033000  0.80056000  0.26524000  1.0
  O  O74  1  0.36033000  0.29976000  0.23487000  1.0
  O  O75  1  0.63922000  0.80050000  0.76495000  1.0
  O  O76  1  0.34777000  0.13013000  0.41404000  1.0
  O  O77  1  0.65246000  0.63033000  0.58580000  1.0
  O  O78  1  0.15234000  0.13038000  0.91412000  1.0
  O  O79  1  0.84807000  0.62996000  0.08583000  1.0
  O  O80  1  0.09269000  0.18719000  0.38857000  1.0
  O  O81  1  0.90761000  0.68713000  0.61139000  1.0
  O  O82  1  0.40752000  0.18716000  0.88859000  1.0
  O  O83  1  0.59300000  0.68691000  0.11156000  1.0
  O  O84  1  0.61178000  0.02305000  0.24757000  1.0
  O  O85  1  0.38863000  0.52295000  0.75249000  1.0
  O  O86  1  0.88873000  0.02288000  0.74752000  1.0
  O  O87  1  0.11138000  0.52342000  0.25229000  1.0
  O  O88  1  0.82968000  0.04147000  0.50570000  1.0
  O  O89  1  0.17003000  0.54162000  0.49426000  1.0
  O  O90  1  0.67028000  0.04173000  0.00541000  1.0
  O  O91  1  0.32961000  0.54173000  0.99446000  1.0
  O  O92  1  0.45876000  0.29513000  0.65482000  1.0
  O  O93  1  0.54105000  0.79535000  0.34477000  1.0
  O  O94  1  0.04089000  0.29525000  0.15504000  1.0
  O  O95  1  0.95870000  0.79515000  0.84539000  1.0
  O  O96  1  0.96152000  0.26609000  0.60959000  1.0
  O  O97  1  0.03841000  0.76617000  0.39055000  1.0
  O  O98  1  0.53867000  0.26606000  0.10952000  1.0
  O  O99  1  0.46155000  0.76620000  0.89053000  1.0
  O  O100  1  0.70564000  0.17860000  0.33160000  1.0
  O  O101  1  0.29508000  0.67854000  0.66851000  1.0
  O  O102  1  0.79493000  0.17863000  0.83123000  1.0
  O  O103  1  0.20553000  0.67905000  0.16864000  1.0
  O  O104  1  0.69666000  0.89421000  0.57687000  1.0
  O  O105  1  0.30269000  0.39401000  0.42327000  1.0
  O  O106  1  0.80268000  0.89438000  0.07695000  1.0
  O  O107  1  0.19662000  0.39443000  0.92322000  1.0
