# generated using pymatgen
data_KYH8(CO3)4
_symmetry_space_group_name_H-M   'P 1'
_cell_length_a   8.76534000
_cell_length_b   9.27143000
_cell_length_c   9.27141337
_cell_angle_alpha   77.08837369
_cell_angle_beta   61.78976117
_cell_angle_gamma   61.78990000
_symmetry_Int_Tables_number   1
_chemical_formula_structural   KYH8(CO3)4
_chemical_formula_sum   'K2 Y2 H16 C8 O24'
_cell_volume   585.09945974
_cell_formula_units_Z   2
loop_
 _symmetry_equiv_pos_site_id
 _symmetry_equiv_pos_as_xyz
  1  'x, y, z'
loop_
 _atom_site_type_symbol
 _atom_site_label
 _atom_site_symmetry_multiplicity
 _atom_site_fract_x
 _atom_site_fract_y
 _atom_site_fract_z
 _atom_site_occupancy
  K  K0  1  0.12501000  0.25000000  0.74999000  1.0
  K  K1  1  0.87499000  0.75001000  0.25001000  1.0
  Y  Y2  1  0.37500000  0.75000000  0.25000000  1.0
  Y  Y3  1  0.62500000  0.25000000  0.75000000  1.0
  H  H4  1  0.85059000  0.40709000  0.09856000  1.0
  H  H5  1  0.75769000  0.09856000  0.09291000  1.0
  H  H6  1  0.35625000  0.09292000  0.40143000  1.0
  H  H7  1  0.94916000  0.40144000  0.40708000  1.0
  H  H8  1  0.14940000  0.59291000  0.90144000  1.0
  H  H9  1  0.24232000  0.90144000  0.90709000  1.0
  H  H10  1  0.64376000  0.90708000  0.59856000  1.0
  H  H11  1  0.05085000  0.59856000  0.59291000  1.0
  H  H12  1  0.00449000  0.32560000  0.17108000  1.0
  H  H13  1  0.83009000  0.17108000  0.17440000  1.0
  H  H14  1  0.50117000  0.17440000  0.32892000  1.0
  H  H15  1  0.17557000  0.32892000  0.32560000  1.0
  H  H16  1  0.99550000  0.67440000  0.82892000  1.0
  H  H17  1  0.16990000  0.82892000  0.82561000  1.0
  H  H18  1  0.49883000  0.82560000  0.67108000  1.0
  H  H19  1  0.82442000  0.67108000  0.67440000  1.0
  C  C20  1  0.60531000  0.47141000  0.98211000  1.0
  C  C21  1  0.57674000  0.98211000  0.02858000  1.0
  C  C22  1  0.05884000  0.02859000  0.51789000  1.0
  C  C23  1  0.58743000  0.51789000  0.47143000  1.0
  C  C24  1  0.39467000  0.52859000  0.01790000  1.0
  C  C25  1  0.42327000  0.01789000  0.97142000  1.0
  C  C26  1  0.94116000  0.97142000  0.48210000  1.0
  C  C27  1  0.41258000  0.48211000  0.52858000  1.0
  O  O28  1  0.63534000  0.54218000  0.06216000  1.0
  O  O29  1  0.67754000  0.06217000  0.95782000  1.0
  O  O30  1  0.23969000  0.95782000  0.43784000  1.0
  O  O31  1  0.69752000  0.43783000  0.54219000  1.0
  O  O32  1  0.36464000  0.45782000  0.93783000  1.0
  O  O33  1  0.32248000  0.93784000  0.04218000  1.0
  O  O34  1  0.76029000  0.04218000  0.56217000  1.0
  O  O35  1  0.30250000  0.56216000  0.45782000  1.0
  O  O36  1  0.72946000  0.35924000  0.87770000  1.0
  O  O37  1  0.58872000  0.87769000  0.14074000  1.0
  O  O38  1  0.96640000  0.14076000  0.62230000  1.0
  O  O39  1  0.60716000  0.62230000  0.35926000  1.0
  O  O40  1  0.27055000  0.64074000  0.12229000  1.0
  O  O41  1  0.41130000  0.12230000  0.85924000  1.0
  O  O42  1  0.03359000  0.85926000  0.37770000  1.0
  O  O43  1  0.39284000  0.37769000  0.64076000  1.0
  O  O44  1  0.95268000  0.30219000  0.10852000  1.0
  O  O45  1  0.75487000  0.10852000  0.19781000  1.0
  O  O46  1  0.36339000  0.19781000  0.39148000  1.0
  O  O47  1  0.06120000  0.39149000  0.30219000  1.0
  O  O48  1  0.04731000  0.69781000  0.89149000  1.0
  O  O49  1  0.24513000  0.89148000  0.80219000  1.0
  O  O50  1  0.63661000  0.80219000  0.60852000  1.0
  O  O51  1  0.93880000  0.60851000  0.69781000  1.0
