# generated using pymatgen
data_Cu3H9C12Br3N5
_symmetry_space_group_name_H-M   'P 1'
_cell_length_a   8.83163000
_cell_length_b   13.10870000
_cell_length_c   15.93520000
_cell_angle_alpha   89.99890000
_cell_angle_beta   88.09250000
_cell_angle_gamma   89.99970000
_symmetry_Int_Tables_number   1
_chemical_formula_structural   Cu3H9C12Br3N5
_chemical_formula_sum   'Cu12 H36 C48 Br12 N20'
_cell_volume   1843.81475315
_cell_formula_units_Z   4
loop_
 _symmetry_equiv_pos_site_id
 _symmetry_equiv_pos_as_xyz
  1  'x, y, z'
loop_
 _atom_site_type_symbol
 _atom_site_label
 _atom_site_symmetry_multiplicity
 _atom_site_fract_x
 _atom_site_fract_y
 _atom_site_fract_z
 _atom_site_occupancy
  Cu  Cu0  1  0.60474000  0.53869000  0.79777000  1.0
  Cu  Cu1  1  0.60476000  0.96134000  0.29777000  1.0
  Cu  Cu2  1  0.39524000  0.46132000  0.20223000  1.0
  Cu  Cu3  1  0.39523000  0.03866000  0.70223000  1.0
  Cu  Cu4  1  0.05772000  0.67244000  0.74457000  1.0
  Cu  Cu5  1  0.05772000  0.82756000  0.24457000  1.0
  Cu  Cu6  1  0.94229000  0.32756000  0.25543000  1.0
  Cu  Cu7  1  0.94228000  0.17244000  0.75544000  1.0
  Cu  Cu8  1  0.78414000  0.74273000  0.73364000  1.0
  Cu  Cu9  1  0.78412000  0.75728000  0.23364000  1.0
  Cu  Cu10  1  0.21587000  0.25727000  0.26637000  1.0
  Cu  Cu11  1  0.21589000  0.24271000  0.76635000  1.0
  H  H12  1  0.71192000  0.32451000  0.79758000  1.0
  H  H13  1  0.71193000  0.17549000  0.29758000  1.0
  H  H14  1  0.28808000  0.67549000  0.20243000  1.0
  H  H15  1  0.28808000  0.82450000  0.70243000  1.0
  H  H16  1  0.74395000  0.56204000  0.62538000  1.0
  H  H17  1  0.74394000  0.93796000  0.12538000  1.0
  H  H18  1  0.25606000  0.43795000  0.37462000  1.0
  H  H19  1  0.25604000  0.06205000  0.87462000  1.0
  H  H20  1  0.00728000  0.28399000  0.59152000  1.0
  H  H21  1  0.00728000  0.21600000  0.09152000  1.0
  H  H22  1  0.99271000  0.71601000  0.40849000  1.0
  H  H23  1  0.99271000  0.78401000  0.90848000  1.0
  H  H24  1  0.09608000  0.45414000  0.79411000  1.0
  H  H25  1  0.09609000  0.04586000  0.29412000  1.0
  H  H26  1  0.90393000  0.54586000  0.20590000  1.0
  H  H27  1  0.90390000  0.95414000  0.70589000  1.0
  H  H28  1  0.25805000  0.63643000  0.59710000  1.0
  H  H29  1  0.25808000  0.86358000  0.09710000  1.0
  H  H30  1  0.74193000  0.36356000  0.40290000  1.0
  H  H31  1  0.74193000  0.13642000  0.90290000  1.0
  H  H32  1  0.41449000  0.32494000  0.62830000  1.0
  H  H33  1  0.41450000  0.17507000  0.12831000  1.0
  H  H34  1  0.58551000  0.67506000  0.37169000  1.0
  H  H35  1  0.58549000  0.82493000  0.87169000  1.0
  H  H36  1  0.29165000  0.29910000  0.97049000  1.0
  H  H37  1  0.29165000  0.20091000  0.47051000  1.0
  H  H38  1  0.70835000  0.70090000  0.02950000  1.0
  H  H39  1  0.70836000  0.79908000  0.52948000  1.0
  H  H40  1  0.41496000  0.34516000  0.04922000  1.0
  H  H41  1  0.41497000  0.15484000  0.54924000  1.0
  H  H42  1  0.58503000  0.65483000  0.95077000  1.0
  H  H43  1  0.58503000  0.84515000  0.45076000  1.0
  H  H44  1  0.48071000  0.25103000  0.97341000  1.0
  H  H45  1  0.48071000  0.24897000  0.47344000  1.0
  H  H46  1  0.51928000  0.74897000  0.02658000  1.0
  H  H47  1  0.51929000  0.75102000  0.52656000  1.0
  C  C48  1  0.75989000  0.35368000  0.73865000  1.0
  C  C49  1  0.75989000  0.14632000  0.23866000  1.0
  C  C50  1  0.24011000  0.64632000  0.26136000  1.0
  C  C51  1  0.24011000  0.85369000  0.76135000  1.0
  C  C52  1  0.77891000  0.48557000  0.64354000  1.0
  C  C53  1  0.77890000  0.01442000  0.14354000  1.0
  C  C54  1  0.22110000  0.51443000  0.35646000  1.0
  C  C55  1  0.22109000  0.98558000  0.85646000  1.0
  C  C56  1  0.88987000  0.43088000  0.59691000  1.0
  C  C57  1  0.88987000  0.06912000  0.09692000  1.0
  C  C58  1  0.11013000  0.56912000  0.40308000  1.0
  C  C59  1  0.11012000  0.93088000  0.90309000  1.0
  C  C60  1  0.92473000  0.33228000  0.62502000  1.0
  C  C61  1  0.92473000  0.16772000  0.12502000  1.0
  C  C62  1  0.07526000  0.66772000  0.37498000  1.0
  C  C63  1  0.07526000  0.83228000  0.87499000  1.0
  C  C64  1  0.96667000  0.47673000  0.52802000  1.0
  C  C65  1  0.96666000  0.02327000  0.02802000  1.0
  C  C66  1  0.03335000  0.52327000  0.47198000  1.0
  C  C67  1  0.03333000  0.97674000  0.97198000  1.0
  C  C68  1  0.17034000  0.46258000  0.73832000  1.0
  C  C69  1  0.17035000  0.03741000  0.23832000  1.0
  C  C70  1  0.82966000  0.53741000  0.26169000  1.0
  C  C71  1  0.82965000  0.96259000  0.76169000  1.0
  C  C72  1  0.26299000  0.56381000  0.63008000  1.0
  C  C73  1  0.26301000  0.93619000  0.13008000  1.0
  C  C74  1  0.73702000  0.43619000  0.36993000  1.0
  C  C75  1  0.73700000  0.06382000  0.86992000  1.0
  C  C76  1  0.35588000  0.48316000  0.60051000  1.0
  C  C77  1  0.35590000  0.01685000  0.10052000  1.0
  C  C78  1  0.64412000  0.51684000  0.39948000  1.0
  C  C79  1  0.64411000  0.98316000  0.89948000  1.0
  C  C80  1  0.34588000  0.39129000  0.64558000  1.0
  C  C81  1  0.34588000  0.10871000  0.14559000  1.0
  C  C82  1  0.65412000  0.60870000  0.35441000  1.0
  C  C83  1  0.65411000  0.89129000  0.85441000  1.0
  C  C84  1  0.45569000  0.49491000  0.52999000  1.0
  C  C85  1  0.45570000  0.00511000  0.02999000  1.0
  C  C86  1  0.54430000  0.50510000  0.47000000  1.0
  C  C87  1  0.54430000  0.99491000  0.97000000  1.0
  C  C88  1  0.46080000  0.39922000  0.92778000  1.0
  C  C89  1  0.46083000  0.10079000  0.42780000  1.0
  C  C90  1  0.53919000  0.60079000  0.07221000  1.0
  C  C91  1  0.53916000  0.89920000  0.57219000  1.0
  C  C92  1  0.40978000  0.31913000  0.98370000  1.0
  C  C93  1  0.40978000  0.18087000  0.48372000  1.0
  C  C94  1  0.59022000  0.68087000  0.01629000  1.0
  C  C95  1  0.59022000  0.81912000  0.51628000  1.0
  Br  Br96  1  0.85818000  0.61318000  0.84983000  1.0
  Br  Br97  1  0.85819000  0.88682000  0.34981000  1.0
  Br  Br98  1  0.14183000  0.38683000  0.15018000  1.0
  Br  Br99  1  0.14182000  0.11317000  0.65019000  1.0
  Br  Br100  1  0.52101000  0.68426000  0.71845000  1.0
  Br  Br101  1  0.52099000  0.81571000  0.21852000  1.0
  Br  Br102  1  0.47901000  0.31574000  0.28152000  1.0
  Br  Br103  1  0.47904000  0.18430000  0.78147000  1.0
  Br  Br104  1  0.95804000  0.75322000  0.61257000  1.0
  Br  Br105  1  0.95802000  0.74679000  0.11256000  1.0
  Br  Br106  1  0.04197000  0.24678000  0.38744000  1.0
  Br  Br107  1  0.04200000  0.25321000  0.88742000  1.0
  N  N108  1  0.71492000  0.44637000  0.71389000  1.0
  N  N109  1  0.71490000  0.05363000  0.21390000  1.0
  N  N110  1  0.28509000  0.55363000  0.28611000  1.0
  N  N111  1  0.28510000  0.94637000  0.78610000  1.0
  N  N112  1  0.86126000  0.29463000  0.69656000  1.0
  N  N113  1  0.86126000  0.20537000  0.19657000  1.0
  N  N114  1  0.13873000  0.70538000  0.30344000  1.0
  N  N115  1  0.13874000  0.79464000  0.80344000  1.0
  N  N116  1  0.17275000  0.55374000  0.69953000  1.0
  N  N117  1  0.17276000  0.94626000  0.19952000  1.0
  N  N118  1  0.82725000  0.44626000  0.30048000  1.0
  N  N119  1  0.82725000  0.05374000  0.80048000  1.0
  N  N120  1  0.25044000  0.38075000  0.71272000  1.0
  N  N121  1  0.25045000  0.11924000  0.21272000  1.0
  N  N122  1  0.74956000  0.61924000  0.28729000  1.0
  N  N123  1  0.74955000  0.88076000  0.78728000  1.0
  N  N124  1  0.50295000  0.46387000  0.88242000  1.0
  N  N125  1  0.50295000  0.03615000  0.38244000  1.0
  N  N126  1  0.49706000  0.53614000  0.11757000  1.0
  N  N127  1  0.49704000  0.96384000  0.61756000  1.0
