# generated using pymatgen
data_CuH30C28(N2O5)2
_symmetry_space_group_name_H-M   'P 1'
_cell_length_a   8.82480000
_cell_length_b   12.53450000
_cell_length_c   13.23090000
_cell_angle_alpha   90.00000000
_cell_angle_beta   106.05100000
_cell_angle_gamma   90.00000000
_symmetry_Int_Tables_number   1
_chemical_formula_structural   CuH30C28(N2O5)2
_chemical_formula_sum   'Cu2 H60 C56 N8 O20'
_cell_volume   1406.47454322
_cell_formula_units_Z   2
loop_
 _symmetry_equiv_pos_site_id
 _symmetry_equiv_pos_as_xyz
  1  'x, y, z'
loop_
 _atom_site_type_symbol
 _atom_site_label
 _atom_site_symmetry_multiplicity
 _atom_site_fract_x
 _atom_site_fract_y
 _atom_site_fract_z
 _atom_site_occupancy
  Cu  Cu0  1  0.50000000  0.50000000  0.50000000  1.0
  Cu  Cu1  1  0.00000000  0.00000000  0.50000000  1.0
  H  H2  1  0.49594000  0.95131000  0.28678000  1.0
  H  H3  1  0.00406000  0.45131000  0.71322000  1.0
  H  H4  1  0.50406000  0.04869000  0.71322000  1.0
  H  H5  1  0.99594000  0.54869000  0.28678000  1.0
  H  H6  1  0.32953000  0.11794000  0.26123000  1.0
  H  H7  1  0.17047000  0.61793000  0.73877000  1.0
  H  H8  1  0.67047000  0.88206000  0.73877000  1.0
  H  H9  1  0.82953000  0.38206000  0.26123000  1.0
  H  H10  1  0.12069000  0.13341000  0.35748000  1.0
  H  H11  1  0.37931000  0.63341000  0.64252000  1.0
  H  H12  1  0.87931000  0.86659000  0.64252000  1.0
  H  H13  1  0.62069000  0.36659000  0.35748000  1.0
  H  H14  1  0.24174000  0.84144000  0.50162000  1.0
  H  H15  1  0.25826000  0.34144000  0.49838000  1.0
  H  H16  1  0.75826000  0.15856000  0.49838000  1.0
  H  H17  1  0.74174000  0.65856000  0.50162000  1.0
  H  H18  1  0.52451000  0.76368000  0.35092000  1.0
  H  H19  1  0.97549000  0.26368000  0.64908000  1.0
  H  H20  1  0.47549000  0.23632000  0.64908000  1.0
  H  H21  1  0.02451000  0.73632000  0.35092000  1.0
  H  H22  1  0.58669000  0.79918000  0.48525000  1.0
  H  H23  1  0.91331000  0.29918000  0.51475000  1.0
  H  H24  1  0.41331000  0.20082000  0.51475000  1.0
  H  H25  1  0.08669000  0.70081000  0.48525000  1.0
  H  H26  1  0.34681000  0.65440000  0.38181000  1.0
  H  H27  1  0.15319000  0.15440000  0.61819000  1.0
  H  H28  1  0.65319000  0.34560000  0.61819000  1.0
  H  H29  1  0.84681000  0.84559000  0.38181000  1.0
  H  H30  1  0.12887000  0.30450000  0.30718000  1.0
  H  H31  1  0.37113000  0.80449000  0.69282000  1.0
  H  H32  1  0.87113000  0.69550000  0.69282000  1.0
  H  H33  1  0.62887000  0.19551000  0.30718000  1.0
  H  H34  1  0.97279000  0.18379000  0.16273000  1.0
  H  H35  1  0.52721000  0.68379000  0.83727000  1.0
  H  H36  1  0.02721000  0.81621000  0.83727000  1.0
  H  H37  1  0.47279000  0.31622000  0.16273000  1.0
  H  H38  1  0.13518000  0.53454000  0.91104000  1.0
  H  H39  1  0.36481000  0.03454000  0.08896000  1.0
  H  H40  1  0.86482000  0.46546000  0.08896000  1.0
  H  H41  1  0.63518000  0.96546000  0.91104000  1.0
  H  H42  1  0.33058000  0.59092000  0.95357000  1.0
  H  H43  1  0.16942000  0.09092000  0.04643000  1.0
  H  H44  1  0.66942000  0.40908000  0.04643000  1.0
  H  H45  1  0.83058000  0.90908000  0.95357000  1.0
  H  H46  1  0.30395000  0.44977000  0.93033000  1.0
  H  H47  1  0.19605000  0.94977000  0.06967000  1.0
  H  H48  1  0.69605000  0.55023000  0.06966000  1.0
  H  H49  1  0.80395000  0.05023000  0.93033000  1.0
  H  H50  1  0.08848000  0.23673000  0.85871000  1.0
  H  H51  1  0.41152000  0.73673000  0.14129000  1.0
  H  H52  1  0.91152000  0.76327000  0.14129000  1.0
  H  H53  1  0.58848000  0.26327000  0.85871000  1.0
  H  H54  1  0.90577000  0.31079000  0.83137000  1.0
  H  H55  1  0.59423000  0.81079000  0.16863000  1.0
  H  H56  1  0.09423000  0.68921000  0.16863000  1.0
  H  H57  1  0.40576000  0.18921000  0.83137000  1.0
  H  H58  1  0.90354000  0.16829000  0.81286000  1.0
  H  H59  1  0.59646000  0.66828000  0.18714000  1.0
  H  H60  1  0.09646000  0.83171000  0.18714000  1.0
  H  H61  1  0.40354000  0.33172000  0.81286000  1.0
  C  C62  1  0.40645000  0.96243000  0.32863000  1.0
  C  C63  1  0.09355000  0.46243000  0.67138000  1.0
  C  C64  1  0.59355000  0.03757000  0.67138000  1.0
  C  C65  1  0.90645000  0.53757000  0.32862000  1.0
  C  C66  1  0.31399000  0.05453000  0.31383000  1.0
  C  C67  1  0.18601000  0.55453000  0.68617000  1.0
  C  C68  1  0.68601000  0.94547000  0.68617000  1.0
  C  C69  1  0.81399000  0.44547000  0.31383000  1.0
  C  C70  1  0.19831000  0.06459000  0.36644000  1.0
  C  C71  1  0.30169000  0.56459000  0.63356000  1.0
  C  C72  1  0.80169000  0.93541000  0.63356000  1.0
  C  C73  1  0.69831000  0.43541000  0.36644000  1.0
  C  C74  1  0.38267000  0.88321000  0.39711000  1.0
  C  C75  1  0.11733000  0.38321000  0.60289000  1.0
  C  C76  1  0.61733000  0.11679000  0.60289000  1.0
  C  C77  1  0.88267000  0.61679000  0.39711000  1.0
  C  C78  1  0.26529000  0.90022000  0.44750000  1.0
  C  C79  1  0.23471000  0.40022000  0.55250000  1.0
  C  C80  1  0.73471000  0.09978000  0.55250000  1.0
  C  C81  1  0.76529000  0.59978000  0.44750000  1.0
  C  C82  1  0.48134000  0.78279000  0.41948000  1.0
  C  C83  1  0.01867000  0.28279000  0.58052000  1.0
  C  C84  1  0.51867000  0.21721000  0.58052000  1.0
  C  C85  1  0.98133000  0.71721000  0.41948000  1.0
  C  C86  1  0.12034000  0.32093000  0.22487000  1.0
  C  C87  1  0.37966000  0.82093000  0.77513000  1.0
  C  C88  1  0.87966000  0.67907000  0.77513000  1.0
  C  C89  1  0.62034000  0.17907000  0.22487000  1.0
  C  C90  1  0.03480000  0.25388000  0.14634000  1.0
  C  C91  1  0.46520000  0.75388000  0.85366000  1.0
  C  C92  1  0.96520000  0.74612000  0.85366000  1.0
  C  C93  1  0.53480000  0.24612000  0.14634000  1.0
  C  C94  1  0.19681000  0.41193000  0.20153000  1.0
  C  C95  1  0.30319000  0.91193000  0.79847000  1.0
  C  C96  1  0.80319000  0.58807000  0.79846000  1.0
  C  C97  1  0.69681000  0.08807000  0.20153000  1.0
  C  C98  1  0.03285000  0.27995000  0.04258000  1.0
  C  C99  1  0.46715000  0.77995000  0.95742000  1.0
  C  C100  1  0.96715000  0.72005000  0.95741000  1.0
  C  C101  1  0.53285000  0.22005000  0.04258000  1.0
  C  C102  1  0.18588000  0.42923000  0.09406000  1.0
  C  C103  1  0.31412000  0.92923000  0.90594000  1.0
  C  C104  1  0.81413000  0.57077000  0.90594000  1.0
  C  C105  1  0.68588000  0.07077000  0.09405000  1.0
  C  C106  1  0.28597000  0.48222000  0.28892000  1.0
  C  C107  1  0.21403000  0.98222000  0.71108000  1.0
  C  C108  1  0.71403000  0.51778000  0.71108000  1.0
  C  C109  1  0.78597000  0.01778000  0.28892000  1.0
  C  C110  1  0.25735000  0.52180000  0.95786000  1.0
  C  C111  1  0.24264000  0.02180000  0.04214000  1.0
  C  C112  1  0.74265000  0.47820000  0.04214000  1.0
  C  C113  1  0.75735000  0.97820000  0.95786000  1.0
  C  C114  1  0.96476000  0.23522000  0.86018000  1.0
  C  C115  1  0.53524000  0.73522000  0.13982000  1.0
  C  C116  1  0.03524000  0.76478000  0.13982000  1.0
  C  C117  1  0.46476000  0.26478000  0.86018000  1.0
  N  N118  1  0.17459000  0.98809000  0.43180000  1.0
  N  N119  1  0.32541000  0.48809000  0.56820000  1.0
  N  N120  1  0.82541000  0.01191000  0.56820000  1.0
  N  N121  1  0.67459000  0.51191000  0.43180000  1.0
  N  N122  1  0.10627000  0.36456000  0.01758000  1.0
  N  N123  1  0.39373000  0.86456000  0.98242000  1.0
  N  N124  1  0.89373000  0.63544000  0.98242000  1.0
  N  N125  1  0.60627000  0.13544000  0.01758000  1.0
  O  O126  1  0.39994000  0.69522000  0.44822000  1.0
  O  O127  1  0.10007000  0.19522000  0.55178000  1.0
  O  O128  1  0.60007000  0.30478000  0.55178000  1.0
  O  O129  1  0.89993000  0.80478000  0.44822000  1.0
  O  O130  1  0.36464000  0.43065000  0.37126000  1.0
  O  O131  1  0.13536000  0.93065000  0.62874000  1.0
  O  O132  1  0.63536000  0.56935000  0.62874000  1.0
  O  O133  1  0.86464000  0.06935000  0.37126000  1.0
  O  O134  1  0.27676000  0.58233000  0.27978000  1.0
  O  O135  1  0.22324000  0.08233000  0.72021000  1.0
  O  O136  1  0.72324000  0.41767000  0.72022000  1.0
  O  O137  1  0.77676000  0.91767000  0.27979000  1.0
  O  O138  1  0.26526000  0.51187000  0.06794000  1.0
  O  O139  1  0.23474000  0.01187000  0.93206000  1.0
  O  O140  1  0.73474000  0.48813000  0.93206000  1.0
  O  O141  1  0.76526000  0.98813000  0.06794000  1.0
  O  O142  1  0.95484000  0.21334000  0.96555000  1.0
  O  O143  1  0.54516000  0.71333000  0.03445000  1.0
  O  O144  1  0.04516000  0.78667000  0.03445000  1.0
  O  O145  1  0.45484000  0.28667000  0.96555000  1.0
