# generated using pymatgen
data_ZnH6C13N(O2F)2
_symmetry_space_group_name_H-M   'P 1'
_cell_length_a   9.59736000
_cell_length_b   11.00850000
_cell_length_c   15.36110000
_cell_angle_alpha   89.69250000
_cell_angle_beta   90.21340000
_cell_angle_gamma   89.97230000
_symmetry_Int_Tables_number   1
_chemical_formula_structural   ZnH6C13N(O2F)2
_chemical_formula_sum   'Zn2 H12 C26 N2 O8 F4'
_cell_volume   1622.90435930
_cell_formula_units_Z   2
loop_
 _symmetry_equiv_pos_site_id
 _symmetry_equiv_pos_as_xyz
  1  'x, y, z'
loop_
 _atom_site_type_symbol
 _atom_site_label
 _atom_site_symmetry_multiplicity
 _atom_site_fract_x
 _atom_site_fract_y
 _atom_site_fract_z
 _atom_site_occupancy
  Zn  Zn0  1  0.64221000  0.50002000  0.50069000  1.0
  Zn  Zn1  1  0.35862000  0.50003000  0.49930000  1.0
  H  H2  1  0.13527000  0.36490000  0.59441000  1.0
  H  H3  1  0.71949000  0.11344000  0.52400000  1.0
  H  H4  1  0.27849000  0.11501000  0.47646000  1.0
  H  H5  1  0.71821000  0.88501000  0.52578000  1.0
  H  H6  1  0.86561000  0.63521000  0.40536000  1.0
  H  H7  1  0.13342000  0.63498000  0.40488000  1.0
  H  H8  1  0.86751000  0.36582000  0.59526000  1.0
  H  H9  1  0.69876000  0.59573000  0.22082000  1.0
  H  H10  1  0.30311000  0.59323000  0.77679000  1.0
  H  H11  1  0.69763000  0.40348000  0.77994000  1.0
  H  H12  1  0.30431000  0.40629000  0.22268000  1.0
  H  H13  1  0.27873000  0.88666000  0.47356000  1.0
  C  C14  1  0.49832000  0.73689000  0.49903000  1.0
  C  C15  1  0.62337000  0.06278000  0.51368000  1.0
  C  C16  1  0.37431000  0.06363000  0.48664000  1.0
  C  C17  1  0.62288000  0.93647000  0.51414000  1.0
  C  C18  1  0.60794000  0.55334000  0.09623000  1.0
  C  C19  1  0.39185000  0.55178000  0.90253000  1.0
  C  C20  1  0.60736000  0.44593000  0.90424000  1.0
  C  C21  1  0.39241000  0.44765000  0.09720000  1.0
  C  C22  1  0.61208000  0.55394000  0.18637000  1.0
  C  C23  1  0.38909000  0.55143000  0.81234000  1.0
  C  C24  1  0.61105000  0.44527000  0.81411000  1.0
  C  C25  1  0.49902000  0.26307000  0.50084000  1.0
  C  C26  1  0.39009000  0.44798000  0.18736000  1.0
  C  C27  1  0.50154000  0.50126000  0.23211000  1.0
  C  C28  1  0.50043000  0.49813000  0.76795000  1.0
  C  C29  1  0.49972000  0.50022000  0.04802000  1.0
  C  C30  1  0.49943000  0.49925000  0.95208000  1.0
  C  C31  1  0.49896000  0.12720000  0.50040000  1.0
  C  C32  1  0.49850000  0.87285000  0.49943000  1.0
  C  C33  1  0.50213000  0.50159000  0.32973000  1.0
  C  C34  1  0.50163000  0.49802000  0.67031000  1.0
  C  C35  1  0.07355000  0.42488000  0.55271000  1.0
  C  C36  1  0.92736000  0.57565000  0.44733000  1.0
  C  C37  1  0.07246000  0.57533000  0.44692000  1.0
  C  C38  1  0.92846000  0.42516000  0.55301000  1.0
  C  C39  1  0.37437000  0.93736000  0.48527000  1.0
  N  N40  1  0.85716000  0.50054000  0.50037000  1.0
  N  N41  1  0.14370000  0.49998000  0.49963000  1.0
  O  O42  1  0.61369000  0.68338000  0.51492000  1.0
  O  O43  1  0.38285000  0.31588000  0.51461000  1.0
  O  O44  1  0.61511000  0.31618000  0.48736000  1.0
  O  O45  1  0.38287000  0.68391000  0.48293000  1.0
  O  O46  1  0.61730000  0.52496000  0.36768000  1.0
  O  O47  1  0.38686000  0.52137000  0.63174000  1.0
  O  O48  1  0.61726000  0.47485000  0.63338000  1.0
  O  O49  1  0.38701000  0.47822000  0.36727000  1.0
  F  F50  1  0.71287000  0.60859000  0.05183000  1.0
  F  F51  1  0.28643000  0.60769000  0.94566000  1.0
  F  F52  1  0.71251000  0.39063000  0.94895000  1.0
  F  F53  1  0.28676000  0.39188000  0.05375000  1.0
