# generated using pymatgen
data_AgH3C4N2O
_symmetry_space_group_name_H-M   'P 1'
_cell_length_a   7.44553000
_cell_length_b   8.49814000
_cell_length_c   8.49989000
_cell_angle_alpha   85.97160000
_cell_angle_beta   89.94830000
_cell_angle_gamma   89.97400000
_symmetry_Int_Tables_number   1
_chemical_formula_structural   AgH3C4N2O
_chemical_formula_sum   'Ag4 H12 C16 N8 O4'
_cell_volume   536.48585751
_cell_formula_units_Z   4
loop_
 _symmetry_equiv_pos_site_id
 _symmetry_equiv_pos_as_xyz
  1  'x, y, z'
loop_
 _atom_site_type_symbol
 _atom_site_label
 _atom_site_symmetry_multiplicity
 _atom_site_fract_x
 _atom_site_fract_y
 _atom_site_fract_z
 _atom_site_occupancy
  Ag  Ag0  1  0.99990000  0.50005000  0.99998000  1.0
  Ag  Ag1  1  0.50010000  0.49997000  0.00004000  1.0
  Ag  Ag2  1  0.49986000  0.99997000  0.50005000  1.0
  Ag  Ag3  1  0.00012000  0.00005000  0.49996000  1.0
  H  H4  1  0.81080000  0.34399000  0.71192000  1.0
  H  H5  1  0.68903000  0.21161000  0.84383000  1.0
  H  H6  1  0.31040000  0.15605000  0.78839000  1.0
  H  H7  1  0.18973000  0.28814000  0.65572000  1.0
  H  H8  1  0.18903000  0.65618000  0.28798000  1.0
  H  H9  1  0.31110000  0.78820000  0.15631000  1.0
  H  H10  1  0.68912000  0.84377000  0.21178000  1.0
  H  H11  1  0.81075000  0.71196000  0.34406000  1.0
  H  H12  1  0.70705000  0.44022000  0.44032000  1.0
  H  H13  1  0.79298000  0.93990000  0.94003000  1.0
  H  H14  1  0.20688000  0.05987000  0.06017000  1.0
  H  H15  1  0.29313000  0.55991000  0.55950000  1.0
  C  C16  1  0.06328000  0.28126000  0.28113000  1.0
  C  C17  1  0.43630000  0.78110000  0.78120000  1.0
  C  C18  1  0.56370000  0.21884000  0.21890000  1.0
  C  C19  1  0.93671000  0.71886000  0.71879000  1.0
  C  C20  1  0.82918000  0.46660000  0.66878000  1.0
  C  C21  1  0.67084000  0.16856000  0.96647000  1.0
  C  C22  1  0.32889000  0.03344000  0.83146000  1.0
  C  C23  1  0.17109000  0.33130000  0.53320000  1.0
  C  C24  1  0.17079000  0.53355000  0.33108000  1.0
  C  C25  1  0.32920000  0.83129000  0.03367000  1.0
  C  C26  1  0.67086000  0.96640000  0.16870000  1.0
  C  C27  1  0.82917000  0.66880000  0.46662000  1.0
  C  C28  1  0.77760000  0.51694000  0.51697000  1.0
  C  C29  1  0.72247000  0.01668000  0.01679000  1.0
  C  C30  1  0.27741000  0.98313000  0.98338000  1.0
  C  C31  1  0.22258000  0.48319000  0.48284000  1.0
  N  N32  1  0.09058000  0.43949000  0.23245000  1.0
  N  N33  1  0.40928000  0.73252000  0.93948000  1.0
  N  N34  1  0.59076000  0.06055000  0.26748000  1.0
  N  N35  1  0.90937000  0.76753000  0.56060000  1.0
  N  N36  1  0.90934000  0.56065000  0.76745000  1.0
  N  N37  1  0.59076000  0.26738000  0.06061000  1.0
  N  N38  1  0.40904000  0.93937000  0.73264000  1.0
  N  N39  1  0.09081000  0.23257000  0.43927000  1.0
  O  O40  1  0.01087000  0.18607000  0.18598000  1.0
  O  O41  1  0.48826000  0.68581000  0.68586000  1.0
  O  O42  1  0.51186000  0.31421000  0.31421000  1.0
  O  O43  1  0.98903000  0.81407000  0.81396000  1.0
