# generated using pymatgen
data_CdH18C14(BrN)2
_symmetry_space_group_name_H-M   'P 1'
_cell_length_a   3.95701000
_cell_length_b   14.32090000
_cell_length_c   14.32080000
_cell_angle_alpha   90.00000000
_cell_angle_beta   90.00000000
_cell_angle_gamma   89.99830000
_symmetry_Int_Tables_number   1
_chemical_formula_structural   CdH18C14(BrN)2
_chemical_formula_sum   'Cd2 H36 C28 Br4 N4'
_cell_volume   811.53029937
_cell_formula_units_Z   2
loop_
 _symmetry_equiv_pos_site_id
 _symmetry_equiv_pos_as_xyz
  1  'x, y, z'
loop_
 _atom_site_type_symbol
 _atom_site_label
 _atom_site_symmetry_multiplicity
 _atom_site_fract_x
 _atom_site_fract_y
 _atom_site_fract_z
 _atom_site_occupancy
  Cd  Cd0  1  0.50000000  0.49999000  0.00000000  1.0
  Cd  Cd1  1  0.50000000  0.00000000  0.50000000  1.0
  H  H2  1  0.70295000  0.52676000  0.21460000  1.0
  H  H3  1  0.70298000  0.47323000  0.78539000  1.0
  H  H4  1  0.29707000  0.21461000  0.47325000  1.0
  H  H5  1  0.29709000  0.78539000  0.52675000  1.0
  H  H6  1  0.70293000  0.02675000  0.28539000  1.0
  H  H7  1  0.70297000  0.97324000  0.71461000  1.0
  H  H8  1  0.29705000  0.71462000  0.02674000  1.0
  H  H9  1  0.29708000  0.28538000  0.97325000  1.0
  H  H10  1  0.49998000  0.80763000  0.30760000  1.0
  H  H11  1  0.49999000  0.19237000  0.69239000  1.0
  H  H12  1  0.49999000  0.30762000  0.19240000  1.0
  H  H13  1  0.50003000  0.69239000  0.80762000  1.0
  H  H14  1  0.88727000  0.69749000  0.40096000  1.0
  H  H15  1  0.88730000  0.30251000  0.59903000  1.0
  H  H16  1  0.11267000  0.40097000  0.30253000  1.0
  H  H17  1  0.11271000  0.59905000  0.69748000  1.0
  H  H18  1  0.88729000  0.19748000  0.09904000  1.0
  H  H19  1  0.88733000  0.80252000  0.90097000  1.0
  H  H20  1  0.11265000  0.90097000  0.19746000  1.0
  H  H21  1  0.11268000  0.09903000  0.80253000  1.0
  H  H22  1  0.90275000  0.57671000  0.36912000  1.0
  H  H23  1  0.90275000  0.42328000  0.63087000  1.0
  H  H24  1  0.09720000  0.36913000  0.42331000  1.0
  H  H25  1  0.09724000  0.63088000  0.57671000  1.0
  H  H26  1  0.90275000  0.07671000  0.13088000  1.0
  H  H27  1  0.90279000  0.92329000  0.86913000  1.0
  H  H28  1  0.09719000  0.86914000  0.07669000  1.0
  H  H29  1  0.09721000  0.13087000  0.92330000  1.0
  H  H30  1  0.53094000  0.62506000  0.41904000  1.0
  H  H31  1  0.53095000  0.37495000  0.58095000  1.0
  H  H32  1  0.46900000  0.41906000  0.37497000  1.0
  H  H33  1  0.46903000  0.58095000  0.62505000  1.0
  H  H34  1  0.53096000  0.12505000  0.08095000  1.0
  H  H35  1  0.53099000  0.87496000  0.91905000  1.0
  H  H36  1  0.46898000  0.91906000  0.12503000  1.0
  H  H37  1  0.46900000  0.08093000  0.87496000  1.0
  C  C38  1  0.61093000  0.59778000  0.20355000  1.0
  C  C39  1  0.61097000  0.40221000  0.79644000  1.0
  C  C40  1  0.38907000  0.20356000  0.40224000  1.0
  C  C41  1  0.38911000  0.79644000  0.59777000  1.0
  C  C42  1  0.61093000  0.09777000  0.29644000  1.0
  C  C43  1  0.61098000  0.90223000  0.70356000  1.0
  C  C44  1  0.38906000  0.70357000  0.09775000  1.0
  C  C45  1  0.38909000  0.29643000  0.90224000  1.0
  C  C46  1  0.61639000  0.66403000  0.27510000  1.0
  C  C47  1  0.61643000  0.33596000  0.72489000  1.0
  C  C48  1  0.38358000  0.27511000  0.33599000  1.0
  C  C49  1  0.38362000  0.72489000  0.66403000  1.0
  C  C50  1  0.61640000  0.16403000  0.22489000  1.0
  C  C51  1  0.61645000  0.83598000  0.77511000  1.0
  C  C52  1  0.38357000  0.77512000  0.16401000  1.0
  C  C53  1  0.38360000  0.22488000  0.83598000  1.0
  C  C54  1  0.49997000  0.75377000  0.25375000  1.0
  C  C55  1  0.50000000  0.24623000  0.74624000  1.0
  C  C56  1  0.49999000  0.25377000  0.24624000  1.0
  C  C57  1  0.50003000  0.74624000  0.75377000  1.0
  C  C58  1  0.74221000  0.63927000  0.37103000  1.0
  C  C59  1  0.74222000  0.36073000  0.62896000  1.0
  C  C60  1  0.25774000  0.37105000  0.36076000  1.0
  C  C61  1  0.25778000  0.62896000  0.63926000  1.0
  C  C62  1  0.74222000  0.13926000  0.12896000  1.0
  C  C63  1  0.74227000  0.86075000  0.87105000  1.0
  C  C64  1  0.25773000  0.87106000  0.13923000  1.0
  C  C65  1  0.25774000  0.12894000  0.86075000  1.0
  Br  Br66  1  0.00001000  0.40223000  0.09778000  1.0
  Br  Br67  1  0.00001000  0.59776000  0.90222000  1.0
  Br  Br68  1  0.00000000  0.09777000  0.59778000  1.0
  Br  Br69  1  0.00001000  0.90223000  0.40223000  1.0
  N  N70  1  0.50000000  0.61715000  0.11713000  1.0
  N  N71  1  0.50004000  0.38284000  0.88286000  1.0
  N  N72  1  0.50001000  0.11714000  0.38286000  1.0
  N  N73  1  0.50004000  0.88285000  0.61715000  1.0
