# generated using pymatgen
data_CuH4C4NO4
_symmetry_space_group_name_H-M   'P 1'
_cell_length_a   6.85016000
_cell_length_b   7.73455907
_cell_length_c   12.90880000
_cell_angle_alpha   79.69745449
_cell_angle_beta   89.99270000
_cell_angle_gamma   63.73616221
_symmetry_Int_Tables_number   1
_chemical_formula_structural   CuH4C4NO4
_chemical_formula_sum   'Cu4 H16 C16 N4 O16'
_cell_volume   601.02649178
_cell_formula_units_Z   4
loop_
 _symmetry_equiv_pos_site_id
 _symmetry_equiv_pos_as_xyz
  1  'x, y, z'
loop_
 _atom_site_type_symbol
 _atom_site_label
 _atom_site_symmetry_multiplicity
 _atom_site_fract_x
 _atom_site_fract_y
 _atom_site_fract_z
 _atom_site_occupancy
  Cu  Cu0  1  0.15929000  0.35101000  0.56013000  1.0
  Cu  Cu1  1  0.50988000  0.64937000  0.93994000  1.0
  Cu  Cu2  1  0.84071000  0.64900000  0.43986000  1.0
  Cu  Cu3  1  0.49012000  0.35063000  0.06007000  1.0
  H  H4  1  0.64025000  0.54922000  0.71436000  1.0
  H  H5  1  0.18833000  0.45133000  0.78591000  1.0
  H  H6  1  0.35975000  0.45078000  0.28564000  1.0
  H  H7  1  0.81166000  0.54868000  0.21409000  1.0
  H  H8  1  0.82020000  0.15949000  0.42070000  1.0
  H  H9  1  0.98010000  0.83954000  0.07985000  1.0
  H  H10  1  0.17978000  0.84054000  0.57929000  1.0
  H  H11  1  0.01990000  0.16046000  0.92015000  1.0
  H  H12  1  0.24679000  0.99994000  0.74967000  1.0
  H  H13  1  0.75322000  0.00005000  0.25034000  1.0
  H  H14  1  0.64671000  0.23056000  0.60963000  1.0
  H  H15  1  0.87627000  0.77045000  0.89056000  1.0
  H  H16  1  0.35330000  0.76943000  0.39037000  1.0
  H  H17  1  0.12376000  0.22953000  0.10944000  1.0
  H  H18  1  0.95468000  0.00037000  0.75014000  1.0
  H  H19  1  0.04534000  0.99961000  0.24985000  1.0
  C  C20  1  0.74814000  0.53711000  0.64950000  1.0
  C  C21  1  0.28452000  0.46319000  0.85069000  1.0
  C  C22  1  0.25185000  0.46290000  0.35050000  1.0
  C  C23  1  0.71546000  0.53682000  0.14932000  1.0
  C  C24  1  0.87735000  0.26132000  0.44408000  1.0
  C  C25  1  0.13902000  0.73817000  0.05626000  1.0
  C  C26  1  0.12262000  0.73871000  0.55591000  1.0
  C  C27  1  0.86098000  0.26182000  0.94374000  1.0
  C  C28  1  0.40569000  0.00012000  0.74983000  1.0
  C  C29  1  0.59433000  0.99987000  0.25018000  1.0
  C  C30  1  0.62796000  0.12644000  0.67279000  1.0
  C  C31  1  0.75371000  0.87432000  0.82725000  1.0
  C  C32  1  0.37204000  0.87355000  0.32721000  1.0
  C  C33  1  0.24630000  0.12567000  0.17275000  1.0
  C  C34  1  0.79624000  0.00038000  0.75006000  1.0
  C  C35  1  0.20376000  0.99961000  0.24994000  1.0
  N  N36  1  0.43155000  0.12671000  0.67275000  1.0
  N  N37  1  0.55773000  0.87380000  0.82707000  1.0
  N  N38  1  0.56845000  0.87329000  0.32726000  1.0
  N  N39  1  0.44227000  0.12620000  0.17294000  1.0
  O  O40  1  0.94079000  0.39666000  0.66949000  1.0
  O  O41  1  0.33655000  0.60381000  0.83076000  1.0
  O  O42  1  0.05923000  0.60334000  0.33051000  1.0
  O  O43  1  0.66343000  0.39620000  0.16926000  1.0
  O  O44  1  0.04654000  0.18064000  0.50942000  1.0
  O  O45  1  0.22721000  0.81939000  0.99101000  1.0
  O  O46  1  0.95344000  0.81938000  0.49057000  1.0
  O  O47  1  0.77280000  0.18060000  0.00900000  1.0
  O  O48  1  0.66425000  0.66437000  0.56491000  1.0
  O  O49  1  0.32840000  0.33552000  0.93516000  1.0
  O  O50  1  0.33574000  0.33563000  0.43508000  1.0
  O  O51  1  0.67161000  0.66446000  0.06484000  1.0
  O  O52  1  0.76603000  0.44230000  0.40400000  1.0
  O  O53  1  0.20892000  0.55702000  0.09610000  1.0
  O  O54  1  0.23396000  0.55772000  0.59598000  1.0
  O  O55  1  0.79106000  0.44297000  0.90390000  1.0
