# generated using pymatgen
data_HgH3C3S2N2Cl
_symmetry_space_group_name_H-M   'P 1'
_cell_length_a   4.07288000
_cell_length_b   10.18490000
_cell_length_c   17.79840000
_cell_angle_alpha   90.00100000
_cell_angle_beta   90.00070000
_cell_angle_gamma   90.00000000
_symmetry_Int_Tables_number   1
_chemical_formula_structural   HgH3C3S2N2Cl
_chemical_formula_sum   'Hg4 H12 C12 S8 N8 Cl4'
_cell_volume   738.31101295
_cell_formula_units_Z   4
loop_
 _symmetry_equiv_pos_site_id
 _symmetry_equiv_pos_as_xyz
  1  'x, y, z'
loop_
 _atom_site_type_symbol
 _atom_site_label
 _atom_site_symmetry_multiplicity
 _atom_site_fract_x
 _atom_site_fract_y
 _atom_site_fract_z
 _atom_site_occupancy
  Hg  Hg0  1  0.19512000  0.00502000  0.05539000  1.0
  Hg  Hg1  1  0.80487000  0.50502000  0.94461000  1.0
  Hg  Hg2  1  0.30487000  0.00502000  0.55539000  1.0
  Hg  Hg3  1  0.69512000  0.50502000  0.44461000  1.0
  H  H4  1  0.17599000  0.31073000  0.76655000  1.0
  H  H5  1  0.82400000  0.81072000  0.23344000  1.0
  H  H6  1  0.32397000  0.31074000  0.26656000  1.0
  H  H7  1  0.67603000  0.81074000  0.73344000  1.0
  H  H8  1  0.52376000  0.27901000  0.70987000  1.0
  H  H9  1  0.47624000  0.77901000  0.29013000  1.0
  H  H10  1  0.97627000  0.27902000  0.20987000  1.0
  H  H11  1  0.02375000  0.77902000  0.79012000  1.0
  H  H12  1  0.52503000  0.41475000  0.77416000  1.0
  H  H13  1  0.47496000  0.91475000  0.22585000  1.0
  H  H14  1  0.97495000  0.41477000  0.27417000  1.0
  H  H15  1  0.02507000  0.91475000  0.72583000  1.0
  C  C16  1  0.76313000  0.06136000  0.91248000  1.0
  C  C17  1  0.23685000  0.56135000  0.08752000  1.0
  C  C18  1  0.73681000  0.06137000  0.41248000  1.0
  C  C19  1  0.26319000  0.56136000  0.58752000  1.0
  C  C20  1  0.58194000  0.22980000  0.82617000  1.0
  C  C21  1  0.41806000  0.72981000  0.17383000  1.0
  C  C22  1  0.91805000  0.22980000  0.32617000  1.0
  C  C23  1  0.08196000  0.72981000  0.67382000  1.0
  C  C24  1  0.44512000  0.31323000  0.76553000  1.0
  C  C25  1  0.55488000  0.81324000  0.23447000  1.0
  C  C26  1  0.05485000  0.31325000  0.26553000  1.0
  C  C27  1  0.94513000  0.81325000  0.73447000  1.0
  S  S28  1  0.53588000  0.06089000  0.82958000  1.0
  S  S29  1  0.46412000  0.56089000  0.17042000  1.0
  S  S30  1  0.96413000  0.06090000  0.32959000  1.0
  S  S31  1  0.03588000  0.56090000  0.67042000  1.0
  S  S32  1  0.84732000  0.91584000  0.95904000  1.0
  S  S33  1  0.15269000  0.41585000  0.04096000  1.0
  S  S34  1  0.65265000  0.91585000  0.45904000  1.0
  S  S35  1  0.34731000  0.41584000  0.54096000  1.0
  N  N36  1  0.85833000  0.18040000  0.93244000  1.0
  N  N37  1  0.14169000  0.68038000  0.06757000  1.0
  N  N38  1  0.64165000  0.18040000  0.43244000  1.0
  N  N39  1  0.35835000  0.68038000  0.56756000  1.0
  N  N40  1  0.75364000  0.27416000  0.88338000  1.0
  N  N41  1  0.24636000  0.77417000  0.11662000  1.0
  N  N42  1  0.74637000  0.27418000  0.38339000  1.0
  N  N43  1  0.25366000  0.77418000  0.61661000  1.0
  Cl  Cl44  1  0.55567000  0.12382000  0.13554000  1.0
  Cl  Cl45  1  0.44435000  0.62382000  0.86447000  1.0
  Cl  Cl46  1  0.94434000  0.12382000  0.63552000  1.0
  Cl  Cl47  1  0.05564000  0.62382000  0.36447000  1.0
