# generated using pymatgen
data_Zn2H31C51S2N3O10
_symmetry_space_group_name_H-M   'P 1'
_cell_length_a   17.05100000
_cell_length_b   18.54430000
_cell_length_c   21.68880000
_cell_angle_alpha   89.99990000
_cell_angle_beta   102.86400000
_cell_angle_gamma   89.99990000
_symmetry_Int_Tables_number   1
_chemical_formula_structural   Zn2H31C51S2N3O10
_chemical_formula_sum   'Zn8 H124 C204 S8 N12 O40'
_cell_volume   6685.84741345
_cell_formula_units_Z   4
loop_
 _symmetry_equiv_pos_site_id
 _symmetry_equiv_pos_as_xyz
  1  'x, y, z'
loop_
 _atom_site_type_symbol
 _atom_site_label
 _atom_site_symmetry_multiplicity
 _atom_site_fract_x
 _atom_site_fract_y
 _atom_site_fract_z
 _atom_site_occupancy
  Zn  Zn0  1  0.30439000  0.43964000  0.51073000  1.0
  Zn  Zn1  1  0.19562000  0.93964000  0.98927000  1.0
  Zn  Zn2  1  0.69561000  0.56036000  0.48927000  1.0
  Zn  Zn3  1  0.80438000  0.06036000  0.01073000  1.0
  Zn  Zn4  1  0.17845000  0.54404000  0.48928000  1.0
  Zn  Zn5  1  0.32155000  0.04404000  0.01072000  1.0
  Zn  Zn6  1  0.82155000  0.45596000  0.51072000  1.0
  Zn  Zn7  1  0.67845000  0.95596000  0.98928000  1.0
  H  H8  1  0.44750000  0.41343000  0.45748000  1.0
  H  H9  1  0.05250000  0.91343000  0.04252000  1.0
  H  H10  1  0.55250000  0.58657000  0.54252000  1.0
  H  H11  1  0.94750000  0.08657000  0.95748000  1.0
  H  H12  1  0.76934000  0.18192000  0.44888000  1.0
  H  H13  1  0.73066000  0.68192000  0.05112000  1.0
  H  H14  1  0.23066000  0.81808000  0.55112000  1.0
  H  H15  1  0.26934000  0.31808000  0.94888000  1.0
  H  H16  1  0.61253000  0.01220000  0.54061000  1.0
  H  H17  1  0.88747000  0.51220000  0.95938000  1.0
  H  H18  1  0.38747000  0.98780000  0.45939000  1.0
  H  H19  1  0.11253000  0.48780000  0.04061000  1.0
  H  H20  1  0.95110000  0.37774000  0.21860000  1.0
  H  H21  1  0.54890000  0.87774000  0.28140000  1.0
  H  H22  1  0.04890000  0.62226000  0.78140000  1.0
  H  H23  1  0.45110000  0.12226000  0.71860000  1.0
  H  H24  1  0.92660000  0.01690000  0.43506000  1.0
  H  H25  1  0.57340000  0.51690000  0.06495000  1.0
  H  H26  1  0.07340000  0.98310000  0.56495000  1.0
  H  H27  1  0.42660000  0.48310000  0.93505000  1.0
  H  H28  1  0.55169000  0.62746000  0.76107000  1.0
  H  H29  1  0.94831000  0.12746000  0.73893000  1.0
  H  H30  1  0.44831000  0.37254000  0.23893000  1.0
  H  H31  1  0.05169000  0.87254000  0.26107000  1.0
  H  H32  1  0.54135000  0.88520000  0.82208000  1.0
  H  H33  1  0.95865000  0.38520000  0.67792000  1.0
  H  H34  1  0.45864000  0.11480000  0.17792000  1.0
  H  H35  1  0.04135000  0.61480000  0.32208000  1.0
  H  H36  1  0.06442000  0.79807000  0.44588000  1.0
  H  H37  1  0.43558000  0.29807000  0.05412000  1.0
  H  H38  1  0.93558000  0.20193000  0.55412000  1.0
  H  H39  1  0.56442000  0.70193000  0.94588000  1.0
  H  H40  1  0.36731000  0.78438000  0.69160000  1.0
  H  H41  1  0.13269000  0.28438000  0.80840000  1.0
  H  H42  1  0.63269000  0.21562000  0.30840000  1.0
  H  H43  1  0.86731000  0.71562000  0.19160000  1.0
  H  H44  1  0.29582000  0.69443000  0.61227000  1.0
  H  H45  1  0.20418000  0.19444000  0.88773000  1.0
  H  H46  1  0.70417000  0.30556000  0.38773000  1.0
  H  H47  1  0.79583000  0.80557000  0.11227000  1.0
  H  H48  1  0.54406000  0.31412000  0.45371000  1.0
  H  H49  1  0.95595000  0.81412000  0.04629000  1.0
  H  H50  1  0.45594000  0.68588000  0.54629000  1.0
  H  H51  1  0.04405000  0.18588000  0.95371000  1.0
  H  H52  1  0.48098000  0.53876000  0.67950000  1.0
  H  H53  1  0.01903000  0.03876000  0.82050000  1.0
  H  H54  1  0.51902000  0.46124000  0.32050000  1.0
  H  H55  1  0.98098000  0.96124000  0.17950000  1.0
  H  H56  1  0.19742000  0.29559000  0.37102000  1.0
  H  H57  1  0.30258000  0.79559000  0.12898000  1.0
  H  H58  1  0.80258000  0.70441000  0.62898000  1.0
  H  H59  1  0.69742000  0.20441000  0.87102000  1.0
  H  H60  1  0.14089000  0.28491000  0.16750000  1.0
  H  H61  1  0.35911000  0.78491000  0.33250000  1.0
  H  H62  1  0.85911000  0.71509000  0.83250000  1.0
  H  H63  1  0.64089000  0.21509000  0.66750000  1.0
  H  H64  1  0.96169000  0.11873000  0.15783000  1.0
  H  H65  1  0.53831000  0.61873000  0.34217000  1.0
  H  H66  1  0.03832000  0.88127000  0.84217000  1.0
  H  H67  1  0.46169000  0.38127000  0.65783000  1.0
  H  H68  1  0.16035000  0.69644000  0.44542000  1.0
  H  H69  1  0.33965000  0.19644000  0.05458000  1.0
  H  H70  1  0.83965000  0.30356000  0.55458000  1.0
  H  H71  1  0.66035000  0.80356000  0.94542000  1.0
  H  H72  1  0.40852000  0.18378000  0.55966000  1.0
  H  H73  1  0.09148000  0.68378000  0.94034000  1.0
  H  H74  1  0.59148000  0.81622000  0.44034000  1.0
  H  H75  1  0.90851000  0.31622000  0.05965000  1.0
  H  H76  1  0.28916000  0.78916000  0.87024000  1.0
  H  H77  1  0.21085000  0.28915000  0.62976000  1.0
  H  H78  1  0.71084000  0.21084000  0.12976000  1.0
  H  H79  1  0.78915000  0.71084000  0.37024000  1.0
  H  H80  1  0.93598000  0.65882000  0.54965000  1.0
  H  H81  1  0.56402000  0.15882000  0.95035000  1.0
  H  H82  1  0.06403000  0.34118000  0.45035000  1.0
  H  H83  1  0.43597000  0.84118000  0.04965000  1.0
  H  H84  1  0.36499000  0.71557000  0.80691000  1.0
  H  H85  1  0.13501000  0.21556000  0.69309000  1.0
  H  H86  1  0.63501000  0.28443000  0.19309000  1.0
  H  H87  1  0.86499000  0.78443000  0.30691000  1.0
  H  H88  1  0.46675000  0.95676000  0.88750000  1.0
  H  H89  1  0.03326000  0.45677000  0.61250000  1.0
  H  H90  1  0.53325000  0.04323000  0.11250000  1.0
  H  H91  1  0.96675000  0.54323000  0.38750000  1.0
  H  H92  1  0.03630000  0.56333000  0.54378000  1.0
  H  H93  1  0.46370000  0.06333000  0.95622000  1.0
  H  H94  1  0.96371000  0.43667000  0.45622000  1.0
  H  H95  1  0.53630000  0.93668000  0.04378000  1.0
  H  H96  1  0.13182000  0.21556000  0.28177000  1.0
  H  H97  1  0.36818000  0.71556000  0.21824000  1.0
  H  H98  1  0.86818000  0.78444000  0.71823000  1.0
  H  H99  1  0.63182000  0.28444000  0.78177000  1.0
  H  H100  1  0.01601000  0.45650000  0.31009000  1.0
  H  H101  1  0.48399000  0.95650000  0.18991000  1.0
  H  H102  1  0.98399000  0.54350000  0.68991000  1.0
  H  H103  1  0.51601000  0.04350000  0.81009000  1.0
  H  H104  1  0.22137000  0.20251000  0.11435000  1.0
  H  H105  1  0.27863000  0.70251000  0.38565000  1.0
  H  H106  1  0.77864000  0.79749000  0.88565000  1.0
  H  H107  1  0.72137000  0.29749000  0.61435000  1.0
  H  H108  1  0.49032000  0.09099000  0.55252000  1.0
  H  H109  1  0.00968000  0.59099000  0.94748000  1.0
  H  H110  1  0.50968000  0.90901000  0.44748000  1.0
  H  H111  1  0.99032000  0.40901000  0.05252000  1.0
  H  H112  1  0.04099000  0.03823000  0.10259000  1.0
  H  H113  1  0.45902000  0.53823000  0.39742000  1.0
  H  H114  1  0.95902000  0.96177000  0.89741000  1.0
  H  H115  1  0.54099000  0.46177000  0.60259000  1.0
  H  H116  1  0.31724000  0.28913000  0.55767000  1.0
  H  H117  1  0.18275000  0.78913000  0.94233000  1.0
  H  H118  1  0.68275000  0.71087000  0.44233000  1.0
  H  H119  1  0.81724000  0.21087000  0.05767000  1.0
  H  H120  1  0.83265000  0.73346000  0.52564000  1.0
  H  H121  1  0.66735000  0.23346000  0.97436000  1.0
  H  H122  1  0.16735000  0.26654000  0.47436000  1.0
  H  H123  1  0.33265000  0.76654000  0.02564000  1.0
  H  H124  1  0.71860000  0.96885000  0.51045000  1.0
  H  H125  1  0.78140000  0.46886000  0.98955000  1.0
  H  H126  1  0.28140000  0.03115000  0.48955000  1.0
  H  H127  1  0.21860000  0.53114000  0.01045000  1.0
  H  H128  1  0.75136000  0.85389000  0.51485000  1.0
  H  H129  1  0.74864000  0.35389000  0.98515000  1.0
  H  H130  1  0.24864000  0.14611000  0.48515000  1.0
  H  H131  1  0.25136000  0.64611000  0.01485000  1.0
  C  C132  1  0.44120000  0.36114000  0.47889000  1.0
  C  C133  1  0.05880000  0.86115000  0.02111000  1.0
  C  C134  1  0.55880000  0.63886000  0.52111000  1.0
  C  C135  1  0.94120000  0.13885000  0.97889000  1.0
  C  C136  1  0.78350000  0.12450000  0.45609000  1.0
  C  C137  1  0.71649000  0.62450000  0.04391000  1.0
  C  C138  1  0.21649000  0.87550000  0.54391000  1.0
  C  C139  1  0.28350000  0.37550000  0.95609000  1.0
  C  C140  1  0.60442000  0.06793000  0.52466000  1.0
  C  C141  1  0.89558000  0.56793000  0.97534000  1.0
  C  C142  1  0.39558000  0.93207000  0.47534000  1.0
  C  C143  1  0.10442000  0.43207000  0.02466000  1.0
  C  C144  1  0.54076000  0.17995000  0.50758000  1.0
  C  C145  1  0.95924000  0.67995000  0.99242000  1.0
  C  C146  1  0.45924000  0.82005000  0.49242000  1.0
  C  C147  1  0.04076000  0.32005000  0.00757000  1.0
  C  C148  1  0.04770000  0.20572000  0.16664000  1.0
  C  C149  1  0.45230000  0.70572000  0.33333333  1.0
  C  C150  1  0.95231000  0.79429000  0.83335000  1.0
  C  C151  1  0.54770000  0.29428000  0.66666667  1.0
  C  C152  1  0.65828000  0.10452000  0.49628000  1.0
  C  C153  1  0.84172000  0.60452000  0.00372000  1.0
  C  C154  1  0.34172000  0.89548000  0.50372000  1.0
  C  C155  1  0.15828000  0.39548000  0.99628000  1.0
  C  C156  1  0.92988000  0.79189000  0.49684000  1.0
  C  C157  1  0.57012000  0.29189000  0.00316000  1.0
  C  C158  1  0.07012000  0.20811000  0.50316000  1.0
  C  C159  1  0.42988000  0.70811000  0.99684000  1.0
  C  C160  1  0.73219000  0.07848000  0.48088000  1.0
  C  C161  1  0.76780000  0.57848000  0.01911000  1.0
  C  C162  1  0.26780000  0.92152000  0.51912000  1.0
  C  C163  1  0.23219000  0.42152000  0.98088000  1.0
  C  C164  1  0.00495000  0.36028000  0.25253000  1.0
  C  C165  1  0.49505000  0.86028000  0.24747000  1.0
  C  C166  1  0.99505000  0.63972000  0.74747000  1.0
  C  C167  1  0.50495000  0.13972000  0.75253000  1.0
  C  C168  1  0.87126000  0.03296000  0.44899000  1.0
  C  C169  1  0.62874000  0.53296000  0.05101000  1.0
  C  C170  1  0.12874000  0.96704000  0.55101000  1.0
  C  C171  1  0.37126000  0.46704000  0.94899000  1.0
  C  C172  1  0.82605000  0.98169000  0.47445000  1.0
  C  C173  1  0.67395000  0.48169000  0.02555000  1.0
  C  C174  1  0.17395000  0.01831000  0.52555000  1.0
  C  C175  1  0.32605000  0.51831000  0.97445000  1.0
  C  C176  1  0.49610000  0.64168000  0.72763000  1.0
  C  C177  1  0.00390000  0.14168000  0.77237000  1.0
  C  C178  1  0.50390000  0.35832000  0.27237000  1.0
  C  C179  1  0.99610000  0.85832000  0.22763000  1.0
  C  C180  1  0.45679000  0.79693000  0.81004000  1.0
  C  C181  1  0.04321000  0.29692000  0.68995000  1.0
  C  C182  1  0.54321000  0.20307000  0.18996000  1.0
  C  C183  1  0.95679000  0.70308000  0.31005000  1.0
  C  C184  1  0.85141000  0.90683000  0.48472000  1.0
  C  C185  1  0.64859000  0.40683000  0.01528000  1.0
  C  C186  1  0.14859000  0.09317000  0.51528000  1.0
  C  C187  1  0.35141000  0.59317000  0.98472000  1.0
  C  C188  1  0.48565000  0.86478000  0.83232000  1.0
  C  C189  1  0.01435000  0.36478000  0.66768000  1.0
  C  C190  1  0.51435000  0.13522000  0.16768000  1.0
  C  C191  1  0.98565000  0.63522000  0.33232000  1.0
  C  C192  1  0.05614000  0.74726000  0.46884000  1.0
  C  C193  1  0.44386000  0.24726000  0.03116000  1.0
  C  C194  1  0.94386000  0.25274000  0.53116000  1.0
  C  C195  1  0.55614000  0.75274000  0.96884000  1.0
  C  C196  1  0.39186000  0.73054000  0.68867000  1.0
  C  C197  1  0.10814000  0.23054000  0.81133000  1.0
  C  C198  1  0.60814000  0.26946000  0.31133000  1.0
  C  C199  1  0.89186000  0.76946000  0.18867000  1.0
  C  C200  1  0.35242000  0.68083000  0.64467000  1.0
  C  C201  1  0.14758000  0.18083000  0.85533000  1.0
  C  C202  1  0.64758000  0.31917000  0.35533000  1.0
  C  C203  1  0.85242000  0.81917000  0.14468000  1.0
  C  C204  1  0.46280000  0.71000000  0.73109000  1.0
  C  C205  1  0.03720000  0.21000000  0.76890000  1.0
  C  C206  1  0.53720000  0.29000000  0.26890000  1.0
  C  C207  1  0.96280000  0.79000000  0.23110000  1.0
  C  C208  1  0.49460000  0.30528000  0.47722000  1.0
  C  C209  1  0.00540000  0.80529000  0.02278000  1.0
  C  C210  1  0.50540000  0.69472000  0.52278000  1.0
  C  C211  1  0.99460000  0.19472000  0.97722000  1.0
  C  C212  1  0.45667000  0.59272000  0.68236000  1.0
  C  C213  1  0.04333000  0.09272000  0.81764000  1.0
  C  C214  1  0.54333000  0.40728000  0.31764000  1.0
  C  C215  1  0.95667000  0.90728000  0.18236000  1.0
  C  C216  1  0.14311000  0.31286000  0.33763000  1.0
  C  C217  1  0.35689000  0.81286000  0.16237000  1.0
  C  C218  1  0.85689000  0.68714000  0.66237000  1.0
  C  C219  1  0.64311000  0.18714000  0.83763000  1.0
  C  C220  1  0.12010000  0.23040000  0.15400000  1.0
  C  C221  1  0.37990000  0.73040000  0.34600000  1.0
  C  C222  1  0.87991000  0.76961000  0.84600000  1.0
  C  C223  1  0.62010000  0.26960000  0.65400000  1.0
  C  C224  1  0.01893000  0.13661000  0.14866000  1.0
  C  C225  1  0.48106000  0.63661000  0.35134000  1.0
  C  C226  1  0.98107000  0.86340000  0.85134000  1.0
  C  C227  1  0.51893000  0.36339000  0.64866000  1.0
  C  C228  1  0.10971000  0.69127000  0.46824000  1.0
  C  C229  1  0.39029000  0.19127000  0.03176000  1.0
  C  C230  1  0.89029000  0.30873000  0.53176000  1.0
  C  C231  1  0.60971000  0.80873000  0.96824000  1.0
  C  C232  1  0.41871000  0.23288000  0.53507000  1.0
  C  C233  1  0.08129000  0.73288000  0.96493000  1.0
  C  C234  1  0.58129000  0.76712000  0.46493000  1.0
  C  C235  1  0.91870000  0.26712000  0.03507000  1.0
  C  C236  1  0.34416000  0.80997000  0.85918000  1.0
  C  C237  1  0.15584000  0.30997000  0.64082000  1.0
  C  C238  1  0.65584000  0.19003000  0.14082000  1.0
  C  C239  1  0.84416000  0.69003000  0.35918000  1.0
  C  C240  1  0.03845000  0.29295000  0.24473000  1.0
  C  C241  1  0.46155000  0.79295000  0.25528000  1.0
  C  C242  1  0.96155000  0.70705000  0.75527000  1.0
  C  C243  1  0.53845000  0.20705000  0.74473000  1.0
  C  C244  1  0.98444000  0.66980000  0.52592000  1.0
  C  C245  1  0.51556000  0.16980000  0.97408000  1.0
  C  C246  1  0.01556000  0.33020000  0.47408000  1.0
  C  C247  1  0.48444000  0.83020000  0.02592000  1.0
  C  C248  1  0.38633000  0.76891000  0.82380000  1.0
  C  C249  1  0.11367000  0.26891000  0.67620000  1.0
  C  C250  1  0.61367000  0.23108000  0.17620000  1.0
  C  C251  1  0.88633000  0.73109000  0.32380000  1.0
  C  C252  1  0.48472000  0.23907000  0.50627000  1.0
  C  C253  1  0.01528000  0.73907000  0.99373000  1.0
  C  C254  1  0.51528000  0.76093000  0.49373000  1.0
  C  C255  1  0.98472000  0.26093000  0.00627000  1.0
  C  C256  1  0.37235000  0.87790000  0.88243000  1.0
  C  C257  1  0.12766000  0.37790000  0.61757000  1.0
  C  C258  1  0.62765000  0.12210000  0.11757000  1.0
  C  C259  1  0.87234000  0.62210000  0.38243000  1.0
  C  C260  1  0.38387000  0.61137000  0.64121000  1.0
  C  C261  1  0.11613000  0.11137000  0.85879000  1.0
  C  C262  1  0.61613000  0.38862000  0.35879000  1.0
  C  C263  1  0.88387000  0.88863000  0.14122000  1.0
  C  C264  1  0.44357000  0.90459000  0.86874000  1.0
  C  C265  1  0.05644000  0.40459000  0.63126000  1.0
  C  C266  1  0.55643000  0.09541000  0.13126000  1.0
  C  C267  1  0.94357000  0.59541000  0.36874000  1.0
  C  C268  1  0.04023000  0.61643000  0.52323000  1.0
  C  C269  1  0.45977000  0.11644000  0.97677000  1.0
  C  C270  1  0.95977000  0.38357000  0.47677000  1.0
  C  C271  1  0.54023000  0.88357000  0.02323000  1.0
  C  C272  1  0.15133000  0.42628000  0.40117000  1.0
  C  C273  1  0.34867000  0.92628000  0.09883000  1.0
  C  C274  1  0.84867000  0.57372000  0.59883000  1.0
  C  C275  1  0.65133000  0.07372000  0.90117000  1.0
  C  C276  1  0.99053000  0.73695000  0.49739000  1.0
  C  C277  1  0.50947000  0.23695000  0.00261000  1.0
  C  C278  1  0.00947000  0.26305000  0.50261000  1.0
  C  C279  1  0.49053000  0.76305000  0.99739000  1.0
  C  C280  1  0.10700000  0.26851000  0.28786000  1.0
  C  C281  1  0.39300000  0.76851000  0.21214000  1.0
  C  C282  1  0.89299000  0.73149000  0.71214000  1.0
  C  C283  1  0.60701000  0.23149000  0.78786000  1.0
  C  C284  1  0.04113000  0.40378000  0.30335000  1.0
  C  C285  1  0.45887000  0.90378000  0.19665000  1.0
  C  C286  1  0.95887000  0.59622000  0.69665000  1.0
  C  C287  1  0.54113000  0.09622000  0.80335000  1.0
  C  C288  1  0.11094000  0.38085000  0.34611000  1.0
  C  C289  1  0.38906000  0.88085000  0.15389000  1.0
  C  C290  1  0.88906000  0.61915000  0.65389000  1.0
  C  C291  1  0.61094000  0.11915000  0.84611000  1.0
  C  C292  1  0.16468000  0.18460000  0.12441000  1.0
  C  C293  1  0.33532000  0.68459000  0.37559000  1.0
  C  C294  1  0.83533000  0.81541000  0.87559000  1.0
  C  C295  1  0.66468000  0.31541000  0.62441000  1.0
  C  C296  1  0.53830000  0.11051000  0.53110000  1.0
  C  C297  1  0.96170000  0.61051000  0.96890000  1.0
  C  C298  1  0.46170000  0.88949000  0.46890000  1.0
  C  C299  1  0.03829000  0.38949000  0.03109000  1.0
  C  C300  1  0.32901000  0.91919000  0.92383000  1.0
  C  C301  1  0.17099000  0.41919000  0.57617000  1.0
  C  C302  1  0.67099000  0.08081000  0.07617000  1.0
  C  C303  1  0.82901000  0.58081000  0.42383000  1.0
  C  C304  1  0.33808000  0.55911000  0.59390000  1.0
  C  C305  1  0.16192000  0.05912000  0.90610000  1.0
  C  C306  1  0.66192000  0.44088000  0.40610000  1.0
  C  C307  1  0.83808000  0.94089000  0.09390000  1.0
  C  C308  1  0.06364000  0.09173000  0.11798000  1.0
  C  C309  1  0.43636000  0.59172000  0.38202000  1.0
  C  C310  1  0.93637000  0.90828000  0.88202000  1.0
  C  C311  1  0.56364000  0.40828000  0.61798000  1.0
  C  C312  1  0.13714000  0.11488000  0.10603000  1.0
  C  C313  1  0.36286000  0.61488000  0.39397000  1.0
  C  C314  1  0.86287000  0.88512000  0.89397000  1.0
  C  C315  1  0.63714000  0.38512000  0.60603000  1.0
  C  C316  1  0.36798000  0.29120000  0.53471000  1.0
  C  C317  1  0.13202000  0.79120000  0.96529000  1.0
  C  C318  1  0.63202000  0.70880000  0.46529000  1.0
  C  C319  1  0.86798000  0.20880000  0.03471000  1.0
  C  C320  1  0.18505000  0.06776000  0.07211000  1.0
  C  C321  1  0.31495000  0.56776000  0.42789000  1.0
  C  C322  1  0.81495000  0.93224000  0.92789000  1.0
  C  C323  1  0.68505000  0.43224000  0.57211000  1.0
  C  C324  1  0.85509000  0.78454000  0.51163000  1.0
  C  C325  1  0.64491000  0.28454000  0.98837000  1.0
  C  C326  1  0.14492000  0.21546000  0.48837000  1.0
  C  C327  1  0.35508000  0.71546000  0.01163000  1.0
  C  C328  1  0.75541000  0.00621000  0.49032000  1.0
  C  C329  1  0.74459000  0.50621000  0.00968000  1.0
  C  C330  1  0.24459000  0.99379000  0.50968000  1.0
  C  C331  1  0.25541000  0.49379000  0.99032000  1.0
  C  C332  1  0.81106000  0.84940000  0.50501000  1.0
  C  C333  1  0.68894000  0.34940000  0.99499000  1.0
  C  C334  1  0.18894000  0.15060000  0.49499000  1.0
  C  C335  1  0.31106000  0.65060000  0.00501000  1.0
  S  S336  1  0.62584000  0.19162000  0.47790000  1.0
  S  S337  1  0.87416000  0.69162000  0.02209000  1.0
  S  S338  1  0.37416000  0.80838000  0.52210000  1.0
  S  S339  1  0.12583000  0.30838000  0.97790000  1.0
  S  S340  1  0.94429000  0.87930000  0.47431000  1.0
  S  S341  1  0.55571000  0.37929000  0.02570000  1.0
  S  S342  1  0.05571000  0.12071000  0.52570000  1.0
  S  S343  1  0.44429000  0.62070000  0.97430000  1.0
  N  N344  1  0.37906000  0.35456000  0.50741000  1.0
  N  N345  1  0.12094000  0.85456000  0.99259000  1.0
  N  N346  1  0.62094000  0.64544000  0.49259000  1.0
  N  N347  1  0.87906000  0.14544000  0.00741000  1.0
  N  N348  1  0.10168000  0.62653000  0.49437000  1.0
  N  N349  1  0.39832000  0.12653000  0.00562000  1.0
  N  N350  1  0.89832000  0.37347000  0.50562000  1.0
  N  N351  1  0.60168000  0.87347000  0.99438000  1.0
  N  N352  1  0.85113000  0.10244000  0.44061000  1.0
  N  N353  1  0.64886000  0.60244000  0.05939000  1.0
  N  N354  1  0.14886000  0.89756000  0.55939000  1.0
  N  N355  1  0.35113000  0.39756000  0.94061000  1.0
  O  O356  1  0.00008000  0.25076000  0.19431000  1.0
  O  O357  1  0.49992000  0.75076000  0.30569000  1.0
  O  O358  1  0.99992000  0.74925000  0.80568000  1.0
  O  O359  1  0.50009000  0.24924000  0.69431000  1.0
  O  O360  1  0.50292000  0.75735000  0.77687000  1.0
  O  O361  1  0.99708000  0.25734000  0.72312000  1.0
  O  O362  1  0.49708000  0.24265000  0.22313000  1.0
  O  O363  1  0.00293000  0.74265000  0.27688000  1.0
  O  O364  1  0.25290000  0.09212000  0.06615000  1.0
  O  O365  1  0.24711000  0.59212000  0.43385000  1.0
  O  O366  1  0.74711000  0.90788000  0.93385000  1.0
  O  O367  1  0.75289000  0.40788000  0.56615000  1.0
  O  O368  1  0.36457000  0.97431000  0.95221000  1.0
  O  O369  1  0.13543000  0.47431000  0.54779000  1.0
  O  O370  1  0.63543000  0.02569000  0.04779000  1.0
  O  O371  1  0.86457000  0.52569000  0.45221000  1.0
  O  O372  1  0.11904000  0.48622000  0.41028000  1.0
  O  O373  1  0.38096000  0.98622000  0.08972000  1.0
  O  O374  1  0.88096000  0.51378000  0.58972000  1.0
  O  O375  1  0.61904000  0.01378000  0.91028000  1.0
  O  O376  1  0.21512000  0.40005000  0.43609000  1.0
  O  O377  1  0.28488000  0.90005000  0.06391000  1.0
  O  O378  1  0.78489000  0.59995000  0.56391000  1.0
  O  O379  1  0.71511000  0.09995000  0.93609000  1.0
  O  O380  1  0.37235000  0.50028000  0.58434000  1.0
  O  O381  1  0.12765000  0.00028000  0.91566000  1.0
  O  O382  1  0.62765000  0.49971000  0.41566000  1.0
  O  O383  1  0.87235000  0.99972000  0.08435000  1.0
  O  O384  1  0.26746000  0.57841000  0.56613000  1.0
  O  O385  1  0.23254000  0.07841000  0.93387000  1.0
  O  O386  1  0.73254000  0.42159000  0.43387000  1.0
  O  O387  1  0.76746000  0.92159000  0.06613000  1.0
  O  O388  1  0.15432000  0.00752000  0.05095000  1.0
  O  O389  1  0.34568000  0.50752000  0.44905000  1.0
  O  O390  1  0.84568000  0.99248000  0.94905000  1.0
  O  O391  1  0.65432000  0.49248000  0.55095000  1.0
  O  O392  1  0.26043000  0.89553000  0.92887000  1.0
  O  O393  1  0.23957000  0.39553000  0.57114000  1.0
  O  O394  1  0.73957000  0.10447000  0.07114000  1.0
  O  O395  1  0.76043000  0.60447000  0.42886000  1.0
