# generated using pymatgen
data_GdH8C6SNO9
_symmetry_space_group_name_H-M   'P 1'
_cell_length_a   6.82760000
_cell_length_b   8.72354000
_cell_length_c   9.85710000
_cell_angle_alpha   94.70050000
_cell_angle_beta   103.17500000
_cell_angle_gamma   98.11240000
_symmetry_Int_Tables_number   1
_chemical_formula_structural   GdH8C6SNO9
_chemical_formula_sum   'Gd2 H16 C12 S2 N2 O18'
_cell_volume   561.94410317
_cell_formula_units_Z   2
loop_
 _symmetry_equiv_pos_site_id
 _symmetry_equiv_pos_as_xyz
  1  'x, y, z'
loop_
 _atom_site_type_symbol
 _atom_site_label
 _atom_site_symmetry_multiplicity
 _atom_site_fract_x
 _atom_site_fract_y
 _atom_site_fract_z
 _atom_site_occupancy
  Gd  Gd0  1  0.20114000  0.38456000  0.90351000  1.0
  Gd  Gd1  1  0.79886000  0.61544000  0.09649000  1.0
  H  H2  1  0.86916000  0.34622000  0.62295000  1.0
  H  H3  1  0.13084000  0.65378000  0.37705000  1.0
  H  H4  1  0.73363000  0.24584000  0.36888000  1.0
  H  H5  1  0.26637000  0.75416000  0.63112000  1.0
  H  H6  1  0.35031000  0.19878000  0.27241000  1.0
  H  H7  1  0.64969000  0.80122000  0.72759000  1.0
  H  H8  1  0.87843000  0.11589000  0.86523000  1.0
  H  H9  1  0.12157000  0.88411000  0.13477000  1.0
  H  H10  1  0.00914000  0.04480000  0.77005000  1.0
  H  H11  1  0.99086000  0.95520000  0.22995000  1.0
  H  H12  1  0.31711000  0.07470000  0.95010000  1.0
  H  H13  1  0.68289000  0.92530000  0.04990000  1.0
  H  H14  1  0.53447000  0.17090000  0.96343000  1.0
  H  H15  1  0.46553000  0.82910000  0.03657000  1.0
  H  H16  1  0.14331000  0.23850000  0.41840000  1.0
  H  H17  1  0.85669000  0.76150000  0.58160000  1.0
  C  C18  1  0.35852000  0.32225000  0.60643000  1.0
  C  C19  1  0.64148000  0.67775000  0.39357000  1.0
  C  C20  1  0.57578000  0.35221000  0.66401000  1.0
  C  C21  1  0.42422000  0.64779000  0.33599000  1.0
  C  C22  1  0.70538000  0.32317000  0.57801000  1.0
  C  C23  1  0.29462000  0.67683000  0.42199000  1.0
  C  C24  1  0.63198000  0.26692000  0.43583000  1.0
  C  C25  1  0.36802000  0.73308000  0.56417000  1.0
  C  C26  1  0.42441000  0.23898000  0.38202000  1.0
  C  C27  1  0.57559000  0.76102000  0.61798000  1.0
  C  C28  1  0.66557000  0.41746000  0.81187000  1.0
  C  C29  1  0.33443000  0.58254000  0.18813000  1.0
  S  S30  1  0.90692000  0.22051000  0.13244000  1.0
  S  S31  1  0.09308000  0.77949000  0.86756000  1.0
  N  N32  1  0.29756000  0.26572000  0.46535000  1.0
  N  N33  1  0.70244000  0.73428000  0.53465000  1.0
  O  O34  1  0.21976000  0.34021000  0.66990000  1.0
  O  O35  1  0.78024000  0.65979000  0.33010000  1.0
  O  O36  1  0.55374000  0.47494000  0.88518000  1.0
  O  O37  1  0.44626000  0.52506000  0.11482000  1.0
  O  O38  1  0.85393000  0.42176000  0.86694000  1.0
  O  O39  1  0.14607000  0.57824000  0.13306000  1.0
  O  O40  1  0.10450000  0.26059000  0.09397000  1.0
  O  O41  1  0.89550000  0.73941000  0.90603000  1.0
  O  O42  1  0.93930000  0.14154000  0.26182000  1.0
  O  O43  1  0.06070000  0.85846000  0.73818000  1.0
  O  O44  1  0.76392000  0.11103000  0.01334000  1.0
  O  O45  1  0.23608000  0.88897000  0.98666000  1.0
  O  O46  1  0.81313000  0.36050000  0.15697000  1.0
  O  O47  1  0.18687000  0.63950000  0.84303000  1.0
  O  O48  1  0.96445000  0.14300000  0.79957000  1.0
  O  O49  1  0.03555000  0.85700000  0.20043000  1.0
  O  O50  1  0.38684000  0.17659000  0.93317000  1.0
  O  O51  1  0.61316000  0.82341000  0.06682000  1.0
