# generated using pymatgen
data_Er2CuH20C32(NO7)4
_symmetry_space_group_name_H-M   'P 1'
_cell_length_a   10.18630000
_cell_length_b   10.71750000
_cell_length_c   11.21630000
_cell_angle_alpha   86.37790000
_cell_angle_beta   75.95260000
_cell_angle_gamma   68.95140000
_symmetry_Int_Tables_number   1
_chemical_formula_structural   Er2CuH20C32(NO7)4
_chemical_formula_sum   'Er2 Cu1 H20 C32 N4 O28'
_cell_volume   1108.23392376
_cell_formula_units_Z   1
loop_
 _symmetry_equiv_pos_site_id
 _symmetry_equiv_pos_as_xyz
  1  'x, y, z'
loop_
 _atom_site_type_symbol
 _atom_site_label
 _atom_site_symmetry_multiplicity
 _atom_site_fract_x
 _atom_site_fract_y
 _atom_site_fract_z
 _atom_site_occupancy
  Er  Er0  1  0.58743000  0.59899000  0.63141000  1.0
  Er  Er1  1  0.41256000  0.40100000  0.36859000  1.0
  Cu  Cu2  1  0.99999000  0.50000000  0.50000000  1.0
  H  H3  1  0.36723000  0.97963000  0.46805000  1.0
  H  H4  1  0.63277000  0.02037000  0.53196000  1.0
  H  H5  1  0.97146000  0.17277000  0.34869000  1.0
  H  H6  1  0.02855000  0.82724000  0.65129000  1.0
  H  H7  1  0.17216000  0.74315000  0.32653000  1.0
  H  H8  1  0.82785000  0.25684000  0.67347000  1.0
  H  H9  1  0.67261000  0.47508000  0.94767000  1.0
  H  H10  1  0.32739000  0.52494000  0.05234000  1.0
  H  H11  1  0.93221000  0.31064000  0.21088000  1.0
  H  H12  1  0.06779000  0.68936000  0.78913000  1.0
  H  H13  1  0.13966000  0.33786000  0.83199000  1.0
  H  H14  1  0.86034000  0.66215000  0.16802000  1.0
  H  H15  1  0.50827000  0.76817000  0.85581000  1.0
  H  H16  1  0.49177000  0.23189000  0.14416000  1.0
  H  H17  1  0.57158000  0.83696000  0.74017000  1.0
  H  H18  1  0.42836000  0.16306000  0.25974000  1.0
  H  H19  1  0.79753000  0.56318000  0.38480000  1.0
  H  H20  1  0.20245000  0.43681000  0.61521000  1.0
  H  H21  1  0.71732000  0.46014000  0.38703000  1.0
  H  H22  1  0.28268000  0.53985000  0.61297000  1.0
  C  C23  1  0.28071000  0.84902000  0.40033000  1.0
  C  C24  1  0.71929000  0.15098000  0.59967000  1.0
  C  C25  1  0.28179000  0.97458000  0.42806000  1.0
  C  C26  1  0.71823000  0.02541000  0.57193000  1.0
  C  C27  1  0.17163000  0.09140000  0.40823000  1.0
  C  C28  1  0.82838000  0.90858000  0.59176000  1.0
  C  C29  1  0.06056000  0.08310000  0.36013000  1.0
  C  C30  1  0.93945000  0.91690000  0.63988000  1.0
  C  C31  1  0.06479000  0.95845000  0.32845000  1.0
  C  C32  1  0.93523000  0.04154000  0.67155000  1.0
  C  C33  1  0.17261000  0.84029000  0.34838000  1.0
  C  C34  1  0.82742000  0.15970000  0.65161000  1.0
  C  C35  1  0.39076000  0.72382000  0.43392000  1.0
  C  C36  1  0.60923000  0.27617000  0.56608000  1.0
  C  C37  1  0.16721000  0.22829000  0.43583000  1.0
  C  C38  1  0.83278000  0.77170000  0.56415000  1.0
  C  C39  1  0.90478000  0.41470000  0.87667000  1.0
  C  C40  1  0.09522000  0.58531000  0.12335000  1.0
  C  C41  1  0.77880000  0.43222000  0.96892000  1.0
  C  C42  1  0.22120000  0.56780000  0.03110000  1.0
  C  C43  1  0.78850000  0.39430000  0.08941000  1.0
  C  C44  1  0.21151000  0.60570000  0.91059000  1.0
  C  C45  1  0.92385000  0.33873000  0.11755000  1.0
  C  C46  1  0.07615000  0.66127000  0.88246000  1.0
  C  C47  1  0.04788000  0.31911000  0.02329000  1.0
  C  C48  1  0.95212000  0.68091000  0.97672000  1.0
  C  C49  1  0.04089000  0.35568000  0.90332000  1.0
  C  C50  1  0.95911000  0.64434000  0.09669000  1.0
  C  C51  1  0.89516000  0.45879000  0.74887000  1.0
  C  C52  1  0.10484000  0.54121000  0.25114000  1.0
  C  C53  1  0.65383000  0.40906000  0.18709000  1.0
  C  C54  1  0.34619000  0.59093000  0.81290000  1.0
  N  N55  1  0.94881000  0.95356000  0.27415000  1.0
  N  N56  1  0.05120000  0.04644000  0.72584000  1.0
  N  N57  1  0.19141000  0.26024000  0.05114000  1.0
  N  N58  1  0.80858000  0.73976000  0.94887000  1.0
  O  O59  1  0.40003000  0.61156000  0.39455000  1.0
  O  O60  1  0.59997000  0.38844000  0.60546000  1.0
  O  O61  1  0.46539000  0.73921000  0.50335000  1.0
  O  O62  1  0.53462000  0.26078000  0.49664000  1.0
  O  O63  1  0.28407000  0.24763000  0.42972000  1.0
  O  O64  1  0.71591000  0.75237000  0.57028000  1.0
  O  O65  1  0.03965000  0.31634000  0.46099000  1.0
  O  O66  1  0.96035000  0.68365000  0.53903000  1.0
  O  O67  1  0.87596000  0.05790000  0.23168000  1.0
  O  O68  1  0.12404000  0.94210000  0.76831000  1.0
  O  O69  1  0.93075000  0.84492000  0.27461000  1.0
  O  O70  1  0.06925000  0.15508000  0.72540000  1.0
  O  O71  1  0.01370000  0.44882000  0.67148000  1.0
  O  O72  1  0.98629000  0.55117000  0.32852000  1.0
  O  O73  1  0.77285000  0.50284000  0.72314000  1.0
  O  O74  1  0.22716000  0.49715000  0.27685000  1.0
  O  O75  1  0.53263000  0.44385000  0.15926000  1.0
  O  O76  1  0.46738000  0.55614000  0.84076000  1.0
  O  O77  1  0.66381000  0.38075000  0.29869000  1.0
  O  O78  1  0.33618000  0.61923000  0.70131000  1.0
  O  O79  1  0.19558000  0.23707000  0.16055000  1.0
  O  O80  1  0.80442000  0.76292000  0.83947000  1.0
  O  O81  1  0.30043000  0.23858000  0.96536000  1.0
  O  O82  1  0.69957000  0.76142000  0.03466000  1.0
  O  O83  1  0.50575000  0.78833000  0.77035000  1.0
  O  O84  1  0.49422000  0.21167000  0.22963000  1.0
  O  O85  1  0.73786000  0.51933000  0.43992000  1.0
  O  O86  1  0.26213000  0.48066000  0.56009000  1.0
