# generated using pymatgen
data_CdH6C8(SN3)2
_symmetry_space_group_name_H-M   'P 1'
_cell_length_a   7.92818000
_cell_length_b   7.92816000
_cell_length_c   10.86200000
_cell_angle_alpha   74.40710000
_cell_angle_beta   74.40740000
_cell_angle_gamma   64.72960000
_symmetry_Int_Tables_number   1
_chemical_formula_structural   CdH6C8(SN3)2
_chemical_formula_sum   'Cd2 H12 C16 S4 N12'
_cell_volume   585.30713053
_cell_formula_units_Z   2
loop_
 _symmetry_equiv_pos_site_id
 _symmetry_equiv_pos_as_xyz
  1  'x, y, z'
loop_
 _atom_site_type_symbol
 _atom_site_label
 _atom_site_symmetry_multiplicity
 _atom_site_fract_x
 _atom_site_fract_y
 _atom_site_fract_z
 _atom_site_occupancy
  Cd  Cd0  1  0.57860000  0.42141000  0.75000000  1.0
  Cd  Cd1  1  0.42140000  0.57860000  0.25000000  1.0
  H  H2  1  0.11253000  0.75229000  0.87419000  1.0
  H  H3  1  0.24771000  0.88747000  0.62581000  1.0
  H  H4  1  0.88747000  0.24771000  0.12581000  1.0
  H  H5  1  0.75229000  0.11253000  0.37419000  1.0
  H  H6  1  0.58429000  0.07944000  0.07434000  1.0
  H  H7  1  0.92056000  0.41572000  0.42566000  1.0
  H  H8  1  0.41572000  0.92056000  0.92566000  1.0
  H  H9  1  0.07944000  0.58428000  0.57434000  1.0
  H  H10  1  0.90038000  0.73817000  0.08995000  1.0
  H  H11  1  0.26182000  0.09962000  0.41005000  1.0
  H  H12  1  0.09962000  0.26182000  0.91005000  1.0
  H  H13  1  0.73818000  0.90038000  0.58995000  1.0
  C  C14  1  0.70927000  0.02729000  0.00202000  1.0
  C  C15  1  0.97270000  0.29073000  0.49798000  1.0
  C  C16  1  0.29073000  0.97271000  0.99798000  1.0
  C  C17  1  0.02729000  0.70927000  0.50202000  1.0
  C  C18  1  0.86412000  0.85820000  0.01163000  1.0
  C  C19  1  0.14180000  0.13588000  0.48837000  1.0
  C  C20  1  0.13588000  0.14180000  0.98837000  1.0
  C  C21  1  0.85820000  0.86412000  0.51163000  1.0
  C  C22  1  0.90181000  0.02826000  0.81588000  1.0
  C  C23  1  0.97174000  0.09820000  0.68412000  1.0
  C  C24  1  0.09819000  0.97174000  0.18412000  1.0
  C  C25  1  0.02825000  0.90181000  0.31588000  1.0
  C  C26  1  0.70800000  0.53658000  0.97485000  1.0
  C  C27  1  0.46342000  0.29200000  0.52515000  1.0
  C  C28  1  0.29200000  0.46341000  0.02515000  1.0
  C  C29  1  0.53658000  0.70800000  0.47485000  1.0
  S  S30  1  0.75365000  0.61096000  0.82026000  1.0
  S  S31  1  0.38904000  0.24635000  0.67974000  1.0
  S  S32  1  0.24635000  0.38904000  0.17974000  1.0
  S  S33  1  0.61096000  0.75365000  0.32026000  1.0
  N  N34  1  0.73433000  0.13190000  0.88014000  1.0
  N  N35  1  0.86810000  0.26567000  0.61986000  1.0
  N  N36  1  0.26567000  0.86810000  0.11986000  1.0
  N  N37  1  0.13190000  0.73433000  0.38014000  1.0
  N  N38  1  0.98358000  0.86156000  0.89360000  1.0
  N  N39  1  0.13844000  0.01642000  0.60640000  1.0
  N  N40  1  0.01642000  0.13844000  0.10640000  1.0
  N  N41  1  0.86156000  0.98358000  0.39360000  1.0
  N  N42  1  0.68005000  0.47772000  0.08842000  1.0
  N  N43  1  0.52228000  0.31994000  0.41159000  1.0
  N  N44  1  0.31994000  0.52228000  0.91158000  1.0
  N  N45  1  0.47771000  0.68006000  0.58841000  1.0
