# generated using pymatgen
data_ZnH20C20S2(NO2)2
_symmetry_space_group_name_H-M   'P 1'
_cell_length_a   11.36540000
_cell_length_b   14.82080000
_cell_length_c   14.82080000
_cell_angle_alpha   89.97850000
_cell_angle_beta   90.00000000
_cell_angle_gamma   90.00000000
_symmetry_Int_Tables_number   1
_chemical_formula_structural   ZnH20C20S2(NO2)2
_chemical_formula_sum   'Zn4 H80 C80 S8 N8 O16'
_cell_volume   2496.47940683
_cell_formula_units_Z   4
loop_
 _symmetry_equiv_pos_site_id
 _symmetry_equiv_pos_as_xyz
  1  'x, y, z'
loop_
 _atom_site_type_symbol
 _atom_site_label
 _atom_site_symmetry_multiplicity
 _atom_site_fract_x
 _atom_site_fract_y
 _atom_site_fract_z
 _atom_site_occupancy
  Zn  Zn0  1  0.25000000  0.11099000  0.88901000  1.0
  Zn  Zn1  1  0.75000000  0.88901000  0.11099000  1.0
  Zn  Zn2  1  0.50000000  0.61119000  0.61119000  1.0
  Zn  Zn3  1  0.00000000  0.38881000  0.38881000  1.0
  H  H4  1  0.57394000  0.62817000  0.91127000  1.0
  H  H5  1  0.07394000  0.37183000  0.08873000  1.0
  H  H6  1  0.17594000  0.12833000  0.58902000  1.0
  H  H7  1  0.67594000  0.87167000  0.41098000  1.0
  H  H8  1  0.92606000  0.08873000  0.37183000  1.0
  H  H9  1  0.42606000  0.91127000  0.62817000  1.0
  H  H10  1  0.32406000  0.41098000  0.87167000  1.0
  H  H11  1  0.82406000  0.58902000  0.12833000  1.0
  H  H12  1  0.43509000  0.58988000  0.95478000  1.0
  H  H13  1  0.93509000  0.41012000  0.04522000  1.0
  H  H14  1  0.31479000  0.09003000  0.54551000  1.0
  H  H15  1  0.81479000  0.90997000  0.45449000  1.0
  H  H16  1  0.06492000  0.04522000  0.41012000  1.0
  H  H17  1  0.56491000  0.95478000  0.58988000  1.0
  H  H18  1  0.18521000  0.45449000  0.90997000  1.0
  H  H19  1  0.68521000  0.54551000  0.09003000  1.0
  H  H20  1  0.45673000  0.70569000  0.93420000  1.0
  H  H21  1  0.95673000  0.29432000  0.06580000  1.0
  H  H22  1  0.29318000  0.20585000  0.56608000  1.0
  H  H23  1  0.79318000  0.79415000  0.43392000  1.0
  H  H24  1  0.04327000  0.06580000  0.29432000  1.0
  H  H25  1  0.54327000  0.93420000  0.70568000  1.0
  H  H26  1  0.20682000  0.43392000  0.79415000  1.0
  H  H27  1  0.70682000  0.56608000  0.20585000  1.0
  H  H28  1  0.10261000  0.69640000  0.71098000  1.0
  H  H29  1  0.60261000  0.30360000  0.28902000  1.0
  H  H30  1  0.64714000  0.19676000  0.78910000  1.0
  H  H31  1  0.14714000  0.80324000  0.21090000  1.0
  H  H32  1  0.39739000  0.28902000  0.30360000  1.0
  H  H33  1  0.89739000  0.71098000  0.69640000  1.0
  H  H34  1  0.85286000  0.21090000  0.80324000  1.0
  H  H35  1  0.35286000  0.78910000  0.19676000  1.0
  H  H36  1  0.08240000  0.58219000  0.74053000  1.0
  H  H37  1  0.58240000  0.41781000  0.25947000  1.0
  H  H38  1  0.66765000  0.08263000  0.75975000  1.0
  H  H39  1  0.16765000  0.91737000  0.24025000  1.0
  H  H40  1  0.41760000  0.25947000  0.41781000  1.0
  H  H41  1  0.91760000  0.74053000  0.58219000  1.0
  H  H42  1  0.83235000  0.24025000  0.91737000  1.0
  H  H43  1  0.33235000  0.75975000  0.08263000  1.0
  H  H44  1  0.10742000  0.61208000  0.62499000  1.0
  H  H45  1  0.60742000  0.38792000  0.37501000  1.0
  H  H46  1  0.64255000  0.11251000  0.87522000  1.0
  H  H47  1  0.14255000  0.88749000  0.12478000  1.0
  H  H48  1  0.39258000  0.37501000  0.38792000  1.0
  H  H49  1  0.89258000  0.62499000  0.61208000  1.0
  H  H50  1  0.85745000  0.12478000  0.88749000  1.0
  H  H51  1  0.35745000  0.87522000  0.11251000  1.0
  H  H52  1  0.35044000  0.79376000  0.77233000  1.0
  H  H53  1  0.85044000  0.20624000  0.22767000  1.0
  H  H54  1  0.39978000  0.29391000  0.72788000  1.0
  H  H55  1  0.89978000  0.70609000  0.27212000  1.0
  H  H56  1  0.14956000  0.22767000  0.20624000  1.0
  H  H57  1  0.64956000  0.77233000  0.79376000  1.0
  H  H58  1  0.10022000  0.27213000  0.70609000  1.0
  H  H59  1  0.60022000  0.72787000  0.29391000  1.0
  H  H60  1  0.35250000  0.96083000  0.78339000  1.0
  H  H61  1  0.85250000  0.03917000  0.21661000  1.0
  H  H62  1  0.39771000  0.46100000  0.71677000  1.0
  H  H63  1  0.89771000  0.53900000  0.28323000  1.0
  H  H64  1  0.14750000  0.21661000  0.03917000  1.0
  H  H65  1  0.64750000  0.78339000  0.96083000  1.0
  H  H66  1  0.10229000  0.28323000  0.53900000  1.0
  H  H67  1  0.60229000  0.71677000  0.46100000  1.0
  H  H68  1  0.10151000  0.96081000  0.98579000  1.0
  H  H69  1  0.60151000  0.03919000  0.01421000  1.0
  H  H70  1  0.64831000  0.46098000  0.51411000  1.0
  H  H71  1  0.14830000  0.53902000  0.48589000  1.0
  H  H72  1  0.39849000  0.01421000  0.03919000  1.0
  H  H73  1  0.89849000  0.98579000  0.96081000  1.0
  H  H74  1  0.85169000  0.48589000  0.53902000  1.0
  H  H75  1  0.35169000  0.51411000  0.46098000  1.0
  H  H76  1  0.08780000  0.79371000  0.98478000  1.0
  H  H77  1  0.58780000  0.20629000  0.01522000  1.0
  H  H78  1  0.66207000  0.29390000  0.51514000  1.0
  H  H79  1  0.16207000  0.70610000  0.48486000  1.0
  H  H80  1  0.41220000  0.01522000  0.20629000  1.0
  H  H81  1  0.91220000  0.98478000  0.79371000  1.0
  H  H82  1  0.83793000  0.48486000  0.70610000  1.0
  H  H83  1  0.33793000  0.51514000  0.29390000  1.0
  C  C84  1  0.47845000  0.63789000  0.90903000  1.0
  C  C85  1  0.97845000  0.36211000  0.09097000  1.0
  C  C86  1  0.27146000  0.13804000  0.59122000  1.0
  C  C87  1  0.77146000  0.86196000  0.40878000  1.0
  C  C88  1  0.02155000  0.09097000  0.36211000  1.0
  C  C89  1  0.52156000  0.90903000  0.63789000  1.0
  C  C90  1  0.22854000  0.40878000  0.86196000  1.0
  C  C91  1  0.72854000  0.59122000  0.13804000  1.0
  C  C92  1  0.43706000  0.62608000  0.81263000  1.0
  C  C93  1  0.93706000  0.37392000  0.18737000  1.0
  C  C94  1  0.31291000  0.12614000  0.68758000  1.0
  C  C95  1  0.81291000  0.87386000  0.31242000  1.0
  C  C96  1  0.06294000  0.18737000  0.37392000  1.0
  C  C97  1  0.56294000  0.81263000  0.62608000  1.0
  C  C98  1  0.18709000  0.31242000  0.87386000  1.0
  C  C99  1  0.68709000  0.68758000  0.12614000  1.0
  C  C100  1  0.31374000  0.63110000  0.79288000  1.0
  C  C101  1  0.81374000  0.36890000  0.20712000  1.0
  C  C102  1  0.43621000  0.13124000  0.70735000  1.0
  C  C103  1  0.93620000  0.86876000  0.29265000  1.0
  C  C104  1  0.18626000  0.20712000  0.36890000  1.0
  C  C105  1  0.68626000  0.79288000  0.63110000  1.0
  C  C106  1  0.06380000  0.29265000  0.86876000  1.0
  C  C107  1  0.56380000  0.70735000  0.13124000  1.0
  C  C108  1  0.26239000  0.61818000  0.70568000  1.0
  C  C109  1  0.76239000  0.38182000  0.29432000  1.0
  C  C110  1  0.48756000  0.11829000  0.79458000  1.0
  C  C111  1  0.98756000  0.88171000  0.20542000  1.0
  C  C112  1  0.23761000  0.29432000  0.38182000  1.0
  C  C113  1  0.73761000  0.70568000  0.61818000  1.0
  C  C114  1  0.01244000  0.20542000  0.88172000  1.0
  C  C115  1  0.51244000  0.79458000  0.11829000  1.0
  C  C116  1  0.13083000  0.62731000  0.69490000  1.0
  C  C117  1  0.63083000  0.37269000  0.30510000  1.0
  C  C118  1  0.61908000  0.12767000  0.80531000  1.0
  C  C119  1  0.11908000  0.87233000  0.19469000  1.0
  C  C120  1  0.36917000  0.30510000  0.37269000  1.0
  C  C121  1  0.86917000  0.69490000  0.62731000  1.0
  C  C122  1  0.88092000  0.19469000  0.87233000  1.0
  C  C123  1  0.38092000  0.80531000  0.12767000  1.0
  C  C124  1  0.22088000  0.77864000  0.87952000  1.0
  C  C125  1  0.72088000  0.22136000  0.12048000  1.0
  C  C126  1  0.52909000  0.27879000  0.62055000  1.0
  C  C127  1  0.02908000  0.72121000  0.37945000  1.0
  C  C128  1  0.27912000  0.12048000  0.22136000  1.0
  C  C129  1  0.77912000  0.87952000  0.77864000  1.0
  C  C130  1  0.97091000  0.37945000  0.72121000  1.0
  C  C131  1  0.47091000  0.62055000  0.27879000  1.0
  C  C132  1  0.29461000  0.82780000  0.82143000  1.0
  C  C133  1  0.79461000  0.17220000  0.17857000  1.0
  C  C134  1  0.45553000  0.32798000  0.67873000  1.0
  C  C135  1  0.95552000  0.67202000  0.32127000  1.0
  C  C136  1  0.20539000  0.17857000  0.17220000  1.0
  C  C137  1  0.70539000  0.82143000  0.82780000  1.0
  C  C138  1  0.04447000  0.32127000  0.67202000  1.0
  C  C139  1  0.54448000  0.67873000  0.32798000  1.0
  C  C140  1  0.29556000  0.92111000  0.82712000  1.0
  C  C141  1  0.79556000  0.07889000  0.17288000  1.0
  C  C142  1  0.45462000  0.42128000  0.67304000  1.0
  C  C143  1  0.95462000  0.57872000  0.32696000  1.0
  C  C144  1  0.20444000  0.17288000  0.07889000  1.0
  C  C145  1  0.70444000  0.82712000  0.92111000  1.0
  C  C146  1  0.04538000  0.32696000  0.57872000  1.0
  C  C147  1  0.54538000  0.67304000  0.42128000  1.0
  C  C148  1  0.15595000  0.92117000  0.93990000  1.0
  C  C149  1  0.65595000  0.07883000  0.06010000  1.0
  C  C150  1  0.59399000  0.42133000  0.56009000  1.0
  C  C151  1  0.09399000  0.57867000  0.43991000  1.0
  C  C152  1  0.34405000  0.06010000  0.07883000  1.0
  C  C153  1  0.84405000  0.93990000  0.92117000  1.0
  C  C154  1  0.90601000  0.43991000  0.57867000  1.0
  C  C155  1  0.40601000  0.56009000  0.42133000  1.0
  C  C156  1  0.14873000  0.82768000  0.93918000  1.0
  C  C157  1  0.64873000  0.17232000  0.06082000  1.0
  C  C158  1  0.60117000  0.32783000  0.56080000  1.0
  C  C159  1  0.10117000  0.67217000  0.43920000  1.0
  C  C160  1  0.35127000  0.06082000  0.17232000  1.0
  C  C161  1  0.85127000  0.93918000  0.82768000  1.0
  C  C162  1  0.89883000  0.43920000  0.67217000  1.0
  C  C163  1  0.39883000  0.56080000  0.32783000  1.0
  S  S164  1  0.21747000  0.66033000  0.88168000  1.0
  S  S165  1  0.71747000  0.33967000  0.11832000  1.0
  S  S166  1  0.53243000  0.16049000  0.61847000  1.0
  S  S167  1  0.03243000  0.83951000  0.38153000  1.0
  S  S168  1  0.28253000  0.11832000  0.33967000  1.0
  S  S169  1  0.78253000  0.88168000  0.66033000  1.0
  S  S170  1  0.96757000  0.38153000  0.83951000  1.0
  S  S171  1  0.46757000  0.61847000  0.16049000  1.0
  N  N172  1  0.22881000  0.96805000  0.88559000  1.0
  N  N173  1  0.72881000  0.03196000  0.11441000  1.0
  N  N174  1  0.52129000  0.46821000  0.61449000  1.0
  N  N175  1  0.02129000  0.53179000  0.38551000  1.0
  N  N176  1  0.27119000  0.11441000  0.03196000  1.0
  N  N177  1  0.77119000  0.88559000  0.96805000  1.0
  N  N178  1  0.97871000  0.38551000  0.53179000  1.0
  N  N179  1  0.47871000  0.61449000  0.46821000  1.0
  O  O180  1  0.51656000  0.61294000  0.75407000  1.0
  O  O181  1  0.01656000  0.38706000  0.24593000  1.0
  O  O182  1  0.23350000  0.11286000  0.74617000  1.0
  O  O183  1  0.73350000  0.88714000  0.25383000  1.0
  O  O184  1  0.98344000  0.24593000  0.38706000  1.0
  O  O185  1  0.48344000  0.75407000  0.61294000  1.0
  O  O186  1  0.26650000  0.25383000  0.88713000  1.0
  O  O187  1  0.76650000  0.74617000  0.11286000  1.0
  O  O188  1  0.31920000  0.59862000  0.63441000  1.0
  O  O189  1  0.81920000  0.40138000  0.36559000  1.0
  O  O190  1  0.43085000  0.09848000  0.86583000  1.0
  O  O191  1  0.93085000  0.90152000  0.13416000  1.0
  O  O192  1  0.18080000  0.36559000  0.40138000  1.0
  O  O193  1  0.68080000  0.63441000  0.59862000  1.0
  O  O194  1  0.06915000  0.13417000  0.90152000  1.0
  O  O195  1  0.56915000  0.86583000  0.09848000  1.0
