# generated using pymatgen
data_PrH16C8Cl3O2
_symmetry_space_group_name_H-M   'P 1'
_cell_length_a   8.18752000
_cell_length_b   8.61942000
_cell_length_c   9.78077000
_cell_angle_alpha   79.46860000
_cell_angle_beta   70.05790000
_cell_angle_gamma   82.25000000
_symmetry_Int_Tables_number   1
_chemical_formula_structural   PrH16C8Cl3O2
_chemical_formula_sum   'Pr2 H32 C16 Cl6 O4'
_cell_volume   635.96008680
_cell_formula_units_Z   2
loop_
 _symmetry_equiv_pos_site_id
 _symmetry_equiv_pos_as_xyz
  1  'x, y, z'
loop_
 _atom_site_type_symbol
 _atom_site_label
 _atom_site_symmetry_multiplicity
 _atom_site_fract_x
 _atom_site_fract_y
 _atom_site_fract_z
 _atom_site_occupancy
  Pr  Pr0  1  0.99433000  0.23656000  0.07783000  1.0
  Pr  Pr1  1  0.00569000  0.76345000  0.92216000  1.0
  H  H2  1  0.42914000  0.07284000  0.79127000  1.0
  H  H3  1  0.57086000  0.92717000  0.20873000  1.0
  H  H4  1  0.23536000  0.17131000  0.76185000  1.0
  H  H5  1  0.76464000  0.82871000  0.23816000  1.0
  H  H6  1  0.54819000  0.26706000  0.56788000  1.0
  H  H7  1  0.45181000  0.73294000  0.43212000  1.0
  H  H8  1  0.37897000  0.41310000  0.63832000  1.0
  H  H9  1  0.62103000  0.58691000  0.36169000  1.0
  H  H10  1  0.69443000  0.29472000  0.73911000  1.0
  H  H11  1  0.30557000  0.70527000  0.26089000  1.0
  H  H12  1  0.59422000  0.49050000  0.72065000  1.0
  H  H13  1  0.40580000  0.50950000  0.27934000  1.0
  H  H14  1  0.52326000  0.25767000  0.98476000  1.0
  H  H15  1  0.47676000  0.74234000  0.01523000  1.0
  H  H16  1  0.39716000  0.44290000  0.96348000  1.0
  H  H17  1  0.60287000  0.55711000  0.03651000  1.0
  H  H18  1  0.86473000  0.17662000  0.52238000  1.0
  H  H19  1  0.13526000  0.82338000  0.47761000  1.0
  H  H20  1  0.88748000  0.36654000  0.40960000  1.0
  H  H21  1  0.11251000  0.63346000  0.59040000  1.0
  H  H22  1  0.03716000  0.29315000  0.62939000  1.0
  H  H23  1  0.96283000  0.70684000  0.37062000  1.0
  H  H24  1  0.15067000  0.40128000  0.45638000  1.0
  H  H25  1  0.84933000  0.59871000  0.54362000  1.0
  H  H26  1  0.18581000  0.04082000  0.54862000  1.0
  H  H27  1  0.81417000  0.95917000  0.45138000  1.0
  H  H28  1  0.35851000  0.16930000  0.47370000  1.0
  H  H29  1  0.64148000  0.83069000  0.52631000  1.0
  H  H30  1  0.27185000  0.01911000  0.28610000  1.0
  H  H31  1  0.72813000  0.98088000  0.71391000  1.0
  H  H32  1  0.32144000  0.22242000  0.23670000  1.0
  H  H33  1  0.67855000  0.77757000  0.76331000  1.0
  C  C34  1  0.35608000  0.18890000  0.78036000  1.0
  C  C35  1  0.64393000  0.81111000  0.21964000  1.0
  C  C36  1  0.46482000  0.31321000  0.66851000  1.0
  C  C37  1  0.53519000  0.68679000  0.33148000  1.0
  C  C38  1  0.56925000  0.36520000  0.75430000  1.0
  C  C39  1  0.43076000  0.63481000  0.24569000  1.0
  C  C40  1  0.45404000  0.33449000  0.91590000  1.0
  C  C41  1  0.54597000  0.66552000  0.08410000  1.0
  C  C42  1  0.95828000  0.25902000  0.44656000  1.0
  C  C43  1  0.04171000  0.74097000  0.55344000  1.0
  C  C44  1  0.09370000  0.28865000  0.51105000  1.0
  C  C45  1  0.90630000  0.71135000  0.48895000  1.0
  C  C46  1  0.22971000  0.14918000  0.47282000  1.0
  C  C47  1  0.77027000  0.85081000  0.52719000  1.0
  C  C48  1  0.23524000  0.13755000  0.31836000  1.0
  C  C49  1  0.76476000  0.86244000  0.68164000  1.0
  Cl  Cl50  1  0.92954000  0.47633000  0.86060000  1.0
  Cl  Cl51  1  0.07046000  0.52368000  0.13940000  1.0
  Cl  Cl52  1  0.66586000  0.24539000  0.25850000  1.0
  Cl  Cl53  1  0.33414000  0.75462000  0.74149000  1.0
  Cl  Cl54  1  0.87759000  0.08370000  0.89496000  1.0
  Cl  Cl55  1  0.12241000  0.91630000  0.10503000  1.0
  O  O56  1  0.30689000  0.25238000  0.91846000  1.0
  O  O57  1  0.69312000  0.74763000  0.08154000  1.0
  O  O58  1  0.05599000  0.18139000  0.31742000  1.0
  O  O59  1  0.94401000  0.81861000  0.68257000  1.0
