# generated using pymatgen
data_SnH4(C2O)4
_symmetry_space_group_name_H-M   'P 1'
_cell_length_a   4.82281000
_cell_length_b   7.52801000
_cell_length_c   11.60210000
_cell_angle_alpha   81.16120000
_cell_angle_beta   78.02180000
_cell_angle_gamma   71.45300000
_symmetry_Int_Tables_number   1
_chemical_formula_structural   SnH4(C2O)4
_chemical_formula_sum   'Sn2 H8 C16 O8'
_cell_volume   388.90703537
_cell_formula_units_Z   2
loop_
 _symmetry_equiv_pos_site_id
 _symmetry_equiv_pos_as_xyz
  1  'x, y, z'
loop_
 _atom_site_type_symbol
 _atom_site_label
 _atom_site_symmetry_multiplicity
 _atom_site_fract_x
 _atom_site_fract_y
 _atom_site_fract_z
 _atom_site_occupancy
  Sn  Sn0  1  0.60998000  0.22877000  0.04305000  1.0
  Sn  Sn1  1  0.88345000  0.77179000  0.95723000  1.0
  H  H2  1  0.88171000  0.11756000  0.29545000  1.0
  H  H3  1  0.30072000  0.88356000  0.70304000  1.0
  H  H4  1  0.46207000  0.04948000  0.44170000  1.0
  H  H5  1  0.95995000  0.95013000  0.55662000  1.0
  H  H6  1  0.41583000  0.72359000  0.47482000  1.0
  H  H7  1  0.61730000  0.27412000  0.52500000  1.0
  H  H8  1  0.78026000  0.47253000  0.35906000  1.0
  H  H9  1  0.60910000  0.52510000  0.64247000  1.0
  C  C10  1  0.30751000  0.88599000  0.15598000  1.0
  C  C11  1  0.35071000  0.11593000  0.84369000  1.0
  C  C12  1  0.06326000  0.83626000  0.24411000  1.0
  C  C13  1  0.14513000  0.16425000  0.75569000  1.0
  C  C14  1  0.85667000  0.97688000  0.31041000  1.0
  C  C15  1  0.14823000  0.02350000  0.68866000  1.0
  C  C16  1  0.62432000  0.93768000  0.39283000  1.0
  C  C17  1  0.95971000  0.06179000  0.60621000  1.0
  C  C18  1  0.59866000  0.75548000  0.41126000  1.0
  C  C19  1  0.76795000  0.24312000  0.58863000  1.0
  C  C20  1  0.80440000  0.61347000  0.34705000  1.0
  C  C21  1  0.76429000  0.38513000  0.65383000  1.0
  C  C22  1  0.03575000  0.65260000  0.26284000  1.0
  C  C23  1  0.95066000  0.34704000  0.73785000  1.0
  C  C24  1  0.24587000  0.49269000  0.19675000  1.0
  C  C25  1  0.93465000  0.50687000  0.80428000  1.0
  O  O26  1  0.20871000  0.47803000  0.09071000  1.0
  O  O27  1  0.77451000  0.52250000  0.90982000  1.0
  O  O28  1  0.44002000  0.37003000  0.24636000  1.0
  O  O29  1  0.05876000  0.62875000  0.75519000  1.0
  O  O30  1  0.51139000  0.75007000  0.10787000  1.0
  O  O31  1  0.36593000  0.25258000  0.89274000  1.0
  O  O32  1  0.29083000  0.06003000  0.13477000  1.0
  O  O33  1  0.49100000  0.94270000  0.86401000  1.0
