# generated using pymatgen
data_CuH17C12N3O5
_symmetry_space_group_name_H-M   'P 1'
_cell_length_a   7.12261000
_cell_length_b   9.79195000
_cell_length_c   10.10740000
_cell_angle_alpha   103.05400000
_cell_angle_beta   102.50300000
_cell_angle_gamma   90.71890000
_symmetry_Int_Tables_number   1
_chemical_formula_structural   CuH17C12N3O5
_chemical_formula_sum   'Cu2 H34 C24 N6 O10'
_cell_volume   669.02940623
_cell_formula_units_Z   2
loop_
 _symmetry_equiv_pos_site_id
 _symmetry_equiv_pos_as_xyz
  1  'x, y, z'
loop_
 _atom_site_type_symbol
 _atom_site_label
 _atom_site_symmetry_multiplicity
 _atom_site_fract_x
 _atom_site_fract_y
 _atom_site_fract_z
 _atom_site_occupancy
  Cu  Cu0  1  0.75382000  0.37128000  0.13095000  1.0
  Cu  Cu1  1  0.24618000  0.62871000  0.86905000  1.0
  H  H2  1  0.81308000  0.60821000  0.07972000  1.0
  H  H3  1  0.18691000  0.39179000  0.92028000  1.0
  H  H4  1  0.59750000  0.60142000  0.11659000  1.0
  H  H5  1  0.40250000  0.39858000  0.88341000  1.0
  H  H6  1  0.78879000  0.84725000  0.86870000  1.0
  H  H7  1  0.21122000  0.15275000  0.13130000  1.0
  H  H8  1  0.75746000  0.82529000  0.61870000  1.0
  H  H9  1  0.24254000  0.17471000  0.38130000  1.0
  H  H10  1  0.69047000  0.03732000  0.51944000  1.0
  H  H11  1  0.30952000  0.96267000  0.48056000  1.0
  H  H12  1  0.64931000  0.26631000  0.67605000  1.0
  H  H13  1  0.35068000  0.73368000  0.32395000  1.0
  H  H14  1  0.90538000  0.89475000  0.11515000  1.0
  H  H15  1  0.09463000  0.10525000  0.88485000  1.0
  H  H16  1  0.66412000  0.84354000  0.02527000  1.0
  H  H17  1  0.33588000  0.15646000  0.97474000  1.0
  H  H18  1  0.71611000  0.93211000  0.20363000  1.0
  H  H19  1  0.28390000  0.06789000  0.79637000  1.0
  H  H20  1  0.77950000  0.75958000  0.31831000  1.0
  H  H21  1  0.22050000  0.24042000  0.68169000  1.0
  H  H22  1  0.97907000  0.65155000  0.31004000  1.0
  H  H23  1  0.02093000  0.34845000  0.68996000  1.0
  H  H24  1  0.82288000  0.61209000  0.49901000  1.0
  H  H25  1  0.17712000  0.38791000  0.50099000  1.0
  H  H26  1  0.59677000  0.56549000  0.37376000  1.0
  H  H27  1  0.40323000  0.43451000  0.62624000  1.0
  H  H28  1  0.55490000  0.33482000  0.35572000  1.0
  H  H29  1  0.44510000  0.66518000  0.64428000  1.0
  H  H30  1  0.75407000  0.33219000  0.49868000  1.0
  H  H31  1  0.24593000  0.66781000  0.50132000  1.0
  H  H32  1  0.90932000  0.15837000  0.35118000  1.0
  H  H33  1  0.09068000  0.84163000  0.64883000  1.0
  H  H34  1  0.66169000  0.09975000  0.31658000  1.0
  H  H35  1  0.33830000  0.90025000  0.68342000  1.0
  C  C36  1  0.75553000  0.93902000  0.82659000  1.0
  C  C37  1  0.24448000  0.06097000  0.17341000  1.0
  C  C38  1  0.74068000  0.92650000  0.68535000  1.0
  C  C39  1  0.25932000  0.07350000  0.31465000  1.0
  C  C40  1  0.70172000  0.04516000  0.63024000  1.0
  C  C41  1  0.29827000  0.95483000  0.36976000  1.0
  C  C42  1  0.67720000  0.17222000  0.71593000  1.0
  C  C43  1  0.32279000  0.82778000  0.28408000  1.0
  C  C44  1  0.69134000  0.18841000  0.86153000  1.0
  C  C45  1  0.30866000  0.81158000  0.13847000  1.0
  C  C46  1  0.73161000  0.06668000  0.91854000  1.0
  C  C47  1  0.26840000  0.93332000  0.08146000  1.0
  C  C48  1  0.74395000  0.06602000  0.06494000  1.0
  C  C49  1  0.25605000  0.93398000  0.93507000  1.0
  C  C50  1  0.75622000  0.92670000  0.10437000  1.0
  C  C51  1  0.24379000  0.07330000  0.89563000  1.0
  C  C52  1  0.82161000  0.65045000  0.29361000  1.0
  C  C53  1  0.17839000  0.34955000  0.70639000  1.0
  C  C54  1  0.75479000  0.56984000  0.38839000  1.0
  C  C55  1  0.24521000  0.43016000  0.61161000  1.0
  C  C56  1  0.71011000  0.32130000  0.38554000  1.0
  C  C57  1  0.28989000  0.67870000  0.61446000  1.0
  C  C58  1  0.76121000  0.18139000  0.30600000  1.0
  C  C59  1  0.23879000  0.81861000  0.69400000  1.0
  N  N60  1  0.74658000  0.18241000  0.15908000  1.0
  N  N61  1  0.25343000  0.81758000  0.84092000  1.0
  N  N62  1  0.73897000  0.57846000  0.14672000  1.0
  N  N63  1  0.26103000  0.42154000  0.85328000  1.0
  N  N64  1  0.23655000  0.41790000  0.18099000  1.0
  N  N65  1  0.76345000  0.58211000  0.81900000  1.0
  O  O66  1  0.81376000  0.42822000  0.34692000  1.0
  O  O67  1  0.18624000  0.57178000  0.65308000  1.0
  O  O68  1  0.23886000  0.48552000  0.30338000  1.0
  O  O69  1  0.76115000  0.51449000  0.69661000  1.0
  O  O70  1  0.39150000  0.37939000  0.14576000  1.0
  O  O71  1  0.60850000  0.62061000  0.85424000  1.0
  O  O72  1  0.66246000  0.31328000  0.93187000  1.0
  O  O73  1  0.33754000  0.68672000  0.06813000  1.0
  O  O74  1  0.07788000  0.38483000  0.08987000  1.0
  O  O75  1  0.92212000  0.61518000  0.91012000  1.0
