# generated using pymatgen
data_CuBH13(C3N2)4
_symmetry_space_group_name_H-M   'P 1'
_cell_length_a   7.58411000
_cell_length_b   13.32080000
_cell_length_c   14.69670000
_cell_angle_alpha   75.32900000
_cell_angle_beta   89.99970000
_cell_angle_gamma   89.99970000
_symmetry_Int_Tables_number   1
_chemical_formula_structural   CuBH13(C3N2)4
_chemical_formula_sum   'Cu4 B4 H52 C48 N32'
_cell_volume   1436.34602833
_cell_formula_units_Z   4
loop_
 _symmetry_equiv_pos_site_id
 _symmetry_equiv_pos_as_xyz
  1  'x, y, z'
loop_
 _atom_site_type_symbol
 _atom_site_label
 _atom_site_symmetry_multiplicity
 _atom_site_fract_x
 _atom_site_fract_y
 _atom_site_fract_z
 _atom_site_occupancy
  Cu  Cu0  1  0.53063000  0.20855000  0.40904000  1.0
  Cu  Cu1  1  0.03064000  0.29147000  0.09098000  1.0
  Cu  Cu2  1  0.46956000  0.79151000  0.59094000  1.0
  Cu  Cu3  1  0.96956000  0.70848000  0.90905000  1.0
  B  B4  1  0.52715000  0.22828000  0.61851000  1.0
  B  B5  1  0.02716000  0.27173000  0.88150000  1.0
  B  B6  1  0.47292000  0.77168000  0.38173000  1.0
  B  B7  1  0.97290000  0.72830000  0.11826000  1.0
  H  H8  1  0.84865000  0.31976000  0.28246000  1.0
  H  H9  1  0.34867000  0.18027000  0.21755000  1.0
  H  H10  1  0.15060000  0.67947000  0.71730000  1.0
  H  H11  1  0.65062000  0.82053000  0.78270000  1.0
  H  H12  1  0.63068000  0.02170000  0.31298000  1.0
  H  H13  1  0.13065000  0.47832000  0.18705000  1.0
  H  H14  1  0.36969000  0.97721000  0.68718000  1.0
  H  H15  1  0.86973000  0.52279000  0.81280000  1.0
  H  H16  1  0.86301000  0.06663000  0.16014000  1.0
  H  H17  1  0.36295000  0.43338000  0.33989000  1.0
  H  H18  1  0.13660000  0.93231000  0.84010000  1.0
  H  H19  1  0.63657000  0.56767000  0.65991000  1.0
  H  H20  1  0.09476000  0.22276000  0.40231000  1.0
  H  H21  1  0.59478000  0.27724000  0.09770000  1.0
  H  H22  1  0.90576000  0.77697000  0.59774000  1.0
  H  H23  1  0.40576000  0.72304000  0.90225000  1.0
  H  H24  1  0.91209000  0.24660000  0.55699000  1.0
  H  H25  1  0.41211000  0.25341000  0.94303000  1.0
  H  H26  1  0.08819000  0.75357000  0.44285000  1.0
  H  H27  1  0.58814000  0.74642000  0.05716000  1.0
  H  H28  1  0.17323000  0.24460000  0.68874000  1.0
  H  H29  1  0.67324000  0.25541000  0.81127000  1.0
  H  H30  1  0.82679000  0.75550000  0.31125000  1.0
  H  H31  1  0.32672000  0.74445000  0.18876000  1.0
  H  H32  1  0.78764000  0.99941000  0.47261000  1.0
  H  H33  1  0.28764000  0.50059000  0.02740000  1.0
  H  H34  1  0.21198000  0.00071000  0.52745000  1.0
  H  H35  1  0.71194000  0.49928000  0.97253000  1.0
  H  H36  1  0.90678000  0.93669000  0.65605000  1.0
  H  H37  1  0.40679000  0.56331000  0.84395000  1.0
  H  H38  1  0.09331000  0.06324000  0.34392000  1.0
  H  H39  1  0.59329000  0.43676000  0.15606000  1.0
  H  H40  1  0.74379000  0.07370000  0.74230000  1.0
  H  H41  1  0.24378000  0.42630000  0.75771000  1.0
  H  H42  1  0.25670000  0.92615000  0.25792000  1.0
  H  H43  1  0.75670000  0.57385000  0.24205000  1.0
  H  H44  1  0.77466000  0.46170000  0.36716000  1.0
  H  H45  1  0.27468000  0.03830000  0.13283000  1.0
  H  H46  1  0.22524000  0.53812000  0.63287000  1.0
  H  H47  1  0.72522000  0.96187000  0.86713000  1.0
  H  H48  1  0.83734000  0.54738000  0.51650000  1.0
  H  H49  1  0.33734000  0.95263000  0.98349000  1.0
  H  H50  1  0.16257000  0.45259000  0.48343000  1.0
  H  H51  1  0.66261000  0.04742000  0.01656000  1.0
  H  H52  1  0.68714000  0.40417000  0.66706000  1.0
  H  H53  1  0.18712000  0.09584000  0.83293000  1.0
  H  H54  1  0.31277000  0.59594000  0.33295000  1.0
  H  H55  1  0.81280000  0.90407000  0.16705000  1.0
  H  H56  1  0.51893000  0.22881000  0.70042000  1.0
  H  H57  1  0.01892000  0.27120000  0.79958000  1.0
  H  H58  1  0.48103000  0.77132000  0.29976000  1.0
  H  H59  1  0.98102000  0.72863000  0.20023000  1.0
  C  C60  1  0.82197000  0.24404000  0.27072000  1.0
  C  C61  1  0.32200000  0.25599000  0.22929000  1.0
  C  C62  1  0.17762000  0.75506000  0.72920000  1.0
  C  C63  1  0.67764000  0.74493000  0.77079000  1.0
  C  C64  1  0.71042000  0.09007000  0.28426000  1.0
  C  C65  1  0.21040000  0.40996000  0.21576000  1.0
  C  C66  1  0.28952000  0.90909000  0.71596000  1.0
  C  C67  1  0.78953000  0.59090000  0.78403000  1.0
  C  C68  1  0.82595000  0.11153000  0.20908000  1.0
  C  C69  1  0.32592000  0.38849000  0.29094000  1.0
  C  C70  1  0.17399000  0.88772000  0.79097000  1.0
  C  C71  1  0.67398000  0.61227000  0.70902000  1.0
  C  C72  1  0.14430000  0.22555000  0.47083000  1.0
  C  C73  1  0.64431000  0.27445000  0.02918000  1.0
  C  C74  1  0.85607000  0.77420000  0.52925000  1.0
  C  C75  1  0.35607000  0.72579000  0.97074000  1.0
  C  C76  1  0.05265000  0.23797000  0.55008000  1.0
  C  C77  1  0.55267000  0.26204000  0.94994000  1.0
  C  C78  1  0.94761000  0.76200000  0.44989000  1.0
  C  C79  1  0.44757000  0.73798000  0.05011000  1.0
  C  C80  1  0.18216000  0.23662000  0.61729000  1.0
  C  C81  1  0.68216000  0.26340000  0.88272000  1.0
  C  C82  1  0.81796000  0.76332000  0.38276000  1.0
  C  C83  1  0.31793000  0.73664000  0.11724000  1.0
  C  C84  1  0.75575000  0.03000000  0.53228000  1.0
  C  C85  1  0.25577000  0.47000000  0.96772000  1.0
  C  C86  1  0.24410000  0.97003000  0.46787000  1.0
  C  C87  1  0.74407000  0.52996000  0.03212000  1.0
  C  C88  1  0.81509000  0.99842000  0.62569000  1.0
  C  C89  1  0.31509000  0.50158000  0.87431000  1.0
  C  C90  1  0.18498000  0.00154000  0.37441000  1.0
  C  C91  1  0.68495000  0.49846000  0.12557000  1.0
  C  C92  1  0.73367000  0.06596000  0.67084000  1.0
  C  C93  1  0.23368000  0.43404000  0.82917000  1.0
  C  C94  1  0.26660000  0.93398000  0.32937000  1.0
  C  C95  1  0.76658000  0.56600000  0.17061000  1.0
  C  C96  1  0.73603000  0.43304000  0.44023000  1.0
  C  C97  1  0.23604000  0.06697000  0.05976000  1.0
  C  C98  1  0.26388000  0.56682000  0.55981000  1.0
  C  C99  1  0.76388000  0.93317000  0.94019000  1.0
  C  C100  1  0.76857000  0.47594000  0.51684000  1.0
  C  C101  1  0.26855000  0.02407000  0.98315000  1.0
  C  C102  1  0.23133000  0.52402000  0.48315000  1.0
  C  C103  1  0.73135000  0.97599000  0.01685000  1.0
  C  C104  1  0.69361000  0.40531000  0.59309000  1.0
  C  C105  1  0.19359000  0.09470000  0.90690000  1.0
  C  C106  1  0.30629000  0.59471000  0.40694000  1.0
  C  C107  1  0.80632000  0.90529000  0.09306000  1.0
  N  N108  1  0.70905000  0.17452000  0.32268000  1.0
  N  N109  1  0.20906000  0.32551000  0.17733000  1.0
  N  N110  1  0.29055000  0.82457000  0.67743000  1.0
  N  N111  1  0.79056000  0.67543000  0.82255000  1.0
  N  N112  1  0.89580000  0.20871000  0.20134000  1.0
  N  N113  1  0.39579000  0.29131000  0.29868000  1.0
  N  N114  1  0.10393000  0.79048000  0.79849000  1.0
  N  N115  1  0.60393000  0.70951000  0.70150000  1.0
  N  N116  1  0.31789000  0.21686000  0.48936000  1.0
  N  N117  1  0.81790000  0.28315000  0.01065000  1.0
  N  N118  1  0.68241000  0.78274000  0.51087000  1.0
  N  N119  1  0.18242000  0.71725000  0.98912000  1.0
  N  N120  1  0.34052000  0.22369000  0.57917000  1.0
  N  N121  1  0.84053000  0.27632000  0.92084000  1.0
  N  N122  1  0.65964000  0.77602000  0.42104000  1.0
  N  N123  1  0.15962000  0.72395000  0.07895000  1.0
  N  N124  1  0.64488000  0.11074000  0.52220000  1.0
  N  N125  1  0.14489000  0.38927000  0.97781000  1.0
  N  N126  1  0.35509000  0.88931000  0.47809000  1.0
  N  N127  1  0.85505000  0.61067000  0.02190000  1.0
  N  N128  1  0.63090000  0.13225000  0.60756000  1.0
  N  N129  1  0.13090000  0.36775000  0.89244000  1.0
  N  N130  1  0.36931000  0.86774000  0.39273000  1.0
  N  N131  1  0.86928000  0.63224000  0.10725000  1.0
  N  N132  1  0.64703000  0.34329000  0.46740000  1.0
  N  N133  1  0.14704000  0.15672000  0.03260000  1.0
  N  N134  1  0.35293000  0.65657000  0.53272000  1.0
  N  N135  1  0.85290000  0.84341000  0.96728000  1.0
  N  N136  1  0.62149000  0.32701000  0.56171000  1.0
  N  N137  1  0.12148000  0.17300000  0.93830000  1.0
  N  N138  1  0.37844000  0.67295000  0.43841000  1.0
  N  N139  1  0.87844000  0.82704000  0.06159000  1.0
