# generated using pymatgen
data_CuH8C5N3O
_symmetry_space_group_name_H-M   'P 1'
_cell_length_a   9.89534000
_cell_length_b   11.40793878
_cell_length_c   11.42430000
_cell_angle_alpha   111.94886657
_cell_angle_beta   106.85300000
_cell_angle_gamma   106.65919104
_symmetry_Int_Tables_number   1
_chemical_formula_structural   CuH8C5N3O
_chemical_formula_sum   'Cu6 H48 C30 N18 O6'
_cell_volume   1025.17719238
_cell_formula_units_Z   6
loop_
 _symmetry_equiv_pos_site_id
 _symmetry_equiv_pos_as_xyz
  1  'x, y, z'
loop_
 _atom_site_type_symbol
 _atom_site_label
 _atom_site_symmetry_multiplicity
 _atom_site_fract_x
 _atom_site_fract_y
 _atom_site_fract_z
 _atom_site_occupancy
  Cu  Cu0  1  0.31715000  0.41712000  0.95764000  1.0
  Cu  Cu1  1  0.89898000  0.54090000  0.58230000  1.0
  Cu  Cu2  1  0.35927000  0.04143000  0.45887000  1.0
  Cu  Cu3  1  0.68284000  0.58287000  0.04235000  1.0
  Cu  Cu4  1  0.10100000  0.45910000  0.41770000  1.0
  Cu  Cu5  1  0.64074000  0.95859000  0.54114000  1.0
  H  H6  1  0.31697000  0.27432000  0.63392000  1.0
  H  H7  1  0.00026000  0.87111000  0.64920000  1.0
  H  H8  1  0.98939000  0.10362000  0.75629000  1.0
  H  H9  1  0.15576000  0.76150000  0.57061000  1.0
  H  H10  1  0.29327000  0.84650000  0.51846000  1.0
  H  H11  1  0.71106000  0.84482000  0.00496000  1.0
  H  H12  1  0.51022000  0.81332000  0.95168000  1.0
  H  H13  1  0.63006000  0.86064000  0.12691000  1.0
  H  H14  1  0.04241000  0.36081000  0.72530000  1.0
  H  H15  1  0.12887000  0.77833000  0.12946000  1.0
  H  H16  1  0.88534000  0.65377000  0.89773000  1.0
  H  H17  1  0.39404000  0.80858000  0.23766000  1.0
  H  H18  1  0.44631000  0.67149000  0.15169000  1.0
  H  H19  1  0.86727000  0.16009000  0.15583000  1.0
  H  H20  1  0.69835000  0.13975000  0.18775000  1.0
  H  H21  1  0.77168000  0.26759000  0.14055000  1.0
  H  H22  1  0.68207000  0.36593000  0.64017000  1.0
  H  H23  1  0.34990000  0.35007000  0.22097000  1.0
  H  H24  1  0.23210000  0.24264000  0.34608000  1.0
  H  H25  1  0.58422000  0.42848000  0.19031000  1.0
  H  H26  1  0.77369000  0.48104000  0.32795000  1.0
  H  H27  1  0.70651000  0.99593000  0.84078000  1.0
  H  H28  1  0.55763000  0.04816000  0.86094000  1.0
  H  H29  1  0.50404000  0.87334000  0.73347000  1.0
  H  H30  1  0.68306000  0.72570000  0.36609000  1.0
  H  H31  1  0.99976000  0.12894000  0.35085000  1.0
  H  H32  1  0.01063000  0.89643000  0.24373000  1.0
  H  H33  1  0.84422000  0.23852000  0.42940000  1.0
  H  H34  1  0.70673000  0.15352000  0.48157000  1.0
  H  H35  1  0.28897000  0.15515000  0.99502000  1.0
  H  H36  1  0.48983000  0.18670000  0.04830000  1.0
  H  H37  1  0.36997000  0.13936000  0.87307000  1.0
  H  H38  1  0.95760000  0.63920000  0.27469000  1.0
  H  H39  1  0.87111000  0.22166000  0.87052000  1.0
  H  H40  1  0.11465000  0.34622000  0.10227000  1.0
  H  H41  1  0.60594000  0.19141000  0.76233000  1.0
  H  H42  1  0.55367000  0.32850000  0.84829000  1.0
  H  H43  1  0.13271000  0.83987000  0.84419000  1.0
  H  H44  1  0.30161000  0.86025000  0.81223000  1.0
  H  H45  1  0.22835000  0.73239000  0.85943000  1.0
  H  H46  1  0.31790000  0.63406000  0.35982000  1.0
  H  H47  1  0.65010000  0.64990000  0.77902000  1.0
  H  H48  1  0.76789000  0.75733000  0.65389000  1.0
  H  H49  1  0.41580000  0.57150000  0.80969000  1.0
  H  H50  1  0.22631000  0.51892000  0.67204000  1.0
  H  H51  1  0.29350000  0.00414000  0.15926000  1.0
  H  H52  1  0.44229000  0.95179000  0.13903000  1.0
  H  H53  1  0.49600000  0.12663000  0.26653000  1.0
  C  C54  1  0.07262000  0.96326000  0.64932000  1.0
  C  C55  1  0.24780000  0.18638000  0.64198000  1.0
  C  C56  1  0.06845000  0.09055000  0.70792000  1.0
  C  C57  1  0.17868000  0.95307000  0.58931000  1.0
  C  C58  1  0.60384000  0.79791000  0.01579000  1.0
  C  C59  1  0.10902000  0.68645000  0.03713000  1.0
  C  C60  1  0.06114000  0.45656000  0.81345000  1.0
  C  C61  1  0.97753000  0.61829000  0.91022000  1.0
  C  C62  1  0.22521000  0.63630000  0.04663000  1.0
  C  C63  1  0.80752000  0.21858000  0.20309000  1.0
  C  C64  1  0.42219000  0.34999000  0.31312000  1.0
  C  C65  1  0.60487000  0.35768000  0.54400000  1.0
  C  C66  1  0.35950000  0.29126000  0.38164000  1.0
  C  C67  1  0.58824000  0.41008000  0.36320000  1.0
  C  C68  1  0.58831000  0.98471000  0.78227000  1.0
  C  C69  1  0.92739000  0.03678000  0.35071000  1.0
  C  C70  1  0.75223000  0.81365000  0.35805000  1.0
  C  C71  1  0.93157000  0.90950000  0.29212000  1.0
  C  C72  1  0.82131000  0.04695000  0.41070000  1.0
  C  C73  1  0.39619000  0.20209000  0.98419000  1.0
  C  C74  1  0.89098000  0.31355000  0.96287000  1.0
  C  C75  1  0.93886000  0.54345000  0.18654000  1.0
  C  C76  1  0.02246000  0.38170000  0.08976000  1.0
  C  C77  1  0.77479000  0.36370000  0.95337000  1.0
  C  C78  1  0.19247000  0.78140000  0.79690000  1.0
  C  C79  1  0.57780000  0.64998000  0.68687000  1.0
  C  C80  1  0.39512000  0.64230000  0.45600000  1.0
  C  C81  1  0.64048000  0.70871000  0.61833000  1.0
  C  C82  1  0.41176000  0.58991000  0.63680000  1.0
  C  C83  1  0.41167000  0.01529000  0.21774000  1.0
  N  N84  1  0.16066000  0.20642000  0.71009000  1.0
  N  N85  1  0.25980000  0.06591000  0.57886000  1.0
  N  N86  1  0.19931000  0.83671000  0.54076000  1.0
  N  N87  1  0.95389000  0.50495000  0.79407000  1.0
  N  N88  1  0.19345000  0.51323000  0.93356000  1.0
  N  N89  1  0.36221000  0.70353000  0.16246000  1.0
  N  N90  1  0.44970000  0.28929000  0.49560000  1.0
  N  N91  1  0.67987000  0.42074000  0.48666000  1.0
  N  N92  1  0.65732000  0.45854000  0.29546000  1.0
  N  N93  1  0.83936000  0.79362000  0.28992000  1.0
  N  N94  1  0.74022000  0.93412000  0.42116000  1.0
  N  N95  1  0.80068000  0.16331000  0.45926000  1.0
  N  N96  1  0.04611000  0.49505000  0.20590000  1.0
  N  N97  1  0.80655000  0.48677000  0.06644000  1.0
  N  N98  1  0.63778000  0.29646000  0.83753000  1.0
  N  N99  1  0.55028000  0.71070000  0.50440000  1.0
  N  N100  1  0.32013000  0.57925000  0.51334000  1.0
  N  N101  1  0.34267000  0.54144000  0.70453000  1.0
  O  O102  1  0.55248000  0.65227000  0.97035000  1.0
  O  O103  1  0.90184000  0.31803000  0.34869000  1.0
  O  O104  1  0.58296000  0.03086000  0.68256000  1.0
  O  O105  1  0.44752000  0.34773000  0.02965000  1.0
  O  O106  1  0.09814000  0.68197000  0.65131000  1.0
  O  O107  1  0.41699000  0.96912000  0.31742000  1.0
