# generated using pymatgen
data_Zn4H8C25S4O13F2
_symmetry_space_group_name_H-M   'P 1'
_cell_length_a   19.60000000
_cell_length_b   19.74540000
_cell_length_c   33.33560000
_cell_angle_alpha   78.90270000
_cell_angle_beta   79.29820000
_cell_angle_gamma   63.99180000
_symmetry_Int_Tables_number   1
_chemical_formula_structural   Zn4H8C25S4O13F2
_chemical_formula_sum   'Zn16 H32 C100 S16 O52 F8'
_cell_volume   11302.61499116
_cell_formula_units_Z   4
loop_
 _symmetry_equiv_pos_site_id
 _symmetry_equiv_pos_as_xyz
  1  'x, y, z'
loop_
 _atom_site_type_symbol
 _atom_site_label
 _atom_site_symmetry_multiplicity
 _atom_site_fract_x
 _atom_site_fract_y
 _atom_site_fract_z
 _atom_site_occupancy
  Zn  Zn0  1  0.05147000  0.40173000  0.47786000  1.0
  Zn  Zn1  1  0.99047000  0.48210000  0.56101000  1.0
  Zn  Zn2  1  0.05801000  0.56121000  0.48177000  1.0
  Zn  Zn3  1  0.89857000  0.55436000  0.48116000  1.0
  Zn  Zn4  1  0.69374000  0.34633000  0.27180000  1.0
  Zn  Zn5  1  0.68720000  0.19006000  0.26466000  1.0
  Zn  Zn6  1  0.77115000  0.26441000  0.19042000  1.0
  Zn  Zn7  1  0.84770000  0.19333000  0.27428000  1.0
  Zn  Zn8  1  0.27118000  0.76467000  0.69025000  1.0
  Zn  Zn9  1  0.34852000  0.69935000  0.77476000  1.0
  Zn  Zn10  1  0.19111000  0.84697000  0.77133000  1.0
  Zn  Zn11  1  0.19393000  0.68527000  0.76570000  1.0
  Zn  Zn12  1  0.56379000  0.05628000  0.98258000  1.0
  Zn  Zn13  1  0.40132000  0.05646000  0.97927000  1.0
  Zn  Zn14  1  0.55232000  0.90027000  0.97865000  1.0
  Zn  Zn15  1  0.48732000  0.98095000  0.06083000  1.0
  H  H16  1  0.95300000  0.25246000  0.35258000  1.0
  H  H17  1  0.73959000  0.44981000  0.35253000  1.0
  H  H18  1  0.99515000  0.30665000  0.40023000  1.0
  H  H19  1  0.09635000  0.60291000  0.69674000  1.0
  H  H20  1  0.21557000  0.69405000  0.59619000  1.0
  H  H21  1  0.05048000  0.55747000  0.64646000  1.0
  H  H22  1  0.45943000  0.23881000  0.33959000  1.0
  H  H23  1  0.48504000  0.69299000  0.60666000  1.0
  H  H24  1  0.20814000  0.97778000  0.60051000  1.0
  H  H25  1  0.94829000  0.96254000  0.34102000  1.0
  H  H26  1  0.56243000  0.04267000  0.15124000  1.0
  H  H27  1  0.64751000  0.15884000  0.04622000  1.0
  H  H28  1  0.61055000  0.09458000  0.19719000  1.0
  H  H29  1  0.54994000  0.76725000  0.14921000  1.0
  H  H30  1  0.16616000  0.15172000  0.04400000  1.0
  H  H31  1  0.48858000  0.79900000  0.90327000  1.0
  H  H32  1  0.29369000  0.01404000  0.89662000  1.0
  H  H33  1  0.43580000  0.75604000  0.85521000  1.0
  H  H34  1  0.30558000  0.27935000  0.90125000  1.0
  H  H35  1  0.78235000  0.00572000  0.90261000  1.0
  H  H36  1  0.78167000  0.57151000  0.38890000  1.0
  H  H37  1  0.75313000  0.52750000  0.43565000  1.0
  H  H38  1  0.70631000  0.54275000  0.39142000  1.0
  H  H39  1  0.13046000  0.69618000  0.51630000  1.0
  H  H40  1  0.20532000  0.60493000  0.51759000  1.0
  H  H41  1  0.22046000  0.68104000  0.52987000  1.0
  H  H42  1  0.76708000  0.19972000  0.08743000  1.0
  H  H43  1  0.68167000  0.27976000  0.09693000  1.0
  H  H44  1  0.69954000  0.23855000  0.05074000  1.0
  H  H45  1  0.17288000  0.97145000  0.85627000  1.0
  H  H46  1  0.22215000  0.99952000  0.81158000  1.0
  H  H47  1  0.20125000  0.04596000  0.85619000  1.0
  C  C48  1  0.06336000  0.31500000  0.56083000  1.0
  C  C49  1  0.07539000  0.57175000  0.56590000  1.0
  C  C50  1  0.18198000  0.43776000  0.43886000  1.0
  C  C51  1  0.93257000  0.68272000  0.43830000  1.0
  C  C52  1  0.92274000  0.43532000  0.43148000  1.0
  C  C53  1  0.82256000  0.55716000  0.56675000  1.0
  C  C54  1  0.56481000  0.30787000  0.31142000  1.0
  C  C55  1  0.68469000  0.18132000  0.17771000  1.0
  C  C56  1  0.68625000  0.43051000  0.18803000  1.0
  C  C57  1  0.93812000  0.18904000  0.19271000  1.0
  C  C58  1  0.81646000  0.31810000  0.32119000  1.0
  C  C59  1  0.80736000  0.06383000  0.30951000  1.0
  C  C60  1  0.43878000  0.68807000  0.69303000  1.0
  C  C61  1  0.30901000  0.82833000  0.82093000  1.0
  C  C62  1  0.19270000  0.93151000  0.68770000  1.0
  C  C63  1  0.06457000  0.80372000  0.80874000  1.0
  C  C64  1  0.18720000  0.67867000  0.67854000  1.0
  C  C65  1  0.31609000  0.56766000  0.81363000  1.0
  C  C66  1  0.44152000  0.18342000  0.93934000  1.0
  C  C67  1  0.42409000  0.93584000  0.93150000  1.0
  C  C68  1  0.68371000  0.93262000  0.93796000  1.0
  C  C69  1  0.55995000  0.81444000  0.06215000  1.0
  C  C70  1  0.57533000  0.06674000  0.06789000  1.0
  C  C71  1  0.31921000  0.06093000  0.06348000  1.0
  C  C72  1  0.89154000  0.40858000  0.40302000  1.0
  C  C73  1  0.84343000  0.34858000  0.34971000  1.0
  C  C74  1  0.81777000  0.45087000  0.38987000  1.0
  C  C75  1  0.91593000  0.30736000  0.36305000  1.0
  C  C76  1  0.79583000  0.41902000  0.36325000  1.0
  C  C77  1  0.93907000  0.33762000  0.38941000  1.0
  C  C78  1  0.10630000  0.60099000  0.59318000  1.0
  C  C79  1  0.15869000  0.65144000  0.64913000  1.0
  C  C80  1  0.15358000  0.64003000  0.57788000  1.0
  C  C81  1  0.11195000  0.61286000  0.66377000  1.0
  C  C82  1  0.17881000  0.66423000  0.60676000  1.0
  C  C83  1  0.08652000  0.58794000  0.63581000  1.0
  C  C84  1  0.30592000  0.44822000  0.40314000  1.0
  C  C85  1  0.44417000  0.29407000  0.34874000  1.0
  C  C86  1  0.25748000  0.41172000  0.41475000  1.0
  C  C87  1  0.49064000  0.33244000  0.33715000  1.0
  C  C88  1  0.37676000  0.33659000  0.37295000  1.0
  C  C89  1  0.37396000  0.40640000  0.37926000  1.0
  C  C90  1  0.73218000  0.57664000  0.63493000  1.0
  C  C91  1  0.53005000  0.66732000  0.62678000  1.0
  C  C92  1  0.74868000  0.58171000  0.59241000  1.0
  C  C93  1  0.51483000  0.66164000  0.66920000  1.0
  C  C94  1  0.60946000  0.63591000  0.61454000  1.0
  C  C95  1  0.65302000  0.60716000  0.64812000  1.0
  C  C96  1  0.07894000  0.22266000  0.62807000  1.0
  C  C97  1  0.17840000  0.02218000  0.62043000  1.0
  C  C98  1  0.08842000  0.24015000  0.58562000  1.0
  C  C99  1  0.16786000  0.00656000  0.66283000  1.0
  C  C100  1  0.14562000  0.10127000  0.60786000  1.0
  C  C101  1  0.11105000  0.14392000  0.64126000  1.0
  C  C102  1  0.83703000  0.80125000  0.39803000  1.0
  C  C103  1  0.90196000  0.94440000  0.34764000  1.0
  C  C104  1  0.90737000  0.75635000  0.41242000  1.0
  C  C105  1  0.83127000  0.98832000  0.33385000  1.0
  C  C106  1  0.90391000  0.87580000  0.37066000  1.0
  C  C107  1  0.83410000  0.86942000  0.37404000  1.0
  C  C108  1  0.65677000  0.15485000  0.14759000  1.0
  C  C109  1  0.60313000  0.09740000  0.09589000  1.0
  C  C110  1  0.66777000  0.17468000  0.10443000  1.0
  C  C111  1  0.59183000  0.07912000  0.13859000  1.0
  C  C112  1  0.64025000  0.14480000  0.07954000  1.0
  C  C113  1  0.61856000  0.10795000  0.16391000  1.0
  C  C114  1  0.66752000  0.52277000  0.12060000  1.0
  C  C115  1  0.57617000  0.72308000  0.12903000  1.0
  C  C116  1  0.66069000  0.50508000  0.16310000  1.0
  C  C117  1  0.58396000  0.73907000  0.08661000  1.0
  C  C118  1  0.60650000  0.64394000  0.14125000  1.0
  C  C119  1  0.63688000  0.60158000  0.10758000  1.0
  C  C120  1  0.08519000  0.11895000  0.18055000  1.0
  C  C121  1  0.17385000  0.12993000  0.07614000  1.0
  C  C122  1  0.01315000  0.16367000  0.16815000  1.0
  C  C123  1  0.24502000  0.08538000  0.08925000  1.0
  C  C124  1  0.11577000  0.14203000  0.10964000  1.0
  C  C125  1  0.14436000  0.10605000  0.14762000  1.0
  C  C126  1  0.33505000  0.86035000  0.84921000  1.0
  C  C127  1  0.39352000  0.90929000  0.90282000  1.0
  C  C128  1  0.29309000  0.93477000  0.86046000  1.0
  C  C129  1  0.43447000  0.83615000  0.89128000  1.0
  C  C130  1  0.32414000  0.95724000  0.88733000  1.0
  C  C131  1  0.40500000  0.81254000  0.86472000  1.0
  C  C132  1  0.40859000  0.45106000  0.85661000  1.0
  C  C133  1  0.34950000  0.30021000  0.89800000  1.0
  C  C134  1  0.34129000  0.49314000  0.83871000  1.0
  C  C135  1  0.41744000  0.25896000  0.91508000  1.0
  C  C136  1  0.34679000  0.37016000  0.87652000  1.0
  C  C137  1  0.41288000  0.38066000  0.87812000  1.0
  C  C138  1  0.94621000  0.78697000  0.84982000  1.0
  C  C139  1  0.80111000  0.94733000  0.89716000  1.0
  C  C140  1  0.99002000  0.82742000  0.83377000  1.0
  C  C141  1  0.75831000  0.90602000  0.91272000  1.0
  C  C142  1  0.86950000  0.90357000  0.87415000  1.0
  C  C143  1  0.87724000  0.82952000  0.87289000  1.0
  C  C144  1  0.76153000  0.52713000  0.40223000  1.0
  C  C145  1  0.17899000  0.65636000  0.53303000  1.0
  C  C146  1  0.70591000  0.22602000  0.08372000  1.0
  C  C147  1  0.21837000  0.99109000  0.84531000  1.0
  S  S148  1  0.29606000  0.32407000  0.39626000  1.0
  S  S149  1  0.45348000  0.41999000  0.35553000  1.0
  S  S150  1  0.66596000  0.62465000  0.56791000  1.0
  S  S151  1  0.59642000  0.61825000  0.69464000  1.0
  S  S152  1  0.13759000  0.15855000  0.56121000  1.0
  S  S153  1  0.11827000  0.08730000  0.68784000  1.0
  S  S154  1  0.97149000  0.79808000  0.39631000  1.0
  S  S155  1  0.76666000  0.94696000  0.34844000  1.0
  S  S156  1  0.61575000  0.58648000  0.18780000  1.0
  S  S157  1  0.62792000  0.65868000  0.06112000  1.0
  S  S158  1  0.01757000  0.19052000  0.11513000  1.0
  S  S159  1  0.24231000  0.05770000  0.14217000  1.0
  S  S160  1  0.28170000  0.44594000  0.84844000  1.0
  S  S161  1  0.47849000  0.30450000  0.90548000  1.0
  S  S162  1  0.94626000  0.91938000  0.84713000  1.0
  S  S163  1  0.80043000  0.81390000  0.89968000  1.0
  O  O164  1  0.99988000  0.49919000  0.50045000  1.0
  O  O165  1  0.07802000  0.31481000  0.52173000  1.0
  O  O166  1  0.04717000  0.52453000  0.58325000  1.0
  O  O167  1  0.15692000  0.50191000  0.45205000  1.0
  O  O168  1  0.02973000  0.37280000  0.58029000  1.0
  O  O169  1  0.14844000  0.39320000  0.44427000  1.0
  O  O170  1  0.07875000  0.59605000  0.52751000  1.0
  O  O171  1  0.00283000  0.65274000  0.44495000  1.0
  O  O172  1  0.88298000  0.50193000  0.44177000  1.0
  O  O173  1  0.88325000  0.65554000  0.45182000  1.0
  O  O174  1  0.98756000  0.38914000  0.44346000  1.0
  O  O175  1  0.88291000  0.52839000  0.58472000  1.0
  O  O176  1  0.81853000  0.56760000  0.52790000  1.0
  O  O177  1  0.75011000  0.24795000  0.25058000  1.0
  O  O178  1  0.59602000  0.35465000  0.30387000  1.0
  O  O179  1  0.65847000  0.17268000  0.21555000  1.0
  O  O180  1  0.72087000  0.37223000  0.16891000  1.0
  O  O181  1  0.59102000  0.24292000  0.29900000  1.0
  O  O182  1  0.67124000  0.43134000  0.22707000  1.0
  O  O183  1  0.73307000  0.20966000  0.16381000  1.0
  O  O184  1  0.88099000  0.22897000  0.17222000  1.0
  O  O185  1  0.85997000  0.25131000  0.31191000  1.0
  O  O186  1  0.93611000  0.16963000  0.23151000  1.0
  O  O187  1  0.75186000  0.36150000  0.30833000  1.0
  O  O188  1  0.74107000  0.09202000  0.29730000  1.0
  O  O189  1  0.85480000  0.09398000  0.30308000  1.0
  O  O190  1  0.25137000  0.74876000  0.75047000  1.0
  O  O191  1  0.38165000  0.72136000  0.67229000  1.0
  O  O192  1  0.35753000  0.76553000  0.80838000  1.0
  O  O193  1  0.17435000  0.93181000  0.72661000  1.0
  O  O194  1  0.43711000  0.67520000  0.73221000  1.0
  O  O195  1  0.22978000  0.87353000  0.66848000  1.0
  O  O196  1  0.24079000  0.86511000  0.81147000  1.0
  O  O197  1  0.09058000  0.85475000  0.79847000  1.0
  O  O198  1  0.17028000  0.66147000  0.71687000  1.0
  O  O199  1  0.09654000  0.73601000  0.79957000  1.0
  O  O200  1  0.22615000  0.71704000  0.66305000  1.0
  O  O201  1  0.35891000  0.60279000  0.80855000  1.0
  O  O202  1  0.25243000  0.59019000  0.79914000  1.0
  O  O203  1  0.50103000  0.99858000  0.00039000  1.0
  O  O204  1  0.50879000  0.15441000  0.95035000  1.0
  O  O205  1  0.38184000  0.00105000  0.94319000  1.0
  O  O206  1  0.65269000  0.88573000  0.94800000  1.0
  O  O207  1  0.39342000  0.15386000  0.94713000  1.0
  O  O208  1  0.65687000  0.99994000  0.94745000  1.0
  O  O209  1  0.49020000  0.89099000  0.94210000  1.0
  O  O210  1  0.57170000  0.81488000  0.02305000  1.0
  O  O211  1  0.53624000  0.02916000  0.08485000  1.0
  O  O212  1  0.52998000  0.87199000  0.08191000  1.0
  O  O213  1  0.59288000  0.08044000  0.02928000  1.0
  O  O214  1  0.31778000  0.08153000  0.02481000  1.0
  O  O215  1  0.37827000  0.02120000  0.08242000  1.0
  F  F216  1  0.29095000  0.51666000  0.41301000  1.0
  F  F217  1  0.78507000  0.54598000  0.66142000  1.0
  F  F218  1  0.04294000  0.27416000  0.65468000  1.0
  F  F219  1  0.77698000  0.78293000  0.40565000  1.0
  F  F220  1  0.69975000  0.47119000  0.09385000  1.0
  F  F221  1  0.09874000  0.09005000  0.21968000  1.0
  F  F222  1  0.46503000  0.47350000  0.85396000  1.0
  F  F223  1  0.96617000  0.71471000  0.84438000  1.0
