# generated using pymatgen
data_Cd3P2H20C16N6(ClO5)2
_symmetry_space_group_name_H-M   'P 1'
_cell_length_a   7.72184000
_cell_length_b   9.34466000
_cell_length_c   10.09690000
_cell_angle_alpha   89.40720000
_cell_angle_beta   76.97400000
_cell_angle_gamma   69.35200000
_symmetry_Int_Tables_number   1
_chemical_formula_structural   Cd3P2H20C16N6(ClO5)2
_chemical_formula_sum   'Cd3 P2 H20 C16 N6 Cl2 O10'
_cell_volume   662.31568117
_cell_formula_units_Z   1
loop_
 _symmetry_equiv_pos_site_id
 _symmetry_equiv_pos_as_xyz
  1  'x, y, z'
loop_
 _atom_site_type_symbol
 _atom_site_label
 _atom_site_symmetry_multiplicity
 _atom_site_fract_x
 _atom_site_fract_y
 _atom_site_fract_z
 _atom_site_occupancy
  Cd  Cd0  1  0.50000000  0.00000000  0.50000000  1.0
  Cd  Cd1  1  0.69904000  0.33549000  0.49048000  1.0
  Cd  Cd2  1  0.30096000  0.66451000  0.50951000  1.0
  P  P3  1  0.65183000  0.66623000  0.68430000  1.0
  P  P4  1  0.34817000  0.33377000  0.31570000  1.0
  H  H5  1  0.92889000  0.40166000  0.62515000  1.0
  H  H6  1  0.07111000  0.59834000  0.37485000  1.0
  H  H7  1  0.08817000  0.27459000  0.50473000  1.0
  H  H8  1  0.91183000  0.72541000  0.49527000  1.0
  H  H9  1  0.95722000  0.44001000  0.28629000  1.0
  H  H10  1  0.04278000  0.55999000  0.71371000  1.0
  H  H11  1  0.73949000  0.54789000  0.29834000  1.0
  H  H12  1  0.26051000  0.45211000  0.70166000  1.0
  H  H13  1  0.48843000  0.97150000  0.83162000  1.0
  H  H14  1  0.51157000  0.02850000  0.16838000  1.0
  H  H15  1  0.23857000  0.07956000  0.04331000  1.0
  H  H16  1  0.76143000  0.92044000  0.95669000  1.0
  H  H17  1  0.18443000  0.63678000  0.10065000  1.0
  H  H18  1  0.81557000  0.36323000  0.89935000  1.0
  H  H19  1  0.42055000  0.53451000  0.88149000  1.0
  H  H20  1  0.57945000  0.46549000  0.11851000  1.0
  H  H21  1  0.85596000  0.80923000  0.20660000  1.0
  H  H22  1  0.14404000  0.19077000  0.79340000  1.0
  H  H23  1  0.13959000  0.10418000  0.28322000  1.0
  H  H24  1  0.86041000  0.89582000  0.71678000  1.0
  C  C25  1  0.47302000  0.74509000  0.84200000  1.0
  C  C26  1  0.52698000  0.25491000  0.15800000  1.0
  C  C27  1  0.42272000  0.89765000  0.89017000  1.0
  C  C28  1  0.57728000  0.10235000  0.10983000  1.0
  C  C29  1  0.28266000  0.95893000  0.00936000  1.0
  C  C30  1  0.71734000  0.04107000  0.99065000  1.0
  C  C31  1  0.19602000  0.86524000  0.08335000  1.0
  C  C32  1  0.80398000  0.13476000  0.91665000  1.0
  C  C33  1  0.24659000  0.71145000  0.03954000  1.0
  C  C34  1  0.75341000  0.28855000  0.96047000  1.0
  C  C35  1  0.38322000  0.65327000  0.91791000  1.0
  C  C36  1  0.61677000  0.34673000  0.08209000  1.0
  C  C37  1  0.88864000  0.89924000  0.25003000  1.0
  C  C38  1  0.11136000  0.10076000  0.74997000  1.0
  C  C39  1  0.03224000  0.05285000  0.28691000  1.0
  C  C40  1  0.96776000  0.94715000  0.71309000  1.0
  N  N41  1  0.86824000  0.09271000  0.37774000  1.0
  N  N42  1  0.13176000  0.90729000  0.62226000  1.0
  N  N43  1  0.77769000  0.99652000  0.35417000  1.0
  N  N44  1  0.22231000  0.00348000  0.64583000  1.0
  N  N45  1  0.04951000  0.93190000  0.20296000  1.0
  N  N46  1  0.95049000  0.06810000  0.79704000  1.0
  Cl  Cl47  1  0.50391000  0.21472000  0.67811000  1.0
  Cl  Cl48  1  0.49609000  0.78527000  0.32189000  1.0
  O  O49  1  0.56633000  0.57976000  0.60215000  1.0
  O  O50  1  0.43367000  0.42024000  0.39785000  1.0
  O  O51  1  0.83084000  0.55515000  0.72284000  1.0
  O  O52  1  0.16916000  0.44485000  0.27716000  1.0
  O  O53  1  0.69122000  0.80122000  0.61046000  1.0
  O  O54  1  0.30878000  0.19877000  0.38953000  1.0
  O  O55  1  0.96246000  0.30114000  0.57136000  1.0
  O  O56  1  0.03754000  0.69886000  0.42864000  1.0
  O  O57  1  0.82483000  0.44041000  0.29411000  1.0
  O  O58  1  0.17517000  0.55959000  0.70589000  1.0
