# generated using pymatgen
data_Cu2H10C19N7O8
_symmetry_space_group_name_H-M   'P 1'
_cell_length_a   8.81942000
_cell_length_b   11.01390000
_cell_length_c   11.24020000
_cell_angle_alpha   80.77400000
_cell_angle_beta   71.86550000
_cell_angle_gamma   67.79030000
_symmetry_Int_Tables_number   1
_chemical_formula_structural   Cu2H10C19N7O8
_chemical_formula_sum   'Cu4 H20 C38 N14 O16'
_cell_volume   959.48385629
_cell_formula_units_Z   2
loop_
 _symmetry_equiv_pos_site_id
 _symmetry_equiv_pos_as_xyz
  1  'x, y, z'
loop_
 _atom_site_type_symbol
 _atom_site_label
 _atom_site_symmetry_multiplicity
 _atom_site_fract_x
 _atom_site_fract_y
 _atom_site_fract_z
 _atom_site_occupancy
  Cu  Cu0  1  0.12474000  0.29322000  0.17090000  1.0
  Cu  Cu1  1  0.87526000  0.70678000  0.82910000  1.0
  Cu  Cu2  1  0.51968000  0.38763000  0.12227000  1.0
  Cu  Cu3  1  0.48032000  0.61237000  0.87773000  1.0
  H  H4  1  0.07635000  0.64263000  0.40098000  1.0
  H  H5  1  0.92366000  0.35737000  0.59901000  1.0
  H  H6  1  0.14300000  0.92743000  0.01518000  1.0
  H  H7  1  0.85700000  0.07257000  0.98482000  1.0
  H  H8  1  0.17681000  0.13359000  0.42235000  1.0
  H  H9  1  0.82318000  0.86642000  0.57765000  1.0
  H  H10  1  0.52562000  0.31570000  0.41246000  1.0
  H  H11  1  0.47438000  0.68430000  0.58754000  1.0
  H  H12  1  0.27842000  0.99419000  0.57415000  1.0
  H  H13  1  0.72157000  0.00582000  0.42585000  1.0
  H  H14  1  0.26816000  0.92319000  0.79889000  1.0
  H  H15  1  0.73183000  0.07681000  0.20111000  1.0
  H  H16  1  0.32792000  0.05852000  0.92831000  1.0
  H  H17  1  0.67207000  0.94148000  0.07169000  1.0
  H  H18  1  0.46030000  0.15609000  0.00356000  1.0
  H  H19  1  0.53969000  0.84391000  0.99645000  1.0
  H  H20  1  0.38298000  0.44599000  0.71030000  1.0
  H  H21  1  0.61703000  0.55400000  0.28970000  1.0
  H  H22  1  0.09222000  0.81291000  0.61184000  1.0
  H  H23  1  0.90777000  0.18709000  0.38816000  1.0
  C  C24  1  0.14186000  0.90234000  0.20884000  1.0
  C  C25  1  0.85815000  0.09766000  0.79117000  1.0
  C  C26  1  0.12789000  0.81883000  0.31784000  1.0
  C  C27  1  0.87211000  0.18117000  0.68216000  1.0
  C  C28  1  0.09004000  0.70621000  0.31633000  1.0
  C  C29  1  0.90996000  0.29379000  0.68367000  1.0
  C  C30  1  0.07342000  0.67104000  0.20822000  1.0
  C  C31  1  0.92659000  0.32895000  0.79178000  1.0
  C  C32  1  0.09625000  0.75066000  0.09760000  1.0
  C  C33  1  0.90376000  0.24934000  0.90239000  1.0
  C  C34  1  0.12683000  0.86566000  0.10082000  1.0
  C  C35  1  0.87316000  0.13435000  0.89919000  1.0
  C  C36  1  0.18063000  0.02734000  0.19431000  1.0
  C  C37  1  0.81937000  0.97266000  0.80570000  1.0
  C  C38  1  0.15365000  0.84921000  0.43225000  1.0
  C  C39  1  0.84634000  0.15079000  0.56775000  1.0
  C  C40  1  0.04234000  0.54397000  0.21598000  1.0
  C  C41  1  0.95766000  0.45603000  0.78402000  1.0
  C  C42  1  0.08670000  0.72135000  0.97367000  1.0
  C  C43  1  0.91330000  0.27865000  0.02633000  1.0
  C  C44  1  0.25650000  0.19290000  0.39188000  1.0
  C  C45  1  0.74350000  0.80710000  0.60813000  1.0
  C  C46  1  0.43680000  0.28673000  0.38565000  1.0
  C  C47  1  0.56321000  0.71327000  0.61435000  1.0
  C  C48  1  0.35024000  0.15925000  0.58509000  1.0
  C  C49  1  0.64976000  0.84075000  0.41491000  1.0
  C  C50  1  0.30749000  0.04799000  0.63227000  1.0
  C  C51  1  0.69250000  0.95201000  0.36773000  1.0
  C  C52  1  0.30165000  0.00956000  0.75765000  1.0
  C  C53  1  0.69834000  0.99045000  0.24235000  1.0
  C  C54  1  0.33596000  0.08275000  0.82935000  1.0
  C  C55  1  0.66404000  0.91724000  0.17065000  1.0
  C  C56  1  0.37923000  0.19097000  0.76933000  1.0
  C  C57  1  0.62076000  0.80903000  0.23067000  1.0
  C  C58  1  0.45485000  0.24593000  0.94647000  1.0
  C  C59  1  0.54515000  0.75407000  0.05354000  1.0
  C  C60  1  0.41795000  0.39561000  0.79397000  1.0
  C  C61  1  0.58205000  0.60439000  0.20603000  1.0
  N  N62  1  0.28054000  0.25840000  0.28318000  1.0
  N  N63  1  0.71945000  0.74160000  0.71682000  1.0
  N  N64  1  0.39755000  0.31631000  0.27762000  1.0
  N  N65  1  0.60245000  0.68369000  0.72238000  1.0
  N  N66  1  0.35104000  0.20848000  0.45966000  1.0
  N  N67  1  0.64896000  0.79152000  0.54034000  1.0
  N  N68  1  0.38926000  0.22881000  0.64943000  1.0
  N  N69  1  0.61074000  0.77119000  0.35057000  1.0
  N  N70  1  0.41388000  0.27254000  0.83484000  1.0
  N  N71  1  0.58612000  0.72746000  0.16516000  1.0
  N  N72  1  0.48527000  0.34601000  0.97145000  1.0
  N  N73  1  0.51473000  0.65400000  0.02855000  1.0
  N  N74  1  0.46163000  0.44108000  0.87467000  1.0
  N  N75  1  0.53838000  0.55891000  0.12532000  1.0
  O  O76  1  0.06218000  0.13128000  0.24663000  1.0
  O  O77  1  0.93781000  0.86872000  0.75337000  1.0
  O  O78  1  0.32060000  0.02715000  0.12157000  1.0
  O  O79  1  0.67940000  0.97285000  0.87843000  1.0
  O  O80  1  0.20167000  0.93969000  0.43650000  1.0
  O  O81  1  0.79833000  0.06031000  0.56351000  1.0
  O  O82  1  0.11939000  0.76929000  0.53230000  1.0
  O  O83  1  0.88060000  0.23070000  0.46770000  1.0
  O  O84  1  0.94099000  0.51391000  0.31069000  1.0
  O  O85  1  0.05901000  0.48608000  0.68931000  1.0
  O  O86  1  0.13604000  0.46962000  0.12250000  1.0
  O  O87  1  0.86397000  0.53038000  0.87750000  1.0
  O  O88  1  0.94537000  0.71058000  0.97727000  1.0
  O  O89  1  0.05464000  0.28942000  0.02273000  1.0
  O  O90  1  0.20905000  0.71732000  0.87766000  1.0
  O  O91  1  0.79096000  0.28268000  0.12234000  1.0
