# generated using pymatgen
data_ZnH9(C3O)5
_symmetry_space_group_name_H-M   'P 1'
_cell_length_a   7.87015000
_cell_length_b   14.01080000
_cell_length_c   14.01080000
_cell_angle_alpha   73.50510000
_cell_angle_beta   77.69650000
_cell_angle_gamma   77.69700000
_symmetry_Int_Tables_number   1
_chemical_formula_structural   ZnH9(C3O)5
_chemical_formula_sum   'Zn4 H36 C60 O20'
_cell_volume   1428.00088209
_cell_formula_units_Z   4
loop_
 _symmetry_equiv_pos_site_id
 _symmetry_equiv_pos_as_xyz
  1  'x, y, z'
loop_
 _atom_site_type_symbol
 _atom_site_label
 _atom_site_symmetry_multiplicity
 _atom_site_fract_x
 _atom_site_fract_y
 _atom_site_fract_z
 _atom_site_occupancy
  Zn  Zn0  1  0.99133000  0.26728000  0.20485000  1.0
  Zn  Zn1  1  0.50867000  0.79515000  0.73272000  1.0
  Zn  Zn2  1  0.00867000  0.73272000  0.79515000  1.0
  Zn  Zn3  1  0.49133000  0.20485000  0.26728000  1.0
  H  H4  1  0.15094000  0.54117000  0.04149000  1.0
  H  H5  1  0.56045000  0.71475000  0.00909000  1.0
  H  H6  1  0.52142000  0.44272000  0.24882000  1.0
  H  H7  1  0.78388000  0.46153000  0.25242000  1.0
  H  H8  1  0.63428000  0.54850000  0.31457000  1.0
  H  H9  1  0.95808000  0.43710000  0.38846000  1.0
  H  H10  1  0.19807000  0.48932000  0.43721000  1.0
  H  H11  1  0.11907000  0.77508000  0.21822000  1.0
  H  H12  1  0.88120000  0.72030000  0.16785000  1.0
  H  H13  1  0.34906000  0.95850000  0.45884000  1.0
  H  H14  1  0.93955000  0.99091000  0.28525000  1.0
  H  H15  1  0.97857000  0.75118000  0.55728000  1.0
  H  H16  1  0.71612000  0.74758000  0.53847000  1.0
  H  H17  1  0.86572000  0.68543000  0.45150000  1.0
  H  H18  1  0.54192000  0.61154000  0.56291000  1.0
  H  H19  1  0.30193000  0.56279000  0.51068000  1.0
  H  H20  1  0.38093000  0.78178000  0.22493000  1.0
  H  H21  1  0.61880000  0.83215000  0.27971000  1.0
  H  H22  1  0.84906000  0.45884000  0.95850000  1.0
  H  H23  1  0.43955000  0.28526000  0.99092000  1.0
  H  H24  1  0.47857000  0.55728000  0.75118000  1.0
  H  H25  1  0.21612000  0.53847000  0.74757000  1.0
  H  H26  1  0.36572000  0.45150000  0.68543000  1.0
  H  H27  1  0.04192000  0.56291000  0.61154000  1.0
  H  H28  1  0.80193000  0.51068000  0.56279000  1.0
  H  H29  1  0.88093000  0.22492000  0.78179000  1.0
  H  H30  1  0.11880000  0.27971000  0.83215000  1.0
  H  H31  1  0.65095000  0.04149000  0.54117000  1.0
  H  H32  1  0.06046000  0.00908000  0.71475000  1.0
  H  H33  1  0.02142000  0.24882000  0.44272000  1.0
  H  H34  1  0.28388000  0.25242000  0.46153000  1.0
  H  H35  1  0.13428000  0.31456000  0.54850000  1.0
  H  H36  1  0.45809000  0.38846000  0.43709000  1.0
  H  H37  1  0.69807000  0.43721000  0.48932000  1.0
  H  H38  1  0.61907000  0.21821000  0.77508000  1.0
  H  H39  1  0.38120000  0.16785000  0.72029000  1.0
  C  C40  1  0.24677000  0.39152000  0.19992000  1.0
  C  C41  1  0.32945000  0.48323000  0.14975000  1.0
  C  C42  1  0.26413000  0.55251000  0.06735000  1.0
  C  C43  1  0.34778000  0.63586000  0.01679000  1.0
  C  C44  1  0.49421000  0.65045000  0.04911000  1.0
  C  C45  1  0.55687000  0.58197000  0.13344000  1.0
  C  C46  1  0.47470000  0.49798000  0.18393000  1.0
  C  C47  1  0.28295000  0.70628000  0.92501000  1.0
  C  C48  1  0.74872000  0.54158000  0.25397000  1.0
  C  C49  1  0.90043000  0.57602000  0.27602000  1.0
  C  C50  1  0.99194000  0.51201000  0.35174000  1.0
  C  C51  1  0.12803000  0.54185000  0.37920000  1.0
  C  C52  1  0.17806000  0.63698000  0.33217000  1.0
  C  C53  1  0.08630000  0.70016000  0.25552000  1.0
  C  C54  1  0.95026000  0.67017000  0.22752000  1.0
  C  C55  1  0.25325000  0.80009000  0.60848000  1.0
  C  C56  1  0.17054000  0.85025000  0.51677000  1.0
  C  C57  1  0.23587000  0.93265000  0.44749000  1.0
  C  C58  1  0.15221000  0.98321000  0.36414000  1.0
  C  C59  1  0.00580000  0.95089000  0.34955000  1.0
  C  C60  1  0.94313000  0.86656000  0.41803000  1.0
  C  C61  1  0.02531000  0.81607000  0.50202000  1.0
  C  C62  1  0.21708000  0.07499000  0.29374000  1.0
  C  C63  1  0.75128000  0.74603000  0.45842000  1.0
  C  C64  1  0.59956000  0.72398000  0.42399000  1.0
  C  C65  1  0.50806000  0.64826000  0.48799000  1.0
  C  C66  1  0.37197000  0.62079000  0.45815000  1.0
  C  C67  1  0.32193000  0.66783000  0.36302000  1.0
  C  C68  1  0.41369000  0.74448000  0.29985000  1.0
  C  C69  1  0.54974000  0.77249000  0.32983000  1.0
  C  C70  1  0.75322000  0.60849000  0.80007000  1.0
  C  C71  1  0.67054000  0.51677000  0.85025000  1.0
  C  C72  1  0.73587000  0.44750000  0.93265000  1.0
  C  C73  1  0.65222000  0.36415000  0.98321000  1.0
  C  C74  1  0.50580000  0.34955000  0.95089000  1.0
  C  C75  1  0.44313000  0.41803000  0.86656000  1.0
  C  C76  1  0.52530000  0.50202000  0.81607000  1.0
  C  C77  1  0.71706000  0.29373000  0.07499000  1.0
  C  C78  1  0.25128000  0.45842000  0.74603000  1.0
  C  C79  1  0.09956000  0.42398000  0.72398000  1.0
  C  C80  1  0.00806000  0.48799000  0.64826000  1.0
  C  C81  1  0.87197000  0.45814000  0.62080000  1.0
  C  C82  1  0.82193000  0.36302000  0.66783000  1.0
  C  C83  1  0.91370000  0.29984000  0.74449000  1.0
  C  C84  1  0.04974000  0.32983000  0.77249000  1.0
  C  C85  1  0.74675000  0.19991000  0.39152000  1.0
  C  C86  1  0.82946000  0.14975000  0.48323000  1.0
  C  C87  1  0.76413000  0.06734000  0.55251000  1.0
  C  C88  1  0.84779000  0.01679000  0.63586000  1.0
  C  C89  1  0.99420000  0.04911000  0.65045000  1.0
  C  C90  1  0.05687000  0.13344000  0.58197000  1.0
  C  C91  1  0.97469000  0.18393000  0.49798000  1.0
  C  C92  1  0.78292000  0.92501000  0.70626000  1.0
  C  C93  1  0.24872000  0.25397000  0.54158000  1.0
  C  C94  1  0.40044000  0.27602000  0.57601000  1.0
  C  C95  1  0.49194000  0.35173000  0.51201000  1.0
  C  C96  1  0.62803000  0.37920000  0.54186000  1.0
  C  C97  1  0.67806000  0.33217000  0.63698000  1.0
  C  C98  1  0.58630000  0.25552000  0.70016000  1.0
  C  C99  1  0.45026000  0.22751000  0.67017000  1.0
  O  O100  1  0.11368000  0.38330000  0.16599000  1.0
  O  O101  1  0.30997000  0.32586000  0.27360000  1.0
  O  O102  1  0.13421000  0.69711000  0.90978000  1.0
  O  O103  1  0.37949000  0.77056000  0.86935000  1.0
  O  O104  1  0.69955000  0.60242000  0.16011000  1.0
  O  O105  1  0.38630000  0.83400000  0.61670000  1.0
  O  O106  1  0.19002000  0.72639000  0.67414000  1.0
  O  O107  1  0.36577000  0.09022000  0.30289000  1.0
  O  O108  1  0.12049000  0.13066000  0.22943000  1.0
  O  O109  1  0.80045000  0.83989000  0.39758000  1.0
  O  O110  1  0.88632000  0.61671000  0.83401000  1.0
  O  O111  1  0.69003000  0.67414000  0.72640000  1.0
  O  O112  1  0.86579000  0.30289000  0.09022000  1.0
  O  O113  1  0.62050000  0.22944000  0.13066000  1.0
  O  O114  1  0.30045000  0.39758000  0.83989000  1.0
  O  O115  1  0.61368000  0.16600000  0.38330000  1.0
  O  O116  1  0.80997000  0.27360000  0.32586000  1.0
  O  O117  1  0.63425000  0.90978000  0.69712000  1.0
  O  O118  1  0.87954000  0.86934000  0.77057000  1.0
  O  O119  1  0.19955000  0.16011000  0.60242000  1.0
