# generated using pymatgen
data_Al2H11C22O10F3
_symmetry_space_group_name_H-M   'P 1'
_cell_length_a   6.69975000
_cell_length_b   11.07300000
_cell_length_c   15.17688891
_cell_angle_alpha   92.91066723
_cell_angle_beta   99.99080034
_cell_angle_gamma   106.39060000
_symmetry_Int_Tables_number   1
_chemical_formula_structural   Al2H11C22O10F3
_chemical_formula_sum   'Al2 H11 C22 O10 F3'
_cell_volume   1057.83728502
_cell_formula_units_Z   1
loop_
 _symmetry_equiv_pos_site_id
 _symmetry_equiv_pos_as_xyz
  1  'x, y, z'
loop_
 _atom_site_type_symbol
 _atom_site_label
 _atom_site_symmetry_multiplicity
 _atom_site_fract_x
 _atom_site_fract_y
 _atom_site_fract_z
 _atom_site_occupancy
  Al  Al0  1  0.99063000  0.49427000  0.49869000  1.0
  Al  Al1  1  0.49186000  0.49296000  0.50164000  1.0
  H  H2  1  0.33519000  0.63895000  0.56629000  1.0
  H  H3  1  0.65807000  0.42114000  0.38990000  1.0
  H  H4  1  0.37022000  0.10051000  0.50013000  1.0
  H  H5  1  0.74379000  0.12762000  0.50429000  1.0
  H  H6  1  0.23467000  0.86583000  0.50360000  1.0
  H  H7  1  0.29264000  0.41714000  0.04882000  1.0
  H  H8  1  0.65445000  0.48907000  0.95043000  1.0
  H  H9  1  0.18061000  0.49579000  0.75714000  1.0
  H  H10  1  0.29560000  0.51239000  0.92234000  1.0
  H  H11  1  0.89871000  0.59717000  0.24173000  1.0
  H  H12  1  0.81799000  0.60506000  0.07700000  1.0
  C  C13  1  0.80680000  0.48326000  0.65982000  1.0
  C  C14  1  0.84553000  0.72351000  0.50805000  1.0
  C  C15  1  0.18017000  0.50399000  0.33864000  1.0
  C  C16  1  0.13950000  0.26785000  0.49731000  1.0
  C  C17  1  0.91643000  0.86398000  0.50710000  1.0
  C  C18  1  0.06520000  0.12809000  0.50140000  1.0
  C  C19  1  0.78222000  0.94100000  0.50788000  1.0
  C  C20  1  0.20466000  0.05456000  0.50207000  1.0
  C  C21  1  0.85236000  0.07065000  0.50448000  1.0
  C  C22  1  0.12964000  0.92462000  0.50433000  1.0
  C  C23  1  0.14517000  0.50972000  0.23932000  1.0
  C  C24  1  0.85913000  0.48673000  0.75974000  1.0
  C  C25  1  0.25676000  0.46357000  0.18210000  1.0
  C  C26  1  0.20805000  0.46163000  0.08919000  1.0
  C  C27  1  0.71624000  0.48582000  0.81727000  1.0
  C  C28  1  0.77540000  0.49365000  0.91010000  1.0
  C  C29  1  0.06795000  0.49499000  0.80091000  1.0
  C  C30  1  0.13065000  0.50323000  0.89362000  1.0
  C  C31  1  0.98574000  0.55994000  0.19824000  1.0
  C  C32  1  0.93869000  0.56210000  0.10581000  1.0
  C  C33  1  0.04593000  0.51014000  0.04913000  1.0
  C  C34  1  0.98515000  0.50305000  0.95027000  1.0
  O  O35  1  0.94967000  0.46959000  0.61821000  1.0
  O  O36  1  0.64820000  0.66886000  0.50077000  1.0
  O  O37  1  0.35275000  0.48698000  0.37744000  1.0
  O  O38  1  0.99637000  0.32349000  0.48396000  1.0
  O  O39  1  0.02981000  0.51570000  0.37655000  1.0
  O  O40  1  0.33809000  0.31996000  0.50650000  1.0
  O  O41  1  0.63012000  0.49733000  0.62361000  1.0
  O  O42  1  0.99104000  0.66884000  0.51588000  1.0
  O  O43  1  0.28372000  0.55075000  0.54165000  1.0
  O  O44  1  0.69815000  0.44115000  0.45474000  1.0
  F  F45  1  0.57481000  0.89054000  0.51284000  1.0
  F  F46  1  0.41362000  0.41287000  0.21546000  1.0
  F  F47  1  0.50960000  0.47444000  0.78370000  1.0
