# generated using pymatgen
data_CsH4C4N11O
_symmetry_space_group_name_H-M   'P 1'
_cell_length_a   8.87462000
_cell_length_b   10.55420000
_cell_length_c   11.38750000
_cell_angle_alpha   97.84010000
_cell_angle_beta   104.86800000
_cell_angle_gamma   90.78320000
_symmetry_Int_Tables_number   1
_chemical_formula_structural   CsH4C4N11O
_chemical_formula_sum   'Cs4 H16 C16 N44 O4'
_cell_volume   1019.93782780
_cell_formula_units_Z   4
loop_
 _symmetry_equiv_pos_site_id
 _symmetry_equiv_pos_as_xyz
  1  'x, y, z'
loop_
 _atom_site_type_symbol
 _atom_site_label
 _atom_site_symmetry_multiplicity
 _atom_site_fract_x
 _atom_site_fract_y
 _atom_site_fract_z
 _atom_site_occupancy
  Cs  Cs0  1  0.51650000  0.30594000  0.01618000  1.0
  Cs  Cs1  1  0.48350000  0.69406000  0.98381000  1.0
  Cs  Cs2  1  0.20619000  0.05551000  0.10396000  1.0
  Cs  Cs3  1  0.79381000  0.94449000  0.89604000  1.0
  H  H4  1  0.87867000  0.29995000  0.03779000  1.0
  H  H5  1  0.12133000  0.70005000  0.96221000  1.0
  H  H6  1  0.90549000  0.23207000  0.15601000  1.0
  H  H7  1  0.09450000  0.76793000  0.84399000  1.0
  H  H8  1  0.80657000  0.48104000  0.91411000  1.0
  H  H9  1  0.19343000  0.51896000  0.08589000  1.0
  H  H10  1  0.87475000  0.52592000  0.05499000  1.0
  H  H11  1  0.12525000  0.47408000  0.94500000  1.0
  H  H12  1  0.91622000  0.38429000  0.67356000  1.0
  H  H13  1  0.08378000  0.61571000  0.32644000  1.0
  H  H14  1  0.24128000  0.00251000  0.55707000  1.0
  H  H15  1  0.75872000  0.99749000  0.44293000  1.0
  H  H16  1  0.16435000  0.60924000  0.57797000  1.0
  H  H17  1  0.83565000  0.39076000  0.42203000  1.0
  H  H18  1  0.50102000  0.23762000  0.45763000  1.0
  H  H19  1  0.49898000  0.76238000  0.54237000  1.0
  C  C20  1  0.04410000  0.19836000  0.52012000  1.0
  C  C21  1  0.95591000  0.80164000  0.47989000  1.0
  C  C22  1  0.06279000  0.22048000  0.65098000  1.0
  C  C23  1  0.93721000  0.77952000  0.34903000  1.0
  C  C24  1  0.15141000  0.16139000  0.74718000  1.0
  C  C25  1  0.84859000  0.83861000  0.25282000  1.0
  C  C26  1  0.25320000  0.05642000  0.74771000  1.0
  C  C27  1  0.74680000  0.94358000  0.25229000  1.0
  C  C28  1  0.30017000  0.42996000  0.42372000  1.0
  C  C29  1  0.69983000  0.57004000  0.57628000  1.0
  C  C30  1  0.31364000  0.44709000  0.55387000  1.0
  C  C31  1  0.68637000  0.55291000  0.44613000  1.0
  C  C32  1  0.39754000  0.38347000  0.64846000  1.0
  C  C33  1  0.60246000  0.61653000  0.35154000  1.0
  C  C34  1  0.49994000  0.27870000  0.64697000  1.0
  C  C35  1  0.50006000  0.72130000  0.35303000  1.0
  N  N36  1  0.11610000  0.10653000  0.46319000  1.0
  N  N37  1  0.88390000  0.89347000  0.53681000  1.0
  N  N38  1  0.07186000  0.11968000  0.34399000  1.0
  N  N39  1  0.92814000  0.88032000  0.65601000  1.0
  N  N40  1  0.97737000  0.21548000  0.32906000  1.0
  N  N41  1  0.02263000  0.78452000  0.67094000  1.0
  N  N42  1  0.95768000  0.26741000  0.43837000  1.0
  N  N43  1  0.04232000  0.73259000  0.56163000  1.0
  N  N44  1  0.99653000  0.31591000  0.70916000  1.0
  N  N45  1  0.00347000  0.68409000  0.29084000  1.0
  N  N46  1  0.03976000  0.31781000  0.83136000  1.0
  N  N47  1  0.96024000  0.68219000  0.16864000  1.0
  N  N48  1  0.13363000  0.22439000  0.85550000  1.0
  N  N49  1  0.86636000  0.77561000  0.14450000  1.0
  N  N50  1  0.33556000  0.01173000  0.84818000  1.0
  N  N51  1  0.66444000  0.98827000  0.15182000  1.0
  N  N52  1  0.41561000  0.91508000  0.80643000  1.0
  N  N53  1  0.58439000  0.08492000  0.19357000  1.0
  N  N54  1  0.38650000  0.89969000  0.68684000  1.0
  N  N55  1  0.61350000  0.10031000  0.31316000  1.0
  N  N56  1  0.28496000  0.98787000  0.64888000  1.0
  N  N57  1  0.71504000  0.01213000  0.35112000  1.0
  N  N58  1  0.37353000  0.34047000  0.36548000  1.0
  N  N59  1  0.62647000  0.65953000  0.63452000  1.0
  N  N60  1  0.33066000  0.35678000  0.24691000  1.0
  N  N61  1  0.66934000  0.64322000  0.75309000  1.0
  N  N62  1  0.23565000  0.45238000  0.23397000  1.0
  N  N63  1  0.76435000  0.54762000  0.76603000  1.0
  N  N64  1  0.21420000  0.50057000  0.34342000  1.0
  N  N65  1  0.78580000  0.49943000  0.65658000  1.0
  N  N66  1  0.24005000  0.53741000  0.61208000  1.0
  N  N67  1  0.75995000  0.46259000  0.38792000  1.0
  N  N68  1  0.27426000  0.53179000  0.73309000  1.0
  N  N69  1  0.72574000  0.46821000  0.26691000  1.0
  N  N70  1  0.36946000  0.43906000  0.75621000  1.0
  N  N71  1  0.63054000  0.56094000  0.24379000  1.0
  N  N72  1  0.57298000  0.22474000  0.74476000  1.0
  N  N73  1  0.42702000  0.77526000  0.25524000  1.0
  N  N74  1  0.65827000  0.13278000  0.70207000  1.0
  N  N75  1  0.34173000  0.86722000  0.29793000  1.0
  N  N76  1  0.64038000  0.12792000  0.58396000  1.0
  N  N77  1  0.35962000  0.87208000  0.41604000  1.0
  N  N78  1  0.54117000  0.21872000  0.54831000  1.0
  N  N79  1  0.45883000  0.78127000  0.45169000  1.0
  O  O80  1  0.88653000  0.21485000  0.06573000  1.0
  O  O81  1  0.11347000  0.78515000  0.93427000  1.0
  O  O82  1  0.80749000  0.45821000  0.99606000  1.0
  O  O83  1  0.19251000  0.54179000  0.00394000  1.0
