# generated using pymatgen
data_Zn2H12C19N6O7
_symmetry_space_group_name_H-M   'P 1'
_cell_length_a   10.49720000
_cell_length_b   10.77140000
_cell_length_c   11.03580000
_cell_angle_alpha   79.54910000
_cell_angle_beta   69.50100000
_cell_angle_gamma   62.55230000
_symmetry_Int_Tables_number   1
_chemical_formula_structural   Zn2H12C19N6O7
_chemical_formula_sum   'Zn4 H24 C38 N12 O14'
_cell_volume   1036.93019654
_cell_formula_units_Z   2
loop_
 _symmetry_equiv_pos_site_id
 _symmetry_equiv_pos_as_xyz
  1  'x, y, z'
loop_
 _atom_site_type_symbol
 _atom_site_label
 _atom_site_symmetry_multiplicity
 _atom_site_fract_x
 _atom_site_fract_y
 _atom_site_fract_z
 _atom_site_occupancy
  Zn  Zn0  1  0.92074000  0.75157000  0.77178000  1.0
  Zn  Zn1  1  0.07926000  0.24842000  0.22823000  1.0
  Zn  Zn2  1  0.95149000  0.72745000  0.20361000  1.0
  Zn  Zn3  1  0.04850000  0.27255000  0.79639000  1.0
  H  H4  1  0.48369000  0.10730000  0.83781000  1.0
  H  H5  1  0.51630000  0.89270000  0.16219000  1.0
  H  H6  1  0.45788000  0.41682000  0.13714000  1.0
  H  H7  1  0.54212000  0.58317000  0.86287000  1.0
  H  H8  1  0.70341000  0.22134000  0.03260000  1.0
  H  H9  1  0.29658000  0.77865000  0.96740000  1.0
  H  H10  1  0.48633000  0.62599000  0.26542000  1.0
  H  H11  1  0.51368000  0.37400000  0.73457000  1.0
  H  H12  1  0.21624000  0.78682000  0.31989000  1.0
  H  H13  1  0.78376000  0.21318000  0.68010000  1.0
  H  H14  1  0.10686000  0.46357000  0.55546000  1.0
  H  H15  1  0.89314000  0.53644000  0.44454000  1.0
  H  H16  1  0.37560000  0.29984000  0.50003000  1.0
  H  H17  1  0.62441000  0.70016000  0.49997000  1.0
  H  H18  1  0.90089000  0.05143000  0.31968000  1.0
  H  H19  1  0.09911000  0.94857000  0.68031000  1.0
  H  H20  1  0.73866000  0.48970000  0.26963000  1.0
  H  H21  1  0.26134000  0.51031000  0.73038000  1.0
  H  H22  1  0.61812000  0.15147000  0.38923000  1.0
  H  H23  1  0.38189000  0.84853000  0.61077000  1.0
  H  H24  1  0.91432000  0.92929000  0.02848000  1.0
  H  H25  1  0.08568000  0.07071000  0.97152000  1.0
  H  H26  1  0.01611000  0.93264000  0.10807000  1.0
  H  H27  1  0.98389000  0.06736000  0.89192000  1.0
  C  C28  1  0.18459000  0.47375000  0.13338000  1.0
  C  C29  1  0.81540000  0.52625000  0.86661000  1.0
  C  C30  1  0.73603000  0.38847000  0.29334000  1.0
  C  C31  1  0.26397000  0.61153000  0.70667000  1.0
  C  C32  1  0.61276000  0.35766000  0.34276000  1.0
  C  C33  1  0.38724000  0.64234000  0.65725000  1.0
  C  C34  1  0.45217000  0.44993000  0.37686000  1.0
  C  C35  1  0.54783000  0.55008000  0.62314000  1.0
  C  C36  1  0.40388000  0.58906000  0.32867000  1.0
  C  C37  1  0.59613000  0.41094000  0.67132000  1.0
  C  C38  1  0.25158000  0.67988000  0.35884000  1.0
  C  C39  1  0.74843000  0.32012000  0.64116000  1.0
  C  C40  1  0.19042000  0.49746000  0.48967000  1.0
  C  C41  1  0.80958000  0.50254000  0.51033000  1.0
  C  C42  1  0.14296000  0.63494000  0.43965000  1.0
  C  C43  1  0.85705000  0.36506000  0.56035000  1.0
  C  C44  1  0.98201000  0.73226000  0.47031000  1.0
  C  C45  1  0.01800000  0.26774000  0.52969000  1.0
  C  C46  1  0.20290000  0.29711000  0.93588000  1.0
  C  C47  1  0.79709000  0.70290000  0.06412000  1.0
  C  C48  1  0.74860000  0.02108000  0.88018000  1.0
  C  C49  1  0.25140000  0.97892000  0.11982000  1.0
  C  C50  1  0.60707000  0.14793000  0.93342000  1.0
  C  C51  1  0.39293000  0.85208000  0.06658000  1.0
  C  C52  1  0.47691000  0.17436000  0.90507000  1.0
  C  C53  1  0.52308000  0.82564000  0.09492000  1.0
  C  C54  1  0.33819000  0.28171000  0.96566000  1.0
  C  C55  1  0.66180000  0.71828000  0.03435000  1.0
  C  C56  1  0.33058000  0.36546000  0.05477000  1.0
  C  C57  1  0.66941000  0.63454000  0.94523000  1.0
  C  C58  1  0.46380000  0.34664000  0.07352000  1.0
  C  C59  1  0.53620000  0.65335000  0.92648000  1.0
  C  C60  1  0.60107000  0.23766000  0.01476000  1.0
  C  C61  1  0.39893000  0.76234000  0.98524000  1.0
  C  C62  1  0.34295000  0.40558000  0.45808000  1.0
  C  C63  1  0.65705000  0.59442000  0.54193000  1.0
  C  C64  1  0.82573000  0.16174000  0.32058000  1.0
  C  C65  1  0.17428000  0.83826000  0.67942000  1.0
  N  N66  1  0.86652000  0.26635000  0.28083000  1.0
  N  N67  1  0.13348000  0.73366000  0.71917000  1.0
  N  N68  1  0.67407000  0.21289000  0.35867000  1.0
  N  N69  1  0.32593000  0.78712000  0.64133000  1.0
  N  N70  1  0.88962000  0.78986000  0.58524000  1.0
  N  N71  1  0.11039000  0.21014000  0.41476000  1.0
  N  N72  1  0.75352000  0.87667000  0.56815000  1.0
  N  N73  1  0.24648000  0.12333000  0.43185000  1.0
  N  N74  1  0.76167000  0.87226000  0.44835000  1.0
  N  N75  1  0.23833000  0.12773000  0.55165000  1.0
  N  N76  1  0.90443000  0.78166000  0.38396000  1.0
  N  N77  1  0.09558000  0.21833000  0.61604000  1.0
  O  O78  1  0.21713000  0.29640000  0.81503000  1.0
  O  O79  1  0.78287000  0.70360000  0.18497000  1.0
  O  O80  1  0.16553000  0.60073000  0.11666000  1.0
  O  O81  1  0.83447000  0.39927000  0.88334000  1.0
  O  O82  1  0.08702000  0.43779000  0.21667000  1.0
  O  O83  1  0.91297000  0.56222000  0.78333000  1.0
  O  O84  1  0.08543000  0.30370000  0.02553000  1.0
  O  O85  1  0.91456000  0.69631000  0.97447000  1.0
  O  O86  1  0.73603000  0.93163000  0.82955000  1.0
  O  O87  1  0.26397000  0.06836000  0.17046000  1.0
  O  O88  1  0.87357000  0.00414000  0.88925000  1.0
  O  O89  1  0.12642000  0.99586000  0.11076000  1.0
  O  O90  1  0.92965000  0.91260000  0.11503000  1.0
  O  O91  1  0.07035000  0.08740000  0.88497000  1.0
