# generated using pymatgen
data_Cu4SiH8(C7N2)4
_symmetry_space_group_name_H-M   'P 1'
_cell_length_a   27.53780000
_cell_length_b   27.69210000
_cell_length_c   28.84410000
_cell_angle_alpha   89.92470000
_cell_angle_beta   89.99640000
_cell_angle_gamma   89.92160000
_symmetry_Int_Tables_number   1
_chemical_formula_structural   Cu4SiH8(C7N2)4
_chemical_formula_sum   'Cu12 Si3 H24 C84 N24'
_cell_volume   21995.88005546
_cell_formula_units_Z   3
loop_
 _symmetry_equiv_pos_site_id
 _symmetry_equiv_pos_as_xyz
  1  'x, y, z'
loop_
 _atom_site_type_symbol
 _atom_site_label
 _atom_site_symmetry_multiplicity
 _atom_site_fract_x
 _atom_site_fract_y
 _atom_site_fract_z
 _atom_site_occupancy
  Cu  Cu0  1  0.76344000  0.76304000  0.83894000  1.0
  Cu  Cu1  1  0.84794000  0.76545000  0.76382000  1.0
  Cu  Cu2  1  0.76606000  0.84699000  0.76399000  1.0
  Cu  Cu3  1  0.76306000  0.23708000  0.16093000  1.0
  Cu  Cu4  1  0.84731000  0.23456000  0.23621000  1.0
  Cu  Cu5  1  0.76554000  0.15320000  0.23630000  1.0
  Cu  Cu6  1  0.23637000  0.76321000  0.16087000  1.0
  Cu  Cu7  1  0.15188000  0.76564000  0.23598000  1.0
  Cu  Cu8  1  0.23416000  0.84664000  0.23619000  1.0
  Cu  Cu9  1  0.23655000  0.23692000  0.83837000  1.0
  Cu  Cu10  1  0.15195000  0.23467000  0.76349000  1.0
  Cu  Cu11  1  0.23422000  0.15317000  0.76356000  1.0
  Si  Si12  1  0.00028000  0.00000000  0.50005000  1.0
  Si  Si13  1  0.00026000  0.49989000  0.00021000  1.0
  Si  Si14  1  0.50008000  0.00001000  0.00024000  1.0
  H  H15  1  0.79809000  0.67525000  0.90150000  1.0
  H  H16  1  0.91585000  0.68109000  0.80176000  1.0
  H  H17  1  0.68149000  0.91486000  0.80194000  1.0
  H  H18  1  0.67524000  0.79762000  0.90164000  1.0
  H  H19  1  0.91285000  0.80080000  0.67929000  1.0
  H  H20  1  0.80146000  0.91173000  0.67956000  1.0
  H  H21  1  0.79795000  0.32481000  0.09824000  1.0
  H  H22  1  0.91531000  0.31871000  0.19838000  1.0
  H  H23  1  0.68108000  0.08557000  0.19847000  1.0
  H  H24  1  0.67492000  0.20244000  0.09835000  1.0
  H  H25  1  0.91233000  0.19928000  0.32070000  1.0
  H  H26  1  0.80114000  0.08847000  0.32086000  1.0
  H  H27  1  0.20173000  0.67561000  0.09832000  1.0
  H  H28  1  0.08400000  0.68142000  0.19807000  1.0
  H  H29  1  0.31900000  0.91418000  0.19857000  1.0
  H  H30  1  0.32466000  0.79774000  0.09826000  1.0
  H  H31  1  0.08700000  0.80103000  0.32053000  1.0
  H  H32  1  0.19899000  0.91105000  0.32079000  1.0
  H  H33  1  0.20198000  0.32441000  0.90108000  1.0
  H  H34  1  0.08395000  0.31899000  0.80166000  1.0
  H  H35  1  0.31901000  0.08535000  0.80159000  1.0
  H  H36  1  0.32472000  0.20244000  0.90119000  1.0
  H  H37  1  0.08716000  0.19924000  0.67903000  1.0
  H  H38  1  0.19885000  0.08863000  0.67931000  1.0
  C  C39  1  0.82248000  0.68300000  0.87291000  1.0
  C  C40  1  0.86784000  0.66191000  0.86246000  1.0
  C  C41  1  0.88287000  0.68598000  0.82178000  1.0
  C  C42  1  0.68632000  0.88203000  0.82198000  1.0
  C  C43  1  0.66214000  0.86716000  0.86269000  1.0
  C  C44  1  0.68311000  0.82190000  0.87308000  1.0
  C  C45  1  0.88158000  0.82370000  0.68569000  1.0
  C  C46  1  0.86770000  0.86681000  0.66314000  1.0
  C  C47  1  0.82446000  0.88057000  0.68585000  1.0
  C  C48  1  0.82222000  0.31698000  0.12691000  1.0
  C  C49  1  0.86755000  0.33794000  0.13747000  1.0
  C  C50  1  0.88241000  0.31387000  0.17823000  1.0
  C  C51  1  0.68592000  0.11831000  0.17831000  1.0
  C  C52  1  0.66178000  0.13309000  0.13753000  1.0
  C  C53  1  0.68278000  0.17824000  0.12699000  1.0
  C  C54  1  0.88108000  0.17641000  0.31441000  1.0
  C  C55  1  0.86733000  0.13335000  0.33707000  1.0
  C  C56  1  0.82406000  0.11960000  0.31447000  1.0
  C  C57  1  0.17732000  0.68338000  0.12687000  1.0
  C  C58  1  0.13202000  0.66230000  0.13737000  1.0
  C  C59  1  0.11694000  0.68635000  0.17800000  1.0
  C  C60  1  0.31403000  0.88156000  0.17836000  1.0
  C  C61  1  0.33809000  0.86687000  0.13754000  1.0
  C  C62  1  0.31691000  0.82184000  0.12694000  1.0
  C  C63  1  0.11842000  0.82371000  0.31424000  1.0
  C  C64  1  0.13249000  0.86656000  0.33698000  1.0
  C  C65  1  0.17583000  0.88012000  0.31437000  1.0
  C  C66  1  0.17751000  0.31678000  0.87256000  1.0
  C  C67  1  0.13211000  0.33789000  0.86227000  1.0
  C  C68  1  0.11699000  0.31399000  0.82159000  1.0
  C  C69  1  0.31405000  0.11814000  0.82159000  1.0
  C  C70  1  0.33809000  0.13299000  0.86235000  1.0
  C  C71  1  0.31699000  0.17818000  0.87265000  1.0
  C  C72  1  0.11850000  0.17642000  0.68543000  1.0
  C  C73  1  0.13249000  0.13340000  0.66289000  1.0
  C  C74  1  0.17577000  0.11971000  0.68559000  1.0
  C  C75  1  0.89289000  0.62681000  0.88799000  1.0
  C  C76  1  0.91507000  0.59734000  0.91175000  1.0
  C  C77  1  0.93996000  0.56604000  0.93863000  1.0
  C  C78  1  0.96290000  0.53803000  0.96360000  1.0
  C  C79  1  0.89266000  0.37298000  0.11200000  1.0
  C  C80  1  0.91487000  0.40243000  0.08829000  1.0
  C  C81  1  0.93984000  0.43374000  0.06155000  1.0
  C  C82  1  0.96289000  0.46179000  0.03677000  1.0
  C  C83  1  0.10710000  0.62715000  0.11195000  1.0
  C  C84  1  0.08507000  0.59758000  0.08830000  1.0
  C  C85  1  0.06034000  0.56613000  0.06157000  1.0
  C  C86  1  0.03756000  0.53797000  0.03676000  1.0
  C  C87  1  0.10714000  0.37293000  0.88787000  1.0
  C  C88  1  0.08505000  0.40238000  0.91166000  1.0
  C  C89  1  0.06031000  0.43371000  0.93858000  1.0
  C  C90  1  0.03754000  0.46178000  0.96357000  1.0
  C  C91  1  0.62706000  0.89227000  0.88828000  1.0
  C  C92  1  0.59765000  0.91456000  0.91206000  1.0
  C  C93  1  0.56642000  0.93964000  0.93888000  1.0
  C  C94  1  0.53846000  0.96282000  0.96371000  1.0
  C  C95  1  0.37316000  0.10789000  0.88805000  1.0
  C  C96  1  0.40256000  0.08558000  0.91187000  1.0
  C  C97  1  0.43380000  0.06048000  0.93874000  1.0
  C  C98  1  0.46175000  0.03729000  0.96362000  1.0
  C  C99  1  0.62674000  0.10796000  0.11201000  1.0
  C  C100  1  0.59735000  0.08558000  0.08835000  1.0
  C  C101  1  0.56615000  0.06044000  0.06162000  1.0
  C  C102  1  0.53824000  0.03724000  0.03683000  1.0
  C  C103  1  0.37321000  0.89196000  0.11201000  1.0
  C  C104  1  0.40265000  0.91428000  0.08830000  1.0
  C  C105  1  0.43391000  0.93941000  0.06156000  1.0
  C  C106  1  0.46187000  0.96264000  0.03678000  1.0
  C  C107  1  0.89211000  0.89128000  0.62763000  1.0
  C  C108  1  0.91425000  0.91358000  0.59753000  1.0
  C  C109  1  0.93940000  0.93895000  0.56564000  1.0
  C  C110  1  0.96276000  0.96257000  0.53713000  1.0
  C  C111  1  0.10816000  0.89099000  0.37254000  1.0
  C  C112  1  0.08612000  0.91331000  0.40268000  1.0
  C  C113  1  0.06107000  0.93874000  0.43459000  1.0
  C  C114  1  0.03778000  0.96242000  0.46309000  1.0
  C  C115  1  0.10815000  0.10892000  0.62740000  1.0
  C  C116  1  0.08615000  0.08654000  0.59732000  1.0
  C  C117  1  0.06112000  0.06110000  0.56546000  1.0
  C  C118  1  0.03784000  0.03744000  0.53699000  1.0
  C  C119  1  0.89187000  0.10890000  0.37256000  1.0
  C  C120  1  0.91406000  0.08659000  0.40266000  1.0
  C  C121  1  0.93927000  0.06119000  0.43455000  1.0
  C  C122  1  0.96269000  0.03755000  0.46303000  1.0
  N  N123  1  0.84918000  0.71874000  0.80945000  1.0
  N  N124  1  0.81179000  0.71690000  0.84112000  1.0
  N  N125  1  0.71707000  0.81114000  0.84125000  1.0
  N  N126  1  0.71905000  0.84838000  0.80959000  1.0
  N  N127  1  0.81388000  0.84831000  0.71918000  1.0
  N  N128  1  0.84925000  0.81309000  0.71908000  1.0
  N  N129  1  0.84868000  0.28122000  0.19049000  1.0
  N  N130  1  0.81140000  0.28313000  0.15869000  1.0
  N  N131  1  0.71671000  0.18903000  0.15881000  1.0
  N  N132  1  0.71865000  0.15191000  0.19061000  1.0
  N  N133  1  0.81334000  0.15182000  0.28111000  1.0
  N  N134  1  0.84866000  0.18701000  0.28107000  1.0
  N  N135  1  0.15054000  0.71910000  0.19027000  1.0
  N  N136  1  0.18794000  0.71727000  0.15859000  1.0
  N  N137  1  0.28294000  0.81105000  0.15875000  1.0
  N  N138  1  0.28116000  0.84804000  0.19061000  1.0
  N  N139  1  0.18629000  0.84799000  0.28094000  1.0
  N  N140  1  0.15073000  0.81305000  0.28085000  1.0
  N  N141  1  0.15064000  0.28129000  0.80911000  1.0
  N  N142  1  0.18813000  0.28301000  0.84069000  1.0
  N  N143  1  0.28309000  0.18892000  0.84072000  1.0
  N  N144  1  0.28128000  0.15174000  0.80909000  1.0
  N  N145  1  0.18628000  0.15193000  0.71890000  1.0
  N  N146  1  0.15081000  0.18706000  0.71880000  1.0
