# generated using pymatgen
data_ZnH20C24(N2O)4
_symmetry_space_group_name_H-M   'P 1'
_cell_length_a   10.13810000
_cell_length_b   10.17730000
_cell_length_c   13.94770000
_cell_angle_alpha   79.00950000
_cell_angle_beta   81.68310000
_cell_angle_gamma   68.98720000
_symmetry_Int_Tables_number   1
_chemical_formula_structural   ZnH20C24(N2O)4
_chemical_formula_sum   'Zn2 H40 C48 N16 O8'
_cell_volume   1314.18549983
_cell_formula_units_Z   2
loop_
 _symmetry_equiv_pos_site_id
 _symmetry_equiv_pos_as_xyz
  1  'x, y, z'
loop_
 _atom_site_type_symbol
 _atom_site_label
 _atom_site_symmetry_multiplicity
 _atom_site_fract_x
 _atom_site_fract_y
 _atom_site_fract_z
 _atom_site_occupancy
  Zn  Zn0  1  0.60109000  0.13580000  0.51920000  1.0
  Zn  Zn1  1  0.39891000  0.86421000  0.48080000  1.0
  H  H2  1  0.74812000  0.47853000  0.63195000  1.0
  H  H3  1  0.25188000  0.52146000  0.36805000  1.0
  H  H4  1  0.19229000  0.43026000  0.61570000  1.0
  H  H5  1  0.80771000  0.56975000  0.38430000  1.0
  H  H6  1  0.06709000  0.10889000  0.53096000  1.0
  H  H7  1  0.93291000  0.89111000  0.46904000  1.0
  H  H8  1  0.73344000  0.83854000  0.63275000  1.0
  H  H9  1  0.26656000  0.16146000  0.36725000  1.0
  H  H10  1  0.71026000  0.70337000  0.79968000  1.0
  H  H11  1  0.28974000  0.29663000  0.20032000  1.0
  H  H12  1  0.39609000  0.09096000  0.88247000  1.0
  H  H13  1  0.60391000  0.90905000  0.11753000  1.0
  H  H14  1  0.43570000  0.21050000  0.71180000  1.0
  H  H15  1  0.56431000  0.78951000  0.28820000  1.0
  H  H16  1  0.44866000  0.87343000  0.00571000  1.0
  H  H17  1  0.55134000  0.12657000  0.99429000  1.0
  H  H18  1  0.67255000  0.42920000  0.02971000  1.0
  H  H19  1  0.32745000  0.57080000  0.97028000  1.0
  H  H20  1  0.72210000  0.20410000  0.14017000  1.0
  H  H21  1  0.27790000  0.79590000  0.85983000  1.0
  H  H22  1  0.71163000  0.06988000  0.31006000  1.0
  H  H23  1  0.28838000  0.93012000  0.68994000  1.0
  H  H24  1  0.49539000  0.44153000  0.42682000  1.0
  H  H25  1  0.50461000  0.55847000  0.57318000  1.0
  H  H26  1  0.49608000  0.59160000  0.26481000  1.0
  H  H27  1  0.50392000  0.40840000  0.73519000  1.0
  H  H28  1  0.00901000  0.93886000  0.76453000  1.0
  H  H29  1  0.99098000  0.06114000  0.23547000  1.0
  H  H30  1  0.87431000  0.96072000  0.86407000  1.0
  H  H31  1  0.12569000  0.03928000  0.13592000  1.0
  H  H32  1  0.83547000  0.05941000  0.74496000  1.0
  H  H33  1  0.16452000  0.94059000  0.25504000  1.0
  H  H34  1  0.99480000  0.19149000  0.75553000  1.0
  H  H35  1  0.00520000  0.80851000  0.24447000  1.0
  H  H36  1  0.84858000  0.33927000  0.88304000  1.0
  H  H37  1  0.15142000  0.66073000  0.11696000  1.0
  H  H38  1  0.74119000  0.29227000  0.81473000  1.0
  H  H39  1  0.25881000  0.70773000  0.18527000  1.0
  H  H40  1  0.77853000  0.20037000  0.93521000  1.0
  H  H41  1  0.22146000  0.79963000  0.06479000  1.0
  C  C42  1  0.89614000  0.28905000  0.57928000  1.0
  C  C43  1  0.10387000  0.71094000  0.42073000  1.0
  C  C44  1  0.85928000  0.41723000  0.61609000  1.0
  C  C45  1  0.14072000  0.58278000  0.38391000  1.0
  C  C46  1  0.96552000  0.46638000  0.63174000  1.0
  C  C47  1  0.03448000  0.53362000  0.36826000  1.0
  C  C48  1  0.10815000  0.39081000  0.60784000  1.0
  C  C49  1  0.89186000  0.60920000  0.39216000  1.0
  C  C50  1  0.14451000  0.26242000  0.57135000  1.0
  C  C51  1  0.85549000  0.73758000  0.42865000  1.0
  C  C52  1  0.03913000  0.20995000  0.55815000  1.0
  C  C53  1  0.96087000  0.79005000  0.44185000  1.0
  C  C54  1  0.78103000  0.23702000  0.56307000  1.0
  C  C55  1  0.21897000  0.76298000  0.43693000  1.0
  C  C56  1  0.29840000  0.18180000  0.54660000  1.0
  C  C57  1  0.70160000  0.81820000  0.45341000  1.0
  C  C58  1  0.66106000  0.89060000  0.69059000  1.0
  C  C59  1  0.33893000  0.10940000  0.30941000  1.0
  C  C60  1  0.64828000  0.81591000  0.78346000  1.0
  C  C61  1  0.35171000  0.18409000  0.21654000  1.0
  C  C62  1  0.55179000  0.88683000  0.85549000  1.0
  C  C63  1  0.44821000  0.11317000  0.14451000  1.0
  C  C64  1  0.47396000  0.03169000  0.82988000  1.0
  C  C65  1  0.52604000  0.96831000  0.17012000  1.0
  C  C66  1  0.49430000  0.09845000  0.73500000  1.0
  C  C67  1  0.50570000  0.90155000  0.26500000  1.0
  C  C68  1  0.53037000  0.81383000  0.95401000  1.0
  C  C69  1  0.46963000  0.18617000  0.04599000  1.0
  C  C70  1  0.62228000  0.48976000  0.09060000  1.0
  C  C71  1  0.37771000  0.51024000  0.90940000  1.0
  C  C72  1  0.61098000  0.41022000  0.18807000  1.0
  C  C73  1  0.38902000  0.58979000  0.81193000  1.0
  C  C74  1  0.67065000  0.26117000  0.20171000  1.0
  C  C75  1  0.32935000  0.73883000  0.79829000  1.0
  C  C76  1  0.66565000  0.18552000  0.29551000  1.0
  C  C77  1  0.33435000  0.81448000  0.70449000  1.0
  C  C78  1  0.54530000  0.39297000  0.36169000  1.0
  C  C79  1  0.45470000  0.60703000  0.63832000  1.0
  C  C80  1  0.54609000  0.47657000  0.27069000  1.0
  C  C81  1  0.45391000  0.52343000  0.72931000  1.0
  C  C82  1  0.91618000  0.01593000  0.79802000  1.0
  C  C83  1  0.08381000  0.98407000  0.20199000  1.0
  C  C84  1  0.95287000  0.13884000  0.82339000  1.0
  C  C85  1  0.04712000  0.86117000  0.17661000  1.0
  C  C86  1  0.82243000  0.25008000  0.86746000  1.0
  C  C87  1  0.17757000  0.74993000  0.13255000  1.0
  C  C88  1  0.06793000  0.08386000  0.88819000  1.0
  C  C89  1  0.93208000  0.91614000  0.11182000  1.0
  N  N90  1  0.92027000  0.59535000  0.67117000  1.0
  N  N91  1  0.07973000  0.40465000  0.32883000  1.0
  N  N92  1  0.00985000  0.64623000  0.68183000  1.0
  N  N93  1  0.99015000  0.35378000  0.31816000  1.0
  N  N94  1  0.08125000  0.70552000  0.69520000  1.0
  N  N95  1  0.91875000  0.29448000  0.30480000  1.0
  N  N96  1  0.58489000  0.02912000  0.66601000  1.0
  N  N97  1  0.41512000  0.97088000  0.33399000  1.0
  N  N98  1  0.60527000  0.68140000  0.97862000  1.0
  N  N99  1  0.39473000  0.31860000  0.02138000  1.0
  N  N100  1  0.57733000  0.62770000  0.07498000  1.0
  N  N101  1  0.42266000  0.37230000  0.92502000  1.0
  N  N102  1  0.60435000  0.24975000  0.37416000  1.0
  N  N103  1  0.39565000  0.75025000  0.62584000  1.0
  N  N104  1  0.16154000  0.03844000  0.93855000  1.0
  N  N105  1  0.83846000  0.96156000  0.06145000  1.0
  O  O106  1  0.65205000  0.31282000  0.58064000  1.0
  O  O107  1  0.34796000  0.68718000  0.41937000  1.0
  O  O108  1  0.81689000  0.11814000  0.53148000  1.0
  O  O109  1  0.18310000  0.88186000  0.46852000  1.0
  O  O110  1  0.33321000  0.05074000  0.54131000  1.0
  O  O111  1  0.66679000  0.94926000  0.45869000  1.0
  O  O112  1  0.38408000  0.25077000  0.53490000  1.0
  O  O113  1  0.61592000  0.74923000  0.46510000  1.0
