# generated using pymatgen
data_H12PbC14S2(NO2)2
_symmetry_space_group_name_H-M   'P 1'
_cell_length_a   7.70181000
_cell_length_b   9.24337000
_cell_length_c   12.23720000
_cell_angle_alpha   110.31800000
_cell_angle_beta   106.15300000
_cell_angle_gamma   95.50820000
_symmetry_Int_Tables_number   1
_chemical_formula_structural   H12PbC14S2(NO2)2
_chemical_formula_sum   'H24 Pb2 C28 S4 N4 O8'
_cell_volume   766.57190278
_cell_formula_units_Z   2
loop_
 _symmetry_equiv_pos_site_id
 _symmetry_equiv_pos_as_xyz
  1  'x, y, z'
loop_
 _atom_site_type_symbol
 _atom_site_label
 _atom_site_symmetry_multiplicity
 _atom_site_fract_x
 _atom_site_fract_y
 _atom_site_fract_z
 _atom_site_occupancy
  H  H0  1  0.95173000  0.37284000  0.04073000  1.0
  H  H1  1  0.41005000  0.33231000  0.95913000  1.0
  H  H2  1  0.04825000  0.62717000  0.95926000  1.0
  H  H3  1  0.58994000  0.66768000  0.04087000  1.0
  H  H4  1  0.12616000  0.65331000  0.13251000  1.0
  H  H5  1  0.49327000  0.52085000  0.86731000  1.0
  H  H6  1  0.87388000  0.34668000  0.86747000  1.0
  H  H7  1  0.50677000  0.47913000  0.13270000  1.0
  H  H8  1  0.17858000  0.64795000  0.49257000  1.0
  H  H9  1  0.18631000  0.15553000  0.50721000  1.0
  H  H10  1  0.82145000  0.35207000  0.50742000  1.0
  H  H11  1  0.81371000  0.84445000  0.49279000  1.0
  H  H12  1  0.99769000  0.37032000  0.38417000  1.0
  H  H13  1  0.11301000  0.98653000  0.61568000  1.0
  H  H14  1  0.00227000  0.62971000  0.61583000  1.0
  H  H15  1  0.88700000  0.01346000  0.38432000  1.0
  H  H16  1  0.45202000  0.03091000  0.33557000  1.0
  H  H17  1  0.61549000  0.69587000  0.66411000  1.0
  H  H18  1  0.54797000  0.96910000  0.66439000  1.0
  H  H19  1  0.38446000  0.30416000  0.33591000  1.0
  H  H20  1  0.38311000  0.83583000  0.22060000  1.0
  H  H21  1  0.66218000  0.61579000  0.77916000  1.0
  H  H22  1  0.61688000  0.16418000  0.77937000  1.0
  H  H23  1  0.33784000  0.38424000  0.22085000  1.0
  Pb  Pb24  1  0.80325000  0.05292000  0.10627000  1.0
  Pb  Pb25  1  0.19668000  0.94707000  0.89375000  1.0
  C  C26  1  0.00221000  0.43986000  0.14046000  1.0
  C  C27  1  0.36095000  0.29962000  0.85938000  1.0
  C  C28  1  0.99781000  0.56013000  0.85953000  1.0
  C  C29  1  0.63905000  0.70037000  0.14062000  1.0
  C  C30  1  0.10174000  0.59515000  0.19192000  1.0
  C  C31  1  0.40946000  0.40333000  0.80793000  1.0
  C  C32  1  0.89829000  0.40485000  0.80806000  1.0
  C  C33  1  0.59055000  0.59665000  0.19207000  1.0
  C  C34  1  0.16836000  0.67425000  0.32106000  1.0
  C  C35  1  0.34731000  0.35333000  0.67876000  1.0
  C  C36  1  0.83165000  0.32575000  0.67891000  1.0
  C  C37  1  0.65270000  0.64666000  0.32124000  1.0
  C  C38  1  0.12793000  0.59223000  0.39180000  1.0
  C  C39  1  0.23620000  0.20064000  0.60804000  1.0
  C  C40  1  0.87211000  0.40779000  0.60820000  1.0
  C  C41  1  0.76381000  0.79935000  0.39196000  1.0
  C  C42  1  0.02788000  0.43764000  0.33178000  1.0
  C  C43  1  0.19567000  0.10618000  0.66805000  1.0
  C  C44  1  0.97210000  0.56237000  0.66821000  1.0
  C  C45  1  0.80433000  0.89381000  0.33194000  1.0
  C  C46  1  0.33701000  0.92702000  0.28422000  1.0
  C  C47  1  0.55223000  0.64326000  0.71561000  1.0
  C  C48  1  0.66299000  0.07298000  0.71576000  1.0
  C  C49  1  0.44777000  0.35677000  0.28443000  1.0
  C  C50  1  0.16995000  0.97389000  0.21369000  1.0
  C  C51  1  0.45546000  0.76034000  0.78612000  1.0
  C  C52  1  0.83002000  0.02611000  0.78631000  1.0
  C  C53  1  0.54452000  0.23965000  0.21390000  1.0
  S  S54  1  0.30189000  0.86517000  0.40233000  1.0
  S  S55  1  0.39933000  0.46316000  0.59753000  1.0
  S  S56  1  0.69817000  0.13481000  0.59766000  1.0
  S  S57  1  0.60069000  0.53684000  0.40249000  1.0
  N  N58  1  0.96517000  0.36082000  0.20782000  1.0
  N  N59  1  0.25654000  0.15333000  0.79205000  1.0
  N  N60  1  0.03483000  0.63919000  0.79218000  1.0
  N  N61  1  0.74344000  0.84666000  0.20795000  1.0
  O  O62  1  0.10617000  0.90201000  0.09659000  1.0
  O  O63  1  0.50804000  0.80483000  0.90315000  1.0
  O  O64  1  0.89378000  0.09799000  0.90342000  1.0
  O  O65  1  0.49192000  0.19514000  0.09688000  1.0
  O  O66  1  0.10498000  0.08269000  0.27626000  1.0
  O  O67  1  0.32850000  0.80718000  0.72363000  1.0
  O  O68  1  0.89502000  0.91731000  0.72375000  1.0
  O  O69  1  0.67151000  0.19283000  0.27640000  1.0
