# generated using pymatgen
data_HgH9C12I2BrN2
_symmetry_space_group_name_H-M   'P 1'
_cell_length_a   4.26022000
_cell_length_b   16.16250000
_cell_length_c   22.57350000
_cell_angle_alpha   90.00020000
_cell_angle_beta   90.00030000
_cell_angle_gamma   89.99930000
_symmetry_Int_Tables_number   1
_chemical_formula_structural   HgH9C12I2BrN2
_chemical_formula_sum   'Hg4 H36 C48 I8 Br4 N8'
_cell_volume   1554.31653095
_cell_formula_units_Z   4
loop_
 _symmetry_equiv_pos_site_id
 _symmetry_equiv_pos_as_xyz
  1  'x, y, z'
loop_
 _atom_site_type_symbol
 _atom_site_label
 _atom_site_symmetry_multiplicity
 _atom_site_fract_x
 _atom_site_fract_y
 _atom_site_fract_z
 _atom_site_occupancy
  Hg  Hg0  1  0.92573000  0.48074000  0.10925000  1.0
  Hg  Hg1  1  0.42572000  0.51926000  0.89075000  1.0
  Hg  Hg2  1  0.42573000  0.01927000  0.60925000  1.0
  Hg  Hg3  1  0.92573000  0.98074000  0.39075000  1.0
  H  H4  1  0.21539000  0.64348000  0.18060000  1.0
  H  H5  1  0.71538000  0.35652000  0.81940000  1.0
  H  H6  1  0.71539000  0.85652000  0.68060000  1.0
  H  H7  1  0.21537000  0.14348000  0.31940000  1.0
  H  H8  1  0.28459000  0.70313000  0.28205000  1.0
  H  H9  1  0.78458000  0.29687000  0.71795000  1.0
  H  H10  1  0.78458000  0.79687000  0.78205000  1.0
  H  H11  1  0.28459000  0.20313000  0.21796000  1.0
  H  H12  1  0.74050000  0.49876000  0.35027000  1.0
  H  H13  1  0.24046000  0.50124000  0.64973000  1.0
  H  H14  1  0.24045000  0.00124000  0.85027000  1.0
  H  H15  1  0.74046000  0.99877000  0.14973000  1.0
  H  H16  1  0.68780000  0.44774000  0.24530000  1.0
  H  H17  1  0.18776000  0.55226000  0.75470000  1.0
  H  H18  1  0.18777000  0.05226000  0.74530000  1.0
  H  H19  1  0.68774000  0.94775000  0.25470000  1.0
  H  H20  1  0.22051000  0.69273000  0.38678000  1.0
  H  H21  1  0.72047000  0.30727000  0.61322000  1.0
  H  H22  1  0.72048000  0.80727000  0.88678000  1.0
  H  H23  1  0.22052000  0.19273000  0.11322000  1.0
  H  H24  1  0.31289000  0.73552000  0.46852000  1.0
  H  H25  1  0.81287000  0.26448000  0.53149000  1.0
  H  H26  1  0.81287000  0.76448000  0.96851000  1.0
  H  H27  1  0.31288000  0.23552000  0.03149000  1.0
  H  H28  1  0.38930000  0.77299000  0.57270000  1.0
  H  H29  1  0.88931000  0.22701000  0.42731000  1.0
  H  H30  1  0.88931000  0.72701000  0.07269000  1.0
  H  H31  1  0.38929000  0.27299000  0.92730000  1.0
  H  H32  1  0.76422000  0.57638000  0.62694000  1.0
  H  H33  1  0.26422000  0.42363000  0.37305000  1.0
  H  H34  1  0.26421000  0.92362000  0.12694000  1.0
  H  H35  1  0.76423000  0.07638000  0.87305000  1.0
  H  H36  1  0.69688000  0.53587000  0.52132000  1.0
  H  H37  1  0.19686000  0.46413000  0.47867000  1.0
  H  H38  1  0.19686000  0.96413000  0.02133000  1.0
  H  H39  1  0.69689000  0.03586000  0.97867000  1.0
  C  C40  1  0.11190000  0.61353000  0.21932000  1.0
  C  C41  1  0.61188000  0.38647000  0.78068000  1.0
  C  C42  1  0.61188000  0.88647000  0.71932000  1.0
  C  C43  1  0.11187000  0.11353000  0.28068000  1.0
  C  C44  1  0.15176000  0.64604000  0.27586000  1.0
  C  C45  1  0.65175000  0.35396000  0.72414000  1.0
  C  C46  1  0.65175000  0.85396000  0.77586000  1.0
  C  C47  1  0.15175000  0.14604000  0.22414000  1.0
  C  C48  1  0.02020000  0.60473000  0.32457000  1.0
  C  C49  1  0.52017000  0.39527000  0.67543000  1.0
  C  C50  1  0.52016000  0.89527000  0.82457000  1.0
  C  C51  1  0.02018000  0.10473000  0.17543000  1.0
  C  C52  1  0.84758000  0.53216000  0.31356000  1.0
  C  C53  1  0.34755000  0.46784000  0.68644000  1.0
  C  C54  1  0.34754000  0.96784000  0.81356000  1.0
  C  C55  1  0.84754000  0.03217000  0.18644000  1.0
  C  C56  1  0.81787000  0.50413000  0.25574000  1.0
  C  C57  1  0.31785000  0.49587000  0.74426000  1.0
  C  C58  1  0.31785000  0.99587000  0.75574000  1.0
  C  C59  1  0.81783000  0.00413000  0.24426000  1.0
  C  C60  1  0.07031000  0.63727000  0.38427000  1.0
  C  C61  1  0.57027000  0.36272000  0.61573000  1.0
  C  C62  1  0.57027000  0.86273000  0.88427000  1.0
  C  C63  1  0.07030000  0.13727000  0.11573000  1.0
  C  C64  1  0.99900000  0.63163000  0.48733000  1.0
  C  C65  1  0.49897000  0.36837000  0.51267000  1.0
  C  C66  1  0.49897000  0.86837000  0.98733000  1.0
  C  C67  1  0.99899000  0.13162000  0.01267000  1.0
  C  C68  1  0.19085000  0.69967000  0.50238000  1.0
  C  C69  1  0.69083000  0.30032000  0.49762000  1.0
  C  C70  1  0.69083000  0.80033000  0.00237000  1.0
  C  C71  1  0.19084000  0.19967000  0.99762000  1.0
  C  C72  1  0.23392000  0.72181000  0.56129000  1.0
  C  C73  1  0.73391000  0.27819000  0.43872000  1.0
  C  C74  1  0.73392000  0.77818000  0.06128000  1.0
  C  C75  1  0.23392000  0.22181000  0.93871000  1.0
  C  C76  1  0.08155000  0.67666000  0.60562000  1.0
  C  C77  1  0.58155000  0.32334000  0.39439000  1.0
  C  C78  1  0.58155000  0.82334000  0.10561000  1.0
  C  C79  1  0.08155000  0.17666000  0.89438000  1.0
  C  C80  1  0.88630000  0.61007000  0.59209000  1.0
  C  C81  1  0.38630000  0.38993000  0.40791000  1.0
  C  C82  1  0.38629000  0.88993000  0.09209000  1.0
  C  C83  1  0.88631000  0.11006000  0.90791000  1.0
  C  C84  1  0.84781000  0.58778000  0.53298000  1.0
  C  C85  1  0.34778000  0.41222000  0.46702000  1.0
  C  C86  1  0.34778000  0.91222000  0.03298000  1.0
  C  C87  1  0.84781000  0.08778000  0.96702000  1.0
  I  I88  1  0.64181000  0.33565000  0.13359000  1.0
  I  I89  1  0.14180000  0.66435000  0.86641000  1.0
  I  I90  1  0.14184000  0.16436000  0.63360000  1.0
  I  I91  1  0.64179000  0.83565000  0.36641000  1.0
  I  I92  1  0.35358000  0.58248000  0.05780000  1.0
  I  I93  1  0.85359000  0.41752000  0.94220000  1.0
  I  I94  1  0.85359000  0.91752000  0.55780000  1.0
  I  I95  1  0.35358000  0.08248000  0.44220000  1.0
  Br  Br96  1  0.15078000  0.70527000  0.68644000  1.0
  Br  Br97  1  0.65079000  0.29473000  0.31356000  1.0
  Br  Br98  1  0.65079000  0.79473000  0.18644000  1.0
  Br  Br99  1  0.15077000  0.20527000  0.81356000  1.0
  N  N100  1  0.94922000  0.54374000  0.20947000  1.0
  N  N101  1  0.44921000  0.45626000  0.79053000  1.0
  N  N102  1  0.44921000  0.95627000  0.70947000  1.0
  N  N103  1  0.94919000  0.04374000  0.29053000  1.0
  N  N104  1  0.94703000  0.60193000  0.42981000  1.0
  N  N105  1  0.44700000  0.39807000  0.57020000  1.0
  N  N106  1  0.44700000  0.89807000  0.92980000  1.0
  N  N107  1  0.94702000  0.10193000  0.07019000  1.0
