# generated using pymatgen
data_MnH12C24(N4O)2
_symmetry_space_group_name_H-M   'P 1'
_cell_length_a   11.04960000
_cell_length_b   11.05150000
_cell_length_c   11.39052104
_cell_angle_alpha   110.73537331
_cell_angle_beta   108.17960387
_cell_angle_gamma   108.25200000
_symmetry_Int_Tables_number   1
_chemical_formula_structural   MnH12C24(N4O)2
_chemical_formula_sum   'Mn2 H24 C48 N16 O4'
_cell_volume   1086.38343788
_cell_formula_units_Z   2
loop_
 _symmetry_equiv_pos_site_id
 _symmetry_equiv_pos_as_xyz
  1  'x, y, z'
loop_
 _atom_site_type_symbol
 _atom_site_label
 _atom_site_symmetry_multiplicity
 _atom_site_fract_x
 _atom_site_fract_y
 _atom_site_fract_z
 _atom_site_occupancy
  Mn  Mn0  1  0.50000000  0.50000000  0.00000000  1.0
  Mn  Mn1  1  0.49999000  0.99999000  0.49999000  1.0
  H  H2  1  0.85732000  0.21599000  0.36773000  1.0
  H  H3  1  0.84820000  0.98948000  0.13231000  1.0
  H  H4  1  0.14269000  0.78401000  0.63228000  1.0
  H  H5  1  0.15180000  0.01052000  0.86769000  1.0
  H  H6  1  0.12327000  0.34819000  0.49806000  1.0
  H  H7  1  0.85005000  0.12511000  0.00196000  1.0
  H  H8  1  0.87673000  0.65181000  0.50194000  1.0
  H  H9  1  0.14994000  0.87488000  0.99803000  1.0
  H  H10  1  0.12565000  0.62504000  0.30794000  1.0
  H  H11  1  0.31704000  0.31763000  0.19206000  1.0
  H  H12  1  0.87436000  0.37496000  0.69207000  1.0
  H  H13  1  0.68296000  0.68237000  0.80794000  1.0
  H  H14  1  0.86005000  0.49239000  0.17728000  1.0
  H  H15  1  0.31506000  0.18270000  0.32274000  1.0
  H  H16  1  0.13996000  0.50762000  0.82273000  1.0
  H  H17  1  0.68494000  0.81730000  0.67726000  1.0
  H  H18  1  0.68059000  0.73141000  0.25810000  1.0
  H  H19  1  0.47337000  0.92255000  0.24189000  1.0
  H  H20  1  0.31940000  0.26860000  0.74190000  1.0
  H  H21  1  0.52663000  0.07746000  0.75811000  1.0
  H  H22  1  0.56717000  0.60873000  0.27123000  1.0
  H  H23  1  0.33756000  0.79600000  0.22876000  1.0
  H  H24  1  0.43282000  0.39126000  0.72876000  1.0
  H  H25  1  0.66243000  0.20399000  0.77123000  1.0
  C  C26  1  0.83816000  0.34426000  0.26293000  1.0
  C  C27  1  0.08130000  0.07516000  0.23715000  1.0
  C  C28  1  0.16184000  0.65574000  0.73707000  1.0
  C  C29  1  0.91869000  0.92484000  0.76285000  1.0
  C  C30  1  0.91616000  0.30583000  0.35481000  1.0
  C  C31  1  0.95098000  0.06126000  0.14524000  1.0
  C  C32  1  0.08384000  0.69417000  0.64519000  1.0
  C  C33  1  0.04903000  0.93875000  0.85477000  1.0
  C  C34  1  0.06568000  0.38008000  0.42804000  1.0
  C  C35  1  0.95197000  0.13756000  0.07199000  1.0
  C  C36  1  0.93432000  0.61992000  0.57196000  1.0
  C  C37  1  0.04803000  0.86245000  0.92802000  1.0
  C  C38  1  0.14480000  0.49773000  0.41428000  1.0
  C  C39  1  0.08337000  0.23040000  0.08571000  1.0
  C  C40  1  0.85521000  0.50227000  0.58572000  1.0
  C  C41  1  0.91663000  0.76960000  0.91429000  1.0
  C  C42  1  0.06685000  0.53686000  0.32273000  1.0
  C  C43  1  0.21405000  0.24403000  0.17725000  1.0
  C  C44  1  0.93315000  0.46314000  0.67727000  1.0
  C  C45  1  0.78595000  0.75597000  0.82275000  1.0
  C  C46  1  0.91765000  0.46216000  0.24910000  1.0
  C  C47  1  0.21301000  0.16849000  0.25093000  1.0
  C  C48  1  0.08236000  0.53785000  0.75091000  1.0
  C  C49  1  0.78698000  0.83150000  0.74906000  1.0
  C  C50  1  0.68134000  0.26609000  0.18502000  1.0
  C  C51  1  0.08101000  0.99623000  0.31505000  1.0
  C  C52  1  0.31867000  0.73391000  0.81499000  1.0
  C  C53  1  0.91898000  0.00377000  0.68495000  1.0
  C  C54  1  0.60655000  0.32002000  0.11430000  1.0
  C  C55  1  0.20568000  0.99219000  0.38574000  1.0
  C  C56  1  0.39344000  0.67997000  0.88570000  1.0
  C  C57  1  0.79432000  0.00781000  0.61426000  1.0
  C  C58  1  0.60025000  0.13526000  0.17836000  1.0
  C  C59  1  0.95683000  0.92175000  0.32168000  1.0
  C  C60  1  0.39976000  0.86475000  0.82165000  1.0
  C  C61  1  0.04317000  0.07825000  0.67832000  1.0
  C  C62  1  0.30194000  0.57771000  0.49246000  1.0
  C  C63  1  0.08524000  0.30941000  0.00758000  1.0
  C  C64  1  0.69806000  0.42229000  0.50754000  1.0
  C  C65  1  0.91475000  0.69058000  0.99241000  1.0
  C  C66  1  0.37839000  0.52247000  0.56248000  1.0
  C  C67  1  0.95999000  0.31586000  0.93757000  1.0
  C  C68  1  0.62162000  0.47753000  0.43752000  1.0
  C  C69  1  0.04001000  0.68415000  0.06243000  1.0
  C  C70  1  0.37560000  0.71119000  0.50284000  1.0
  C  C71  1  0.20833000  0.37272000  0.99719000  1.0
  C  C72  1  0.62440000  0.28881000  0.49716000  1.0
  C  C73  1  0.79166000  0.62728000  0.00281000  1.0
  N  N74  1  0.55549000  0.37922000  0.06313000  1.0
  N  N75  1  0.31606000  0.99233000  0.43689000  1.0
  N  N76  1  0.44451000  0.62078000  0.93687000  1.0
  N  N77  1  0.68393000  0.00766000  0.56310000  1.0
  N  N78  1  0.53399000  0.02468000  0.17166000  1.0
  N  N79  1  0.85293000  0.86223000  0.32837000  1.0
  N  N80  1  0.46601000  0.97532000  0.82834000  1.0
  N  N81  1  0.14706000  0.13777000  0.67163000  1.0
  N  N82  1  0.43373000  0.46901000  0.61833000  1.0
  N  N83  1  0.85068000  0.31536000  0.88173000  1.0
  N  N84  1  0.56627000  0.53099000  0.38167000  1.0
  N  N85  1  0.14932000  0.68465000  0.11827000  1.0
  N  N86  1  0.42506000  0.82608000  0.50950000  1.0
  N  N87  1  0.31658000  0.41554000  0.99052000  1.0
  N  N88  1  0.57494000  0.17393000  0.49050000  1.0
  N  N89  1  0.68343000  0.58446000  0.00949000  1.0
  O  O90  1  0.57635000  0.65529000  0.21130000  1.0
  O  O91  1  0.44403000  0.86509000  0.28867000  1.0
  O  O92  1  0.42364000  0.34470000  0.78869000  1.0
  O  O93  1  0.55596000  0.13490000  0.71132000  1.0
