# generated using pymatgen
data_CuH54(C25O8)2
_symmetry_space_group_name_H-M   'P 1'
_cell_length_a   8.44700000
_cell_length_b   10.04720000
_cell_length_c   14.76520000
_cell_angle_alpha   103.58200000
_cell_angle_beta   90.66490000
_cell_angle_gamma   107.29300000
_symmetry_Int_Tables_number   1
_chemical_formula_structural   CuH54(C25O8)2
_chemical_formula_sum   'Cu1 H54 C50 O16'
_cell_volume   1158.51717682
_cell_formula_units_Z   1
loop_
 _symmetry_equiv_pos_site_id
 _symmetry_equiv_pos_as_xyz
  1  'x, y, z'
loop_
 _atom_site_type_symbol
 _atom_site_label
 _atom_site_symmetry_multiplicity
 _atom_site_fract_x
 _atom_site_fract_y
 _atom_site_fract_z
 _atom_site_occupancy
  Cu  Cu0  1  0.00000000  0.49999000  0.50000000  1.0
  H  H1  1  0.59074000  0.31669000  0.62701000  1.0
  H  H2  1  0.40928000  0.68331000  0.37299000  1.0
  H  H3  1  0.43143000  0.37801000  0.58899000  1.0
  H  H4  1  0.56858000  0.62198000  0.41101000  1.0
  H  H5  1  0.39312000  0.20575000  0.43455000  1.0
  H  H6  1  0.60688000  0.79425000  0.56545000  1.0
  H  H7  1  0.52749000  0.12163000  0.47377000  1.0
  H  H8  1  0.47251000  0.87837000  0.52623000  1.0
  H  H9  1  0.53279000  0.31373000  0.32286000  1.0
  H  H10  1  0.46720000  0.68629000  0.67714000  1.0
  H  H11  1  0.72515000  0.59116000  0.26402000  1.0
  H  H12  1  0.27485000  0.40884000  0.73598000  1.0
  H  H13  1  0.64338000  0.40993000  0.20044000  1.0
  H  H14  1  0.35663000  0.59007000  0.79956000  1.0
  H  H15  1  0.01718000  0.57567000  0.22932000  1.0
  H  H16  1  0.98282000  0.42433000  0.77068000  1.0
  H  H17  1  0.91905000  0.41054000  0.14609000  1.0
  H  H18  1  0.08096000  0.58946000  0.85391000  1.0
  H  H19  1  0.13696000  0.22354000  0.56826000  1.0
  H  H20  1  0.86305000  0.77646000  0.43174000  1.0
  H  H21  1  0.30780000  0.90971000  0.73825000  1.0
  H  H22  1  0.69220000  0.09028000  0.26175000  1.0
  H  H23  1  0.52469000  0.09948000  0.68483000  1.0
  H  H24  1  0.47532000  0.90051000  0.31517000  1.0
  H  H25  1  0.71910000  0.41117000  0.01493000  1.0
  H  H26  1  0.28089000  0.58883000  0.98507000  1.0
  H  H27  1  0.96862000  0.94357000  0.09219000  1.0
  H  H28  1  0.03137000  0.05643000  0.90782000  1.0
  H  H29  1  0.03342000  0.80334000  0.19889000  1.0
  H  H30  1  0.96657000  0.19666000  0.80111000  1.0
  H  H31  1  0.70182000  0.09877000  0.58691000  1.0
  H  H32  1  0.29820000  0.90123000  0.41309000  1.0
  H  H33  1  0.87295000  0.11938000  0.51558000  1.0
  H  H34  1  0.12706000  0.88062000  0.48441000  1.0
  H  H35  1  0.89172000  0.24388000  0.62658000  1.0
  H  H36  1  0.10829000  0.75612000  0.37342000  1.0
  H  H37  1  0.67491000  0.56998000  0.65685000  1.0
  H  H38  1  0.32509000  0.43002000  0.34315000  1.0
  H  H39  1  0.74443000  0.69352000  0.77087000  1.0
  H  H40  1  0.25557000  0.30648000  0.22913000  1.0
  H  H41  1  0.85198000  0.57072000  0.72226000  1.0
  H  H42  1  0.14801000  0.42927000  0.27775000  1.0
  H  H43  1  0.51391000  0.36523000  0.79104000  1.0
  H  H44  1  0.48608000  0.63477000  0.20897000  1.0
  H  H45  1  0.50273000  0.34306000  0.90780000  1.0
  H  H46  1  0.49726000  0.65694000  0.09220000  1.0
  H  H47  1  0.69060000  0.34843000  0.85094000  1.0
  H  H48  1  0.30939000  0.65158000  0.14907000  1.0
  H  H49  1  0.49688000  0.93666000  0.84168000  1.0
  H  H50  1  0.50312000  0.06335000  0.15831000  1.0
  H  H51  1  0.70303000  0.93875000  0.80856000  1.0
  H  H52  1  0.29697000  0.06124000  0.19144000  1.0
  H  H53  1  0.67498000  0.06824000  0.90707000  1.0
  H  H54  1  0.32503000  0.93176000  0.09293000  1.0
  C  C55  1  0.47168000  0.28212000  0.58421000  1.0
  C  C56  1  0.52833000  0.71788000  0.41579000  1.0
  C  C57  1  0.50324000  0.22562000  0.48196000  1.0
  C  C58  1  0.49676000  0.77438000  0.51804000  1.0
  C  C59  1  0.65605000  0.32609000  0.45341000  1.0
  C  C60  1  0.34396000  0.67390000  0.54659000  1.0
  C  C61  1  0.65012000  0.35930000  0.36643000  1.0
  C  C62  1  0.34987000  0.64071000  0.63357000  1.0
  C  C63  1  0.78469000  0.44937000  0.33240000  1.0
  C  C64  1  0.21530000  0.55063000  0.66760000  1.0
  C  C65  1  0.75466000  0.48892000  0.24218000  1.0
  C  C66  1  0.24534000  0.51108000  0.75782000  1.0
  C  C67  1  0.90377000  0.51435000  0.18256000  1.0
  C  C68  1  0.09623000  0.48565000  0.81744000  1.0
  C  C69  1  0.34434000  0.17232000  0.62134000  1.0
  C  C70  1  0.65567000  0.82768000  0.37866000  1.0
  C  C71  1  0.17461000  0.15618000  0.60670000  1.0
  C  C72  1  0.82540000  0.84381000  0.39330000  1.0
  C  C73  1  0.05409000  0.05409000  0.63996000  1.0
  C  C74  1  0.94592000  0.94591000  0.36004000  1.0
  C  C75  1  0.10630000  0.96512000  0.68628000  1.0
  C  C76  1  0.89371000  0.03488000  0.31372000  1.0
  C  C77  1  0.27338000  0.98089000  0.70184000  1.0
  C  C78  1  0.72662000  0.01911000  0.29816000  1.0
  C  C79  1  0.39307000  0.08531000  0.67031000  1.0
  C  C80  1  0.60694000  0.91469000  0.32970000  1.0
  C  C81  1  0.88008000  0.59791000  0.11374000  1.0
  C  C82  1  0.11992000  0.40209000  0.88626000  1.0
  C  C83  1  0.77590000  0.52754000  0.03104000  1.0
  C  C84  1  0.22409000  0.47247000  0.96897000  1.0
  C  C85  1  0.74005000  0.60545000  0.97077000  1.0
  C  C86  1  0.25994000  0.39456000  0.02923000  1.0
  C  C87  1  0.80948000  0.75647000  0.99538000  1.0
  C  C88  1  0.19049000  0.24354000  0.00462000  1.0
  C  C89  1  0.91520000  0.82677000  0.07607000  1.0
  C  C90  1  0.08478000  0.17323000  0.92393000  1.0
  C  C91  1  0.95133000  0.74749000  0.13511000  1.0
  C  C92  1  0.04866000  0.25251000  0.86489000  1.0
  C  C93  1  0.83723000  0.13106000  0.58755000  1.0
  C  C94  1  0.16278000  0.86894000  0.41245000  1.0
  C  C95  1  0.89360000  0.74255000  0.65839000  1.0
  C  C96  1  0.10641000  0.25744000  0.34161000  1.0
  C  C97  1  0.78191000  0.63940000  0.70540000  1.0
  C  C98  1  0.21809000  0.36060000  0.29460000  1.0
  C  C99  1  0.58413000  0.39113000  0.85884000  1.0
  C  C100  1  0.41586000  0.60886000  0.14116000  1.0
  C  C101  1  0.62931000  0.86106000  0.93138000  1.0
  C  C102  1  0.37066000  0.13895000  0.06862000  1.0
  C  C103  1  0.62584000  0.95541000  0.86676000  1.0
  C  C104  1  0.37416000  0.04459000  0.13324000  1.0
  O  O105  1  0.78353000  0.37269000  0.51315000  1.0
  O  O106  1  0.21648000  0.62729000  0.48685000  1.0
  O  O107  1  0.93136000  0.50886000  0.37445000  1.0
  O  O108  1  0.06864000  0.49112000  0.62555000  1.0
  O  O109  1  0.88787000  0.03552000  0.63210000  1.0
  O  O110  1  0.11214000  0.96448000  0.36789000  1.0
  O  O111  1  0.98907000  0.86391000  0.72244000  1.0
  O  O112  1  0.01093000  0.13609000  0.27756000  1.0
  O  O113  1  0.90667000  0.72347000  0.57436000  1.0
  O  O114  1  0.09335000  0.27652000  0.42564000  1.0
  O  O115  1  0.64107000  0.54543000  0.88895000  1.0
  O  O116  1  0.35892000  0.45457000  0.11106000  1.0
  O  O117  1  0.78163000  0.83795000  0.93480000  1.0
  O  O118  1  0.21835000  0.16205000  0.06521000  1.0
  O  O119  1  0.51667000  0.81292000  0.97687000  1.0
  O  O120  1  0.48331000  0.18710000  0.02313000  1.0
