# generated using pymatgen
data_NaH6C2(SO2)2
_symmetry_space_group_name_H-M   'P 1'
_cell_length_a   5.54806000
_cell_length_b   11.03310000
_cell_length_c   11.41260000
_cell_angle_alpha   89.99850000
_cell_angle_beta   76.55200000
_cell_angle_gamma   89.99670000
_symmetry_Int_Tables_number   1
_chemical_formula_structural   NaH6C2(SO2)2
_chemical_formula_sum   'Na4 H24 C8 S8 O16'
_cell_volume   679.43709351
_cell_formula_units_Z   4
loop_
 _symmetry_equiv_pos_site_id
 _symmetry_equiv_pos_as_xyz
  1  'x, y, z'
loop_
 _atom_site_type_symbol
 _atom_site_label
 _atom_site_symmetry_multiplicity
 _atom_site_fract_x
 _atom_site_fract_y
 _atom_site_fract_z
 _atom_site_occupancy
  Na  Na0  1  0.77282000  0.90795000  0.24222000  1.0
  Na  Na1  1  0.27282000  0.09205000  0.24221000  1.0
  Na  Na2  1  0.02112000  0.59952000  0.24288000  1.0
  Na  Na3  1  0.52113000  0.40048000  0.24288000  1.0
  H  H4  1  0.82342000  0.52038000  0.95872000  1.0
  H  H5  1  0.32340000  0.47961000  0.95870000  1.0
  H  H6  1  0.64845000  0.60843000  0.87508000  1.0
  H  H7  1  0.14844000  0.39157000  0.87507000  1.0
  H  H8  1  0.10680000  0.63549000  0.79803000  1.0
  H  H9  1  0.60681000  0.36452000  0.79802000  1.0
  H  H10  1  0.13249000  0.69046000  0.94140000  1.0
  H  H11  1  0.63251000  0.30954000  0.94140000  1.0
  H  H12  1  0.84825000  0.70409000  0.60777000  1.0
  H  H13  1  0.34823000  0.29590000  0.60777000  1.0
  H  H14  1  0.62882000  0.80380000  0.56927000  1.0
  H  H15  1  0.12882000  0.19622000  0.56926000  1.0
  H  H16  1  0.12337000  0.89897000  0.60986000  1.0
  H  H17  1  0.62340000  0.10103000  0.60986000  1.0
  H  H18  1  0.93162000  0.96831000  0.52167000  1.0
  H  H19  1  0.43165000  0.03170000  0.52167000  1.0
  H  H20  1  0.24761000  0.88568000  0.08156000  1.0
  H  H21  1  0.74762000  0.11431000  0.08155000  1.0
  H  H22  1  0.06622000  0.97546000  0.03688000  1.0
  H  H23  1  0.56626000  0.02454000  0.03688000  1.0
  H  H24  1  0.56147000  0.60794000  0.42800000  1.0
  H  H25  1  0.06149000  0.39206000  0.42800000  1.0
  H  H26  1  0.64445000  0.47437000  0.44881000  1.0
  H  H27  1  0.14445000  0.52563000  0.44881000  1.0
  C  C28  1  0.77455000  0.61248000  0.93634000  1.0
  C  C29  1  0.27455000  0.38751000  0.93633000  1.0
  C  C30  1  0.00731000  0.68304000  0.87980000  1.0
  C  C31  1  0.50733000  0.31697000  0.87979000  1.0
  C  C32  1  0.78792000  0.79904000  0.61135000  1.0
  C  C33  1  0.28792000  0.20096000  0.61135000  1.0
  C  C34  1  0.99765000  0.88190000  0.54996000  1.0
  C  C35  1  0.49767000  0.11810000  0.54995000  1.0
  S  S36  1  0.59192000  0.67331000  0.07550000  1.0
  S  S37  1  0.09193000  0.32668000  0.07548000  1.0
  S  S38  1  0.96372000  0.84129000  0.84091000  1.0
  S  S39  1  0.46376000  0.15871000  0.84091000  1.0
  S  S40  1  0.66110000  0.84112000  0.76871000  1.0
  S  S41  1  0.16113000  0.15889000  0.76872000  1.0
  S  S42  1  0.18576000  0.81560000  0.41672000  1.0
  S  S43  1  0.68577000  0.18441000  0.41670000  1.0
  O  O44  1  0.44064000  0.57080000  0.13548000  1.0
  O  O45  1  0.94063000  0.42920000  0.13546000  1.0
  O  O46  1  0.76777000  0.71800000  0.14398000  1.0
  O  O47  1  0.26779000  0.28199000  0.14397000  1.0
  O  O48  1  0.43614000  0.76812000  0.04136000  1.0
  O  O49  1  0.93616000  0.23188000  0.04136000  1.0
  O  O50  1  0.01952000  0.78802000  0.33685000  1.0
  O  O51  1  0.51953000  0.21199000  0.33683000  1.0
  O  O52  1  0.37230000  0.90842000  0.36552000  1.0
  O  O53  1  0.87232000  0.09158000  0.36552000  1.0
  O  O54  1  0.29369000  0.70507000  0.45659000  1.0
  O  O55  1  0.79369000  0.29492000  0.45658000  1.0
  O  O56  1  0.15032000  0.96133000  0.10175000  1.0
  O  O57  1  0.65035000  0.03866000  0.10175000  1.0
  O  O58  1  0.70308000  0.55146000  0.41064000  1.0
  O  O59  1  0.20310000  0.44854000  0.41064000  1.0
