# generated using pymatgen
data_Al4H35C64BrO20
_symmetry_space_group_name_H-M   'P 1'
_cell_length_a   6.67687000
_cell_length_b   16.48920000
_cell_length_c   19.87900000
_cell_angle_alpha   70.73020000
_cell_angle_beta   89.64810000
_cell_angle_gamma   89.79980000
_symmetry_Int_Tables_number   1
_chemical_formula_structural   Al4H35C64BrO20
_chemical_formula_sum   'Al4 H35 C64 Br1 O20'
_cell_volume   2065.94535941
_cell_formula_units_Z   1
loop_
 _symmetry_equiv_pos_site_id
 _symmetry_equiv_pos_as_xyz
  1  'x, y, z'
loop_
 _atom_site_type_symbol
 _atom_site_label
 _atom_site_symmetry_multiplicity
 _atom_site_fract_x
 _atom_site_fract_y
 _atom_site_fract_z
 _atom_site_occupancy
  Al  Al0  1  0.12205000  0.49902000  0.50064000  1.0
  Al  Al1  1  0.62205000  0.50065000  0.49949000  1.0
  Al  Al2  1  0.61663000  0.00035000  0.99978000  1.0
  Al  Al3  1  0.11699000  0.99844000  0.00125000  1.0
  H  H4  1  0.55110000  0.29408000  0.68429000  1.0
  H  H5  1  0.55285000  0.17897000  0.80540000  1.0
  H  H6  1  0.19076000  0.20224000  0.81521000  1.0
  H  H7  1  0.18885000  0.31763000  0.69412000  1.0
  H  H8  1  0.59385000  0.42066000  0.32239000  1.0
  H  H9  1  0.15805000  0.30549000  0.40604000  1.0
  H  H10  1  0.31579000  0.19655000  0.36039000  1.0
  H  H11  1  0.30953000  0.11219000  0.27799000  1.0
  H  H12  1  0.15037000  0.07766000  0.17849000  1.0
  H  H13  1  0.58280000  0.18852000  0.09688000  1.0
  H  H14  1  0.45837000  0.39931000  0.21297000  1.0
  H  H15  1  0.09934000  0.80275000  0.91120000  1.0
  H  H16  1  0.65060000  0.92310000  0.81856000  1.0
  H  H17  1  0.80355000  0.89021000  0.71650000  1.0
  H  H18  1  0.79805000  0.81045000  0.63055000  1.0
  H  H19  1  0.64341000  0.70097000  0.58715000  1.0
  H  H20  1  0.09346000  0.57872000  0.67881000  1.0
  H  H21  1  0.05875000  0.71232000  0.32276000  1.0
  H  H22  1  0.05552000  0.82724000  0.20187000  1.0
  H  H23  1  0.68088000  0.78309000  0.17548000  1.0
  H  H24  1  0.68412000  0.66827000  0.29641000  1.0
  H  H25  1  0.62696000  0.32791000  0.02663000  1.0
  H  H26  1  0.37867000  0.37121000  0.93022000  1.0
  H  H27  1  0.02544000  0.40208000  0.95562000  1.0
  H  H28  1  0.92627000  0.39040000  0.07971000  1.0
  H  H29  1  0.17388000  0.34429000  0.17701000  1.0
  H  H30  1  0.66627000  0.64484000  0.79395000  1.0
  H  H31  1  0.43739000  0.52354000  0.80918000  1.0
  H  H32  1  0.57440000  0.37669000  0.82407000  1.0
  H  H33  1  0.94320000  0.35507000  0.82582000  1.0
  H  H34  1  0.17147000  0.47781000  0.80861000  1.0
  H  H35  1  0.37505000  0.39555000  0.49636000  1.0
  H  H36  1  0.87280000  0.60348000  0.50490000  1.0
  H  H37  1  0.36374000  0.10114000  0.00960000  1.0
  H  H38  1  0.86582000  0.89518000  0.99567000  1.0
  C  C39  1  0.36664000  0.58600000  0.57808000  1.0
  C  C40  1  0.37422000  0.61673000  0.38779000  1.0
  C  C41  1  0.87479000  0.41503000  0.42085000  1.0
  C  C42  1  0.86896000  0.38173000  0.61205000  1.0
  C  C43  1  0.68979000  0.27347000  0.71368000  1.0
  C  C44  1  0.69065000  0.21024000  0.78043000  1.0
  C  C45  1  0.87162000  0.18512000  0.81701000  1.0
  C  C46  1  0.05217000  0.22290000  0.78572000  1.0
  C  C47  1  0.05115000  0.28622000  0.71901000  1.0
  C  C48  1  0.86978000  0.31219000  0.68293000  1.0
  C  C49  1  0.71538000  0.37647000  0.32192000  1.0
  C  C50  1  0.87433000  0.36626000  0.36964000  1.0
  C  C51  1  0.03398000  0.31120000  0.36935000  1.0
  C  C52  1  0.03377000  0.26232000  0.32346000  1.0
  C  C53  1  0.87219000  0.27266000  0.27433000  1.0
  C  C54  1  0.71482000  0.33248000  0.27225000  1.0
  C  C55  1  0.19153000  0.20307000  0.32352000  1.0
  C  C56  1  0.18792000  0.15655000  0.27809000  1.0
  C  C57  1  0.02773000  0.16564000  0.22836000  1.0
  C  C58  1  0.86888000  0.22501000  0.22646000  1.0
  C  C59  1  0.71105000  0.23788000  0.17535000  1.0
  C  C60  1  0.56449000  0.30537000  0.16882000  1.0
  C  C61  1  0.56731000  0.34831000  0.21756000  1.0
  C  C62  1  0.02647000  0.12031000  0.17991000  1.0
  C  C63  1  0.86485000  0.12850000  0.13384000  1.0
  C  C64  1  0.70701000  0.18478000  0.13292000  1.0
  C  C65  1  0.21769000  0.81039000  0.87177000  1.0
  C  C66  1  0.37253000  0.86847000  0.86833000  1.0
  C  C67  1  0.52880000  0.87898000  0.81919000  1.0
  C  C68  1  0.52753000  0.83422000  0.77024000  1.0
  C  C69  1  0.36967000  0.77442000  0.77346000  1.0
  C  C70  1  0.21676000  0.76024000  0.82698000  1.0
  C  C71  1  0.68216000  0.84568000  0.71753000  1.0
  C  C72  1  0.67897000  0.80183000  0.67012000  1.0
  C  C73  1  0.52205000  0.74205000  0.67182000  1.0
  C  C74  1  0.36719000  0.72808000  0.72463000  1.0
  C  C75  1  0.21480000  0.66548000  0.72977000  1.0
  C  C76  1  0.07196000  0.64456000  0.78845000  1.0
  C  C77  1  0.07465000  0.69237000  0.83367000  1.0
  C  C78  1  0.52187000  0.69382000  0.62553000  1.0
  C  C79  1  0.36631000  0.63656000  0.62801000  1.0
  C  C80  1  0.21224000  0.62384000  0.67848000  1.0
  C  C81  1  0.19356000  0.72848000  0.28987000  1.0
  C  C82  1  0.19174000  0.79173000  0.22320000  1.0
  C  C83  1  0.36797000  0.81123000  0.18222000  1.0
  C  C84  1  0.54601000  0.76701000  0.20837000  1.0
  C  C85  1  0.54785000  0.70377000  0.27510000  1.0
  C  C86  1  0.37171000  0.68436000  0.31610000  1.0
  C  C87  1  0.36512000  0.87948000  0.11082000  1.0
  C  C88  1  0.37178000  0.91800000  0.91901000  1.0
  C  C89  1  0.87126000  0.11821000  0.88928000  1.0
  C  C90  1  0.86335000  0.07994000  0.08261000  1.0
  C  C91  1  0.41768000  0.33062000  0.10978000  1.0
  C  C92  1  0.47246000  0.33934000  0.03917000  1.0
  C  C93  1  0.33209000  0.36456000  0.98444000  1.0
  C  C94  1  0.13460000  0.38239000  0.99858000  1.0
  C  C95  1  0.07943000  0.37596000  0.06801000  1.0
  C  C96  1  0.21932000  0.35042000  0.12281000  1.0
  C  C97  1  0.93473000  0.57070000  0.79902000  1.0
  C  C98  1  0.72688000  0.58159000  0.80017000  1.0
  C  C99  1  0.59813000  0.51252000  0.80911000  1.0
  C  C100  1  0.67443000  0.43083000  0.81784000  1.0
  C  C101  1  0.88148000  0.41866000  0.81823000  1.0
  C  C102  1  0.01016000  0.48810000  0.80840000  1.0
  Br  Br103  1  0.89712000  0.66428000  0.91400000  1.0
  O  O104  1  0.54534000  0.58880000  0.41313000  1.0
  O  O105  1  0.19756000  0.56095000  0.56319000  1.0
  O  O106  1  0.03926000  0.40663000  0.58376000  1.0
  O  O107  1  0.20569000  0.59277000  0.41827000  1.0
  O  O108  1  0.04453000  0.43351000  0.44098000  1.0
  O  O109  1  0.53590000  0.57148000  0.55426000  1.0
  O  O110  1  0.37300000  0.44800000  0.50822000  1.0
  O  O111  1  0.70501000  0.43412000  0.44112000  1.0
  O  O112  1  0.69905000  0.41008000  0.58555000  1.0
  O  O113  1  0.87232000  0.55143000  0.49245000  1.0
  O  O114  1  0.20276000  0.93115000  0.94370000  1.0
  O  O115  1  0.53334000  0.90373000  0.08021000  1.0
  O  O116  1  0.69351000  0.06197000  0.06222000  1.0
  O  O117  1  0.54073000  0.94278000  0.93419000  1.0
  O  O118  1  0.70086000  0.09493000  0.91814000  1.0
  O  O119  1  0.19386000  0.90783000  0.08596000  1.0
  O  O120  1  0.36587000  0.05126000  0.99406000  1.0
  O  O121  1  0.04086000  0.09054000  0.91635000  1.0
  O  O122  1  0.03308000  0.06142000  0.06194000  1.0
  O  O123  1  0.86634000  0.94815000  0.00672000  1.0
