# generated using pymatgen
data_ZnH36C31NO4F3
_symmetry_space_group_name_H-M   'P 1'
_cell_length_a   8.78304000
_cell_length_b   16.90020000
_cell_length_c   17.62210000
_cell_angle_alpha   94.50580000
_cell_angle_beta   98.43770000
_cell_angle_gamma   98.34730000
_symmetry_Int_Tables_number   1
_chemical_formula_structural   ZnH36C31NO4F3
_chemical_formula_sum   'Zn2 H72 C62 N2 O8 F6'
_cell_volume   2546.65418384
_cell_formula_units_Z   2
loop_
 _symmetry_equiv_pos_site_id
 _symmetry_equiv_pos_as_xyz
  1  'x, y, z'
loop_
 _atom_site_type_symbol
 _atom_site_label
 _atom_site_symmetry_multiplicity
 _atom_site_fract_x
 _atom_site_fract_y
 _atom_site_fract_z
 _atom_site_occupancy
  Zn  Zn0  1  0.48403000  0.40878000  0.49739000  1.0
  Zn  Zn1  1  0.48620000  0.58998000  0.48814000  1.0
  H  H2  1  0.00234000  0.58830000  0.48641000  1.0
  H  H3  1  0.58662000  0.83887000  0.77899000  1.0
  H  H4  1  0.54452000  0.80826000  0.67840000  1.0
  H  H5  1  0.40167000  0.84596000  0.72593000  1.0
  H  H6  1  0.34396000  0.69457000  0.69907000  1.0
  H  H7  1  0.37171000  0.72640000  0.79865000  1.0
  H  H8  1  0.64473000  0.69630000  0.81266000  1.0
  H  H9  1  0.61728000  0.66564000  0.71182000  1.0
  H  H10  1  0.73602000  0.75245000  0.05702000  1.0
  H  H11  1  0.57168000  0.78825000  0.08629000  1.0
  H  H12  1  0.76060000  0.82405000  0.13914000  1.0
  H  H13  1  0.96616000  0.40458000  0.49032000  1.0
  H  H14  1  0.61568000  0.72258000  0.20993000  1.0
  H  H15  1  0.77897000  0.68648000  0.18135000  1.0
  H  H16  1  0.60521000  0.61369000  0.06076000  1.0
  H  H17  1  0.44440000  0.64585000  0.09285000  1.0
  H  H18  1  0.13671000  0.23655000  0.90943000  1.0
  H  H19  1  0.01096000  0.22366000  0.81934000  1.0
  H  H20  1  0.16655000  0.16726000  0.83396000  1.0
  H  H21  1  0.24308000  0.28003000  0.75632000  1.0
  H  H22  1  0.36052000  0.29639000  0.84814000  1.0
  H  H23  1  0.17374000  0.38524000  0.89307000  1.0
  H  H24  1  0.53653000  0.19630000  0.32563000  1.0
  H  H25  1  0.07133000  0.37329000  0.79762000  1.0
  H  H26  1  0.05200000  0.14547000  0.68940000  1.0
  H  H27  1  0.97048000  0.04994000  0.63895000  1.0
  H  H28  1  0.11985000  0.11271000  0.60403000  1.0
  H  H29  1  0.85925000  0.11683000  0.52573000  1.0
  H  H30  1  0.94070000  0.21232000  0.57365000  1.0
  H  H31  1  0.77235000  0.19191000  0.67472000  1.0
  H  H32  1  0.70145000  0.09224000  0.63377000  1.0
  H  H33  1  0.06507000  0.98298000  0.38709000  1.0
  H  H34  1  0.96127000  0.88611000  0.35008000  1.0
  H  H35  1  0.46065000  0.15349000  0.22977000  1.0
  H  H36  1  0.92853000  0.93232000  0.43904000  1.0
  H  H37  1  0.09783000  0.82726000  0.46426000  1.0
  H  H38  1  0.20144000  0.92333000  0.50000000  1.0
  H  H39  1  0.32773000  0.92874000  0.38149000  1.0
  H  H40  1  0.22325000  0.83278000  0.34493000  1.0
  H  H41  1  0.80507000  0.37040000  0.78681000  1.0
  H  H42  1  0.69470000  0.44271000  0.74910000  1.0
  H  H43  1  0.62525000  0.38158000  0.81803000  1.0
  H  H44  1  0.47991000  0.33166000  0.68592000  1.0
  H  H45  1  0.58968000  0.25900000  0.72198000  1.0
  H  H46  1  0.66450000  0.16770000  0.26329000  1.0
  H  H47  1  0.80036000  0.31060000  0.64512000  1.0
  H  H48  1  0.68849000  0.38253000  0.61208000  1.0
  H  H49  1  0.17704000  0.56889000  0.26860000  1.0
  H  H50  1  0.06991000  0.64807000  0.24656000  1.0
  H  H51  1  0.21213000  0.62456000  0.18984000  1.0
  H  H52  1  0.32378000  0.74756000  0.28125000  1.0
  H  H53  1  0.42363000  0.66703000  0.30452000  1.0
  H  H54  1  0.25789000  0.63459000  0.40526000  1.0
  H  H55  1  0.16197000  0.71663000  0.38590000  1.0
  H  H56  1  0.99078000  0.32002000  0.36771000  1.0
  H  H57  1  0.60953000  0.27609000  0.18078000  1.0
  H  H58  1  0.94904000  0.21826000  0.32676000  1.0
  H  H59  1  0.85899000  0.24944000  0.40546000  1.0
  H  H60  1  0.07917000  0.17529000  0.45092000  1.0
  H  H61  1  0.11876000  0.27672000  0.49207000  1.0
  H  H62  1  0.28332000  0.31392000  0.39338000  1.0
  H  H63  1  0.24470000  0.21333000  0.35001000  1.0
  H  H64  1  0.05461000  0.74806000  0.66935000  1.0
  H  H65  1  0.00012000  0.64972000  0.62071000  1.0
  H  H66  1  0.14565000  0.71847000  0.59036000  1.0
  H  H67  1  0.89462000  0.71001000  0.49945000  1.0
  H  H68  1  0.66919000  0.31864000  0.27737000  1.0
  H  H69  1  0.94577000  0.80700000  0.55081000  1.0
  H  H70  1  0.76539000  0.76505000  0.64314000  1.0
  H  H71  1  0.71251000  0.66892000  0.59110000  1.0
  H  H72  1  0.39099000  0.31774000  0.29309000  1.0
  H  H73  1  0.33040000  0.27688000  0.19530000  1.0
  C  C74  1  0.45463000  0.52313000  0.63783000  1.0
  C  C75  1  0.62687000  0.76460000  0.53423000  1.0
  C  C76  1  0.40807000  0.14938000  0.45872000  1.0
  C  C77  1  0.63410000  0.84756000  0.53700000  1.0
  C  C78  1  0.52233000  0.12292000  0.50989000  1.0
  C  C79  1  0.52354000  0.88397000  0.49319000  1.0
  C  C80  1  0.53386000  0.04051000  0.50559000  1.0
  C  C81  1  0.53266000  0.96815000  0.50024000  1.0
  C  C82  1  0.77813000  0.51790000  0.50007000  1.0
  C  C83  1  0.19017000  0.47929000  0.48033000  1.0
  C  C84  1  0.94419000  0.52783000  0.49118000  1.0
  C  C85  1  0.49270000  0.47336000  0.34577000  1.0
  C  C86  1  0.02254000  0.46582000  0.48716000  1.0
  C  C87  1  0.42538000  0.40742000  0.13183000  1.0
  C  C88  1  0.46618000  0.57365000  0.85189000  1.0
  C  C89  1  0.44855000  0.39857000  0.21036000  1.0
  C  C90  1  0.48197000  0.58784000  0.77657000  1.0
  C  C91  1  0.50282000  0.46971000  0.26068000  1.0
  C  C92  1  0.41221000  0.52541000  0.71788000  1.0
  C  C93  1  0.54919000  0.54155000  0.22877000  1.0
  C  C94  1  0.31392000  0.45982000  0.73852000  1.0
  C  C95  1  0.52539000  0.55113000  0.15053000  1.0
  C  C96  1  0.41904000  0.48474000  0.02059000  1.0
  C  C97  1  0.29509000  0.44641000  0.81371000  1.0
  C  C98  1  0.45486000  0.48078000  0.10062000  1.0
  C  C99  1  0.38280000  0.50356000  0.87300000  1.0
  C  C100  1  0.42428000  0.31532000  0.23574000  1.0
  C  C101  1  0.57529000  0.27831000  0.23850000  1.0
  C  C102  1  0.55815000  0.19436000  0.26566000  1.0
  C  C103  1  0.55839000  0.66982000  0.76219000  1.0
  C  C104  1  0.43170000  0.72383000  0.74802000  1.0
  C  C105  1  0.49486000  0.80883000  0.73209000  1.0
  C  C106  1  0.55863000  0.62852000  0.11396000  1.0
  C  C107  1  0.39237000  0.49210000  0.95179000  1.0
  C  C108  1  0.66449000  0.70221000  0.15926000  1.0
  C  C109  1  0.68466000  0.77051000  0.10773000  1.0
  C  C110  1  0.18740000  0.37529000  0.83214000  1.0
  C  C111  1  0.24033000  0.29332000  0.81820000  1.0
  C  C112  1  0.13299000  0.22647000  0.84669000  1.0
  C  C113  1  0.74410000  0.15314000  0.62000000  1.0
  C  C114  1  0.89222000  0.15076000  0.58321000  1.0
  C  C115  1  0.01537000  0.11269000  0.63166000  1.0
  C  C116  1  0.27574000  0.87083000  0.39833000  1.0
  C  C117  1  0.14762000  0.88515000  0.44651000  1.0
  C  C118  1  0.61752000  0.18063000  0.56593000  1.0
  C  C119  1  0.01858000  0.92378000  0.40324000  1.0
  C  C120  1  0.67994000  0.32200000  0.63043000  1.0
  C  C121  1  0.59936000  0.31970000  0.70246000  1.0
  C  C122  1  0.68597000  0.38191000  0.76778000  1.0
  C  C123  1  0.27399000  0.69470000  0.38567000  1.0
  C  C124  1  0.31080000  0.68787000  0.30287000  1.0
  C  C125  1  0.18524000  0.62924000  0.24886000  1.0
  C  C126  1  0.25778000  0.25116000  0.40496000  1.0
  C  C127  1  0.10367000  0.23799000  0.43750000  1.0
  C  C128  1  0.96805000  0.25745000  0.38127000  1.0
  C  C129  1  0.40156000  0.83339000  0.44304000  1.0
  C  C130  1  0.75074000  0.73231000  0.58530000  1.0
  C  C131  1  0.90927000  0.74311000  0.55697000  1.0
  C  C132  1  0.03410000  0.71328000  0.61232000  1.0
  C  C133  1  0.59302000  0.26119000  0.56619000  1.0
  C  C134  1  0.39865000  0.74973000  0.44079000  1.0
  C  C135  1  0.38917000  0.22959000  0.45948000  1.0
  N  N136  1  0.48437000  0.28469000  0.51253000  1.0
  N  N137  1  0.50817000  0.71684000  0.48578000  1.0
  O  O138  1  0.45624000  0.45298000  0.60652000  1.0
  O  O139  1  0.44754000  0.53603000  0.37327000  1.0
  O  O140  1  0.49125000  0.58866000  0.60912000  1.0
  O  O141  1  0.52185000  0.41362000  0.38222000  1.0
  O  O142  1  0.71701000  0.45171000  0.52039000  1.0
  O  O143  1  0.25778000  0.55204000  0.48872000  1.0
  O  O144  1  0.71041000  0.57832000  0.48610000  1.0
  O  O145  1  0.25286000  0.41703000  0.46848000  1.0
  F  F146  1  0.36893000  0.34050000  0.08107000  1.0
  F  F147  1  0.53736000  0.63121000  0.91028000  1.0
  F  F148  1  0.62449000  0.60596000  0.27879000  1.0
  F  F149  1  0.22650000  0.40500000  0.68173000  1.0
  F  F150  1  0.31156000  0.09419000  0.40611000  1.0
  F  F151  1  0.75170000  0.89563000  0.58585000  1.0
