# generated using pymatgen
data_AlH12C16IO5
_symmetry_space_group_name_H-M   'P 1'
_cell_length_a   6.66810000
_cell_length_b   18.54410000
_cell_length_c   21.52930000
_cell_angle_alpha   77.98300000
_cell_angle_beta   89.99750000
_cell_angle_gamma   89.99610000
_symmetry_Int_Tables_number   1
_chemical_formula_structural   AlH12C16IO5
_chemical_formula_sum   'Al4 H48 C64 I4 O20'
_cell_volume   2603.84277722
_cell_formula_units_Z   4
loop_
 _symmetry_equiv_pos_site_id
 _symmetry_equiv_pos_as_xyz
  1  'x, y, z'
loop_
 _atom_site_type_symbol
 _atom_site_label
 _atom_site_symmetry_multiplicity
 _atom_site_fract_x
 _atom_site_fract_y
 _atom_site_fract_z
 _atom_site_occupancy
  Al  Al0  1  0.16261000  0.74963000  0.74959000  1.0
  Al  Al1  1  0.83738000  0.25039000  0.25041000  1.0
  Al  Al2  1  0.66265000  0.75043000  0.75055000  1.0
  Al  Al3  1  0.33735000  0.24958000  0.24945000  1.0
  H  H4  1  0.81941000  0.43910000  0.11534000  1.0
  H  H5  1  0.18058000  0.56092000  0.88465000  1.0
  H  H6  1  0.31954000  0.06078000  0.38462000  1.0
  H  H7  1  0.68046000  0.93923000  0.61539000  1.0
  H  H8  1  0.78527000  0.42956000  0.58402000  1.0
  H  H9  1  0.21473000  0.57042000  0.41598000  1.0
  H  H10  1  0.28513000  0.07029000  0.91596000  1.0
  H  H11  1  0.71484000  0.92969000  0.08405000  1.0
  H  H12  1  0.41552000  0.31294000  0.00084000  1.0
  H  H13  1  0.52358000  0.33851000  0.06837000  1.0
  H  H14  1  0.32124000  0.27632000  0.07781000  1.0
  H  H15  1  0.58446000  0.68706000  0.99916000  1.0
  H  H16  1  0.67879000  0.72368000  0.92219000  1.0
  H  H17  1  0.47642000  0.66150000  0.93161000  1.0
  H  H18  1  0.91508000  0.18717000  0.49910000  1.0
  H  H19  1  0.02366000  0.16146000  0.43171000  1.0
  H  H20  1  0.82123000  0.22362000  0.42203000  1.0
  H  H21  1  0.08499000  0.81283000  0.50090000  1.0
  H  H22  1  0.17877000  0.77636000  0.57797000  1.0
  H  H23  1  0.97636000  0.83854000  0.56828000  1.0
  H  H24  1  0.48812000  0.58934000  0.05043000  1.0
  H  H25  1  0.53621000  0.49423000  0.07389000  1.0
  H  H26  1  0.66961000  0.55709000  0.11006000  1.0
  H  H27  1  0.51187000  0.41066000  0.94956000  1.0
  H  H28  1  0.33035000  0.44292000  0.88993000  1.0
  H  H29  1  0.46378000  0.50578000  0.92610000  1.0
  H  H30  1  0.98829000  0.91055000  0.44958000  1.0
  H  H31  1  0.03612000  0.00568000  0.42615000  1.0
  H  H32  1  0.16970000  0.94289000  0.38995000  1.0
  H  H33  1  0.01172000  0.08944000  0.55041000  1.0
  H  H34  1  0.83034000  0.05711000  0.61005000  1.0
  H  H35  1  0.96392000  0.99432000  0.57385000  1.0
  H  H36  1  0.48956000  0.52674000  0.54068000  1.0
  H  H37  1  0.35800000  0.60860000  0.54559000  1.0
  H  H38  1  0.34137000  0.53021000  0.60882000  1.0
  H  H39  1  0.51043000  0.47326000  0.45932000  1.0
  H  H40  1  0.65861000  0.46978000  0.39118000  1.0
  H  H41  1  0.64199000  0.39139000  0.45442000  1.0
  H  H42  1  0.98957000  0.97323000  0.95930000  1.0
  H  H43  1  0.85802000  0.89135000  0.95446000  1.0
  H  H44  1  0.84130000  0.96971000  0.89119000  1.0
  H  H45  1  0.01042000  0.02675000  0.04070000  1.0
  H  H46  1  0.15865000  0.03028000  0.10882000  1.0
  H  H47  1  0.14194000  0.10863000  0.04555000  1.0
  H  H48  1  0.41480000  0.65301000  0.77369000  1.0
  H  H49  1  0.58520000  0.34699000  0.22618000  1.0
  H  H50  1  0.91476000  0.84662000  0.72397000  1.0
  H  H51  1  0.08523000  0.15337000  0.27592000  1.0
  C  C52  1  0.40941000  0.83282000  0.82348000  1.0
  C  C53  1  0.59060000  0.16716000  0.17654000  1.0
  C  C54  1  0.90954000  0.66700000  0.67671000  1.0
  C  C55  1  0.09047000  0.33300000  0.32329000  1.0
  C  C56  1  0.41396000  0.83890000  0.65031000  1.0
  C  C57  1  0.58605000  0.16111000  0.34970000  1.0
  C  C58  1  0.91398000  0.66122000  0.84977000  1.0
  C  C59  1  0.08600000  0.33879000  0.15022000  1.0
  C  C60  1  0.08298000  0.39039000  0.08701000  1.0
  C  C61  1  0.91701000  0.60961000  0.91298000  1.0
  C  C62  1  0.58302000  0.10955000  0.41294000  1.0
  C  C63  1  0.41700000  0.89045000  0.58707000  1.0
  C  C64  1  0.76765000  0.55419000  0.01435000  1.0
  C  C65  1  0.23233000  0.44581000  0.98564000  1.0
  C  C66  1  0.26772000  0.94578000  0.48567000  1.0
  C  C67  1  0.73231000  0.05421000  0.51433000  1.0
  C  C68  1  0.76668000  0.61075000  0.96027000  1.0
  C  C69  1  0.23330000  0.38925000  0.03972000  1.0
  C  C70  1  0.26674000  0.88925000  0.53977000  1.0
  C  C71  1  0.73329000  0.11074000  0.46024000  1.0
  C  C72  1  0.06915000  0.55765000  0.92202000  1.0
  C  C73  1  0.93084000  0.44235000  0.07796000  1.0
  C  C74  1  0.56910000  0.94242000  0.57801000  1.0
  C  C75  1  0.43091000  0.05759000  0.42200000  1.0
  C  C76  1  0.07786000  0.50093000  0.97692000  1.0
  C  C77  1  0.92213000  0.49908000  0.02307000  1.0
  C  C78  1  0.57785000  0.99910000  0.52308000  1.0
  C  C79  1  0.42216000  0.00090000  0.47692000  1.0
  C  C80  1  0.88080000  0.46049000  0.54646000  1.0
  C  C81  1  0.11920000  0.53949000  0.45354000  1.0
  C  C82  1  0.38072000  0.03944000  0.95353000  1.0
  C  C83  1  0.61925000  0.96055000  0.04648000  1.0
  C  C84  1  0.09980000  0.44023000  0.53082000  1.0
  C  C85  1  0.90020000  0.55976000  0.46919000  1.0
  C  C86  1  0.59970000  0.05975000  0.96912000  1.0
  C  C87  1  0.40027000  0.94025000  0.03089000  1.0
  C  C88  1  0.09198000  0.37684000  0.37130000  1.0
  C  C89  1  0.90805000  0.62315000  0.62871000  1.0
  C  C90  1  0.59208000  0.12334000  0.12853000  1.0
  C  C91  1  0.40790000  0.87662000  0.87151000  1.0
  C  C92  1  0.82852000  0.47806000  0.47387000  1.0
  C  C93  1  0.17148000  0.52194000  0.52613000  1.0
  C  C94  1  0.32847000  0.02195000  0.02613000  1.0
  C  C95  1  0.67150000  0.97804000  0.97389000  1.0
  C  C96  1  0.05024000  0.45734000  0.45714000  1.0
  C  C97  1  0.94975000  0.54266000  0.54286000  1.0
  C  C98  1  0.55019000  0.04271000  0.04280000  1.0
  C  C99  1  0.44977000  0.95727000  0.95721000  1.0
  C  C100  1  0.08709000  0.41374000  0.41191000  1.0
  C  C101  1  0.91292000  0.58625000  0.58810000  1.0
  C  C102  1  0.58709000  0.08638000  0.08797000  1.0
  C  C103  1  0.41288000  0.91360000  0.91205000  1.0
  C  C104  1  0.38090000  0.32621000  0.04699000  1.0
  C  C105  1  0.61910000  0.67379000  0.95300000  1.0
  C  C106  1  0.88078000  0.17380000  0.45296000  1.0
  C  C107  1  0.11925000  0.82619000  0.54704000  1.0
  C  C108  1  0.60764000  0.54889000  0.06461000  1.0
  C  C109  1  0.39234000  0.45111000  0.93538000  1.0
  C  C110  1  0.10773000  0.95105000  0.43541000  1.0
  C  C111  1  0.89231000  0.04895000  0.56459000  1.0
  C  C112  1  0.34995000  0.54808000  0.55690000  1.0
  C  C113  1  0.65004000  0.45191000  0.44310000  1.0
  C  C114  1  0.84995000  0.95187000  0.94311000  1.0
  C  C115  1  0.15001000  0.04811000  0.05690000  1.0
  I  I116  1  0.25804000  0.34587000  0.57921000  1.0
  I  I117  1  0.74197000  0.65412000  0.42079000  1.0
  I  I118  1  0.75785000  0.15409000  0.92070000  1.0
  I  I119  1  0.24209000  0.84589000  0.07930000  1.0
  O  O120  1  0.58300000  0.82020000  0.67651000  1.0
  O  O121  1  0.41700000  0.17981000  0.32350000  1.0
  O  O122  1  0.08298000  0.67988000  0.82354000  1.0
  O  O123  1  0.91701000  0.32013000  0.17646000  1.0
  O  O124  1  0.23982000  0.81592000  0.80370000  1.0
  O  O125  1  0.76017000  0.18408000  0.19631000  1.0
  O  O126  1  0.73989000  0.68388000  0.69651000  1.0
  O  O127  1  0.26011000  0.31613000  0.30348000  1.0
  O  O128  1  0.24379000  0.81956000  0.67531000  1.0
  O  O129  1  0.75619000  0.18045000  0.32469000  1.0
  O  O130  1  0.74384000  0.68066000  0.82480000  1.0
  O  O131  1  0.25615000  0.31936000  0.17519000  1.0
  O  O132  1  0.08195000  0.68401000  0.69480000  1.0
  O  O133  1  0.91806000  0.31601000  0.30519000  1.0
  O  O134  1  0.58182000  0.81593000  0.80529000  1.0
  O  O135  1  0.41819000  0.18406000  0.19473000  1.0
  O  O136  1  0.41297000  0.70569000  0.75724000  1.0
  O  O137  1  0.58702000  0.29433000  0.24276000  1.0
  O  O138  1  0.91298000  0.79444000  0.74268000  1.0
  O  O139  1  0.08700000  0.20558000  0.25732000  1.0
