# generated using pymatgen
data_Cu2H9C16N5O8
_symmetry_space_group_name_H-M   'P 1'
_cell_length_a   8.53449000
_cell_length_b   9.14911000
_cell_length_c   15.13992484
_cell_angle_alpha   107.54686408
_cell_angle_beta   103.11474281
_cell_angle_gamma   90.00430000
_symmetry_Int_Tables_number   1
_chemical_formula_structural   Cu2H9C16N5O8
_chemical_formula_sum   'Cu4 H18 C32 N10 O16'
_cell_volume   1094.77648171
_cell_formula_units_Z   2
loop_
 _symmetry_equiv_pos_site_id
 _symmetry_equiv_pos_as_xyz
  1  'x, y, z'
loop_
 _atom_site_type_symbol
 _atom_site_label
 _atom_site_symmetry_multiplicity
 _atom_site_fract_x
 _atom_site_fract_y
 _atom_site_fract_z
 _atom_site_occupancy
  Cu  Cu0  1  0.64586000  0.79700000  0.57155000  1.0
  Cu  Cu1  1  0.85388000  0.22575000  0.42866000  1.0
  Cu  Cu2  1  0.35418000  0.20297000  0.42845000  1.0
  Cu  Cu3  1  0.14613000  0.77425000  0.57131000  1.0
  H  H4  1  0.24995000  0.02381000  0.00015000  1.0
  H  H5  1  0.75003000  0.97618000  0.99986000  1.0
  H  H6  1  0.84624000  0.03103000  0.73012000  1.0
  H  H7  1  0.65326000  0.30141000  0.27002000  1.0
  H  H8  1  0.15372000  0.96897000  0.26987000  1.0
  H  H9  1  0.34676000  0.69857000  0.72996000  1.0
  H  H10  1  0.06376000  0.04134000  0.87221000  1.0
  H  H11  1  0.43548000  0.16939000  0.12819000  1.0
  H  H12  1  0.93619000  0.95869000  0.12780000  1.0
  H  H13  1  0.56447000  0.83061000  0.87181000  1.0
  H  H14  1  0.93288000  0.56019000  0.82173000  1.0
  H  H15  1  0.56813000  0.73900000  0.17865000  1.0
  H  H16  1  0.06707000  0.43981000  0.17826000  1.0
  H  H17  1  0.43186000  0.26098000  0.82136000  1.0
  H  H18  1  0.72266000  0.57027000  0.67946000  1.0
  H  H19  1  0.77852000  0.89151000  0.32064000  1.0
  H  H20  1  0.27731000  0.42972000  0.32052000  1.0
  H  H21  1  0.22150000  0.10851000  0.67934000  1.0
  C  C22  1  0.14625000  0.79213000  0.93859000  1.0
  C  C23  1  0.35392000  0.85378000  0.06180000  1.0
  C  C24  1  0.85371000  0.20787000  0.06142000  1.0
  C  C25  1  0.64604000  0.14621000  0.93820000  1.0
  C  C26  1  0.86916000  0.93032000  0.75387000  1.0
  C  C27  1  0.63075000  0.17696000  0.24631000  1.0
  C  C28  1  0.13082000  0.06967000  0.24612000  1.0
  C  C29  1  0.36926000  0.82304000  0.75367000  1.0
  C  C30  1  0.98996000  0.93410000  0.83345000  1.0
  C  C31  1  0.50977000  0.10103000  0.16690000  1.0
  C  C32  1  0.01003000  0.06592000  0.16656000  1.0
  C  C33  1  0.49019000  0.89897000  0.83309000  1.0
  C  C34  1  0.01676000  0.79962000  0.85940000  1.0
  C  C35  1  0.48338000  0.94058000  0.14095000  1.0
  C  C36  1  0.98322000  0.20039000  0.14061000  1.0
  C  C37  1  0.51659000  0.05942000  0.85906000  1.0
  C  C38  1  0.91592000  0.66698000  0.80429000  1.0
  C  C39  1  0.58471000  0.86323000  0.19602000  1.0
  C  C40  1  0.08404000  0.33301000  0.19570000  1.0
  C  C41  1  0.41526000  0.13675000  0.80398000  1.0
  C  C42  1  0.79880000  0.67259000  0.72547000  1.0
  C  C43  1  0.70200000  0.94775000  0.27469000  1.0
  C  C44  1  0.20119000  0.32741000  0.27452000  1.0
  C  C45  1  0.29800000  0.05225000  0.72529000  1.0
  C  C46  1  0.51328000  0.05710000  0.55021000  1.0
  C  C47  1  0.98687000  0.50692000  0.44978000  1.0
  C  C48  1  0.48676000  0.94284000  0.44980000  1.0
  C  C49  1  0.01322000  0.49315000  0.55024000  1.0
  C  C50  1  0.42083000  0.52125000  0.51686000  1.0
  C  C51  1  0.07912000  0.00435000  0.48305000  1.0
  C  C52  1  0.57920000  0.47876000  0.48315000  1.0
  C  C53  1  0.92090000  0.99565000  0.51697000  1.0
  N  N54  1  0.77623000  0.80144000  0.69997000  1.0
  N  N55  1  0.72425000  0.10202000  0.30007000  1.0
  N  N56  1  0.22378000  0.19857000  0.30002000  1.0
  N  N57  1  0.27578000  0.89796000  0.69988000  1.0
  N  N58  1  0.18565000  0.66506000  0.96196000  1.0
  N  N59  1  0.31482000  0.70335000  0.03848000  1.0
  N  N60  1  0.81430000  0.33494000  0.03805000  1.0
  N  N61  1  0.68513000  0.29665000  0.96153000  1.0
  N  N62  1  0.25002000  0.91309000  0.00018000  1.0
  N  N63  1  0.74995000  0.08690000  0.99982000  1.0
  O  O64  1  0.58379000  0.01182000  0.61946000  1.0
  O  O65  1  0.91635000  0.39250000  0.38057000  1.0
  O  O66  1  0.41624000  0.98813000  0.38055000  1.0
  O  O67  1  0.08377000  0.60761000  0.61940000  1.0
  O  O68  1  0.46228000  0.18890000  0.55813000  1.0
  O  O69  1  0.03791000  0.63077000  0.44178000  1.0
  O  O70  1  0.53775000  0.81101000  0.44186000  1.0
  O  O71  1  0.96221000  0.36934000  0.55830000  1.0
  O  O72  1  0.41342000  0.65696000  0.56718000  1.0
  O  O73  1  0.08638000  0.08973000  0.43268000  1.0
  O  O74  1  0.58659000  0.34307000  0.43286000  1.0
  O  O75  1  0.91366000  0.91024000  0.56735000  1.0
  O  O76  1  0.30700000  0.41544000  0.49053000  1.0
  O  O77  1  0.19302000  0.92480000  0.50933000  1.0
  O  O78  1  0.69302000  0.58457000  0.50947000  1.0
  O  O79  1  0.80696000  0.07518000  0.49069000  1.0
