# generated using pymatgen
data_SrH2(CO2)2
_symmetry_space_group_name_H-M   'P 1'
_cell_length_a   6.79858000
_cell_length_b   7.27584000
_cell_length_c   8.90371000
_cell_angle_alpha   89.99990000
_cell_angle_beta   89.99980000
_cell_angle_gamma   89.99950000
_symmetry_Int_Tables_number   1
_chemical_formula_structural   SrH2(CO2)2
_chemical_formula_sum   'Sr4 H8 C8 O16'
_cell_volume   440.42540127
_cell_formula_units_Z   4
loop_
 _symmetry_equiv_pos_site_id
 _symmetry_equiv_pos_as_xyz
  1  'x, y, z'
loop_
 _atom_site_type_symbol
 _atom_site_label
 _atom_site_symmetry_multiplicity
 _atom_site_fract_x
 _atom_site_fract_y
 _atom_site_fract_z
 _atom_site_occupancy
  Sr  Sr0  1  0.99712000  0.74162000  0.83581000  1.0
  Sr  Sr1  1  0.50288000  0.25838000  0.33581000  1.0
  Sr  Sr2  1  0.00288000  0.24162000  0.66419000  1.0
  Sr  Sr3  1  0.49712000  0.75838000  0.16419000  1.0
  H  H4  1  0.95902000  0.49483000  0.21654000  1.0
  H  H5  1  0.54096000  0.50515000  0.71654000  1.0
  H  H6  1  0.04097000  0.99482000  0.28347000  1.0
  H  H7  1  0.45903000  0.00517000  0.78348000  1.0
  H  H8  1  0.29099000  0.69780000  0.50894000  1.0
  H  H9  1  0.20902000  0.30220000  0.00896000  1.0
  H  H10  1  0.70903000  0.19781000  0.99105000  1.0
  H  H11  1  0.79098000  0.80220000  0.49104000  1.0
  C  C12  1  0.10586000  0.55605000  0.19763000  1.0
  C  C13  1  0.39413000  0.44394000  0.69764000  1.0
  C  C14  1  0.89414000  0.05605000  0.30236000  1.0
  C  C15  1  0.60586000  0.94395000  0.80237000  1.0
  C  C16  1  0.27316000  0.84927000  0.50858000  1.0
  C  C17  1  0.22683000  0.15073000  0.00858000  1.0
  C  C18  1  0.72684000  0.34928000  0.99141000  1.0
  C  C19  1  0.77317000  0.65074000  0.49141000  1.0
  O  O20  1  0.16173000  0.91812000  0.60773000  1.0
  O  O21  1  0.33828000  0.08187000  0.10772000  1.0
  O  O22  1  0.83827000  0.41814000  0.89227000  1.0
  O  O23  1  0.66172000  0.58187000  0.39227000  1.0
  O  O24  1  0.36446000  0.93636000  0.40638000  1.0
  O  O25  1  0.13556000  0.06366000  0.90639000  1.0
  O  O26  1  0.63554000  0.43635000  0.09362000  1.0
  O  O27  1  0.86443000  0.56365000  0.59361000  1.0
  O  O28  1  0.12239000  0.68262000  0.09977000  1.0
  O  O29  1  0.37762000  0.31737000  0.59976000  1.0
  O  O30  1  0.87762000  0.18262000  0.40023000  1.0
  O  O31  1  0.62239000  0.81738000  0.90024000  1.0
  O  O32  1  0.24877000  0.49869000  0.27651000  1.0
  O  O33  1  0.25123000  0.50130000  0.77650000  1.0
  O  O34  1  0.75124000  0.99870000  0.22350000  1.0
  O  O35  1  0.74877000  0.00131000  0.72350000  1.0
