# generated using pymatgen
data_MnH4(CN2)4
_symmetry_space_group_name_H-M   'P 1'
_cell_length_a   6.74917000
_cell_length_b   7.34074000
_cell_length_c   8.75975586
_cell_angle_alpha   114.77278396
_cell_angle_beta   108.58067417
_cell_angle_gamma   89.99440000
_symmetry_Int_Tables_number   1
_chemical_formula_structural   MnH4(CN2)4
_chemical_formula_sum   'Mn2 H8 C8 N16'
_cell_volume   368.99990978
_cell_formula_units_Z   2
loop_
 _symmetry_equiv_pos_site_id
 _symmetry_equiv_pos_as_xyz
  1  'x, y, z'
loop_
 _atom_site_type_symbol
 _atom_site_label
 _atom_site_symmetry_multiplicity
 _atom_site_fract_x
 _atom_site_fract_y
 _atom_site_fract_z
 _atom_site_occupancy
  Mn  Mn0  1  0.25001000  0.98787000  0.99997000  1.0
  Mn  Mn1  1  0.74999000  0.01214000  0.00003000  1.0
  H  H2  1  0.05148000  0.52196000  0.73065000  1.0
  H  H3  1  0.55166000  0.20874000  0.73090000  1.0
  H  H4  1  0.94852000  0.47803000  0.26935000  1.0
  H  H5  1  0.44834000  0.79127000  0.26910000  1.0
  H  H6  1  0.04257000  0.18436000  0.73417000  1.0
  H  H7  1  0.54280000  0.54976000  0.73422000  1.0
  H  H8  1  0.95743000  0.81563000  0.26583000  1.0
  H  H9  1  0.45720000  0.45024000  0.26578000  1.0
  C  C10  1  0.13912000  0.50864000  0.85249000  1.0
  C  C11  1  0.63939000  0.34392000  0.85273000  1.0
  C  C12  1  0.86088000  0.49137000  0.14752000  1.0
  C  C13  1  0.36062000  0.65608000  0.14727000  1.0
  C  C14  1  0.13748000  0.31927000  0.85299000  1.0
  C  C15  1  0.63769000  0.53376000  0.85311000  1.0
  C  C16  1  0.86252000  0.68073000  0.14701000  1.0
  C  C17  1  0.36231000  0.46624000  0.14689000  1.0
  N  N18  1  0.57969000  0.09628000  0.19105000  1.0
  N  N19  1  0.07976000  0.09471000  0.19108000  1.0
  N  N20  1  0.42031000  0.90373000  0.80896000  1.0
  N  N21  1  0.92023000  0.90528000  0.80891000  1.0
  N  N22  1  0.65585000  0.11152000  0.34202000  1.0
  N  N23  1  0.15589000  0.23046000  0.34209000  1.0
  N  N24  1  0.34415000  0.88847000  0.65796000  1.0
  N  N25  1  0.84411000  0.76956000  0.65793000  1.0
  N  N26  1  0.72941000  0.12395000  0.48639000  1.0
  N  N27  1  0.22939000  0.36238000  0.48643000  1.0
  N  N28  1  0.27060000  0.87605000  0.51362000  1.0
  N  N29  1  0.77060000  0.63761000  0.51356000  1.0
  N  N30  1  0.24987000  0.67799000  0.99986000  1.0
  N  N31  1  0.75012000  0.32200000  0.00013000  1.0
  N  N32  1  0.24987000  0.29776000  0.99994000  1.0
  N  N33  1  0.75013000  0.70223000  0.00006000  1.0
