# generated using pymatgen
data_AlH10C15(NO3)2
_symmetry_space_group_name_H-M   'P 1'
_cell_length_a   6.72700000
_cell_length_b   16.88680000
_cell_length_c   17.82905432
_cell_angle_alpha   92.03099215
_cell_angle_beta   100.56399622
_cell_angle_gamma   96.58400000
_symmetry_Int_Tables_number   1
_chemical_formula_structural   AlH10C15(NO3)2
_chemical_formula_sum   'Al2 H20 C30 N4 O12'
_cell_volume   1974.56861456
_cell_formula_units_Z   2
loop_
 _symmetry_equiv_pos_site_id
 _symmetry_equiv_pos_as_xyz
  1  'x, y, z'
loop_
 _atom_site_type_symbol
 _atom_site_label
 _atom_site_symmetry_multiplicity
 _atom_site_fract_x
 _atom_site_fract_y
 _atom_site_fract_z
 _atom_site_occupancy
  Al  Al0  1  0.00088000  0.49944000  0.50300000  1.0
  Al  Al1  1  0.50085000  0.49890000  0.50362000  1.0
  H  H2  1  0.80694000  0.58543000  0.56659000  1.0
  H  H3  1  0.18813000  0.43695000  0.41731000  1.0
  H  H4  1  0.40460000  0.26685000  0.54453000  1.0
  H  H5  1  0.33383000  0.11728000  0.54386000  1.0
  H  H6  1  0.90080000  0.09810000  0.46985000  1.0
  H  H7  1  0.06976000  0.89752000  0.46662000  1.0
  H  H8  1  0.71087000  0.88633000  0.54059000  1.0
  H  H9  1  0.64054000  0.73727000  0.54001000  1.0
  H  H10  1  0.04715000  0.49245000  0.73637000  1.0
  H  H11  1  0.11643000  0.49607000  0.87771000  1.0
  H  H12  1  0.75922000  0.49716000  0.87659000  1.0
  H  H13  1  0.23983000  0.50447000  0.12890000  1.0
  H  H14  1  0.95215000  0.50605000  0.26776000  1.0
  H  H15  1  0.88142000  0.50354000  0.12668000  1.0
  H  H16  1  0.05492000  0.31181000  0.47573000  1.0
  H  H17  1  0.11509000  0.21629000  0.45550000  1.0
  H  H18  1  0.92192000  0.68291000  0.46028000  1.0
  H  H19  1  0.84188000  0.77715000  0.44285000  1.0
  H  H20  1  0.66694000  0.49010000  0.67495000  1.0
  H  H21  1  0.33968000  0.51280000  0.33089000  1.0
  C  C22  1  0.31554000  0.49270000  0.64205000  1.0
  C  C23  1  0.29189000  0.64466000  0.50343000  1.0
  C  C24  1  0.68520000  0.50562000  0.36296000  1.0
  C  C25  1  0.71097000  0.35475000  0.50386000  1.0
  C  C26  1  0.68712000  0.26715000  0.50534000  1.0
  C  C27  1  0.50946000  0.22873000  0.52647000  1.0
  C  C28  1  0.46899000  0.14672000  0.52617000  1.0
  C  C29  1  0.61272000  0.10025000  0.50391000  1.0
  C  C30  1  0.79232000  0.13627000  0.48520000  1.0
  C  C31  1  0.83532000  0.22023000  0.48524000  1.0
  C  C32  1  0.19352000  0.86107000  0.48176000  1.0
  C  C33  1  0.39177000  0.89921000  0.50152000  1.0
  C  C34  1  0.55767000  0.85506000  0.52283000  1.0
  C  C35  1  0.51710000  0.77313000  0.52261000  1.0
  C  C36  1  0.31801000  0.73217000  0.50168000  1.0
  C  C37  1  0.15045000  0.77699000  0.48049000  1.0
  C  C38  1  0.36101000  0.49251000  0.72575000  1.0
  C  C39  1  0.20238000  0.49336000  0.76730000  1.0
  C  C40  1  0.24021000  0.49534000  0.84615000  1.0
  C  C41  1  0.44265000  0.49684000  0.88676000  1.0
  C  C42  1  0.60272000  0.49588000  0.84633000  1.0
  C  C43  1  0.56416000  0.49342000  0.76644000  1.0
  C  C44  1  0.48267000  0.49927000  0.96755000  1.0
  C  C45  1  0.51470000  0.50119000  0.03730000  1.0
  C  C46  1  0.55542000  0.50334000  0.11807000  1.0
  C  C47  1  0.39624000  0.50487000  0.15890000  1.0
  C  C48  1  0.43611000  0.50726000  0.23874000  1.0
  C  C49  1  0.63887000  0.50671000  0.27922000  1.0
  C  C50  1  0.79664000  0.50559000  0.23724000  1.0
  C  C51  1  0.75795000  0.50420000  0.15843000  1.0
  N  N52  1  0.59098000  0.01582000  0.50119000  1.0
  N  N53  1  0.41122000  0.98348000  0.50058000  1.0
  N  N54  1  0.01042000  0.25242000  0.46422000  1.0
  N  N55  1  0.95439000  0.74287000  0.45877000  1.0
  O  O56  1  0.13438000  0.49640000  0.60740000  1.0
  O  O57  1  0.45082000  0.60851000  0.50893000  1.0
  O  O58  1  0.53241000  0.50723000  0.39835000  1.0
  O  O59  1  0.88936000  0.39095000  0.50301000  1.0
  O  O60  1  0.86728000  0.50241000  0.39697000  1.0
  O  O61  1  0.55264000  0.39039000  0.50230000  1.0
  O  O62  1  0.46826000  0.49020000  0.60722000  1.0
  O  O63  1  0.11032000  0.60883000  0.49997000  1.0
  O  O64  1  0.77777000  0.53436000  0.53777000  1.0
  O  O65  1  0.22361000  0.46463000  0.46737000  1.0
  O  O66  1  0.72482000  0.49250000  0.73105000  1.0
  O  O67  1  0.27743000  0.51012000  0.27508000  1.0
