# generated using pymatgen
data_CdH4C6N2O5
_symmetry_space_group_name_H-M   'P 1'
_cell_length_a   6.79720000
_cell_length_b   7.64100000
_cell_length_c   8.09604000
_cell_angle_alpha   84.54940000
_cell_angle_beta   77.45910000
_cell_angle_gamma   86.91430000
_symmetry_Int_Tables_number   1
_chemical_formula_structural   CdH4C6N2O5
_chemical_formula_sum   'Cd2 H8 C12 N4 O10'
_cell_volume   408.36051074
_cell_formula_units_Z   2
loop_
 _symmetry_equiv_pos_site_id
 _symmetry_equiv_pos_as_xyz
  1  'x, y, z'
loop_
 _atom_site_type_symbol
 _atom_site_label
 _atom_site_symmetry_multiplicity
 _atom_site_fract_x
 _atom_site_fract_y
 _atom_site_fract_z
 _atom_site_occupancy
  Cd  Cd0  1  0.28293000  0.35166000  0.58770000  1.0
  Cd  Cd1  1  0.71706000  0.64834000  0.41229000  1.0
  H  H2  1  0.32186000  0.36278000  0.16348000  1.0
  H  H3  1  0.67815000  0.63720000  0.83651000  1.0
  H  H4  1  0.29125000  0.13834000  0.95743000  1.0
  H  H5  1  0.70876000  0.86165000  0.04256000  1.0
  H  H6  1  0.18899000  0.62287000  0.79552000  1.0
  H  H7  1  0.81102000  0.37713000  0.20447000  1.0
  H  H8  1  0.04439000  0.46658000  0.86055000  1.0
  H  H9  1  0.95562000  0.53343000  0.13946000  1.0
  C  C10  1  0.23428000  0.68573000  0.35588000  1.0
  C  C11  1  0.76571000  0.31427000  0.64413000  1.0
  C  C12  1  0.29976000  0.22397000  0.20465000  1.0
  C  C13  1  0.70024000  0.77602000  0.79535000  1.0
  C  C14  1  0.28534000  0.10047000  0.09153000  1.0
  C  C15  1  0.71468000  0.89952000  0.90846000  1.0
  C  C16  1  0.25358000  0.88081000  0.30722000  1.0
  C  C17  1  0.74641000  0.11919000  0.69278000  1.0
  C  C18  1  0.25858000  0.00392000  0.42453000  1.0
  C  C19  1  0.74141000  0.99609000  0.57547000  1.0
  C  C20  1  0.23394000  0.95304000  0.61400000  1.0
  C  C21  1  0.76607000  0.04696000  0.38600000  1.0
  N  N22  1  0.28486000  0.17408000  0.36930000  1.0
  N  N23  1  0.71514000  0.82593000  0.63070000  1.0
  N  N24  1  0.26422000  0.92954000  0.14194000  1.0
  N  N25  1  0.73579000  0.07046000  0.85805000  1.0
  O  O26  1  0.07649000  0.61442000  0.34436000  1.0
  O  O27  1  0.92351000  0.38558000  0.65564000  1.0
  O  O28  1  0.38618000  0.59710000  0.39574000  1.0
  O  O29  1  0.61380000  0.40289000  0.60426000  1.0
  O  O30  1  0.17783000  0.79909000  0.66322000  1.0
  O  O31  1  0.82217000  0.20091000  0.33678000  1.0
  O  O32  1  0.27082000  0.06778000  0.70637000  1.0
  O  O33  1  0.72919000  0.93222000  0.29362000  1.0
  O  O34  1  0.18680000  0.49540000  0.84067000  1.0
  O  O35  1  0.81320000  0.50461000  0.15933000  1.0
