# generated using pymatgen
data_Hf3H17C45O16
_symmetry_space_group_name_H-M   'P 1'
_cell_length_a   17.40240000
_cell_length_b   17.40780000
_cell_length_c   17.41320000
_cell_angle_alpha   93.60210000
_cell_angle_beta   93.54540000
_cell_angle_gamma   93.62570000
_symmetry_Int_Tables_number   1
_chemical_formula_structural   Hf3H17C45O16
_chemical_formula_sum   'Hf6 H34 C90 O32'
_cell_volume   5242.67029262
_cell_formula_units_Z   2
loop_
 _symmetry_equiv_pos_site_id
 _symmetry_equiv_pos_as_xyz
  1  'x, y, z'
loop_
 _atom_site_type_symbol
 _atom_site_label
 _atom_site_symmetry_multiplicity
 _atom_site_fract_x
 _atom_site_fract_y
 _atom_site_fract_z
 _atom_site_occupancy
  Hf  Hf0  1  0.01785000  0.19534000  0.14378000  1.0
  Hf  Hf1  1  0.13144000  0.23585000  0.98988000  1.0
  Hf  Hf2  1  0.98095000  0.00470000  0.06635000  1.0
  Hf  Hf3  1  0.17174000  0.08177000  0.10296000  1.0
  Hf  Hf4  1  0.94063000  0.15886000  0.95319000  1.0
  Hf  Hf5  1  0.09430000  0.04527000  0.91241000  1.0
  H  H6  1  0.71123000  0.07939000  0.38879000  1.0
  H  H7  1  0.74064000  0.08571000  0.63688000  1.0
  H  H8  1  0.93343000  0.04292000  0.49972000  1.0
  H  H9  1  0.17884000  0.18719000  0.56043000  1.0
  H  H10  1  0.36621000  0.13984000  0.41735000  1.0
  H  H11  1  0.40410000  0.15227000  0.66507000  1.0
  H  H12  1  0.41674000  0.77488000  0.98675000  1.0
  H  H13  1  0.66497000  0.80517000  0.99300000  1.0
  H  H14  1  0.52729000  0.99743000  0.95036000  1.0
  H  H15  1  0.58894000  0.24346000  0.09554000  1.0
  H  H16  1  0.44568000  0.43025000  0.04733000  1.0
  H  H17  1  0.69356000  0.46873000  0.06005000  1.0
  H  H18  1  0.01948000  0.48175000  0.68279000  1.0
  H  H19  1  0.03011000  0.72996000  0.71499000  1.0
  H  H20  1  0.97986000  0.59141000  0.90478000  1.0
  H  H21  1  0.09777000  0.75853000  0.37739000  1.0
  H  H22  1  0.08129000  0.51058000  0.34038000  1.0
  H  H23  1  0.12483000  0.65207000  0.15098000  1.0
  H  H24  1  0.17681000  0.24038000  0.14852000  1.0
  H  H25  1  0.87578000  0.11797000  0.09178000  1.0
  H  H26  1  0.11946000  0.93992000  0.02532000  1.0
  H  H27  1  0.05374000  0.18400000  0.84791000  1.0
  H  H28  1  0.97373000  0.71106000  0.59245000  1.0
  H  H29  1  0.11559000  0.51708000  0.60165000  1.0
  H  H30  1  0.14225000  0.52886000  0.46530000  1.0
  H  H31  1  0.00059000  0.72297000  0.45631000  1.0
  H  H32  1  0.65969000  0.58407000  0.11295000  1.0
  H  H33  1  0.46042000  0.51925000  0.95735000  1.0
  H  H34  1  0.44864000  0.65570000  0.93159000  1.0
  H  H35  1  0.64808000  0.72037000  0.08692000  1.0
  H  H36  1  0.59181000  0.02425000  0.42037000  1.0
  H  H37  1  0.65596000  0.17957000  0.61996000  1.0
  H  H38  1  0.51957000  0.20546000  0.63144000  1.0
  H  H39  1  0.45528000  0.04989000  0.43202000  1.0
  C  C40  1  0.82524000  0.05913000  0.43607000  1.0
  C  C41  1  0.74699000  0.07357000  0.44149000  1.0
  C  C42  1  0.71571000  0.08360000  0.51345000  1.0
  C  C43  1  0.76373000  0.07884000  0.58026000  1.0
  C  C44  1  0.84196000  0.06382000  0.57589000  1.0
  C  C45  1  0.87276000  0.05360000  0.50354000  1.0
  C  C46  1  0.28892000  0.17195000  0.62109000  1.0
  C  C47  1  0.23915000  0.17590000  0.55487000  1.0
  C  C48  1  0.26734000  0.16365000  0.48151000  1.0
  C  C49  1  0.34522000  0.14813000  0.47479000  1.0
  C  C50  1  0.39547000  0.14504000  0.54031000  1.0
  C  C51  1  0.36664000  0.15687000  0.61326000  1.0
  C  C52  1  0.46379000  0.88905000  0.96657000  1.0
  C  C53  1  0.46941000  0.81083000  0.98095000  1.0
  C  C54  1  0.54149000  0.77982000  0.99096000  1.0
  C  C55  1  0.60825000  0.82805000  0.98618000  1.0
  C  C56  1  0.60368000  0.90624000  0.97118000  1.0
  C  C57  1  0.53122000  0.93679000  0.96105000  1.0
  C  C58  1  0.64958000  0.35354000  0.07993000  1.0
  C  C59  1  0.58334000  0.30367000  0.08398000  1.0
  C  C60  1  0.50991000  0.33161000  0.07154000  1.0
  C  C61  1  0.50316000  0.40940000  0.05576000  1.0
  C  C62  1  0.56870000  0.45977000  0.05265000  1.0
  C  C63  1  0.64173000  0.43117000  0.06466000  1.0
  C  C64  1  0.99954000  0.52843000  0.79715000  1.0
  C  C65  1  0.01562000  0.53435000  0.71939000  1.0
  C  C66  1  0.02579000  0.60654000  0.68861000  1.0
  C  C67  1  0.01992000  0.67310000  0.73677000  1.0
  C  C68  1  0.00281000  0.66818000  0.81437000  1.0
  C  C69  1  0.99231000  0.59561000  0.84461000  1.0
  C  C70  1  0.11176000  0.71363000  0.26109000  1.0
  C  C71  1  0.09913000  0.70646000  0.33944000  1.0
  C  C72  1  0.08876000  0.63374000  0.36902000  1.0
  C  C73  1  0.09155000  0.56774000  0.31928000  1.0
  C  C74  1  0.10507000  0.57383000  0.24086000  1.0
  C  C75  1  0.11538000  0.64700000  0.21174000  1.0
  C  C76  1  0.92004000  0.06869000  0.22923000  1.0
  C  C77  1  0.09580000  0.36354000  0.12501000  1.0
  C  C78  1  0.15240000  0.15871000  0.27135000  1.0
  C  C79  1  0.85885000  0.26341000  0.07738000  1.0
  C  C80  1  0.19898000  0.16930000  0.83049000  1.0
  C  C81  1  0.00852000  0.87936000  0.92731000  1.0
  C  C82  1  0.29973000  0.21629000  0.06664000  1.0
  C  C83  1  0.00550000  0.32164000  0.89213000  1.0
  C  C84  1  0.81505000  0.01974000  0.98056000  1.0
  C  C85  1  0.10536000  0.92256000  0.17044000  1.0
  C  C86  1  0.25708000  0.98400000  0.97629000  1.0
  C  C87  1  0.95511000  0.07308000  0.78721000  1.0
  C  C88  1  0.11750000  0.78799000  0.23204000  1.0
  C  C89  1  0.11782000  0.85192000  0.20729000  1.0
  C  C90  1  0.10331000  0.44173000  0.15811000  1.0
  C  C91  1  0.10558000  0.50472000  0.19321000  1.0
  C  C92  1  0.99914000  0.80154000  0.89358000  1.0
  C  C93  1  0.99904000  0.73794000  0.86011000  1.0
  C  C94  1  0.99270000  0.39235000  0.85567000  1.0
  C  C95  1  0.99349000  0.45498000  0.82810000  1.0
  C  C96  1  0.01176000  0.67167000  0.56512000  1.0
  C  C97  1  0.04251000  0.61312000  0.60710000  1.0
  C  C98  1  0.08920000  0.56162000  0.56963000  1.0
  C  C99  1  0.10438000  0.56835000  0.49276000  1.0
  C  C100  1  0.07349000  0.62685000  0.45083000  1.0
  C  C101  1  0.02697000  0.67844000  0.48835000  1.0
  C  C102  1  0.72422000  0.32525000  0.08724000  1.0
  C  C103  1  0.78828000  0.30069000  0.08922000  1.0
  C  C104  1  0.44106000  0.28386000  0.07371000  1.0
  C  C105  1  0.37811000  0.24885000  0.07280000  1.0
  C  C106  1  0.67366000  0.95206000  0.96864000  1.0
  C  C107  1  0.73733000  0.98570000  0.97021000  1.0
  C  C108  1  0.32779000  0.94781000  0.96259000  1.0
  C  C109  1  0.39043000  0.92038000  0.96207000  1.0
  C  C110  1  0.61402000  0.59937000  0.07205000  1.0
  C  C111  1  0.56117000  0.54143000  0.03690000  1.0
  C  C112  1  0.50114000  0.56328000  0.98685000  1.0
  C  C113  1  0.49445000  0.64030000  0.97228000  1.0
  C  C114  1  0.54760000  0.69811000  0.00710000  1.0
  C  C115  1  0.60740000  0.67632000  0.05743000  1.0
  C  C116  1  0.26053000  0.17917000  0.69570000  1.0
  C  C117  1  0.23607000  0.18111000  0.75980000  1.0
  C  C118  1  0.18489000  0.16484000  0.34970000  1.0
  C  C119  1  0.21974000  0.16578000  0.41266000  1.0
  C  C120  1  0.92101000  0.06274000  0.70958000  1.0
  C  C121  1  0.88758000  0.06127000  0.64590000  1.0
  C  C122  1  0.85670000  0.05456000  0.36276000  1.0
  C  C123  1  0.88404000  0.05502000  0.30007000  1.0
  C  C124  1  0.57628000  0.06495000  0.46616000  1.0
  C  C125  1  0.63397000  0.09976000  0.51942000  1.0
  C  C126  1  0.61201000  0.15005000  0.57922000  1.0
  C  C127  1  0.53502000  0.16461000  0.58575000  1.0
  C  C128  1  0.47719000  0.12943000  0.53283000  1.0
  C  C129  1  0.49921000  0.07945000  0.47278000  1.0
  O  O130  1  0.92197000  0.01327000  0.17824000  1.0
  O  O131  1  0.12957000  0.34669000  0.06392000  1.0
  O  O132  1  0.09156000  0.19286000  0.25456000  1.0
  O  O133  1  0.90846000  0.25981000  0.13363000  1.0
  O  O134  1  0.86290000  0.23480000  0.00828000  1.0
  O  O135  1  0.19055000  0.11866000  0.22443000  1.0
  O  O136  1  0.05509000  0.31681000  0.16281000  1.0
  O  O137  1  0.94680000  0.13840000  0.22501000  1.0
  O  O138  1  0.02344000  0.21576000  0.02934000  1.0
  O  O139  1  0.05716000  0.08736000  0.12341000  1.0
  O  O140  1  0.14231000  0.20615000  0.11414000  1.0
  O  O141  1  0.92709000  0.11902000  0.07301000  1.0
  O  O142  1  0.19573000  0.22557000  0.88020000  1.0
  O  O143  1  0.97665000  0.89600000  0.98962000  1.0
  O  O144  1  0.28277000  0.15545000  0.10074000  1.0
  O  O145  1  0.94981000  0.27095000  0.89414000  1.0
  O  O146  1  0.83181000  0.08222000  0.94903000  1.0
  O  O147  1  0.16152000  0.97245000  0.16704000  1.0
  O  O148  1  0.20607000  0.98603000  0.92097000  1.0
  O  O149  1  0.01749000  0.04132000  0.80380000  1.0
  O  O150  1  0.25294000  0.01081000  0.04597000  1.0
  O  O151  1  0.91856000  0.11595000  0.83305000  1.0
  O  O152  1  0.25289000  0.25445000  0.02656000  1.0
  O  O153  1  0.03616000  0.92648000  0.14205000  1.0
  O  O154  1  0.86078000  0.98297000  0.02326000  1.0
  O  O155  1  0.07510000  0.31730000  0.91921000  1.0
  O  O156  1  0.17019000  0.10022000  0.83449000  1.0
  O  O157  1  0.05093000  0.92535000  0.89043000  1.0
  O  O158  1  0.99284000  0.05727000  0.96498000  1.0
  O  O159  1  0.15156000  0.12129000  0.99513000  1.0
  O  O160  1  0.10075000  0.99122000  0.02652000  1.0
  O  O161  1  0.05484000  0.16524000  0.89917000  1.0
