# generated using pymatgen
data_KH5(C2O)4
_symmetry_space_group_name_H-M   'P 1'
_cell_length_a   6.42589000
_cell_length_b   9.57142000
_cell_length_c   13.28240000
_cell_angle_alpha   90.00000000
_cell_angle_beta   90.00010000
_cell_angle_gamma   89.99990000
_symmetry_Int_Tables_number   1
_chemical_formula_structural   KH5(C2O)4
_chemical_formula_sum   'K4 H20 C32 O16'
_cell_volume   816.93257835
_cell_formula_units_Z   4
loop_
 _symmetry_equiv_pos_site_id
 _symmetry_equiv_pos_as_xyz
  1  'x, y, z'
loop_
 _atom_site_type_symbol
 _atom_site_label
 _atom_site_symmetry_multiplicity
 _atom_site_fract_x
 _atom_site_fract_y
 _atom_site_fract_z
 _atom_site_occupancy
  K  K0  1  0.67786000  0.90259000  0.53763000  1.0
  K  K1  1  0.17786000  0.09741000  0.46237000  1.0
  K  K2  1  0.67786000  0.40259000  0.46237000  1.0
  K  K3  1  0.17785000  0.59741000  0.53763000  1.0
  H  H4  1  0.68338000  0.26347000  0.19565000  1.0
  H  H5  1  0.18338000  0.73653000  0.80435000  1.0
  H  H6  1  0.68338000  0.76347000  0.80435000  1.0
  H  H7  1  0.18338000  0.23653000  0.19565000  1.0
  H  H8  1  0.83697000  0.25352000  0.02485000  1.0
  H  H9  1  0.33697000  0.74648000  0.97515000  1.0
  H  H10  1  0.83697000  0.75352000  0.97515000  1.0
  H  H11  1  0.33697000  0.24648000  0.02485000  1.0
  H  H12  1  0.04168000  0.04455000  0.97124000  1.0
  H  H13  1  0.54168000  0.95545000  0.02876000  1.0
  H  H14  1  0.04168000  0.54455000  0.02876000  1.0
  H  H15  1  0.54168000  0.45545000  0.97124000  1.0
  H  H16  1  0.09116000  0.84706000  0.09163000  1.0
  H  H17  1  0.59116000  0.15294000  0.90837000  1.0
  H  H18  1  0.09116000  0.34706000  0.90837000  1.0
  H  H19  1  0.59116000  0.65294000  0.09163000  1.0
  H  H20  1  0.97644000  0.61686000  0.28640000  1.0
  H  H21  1  0.47644000  0.38314000  0.71360000  1.0
  H  H22  1  0.97644000  0.11686000  0.71360000  1.0
  H  H23  1  0.47644000  0.88314000  0.28640000  1.0
  C  C24  1  0.90772000  0.94102000  0.20876000  1.0
  C  C25  1  0.40772000  0.05898000  0.79124000  1.0
  C  C26  1  0.90772000  0.44102000  0.79124000  1.0
  C  C27  1  0.40772000  0.55898000  0.20876000  1.0
  C  C28  1  0.79381000  0.05956000  0.23887000  1.0
  C  C29  1  0.29381000  0.94044000  0.76113000  1.0
  C  C30  1  0.79381000  0.55956000  0.76113000  1.0
  C  C31  1  0.29382000  0.44044000  0.23887000  1.0
  C  C32  1  0.77107000  0.17162000  0.17225000  1.0
  C  C33  1  0.27107000  0.82838000  0.82775000  1.0
  C  C34  1  0.77107000  0.67162000  0.82775000  1.0
  C  C35  1  0.27107000  0.32838000  0.17225000  1.0
  C  C36  1  0.85771000  0.16564000  0.07607000  1.0
  C  C37  1  0.35771000  0.83436000  0.92393000  1.0
  C  C38  1  0.85771000  0.66564000  0.92393000  1.0
  C  C39  1  0.35771000  0.33436000  0.07607000  1.0
  C  C40  1  0.97225000  0.04875000  0.04609000  1.0
  C  C41  1  0.47225000  0.95125000  0.95391000  1.0
  C  C42  1  0.97226000  0.54875000  0.95391000  1.0
  C  C43  1  0.47225000  0.45125000  0.04609000  1.0
  C  C44  1  0.99772000  0.93735000  0.11260000  1.0
  C  C45  1  0.49772000  0.06265000  0.88740000  1.0
  C  C46  1  0.99772000  0.43735000  0.88740000  1.0
  C  C47  1  0.49772000  0.56265000  0.11260000  1.0
  C  C48  1  0.93732000  0.82207000  0.28010000  1.0
  C  C49  1  0.43732000  0.17793000  0.71990000  1.0
  C  C50  1  0.93732000  0.32207000  0.71990000  1.0
  C  C51  1  0.43732000  0.67793000  0.28010000  1.0
  C  C52  1  0.69041000  0.06934000  0.34043000  1.0
  C  C53  1  0.19041000  0.93066000  0.65957000  1.0
  C  C54  1  0.69041000  0.56934000  0.65957000  1.0
  C  C55  1  0.19041000  0.43066000  0.34043000  1.0
  O  O56  1  0.94802000  0.69909000  0.23506000  1.0
  O  O57  1  0.44802000  0.30091000  0.76494000  1.0
  O  O58  1  0.94802000  0.19909000  0.76494000  1.0
  O  O59  1  0.44802000  0.80091000  0.23506000  1.0
  O  O60  1  0.94993000  0.83988000  0.37258000  1.0
  O  O61  1  0.44993000  0.16012000  0.62742000  1.0
  O  O62  1  0.94993000  0.33988000  0.62742000  1.0
  O  O63  1  0.44993000  0.66012000  0.37258000  1.0
  O  O64  1  0.77166000  0.14728000  0.40584000  1.0
  O  O65  1  0.27166000  0.85272000  0.59416000  1.0
  O  O66  1  0.77166000  0.64728000  0.59416000  1.0
  O  O67  1  0.27166000  0.35272000  0.40584000  1.0
  O  O68  1  0.52141000  0.99995000  0.35432000  1.0
  O  O69  1  0.02141000  0.00005000  0.64568000  1.0
  O  O70  1  0.52141000  0.49995000  0.64568000  1.0
  O  O71  1  0.02141000  0.50005000  0.35432000  1.0
