# generated using pymatgen
data_SnH15C10NO2
_symmetry_space_group_name_H-M   'P 1'
_cell_length_a   10.01830000
_cell_length_b   14.51500000
_cell_length_c   19.33660000
_cell_angle_alpha   93.30850000
_cell_angle_beta   89.99950000
_cell_angle_gamma   89.99920000
_symmetry_Int_Tables_number   1
_chemical_formula_structural   SnH15C10NO2
_chemical_formula_sum   'Sn8 H120 C80 N8 O16'
_cell_volume   2807.15716823
_cell_formula_units_Z   8
loop_
 _symmetry_equiv_pos_site_id
 _symmetry_equiv_pos_as_xyz
  1  'x, y, z'
loop_
 _atom_site_type_symbol
 _atom_site_label
 _atom_site_symmetry_multiplicity
 _atom_site_fract_x
 _atom_site_fract_y
 _atom_site_fract_z
 _atom_site_occupancy
  Sn  Sn0  1  0.85155000  0.36910000  0.09652000  1.0
  Sn  Sn1  1  0.35154000  0.13091000  0.40348000  1.0
  Sn  Sn2  1  0.14845000  0.63091000  0.90349000  1.0
  Sn  Sn3  1  0.64846000  0.86909000  0.59652000  1.0
  Sn  Sn4  1  0.36072000  0.41020000  0.15616000  1.0
  Sn  Sn5  1  0.86070000  0.08979000  0.34384000  1.0
  Sn  Sn6  1  0.63928000  0.58980000  0.84383000  1.0
  Sn  Sn7  1  0.13927000  0.91020000  0.65617000  1.0
  H  H8  1  0.15181000  0.15847000  0.82270000  1.0
  H  H9  1  0.65181000  0.34155000  0.67731000  1.0
  H  H10  1  0.84819000  0.84154000  0.17730000  1.0
  H  H11  1  0.34821000  0.65845000  0.32270000  1.0
  H  H12  1  0.27639000  0.08316000  0.79508000  1.0
  H  H13  1  0.77638000  0.41685000  0.70493000  1.0
  H  H14  1  0.72362000  0.91684000  0.20492000  1.0
  H  H15  1  0.22364000  0.58315000  0.29507000  1.0
  H  H16  1  0.83428000  0.41104000  0.51794000  1.0
  H  H17  1  0.33426000  0.08896000  0.98205000  1.0
  H  H18  1  0.16575000  0.58895000  0.48206000  1.0
  H  H19  1  0.66577000  0.91104000  0.01794000  1.0
  H  H20  1  0.69073000  0.43286000  0.47439000  1.0
  H  H21  1  0.19071000  0.06713000  0.02560000  1.0
  H  H22  1  0.30930000  0.56713000  0.52561000  1.0
  H  H23  1  0.80931000  0.93287000  0.97438000  1.0
  H  H24  1  0.32196000  0.34942000  0.00470000  1.0
  H  H25  1  0.82193000  0.15058000  0.49531000  1.0
  H  H26  1  0.67805000  0.65058000  0.99530000  1.0
  H  H27  1  0.17807000  0.84941000  0.50469000  1.0
  H  H28  1  0.17762000  0.27631000  0.91462000  1.0
  H  H29  1  0.67760000  0.22371000  0.58539000  1.0
  H  H30  1  0.82239000  0.72370000  0.08538000  1.0
  H  H31  1  0.32241000  0.77629000  0.41462000  1.0
  H  H32  1  0.50941000  0.10811000  0.84027000  1.0
  H  H33  1  0.00941000  0.39190000  0.65973000  1.0
  H  H34  1  0.49059000  0.89189000  0.15973000  1.0
  H  H35  1  0.99060000  0.60811000  0.34027000  1.0
  H  H36  1  0.65272000  0.18299000  0.93084000  1.0
  H  H37  1  0.15270000  0.31701000  0.56916000  1.0
  H  H38  1  0.34729000  0.81701000  0.06916000  1.0
  H  H39  1  0.84730000  0.68300000  0.43084000  1.0
  H  H40  1  0.85475000  0.55276000  0.08749000  1.0
  H  H41  1  0.35477000  0.94724000  0.41251000  1.0
  H  H42  1  0.14522000  0.44725000  0.91251000  1.0
  H  H43  1  0.64522000  0.05275000  0.58748000  1.0
  H  H44  1  0.73407000  0.52801000  0.15148000  1.0
  H  H45  1  0.23409000  0.97199000  0.34852000  1.0
  H  H46  1  0.26591000  0.47200000  0.84852000  1.0
  H  H47  1  0.76591000  0.02801000  0.65147000  1.0
  H  H48  1  0.69228000  0.51032000  0.06238000  1.0
  H  H49  1  0.19230000  0.98968000  0.43763000  1.0
  H  H50  1  0.30770000  0.48967000  0.93763000  1.0
  H  H51  1  0.80770000  0.01032000  0.56237000  1.0
  H  H52  1  0.08743000  0.39262000  0.03108000  1.0
  H  H53  1  0.58742000  0.10738000  0.46891000  1.0
  H  H54  1  0.91257000  0.60738000  0.96892000  1.0
  H  H55  1  0.41257000  0.89261000  0.53109000  1.0
  H  H56  1  0.96075000  0.35886000  0.96867000  1.0
  H  H57  1  0.46073000  0.14115000  0.53133000  1.0
  H  H58  1  0.03924000  0.64115000  0.03134000  1.0
  H  H59  1  0.53924000  0.85883000  0.46867000  1.0
  H  H60  1  0.03883000  0.27426000  0.01878000  1.0
  H  H61  1  0.53881000  0.22575000  0.48122000  1.0
  H  H62  1  0.96117000  0.72575000  0.98122000  1.0
  H  H63  1  0.46117000  0.77424000  0.51879000  1.0
  H  H64  1  0.87374000  0.20457000  0.15368000  1.0
  H  H65  1  0.37374000  0.29543000  0.34632000  1.0
  H  H66  1  0.12625000  0.79543000  0.84632000  1.0
  H  H67  1  0.62627000  0.70457000  0.65369000  1.0
  H  H68  1  0.71750000  0.25606000  0.17856000  1.0
  H  H69  1  0.21750000  0.24395000  0.32143000  1.0
  H  H70  1  0.28249000  0.74395000  0.82144000  1.0
  H  H71  1  0.78251000  0.75605000  0.67857000  1.0
  H  H72  1  0.86799000  0.29321000  0.22194000  1.0
  H  H73  1  0.36799000  0.20679000  0.27806000  1.0
  H  H74  1  0.13200000  0.70679000  0.77807000  1.0
  H  H75  1  0.63202000  0.79321000  0.72195000  1.0
  H  H76  1  0.81783000  0.47661000  0.24479000  1.0
  H  H77  1  0.31783000  0.02339000  0.25520000  1.0
  H  H78  1  0.18217000  0.52339000  0.75521000  1.0
  H  H79  1  0.68218000  0.97661000  0.74479000  1.0
  H  H80  1  0.68978000  0.47524000  0.35386000  1.0
  H  H81  1  0.18977000  0.02476000  0.14614000  1.0
  H  H82  1  0.31023000  0.52477000  0.64615000  1.0
  H  H83  1  0.81024000  0.97525000  0.85385000  1.0
  H  H84  1  0.05046000  0.40866000  0.46300000  1.0
  H  H85  1  0.55044000  0.09134000  0.03700000  1.0
  H  H86  1  0.94957000  0.59133000  0.53700000  1.0
  H  H87  1  0.44958000  0.90868000  0.96300000  1.0
  H  H88  1  0.17735000  0.41351000  0.35353000  1.0
  H  H89  1  0.67734000  0.08648000  0.14646000  1.0
  H  H90  1  0.82266000  0.58647000  0.64646000  1.0
  H  H91  1  0.32267000  0.91353000  0.85354000  1.0
  H  H92  1  0.17742000  0.27655000  0.17497000  1.0
  H  H93  1  0.67739000  0.22345000  0.32504000  1.0
  H  H94  1  0.82257000  0.72347000  0.82503000  1.0
  H  H95  1  0.32257000  0.77654000  0.67498000  1.0
  H  H96  1  0.33852000  0.22595000  0.15949000  1.0
  H  H97  1  0.83849000  0.27404000  0.34051000  1.0
  H  H98  1  0.66146000  0.77405000  0.84051000  1.0
  H  H99  1  0.16147000  0.72595000  0.65951000  1.0
  H  H100  1  0.24137000  0.26125000  0.08862000  1.0
  H  H101  1  0.74136000  0.23875000  0.41138000  1.0
  H  H102  1  0.75861000  0.73876000  0.91138000  1.0
  H  H103  1  0.25862000  0.76123000  0.58863000  1.0
  H  H104  1  0.23112000  0.52312000  0.07116000  1.0
  H  H105  1  0.73107000  0.97689000  0.42884000  1.0
  H  H106  1  0.76888000  0.47689000  0.92883000  1.0
  H  H107  1  0.26890000  0.02311000  0.57117000  1.0
  H  H108  1  0.40564000  0.51945000  0.04918000  1.0
  H  H109  1  0.90559000  0.98054000  0.45082000  1.0
  H  H110  1  0.59436000  0.48055000  0.95081000  1.0
  H  H111  1  0.09438000  0.01945000  0.54919000  1.0
  H  H112  1  0.34870000  0.58856000  0.12272000  1.0
  H  H113  1  0.84864000  0.91144000  0.37728000  1.0
  H  H114  1  0.65131000  0.41144000  0.87727000  1.0
  H  H115  1  0.15133000  0.08856000  0.62273000  1.0
  H  H116  1  0.54324000  0.35510000  0.24980000  1.0
  H  H117  1  0.04321000  0.14490000  0.25020000  1.0
  H  H118  1  0.45676000  0.64490000  0.75019000  1.0
  H  H119  1  0.95675000  0.85510000  0.74981000  1.0
  H  H120  1  0.46873000  0.46160000  0.28101000  1.0
  H  H121  1  0.96871000  0.03840000  0.21899000  1.0
  H  H122  1  0.53128000  0.53840000  0.71899000  1.0
  H  H123  1  0.03126000  0.96159000  0.78102000  1.0
  H  H124  1  0.59713000  0.46054000  0.21606000  1.0
  H  H125  1  0.09713000  0.03947000  0.28393000  1.0
  H  H126  1  0.40286000  0.53946000  0.78393000  1.0
  H  H127  1  0.90286000  0.96053000  0.71607000  1.0
  C  C128  1  0.49730000  0.26993000  0.97577000  1.0
  C  C129  1  0.99728000  0.23007000  0.52423000  1.0
  C  C130  1  0.50271000  0.73007000  0.02423000  1.0
  C  C131  1  0.00272000  0.76993000  0.47577000  1.0
  C  C132  1  0.36290000  0.29550000  0.96942000  1.0
  C  C133  1  0.86288000  0.20450000  0.53058000  1.0
  C  C134  1  0.63711000  0.70450000  0.03057000  1.0
  C  C135  1  0.13713000  0.79549000  0.46942000  1.0
  C  C136  1  0.28146000  0.25457000  0.91842000  1.0
  C  C137  1  0.78144000  0.24544000  0.58159000  1.0
  C  C138  1  0.71855000  0.74543000  0.08157000  1.0
  C  C139  1  0.21857000  0.75456000  0.41842000  1.0
  C  C140  1  0.33124000  0.18478000  0.87126000  1.0
  C  C141  1  0.83123000  0.31522000  0.62874000  1.0
  C  C142  1  0.66877000  0.81522000  0.12873000  1.0
  C  C143  1  0.16879000  0.68477000  0.37126000  1.0
  C  C144  1  0.46769000  0.16060000  0.87647000  1.0
  C  C145  1  0.96767000  0.33940000  0.62353000  1.0
  C  C146  1  0.53232000  0.83940000  0.12353000  1.0
  C  C147  1  0.03234000  0.66060000  0.37647000  1.0
  C  C148  1  0.54807000  0.20273000  0.92732000  1.0
  C  C149  1  0.04805000  0.29727000  0.57268000  1.0
  C  C150  1  0.45194000  0.79727000  0.07268000  1.0
  C  C151  1  0.95196000  0.70273000  0.42732000  1.0
  C  C152  1  0.58416000  0.31198000  0.03082000  1.0
  C  C153  1  0.08414000  0.18801000  0.46918000  1.0
  C  C154  1  0.41584000  0.68802000  0.96918000  1.0
  C  C155  1  0.91585000  0.81199000  0.53082000  1.0
  C  C156  1  0.77298000  0.50662000  0.10016000  1.0
  C  C157  1  0.27300000  0.99337000  0.39984000  1.0
  C  C158  1  0.22700000  0.49337000  0.89984000  1.0
  C  C159  1  0.72700000  0.00662000  0.60016000  1.0
  C  C160  1  0.00375000  0.34581000  0.01936000  1.0
  C  C161  1  0.50374000  0.15420000  0.48064000  1.0
  C  C162  1  0.99625000  0.65420000  0.98064000  1.0
  C  C163  1  0.49625000  0.84579000  0.51936000  1.0
  C  C164  1  0.82446000  0.26872000  0.17240000  1.0
  C  C165  1  0.32446000  0.23128000  0.32760000  1.0
  C  C166  1  0.17553000  0.73128000  0.82761000  1.0
  C  C167  1  0.67555000  0.76872000  0.67240000  1.0
  C  C168  1  0.00657000  0.44467000  0.29128000  1.0
  C  C169  1  0.50657000  0.05532000  0.20871000  1.0
  C  C170  1  0.99343000  0.55532000  0.70872000  1.0
  C  C171  1  0.49344000  0.94468000  0.79129000  1.0
  C  C172  1  0.86851000  0.46177000  0.29269000  1.0
  C  C173  1  0.36850000  0.03823000  0.20731000  1.0
  C  C174  1  0.13150000  0.53823000  0.70731000  1.0
  C  C175  1  0.63151000  0.96177000  0.79268000  1.0
  C  C176  1  0.79695000  0.46179000  0.35406000  1.0
  C  C177  1  0.29694000  0.03820000  0.14594000  1.0
  C  C178  1  0.20306000  0.53821000  0.64595000  1.0
  C  C179  1  0.70307000  0.96180000  0.85405000  1.0
  C  C180  1  0.86093000  0.44202000  0.41659000  1.0
  C  C181  1  0.36091000  0.05798000  0.08341000  1.0
  C  C182  1  0.13909000  0.55798000  0.58341000  1.0
  C  C183  1  0.63911000  0.94203000  0.91659000  1.0
  C  C184  1  0.99951000  0.42449000  0.41534000  1.0
  C  C185  1  0.49950000  0.07551000  0.08466000  1.0
  C  C186  1  0.00051000  0.57550000  0.58466000  1.0
  C  C187  1  0.50052000  0.92450000  0.91534000  1.0
  C  C188  1  0.07031000  0.42659000  0.35398000  1.0
  C  C189  1  0.57030000  0.07340000  0.14601000  1.0
  C  C190  1  0.92970000  0.57340000  0.64602000  1.0
  C  C191  1  0.42971000  0.92661000  0.85399000  1.0
  C  C192  1  0.08553000  0.44827000  0.22671000  1.0
  C  C193  1  0.58553000  0.05173000  0.27328000  1.0
  C  C194  1  0.91447000  0.55173000  0.77328000  1.0
  C  C195  1  0.41448000  0.94827000  0.72672000  1.0
  C  C196  1  0.26738000  0.27742000  0.14288000  1.0
  C  C197  1  0.76736000  0.22258000  0.35712000  1.0
  C  C198  1  0.73261000  0.72259000  0.85711000  1.0
  C  C199  1  0.23260000  0.77741000  0.64289000  1.0
  C  C200  1  0.33307000  0.52391000  0.09157000  1.0
  C  C201  1  0.83302000  0.97609000  0.40843000  1.0
  C  C202  1  0.66693000  0.47610000  0.90842000  1.0
  C  C203  1  0.16695000  0.02390000  0.59159000  1.0
  C  C204  1  0.51096000  0.42362000  0.23548000  1.0
  C  C205  1  0.01094000  0.07638000  0.26452000  1.0
  C  C206  1  0.48904000  0.57638000  0.76452000  1.0
  C  C207  1  0.98903000  0.92362000  0.73548000  1.0
  N  N208  1  0.25036000  0.14333000  0.82163000  1.0
  N  N209  1  0.75036000  0.35669000  0.67838000  1.0
  N  N210  1  0.74965000  0.85668000  0.17836000  1.0
  N  N211  1  0.24966000  0.64331000  0.32163000  1.0
  N  N212  1  0.79084000  0.44163000  0.47766000  1.0
  N  N213  1  0.29082000  0.05836000  0.02234000  1.0
  N  N214  1  0.20919000  0.55836000  0.52235000  1.0
  N  N215  1  0.70920000  0.94164000  0.97765000  1.0
  O  O216  1  0.71114000  0.29843000  0.02330000  1.0
  O  O217  1  0.21112000  0.20157000  0.47670000  1.0
  O  O218  1  0.28886000  0.70157000  0.97671000  1.0
  O  O219  1  0.78887000  0.79843000  0.52329000  1.0
  O  O220  1  0.53767000  0.35973000  0.08254000  1.0
  O  O221  1  0.03765000  0.14025000  0.41747000  1.0
  O  O222  1  0.46233000  0.64027000  0.91746000  1.0
  O  O223  1  0.96233000  0.85974000  0.58253000  1.0
  O  O224  1  0.21288000  0.46245000  0.23588000  1.0
  O  O225  1  0.71287000  0.03755000  0.26412000  1.0
  O  O226  1  0.78712000  0.53756000  0.76412000  1.0
  O  O227  1  0.28712000  0.96244000  0.73588000  1.0
  O  O228  1  0.03365000  0.43868000  0.16716000  1.0
  O  O229  1  0.53364000  0.06134000  0.33283000  1.0
  O  O230  1  0.96636000  0.56133000  0.83284000  1.0
  O  O231  1  0.46636000  0.93867000  0.66716000  1.0
