# generated using pymatgen
data_CuH9C7SIN
_symmetry_space_group_name_H-M   'P 1'
_cell_length_a   7.38269000
_cell_length_b   9.47368000
_cell_length_c   14.85080000
_cell_angle_alpha   89.03350000
_cell_angle_beta   87.94210000
_cell_angle_gamma   68.51110000
_symmetry_Int_Tables_number   1
_chemical_formula_structural   CuH9C7SIN
_chemical_formula_sum   'Cu4 H36 C28 S4 I4 N4'
_cell_volume   965.85198396
_cell_formula_units_Z   4
loop_
 _symmetry_equiv_pos_site_id
 _symmetry_equiv_pos_as_xyz
  1  'x, y, z'
loop_
 _atom_site_type_symbol
 _atom_site_label
 _atom_site_symmetry_multiplicity
 _atom_site_fract_x
 _atom_site_fract_y
 _atom_site_fract_z
 _atom_site_occupancy
  Cu  Cu0  1  0.52354000  0.87095000  0.54187000  1.0
  Cu  Cu1  1  0.47646000  0.12906000  0.45813000  1.0
  Cu  Cu2  1  0.53721000  0.86125000  0.96676000  1.0
  Cu  Cu3  1  0.46279000  0.13875000  0.03324000  1.0
  H  H4  1  0.49831000  0.90127000  0.75741000  1.0
  H  H5  1  0.50168000  0.09873000  0.24259000  1.0
  H  H6  1  0.87620000  0.00110000  0.60208000  1.0
  H  H7  1  0.12381000  0.99891000  0.39793000  1.0
  H  H8  1  0.65760000  0.07839000  0.66895000  1.0
  H  H9  1  0.34240000  0.92161000  0.33105000  1.0
  H  H10  1  0.05940000  0.87739000  0.73894000  1.0
  H  H11  1  0.94060000  0.12262000  0.26106000  1.0
  H  H12  1  0.96544000  0.07563000  0.74703000  1.0
  H  H13  1  0.03456000  0.92437000  0.25297000  1.0
  H  H14  1  0.67787000  0.06589000  0.84231000  1.0
  H  H15  1  0.32213000  0.93412000  0.15769000  1.0
  H  H16  1  0.90621000  0.97451000  0.89294000  1.0
  H  H17  1  0.09379000  0.02549000  0.10706000  1.0
  H  H18  1  0.29403000  0.77347000  0.80529000  1.0
  H  H19  1  0.70597000  0.22652000  0.19471000  1.0
  H  H20  1  0.20056000  0.54611000  0.79965000  1.0
  H  H21  1  0.79945000  0.45388000  0.20035000  1.0
  H  H22  1  0.44222000  0.29986000  0.74489000  1.0
  H  H23  1  0.55780000  0.70014000  0.25511000  1.0
  H  H24  1  0.77816000  0.28359000  0.69577000  1.0
  H  H25  1  0.22186000  0.71641000  0.30423000  1.0
  H  H26  1  0.86848000  0.50945000  0.70234000  1.0
  H  H27  1  0.13152000  0.49055000  0.29766000  1.0
  H  H28  1  0.24047000  0.48441000  0.46170000  1.0
  H  H29  1  0.75953000  0.51560000  0.53830000  1.0
  H  H30  1  0.03798000  0.62310000  0.51986000  1.0
  H  H31  1  0.96200000  0.37690000  0.48014000  1.0
  H  H32  1  0.22306000  0.47934000  0.58154000  1.0
  H  H33  1  0.77694000  0.52067000  0.41846000  1.0
  H  H34  1  0.03699000  0.63014000  0.00569000  1.0
  H  H35  1  0.96301000  0.36986000  0.99431000  1.0
  H  H36  1  0.18238000  0.53701000  0.09785000  1.0
  H  H37  1  0.81762000  0.46299000  0.90214000  1.0
  H  H38  1  0.24936000  0.45999000  0.98707000  1.0
  H  H39  1  0.75063000  0.54001000  0.01293000  1.0
  C  C40  1  0.63180000  0.79894000  0.75237000  1.0
  C  C41  1  0.36820000  0.20106000  0.24763000  1.0
  C  C42  1  0.80079000  0.98559000  0.66445000  1.0
  C  C43  1  0.19921000  0.01442000  0.33555000  1.0
  C  C44  1  0.92289000  0.97576000  0.74619000  1.0
  C  C45  1  0.07711000  0.02424000  0.25381000  1.0
  C  C46  1  0.81835000  0.97053000  0.83549000  1.0
  C  C47  1  0.18165000  0.02947000  0.16451000  1.0
  C  C48  1  0.58394000  0.65769000  0.75191000  1.0
  C  C49  1  0.41607000  0.34230000  0.24809000  1.0
  C  C50  1  0.39775000  0.66560000  0.78045000  1.0
  C  C51  1  0.60226000  0.33440000  0.21955000  1.0
  C  C52  1  0.34724000  0.53745000  0.77815000  1.0
  C  C53  1  0.65277000  0.46254000  0.22185000  1.0
  C  C54  1  0.48325000  0.39930000  0.74744000  1.0
  C  C55  1  0.51677000  0.60069000  0.25257000  1.0
  C  C56  1  0.67049000  0.39014000  0.72020000  1.0
  C  C57  1  0.32953000  0.60985000  0.27979000  1.0
  C  C58  1  0.72147000  0.51804000  0.72311000  1.0
  C  C59  1  0.27854000  0.48195000  0.27689000  1.0
  C  C60  1  0.30026000  0.65545000  0.52618000  1.0
  C  C61  1  0.69973000  0.34456000  0.47382000  1.0
  C  C62  1  0.19440000  0.55486000  0.52243000  1.0
  C  C63  1  0.80560000  0.44514000  0.47758000  1.0
  C  C64  1  0.30254000  0.65794000  0.01168000  1.0
  C  C65  1  0.69745000  0.34205000  0.98832000  1.0
  C  C66  1  0.18659000  0.56558000  0.02597000  1.0
  C  C67  1  0.81340000  0.43442000  0.97402000  1.0
  S  S68  1  0.75889000  0.81113000  0.64667000  1.0
  S  S69  1  0.24110000  0.18888000  0.35333000  1.0
  S  S70  1  0.77112000  0.79624000  0.85268000  1.0
  S  S71  1  0.22888000  0.20377000  0.14732000  1.0
  I  I72  1  0.74888000  0.86819000  0.39848000  1.0
  I  I73  1  0.25112000  0.13181000  0.60152000  1.0
  I  I74  1  0.74115000  0.89133000  0.10180000  1.0
  I  I75  1  0.25885000  0.10867000  0.89820000  1.0
  N  N76  1  0.38503000  0.73746000  0.52893000  1.0
  N  N77  1  0.61495000  0.26255000  0.47107000  1.0
  N  N78  1  0.39528000  0.73316000  0.99880000  1.0
  N  N79  1  0.60472000  0.26684000  0.00120000  1.0
