# generated using pymatgen
data_MnH11C15N2O5
_symmetry_space_group_name_H-M   'P 1'
_cell_length_a   7.90961000
_cell_length_b   8.69713000
_cell_length_c   10.80860000
_cell_angle_alpha   80.01520000
_cell_angle_beta   69.46050000
_cell_angle_gamma   76.36740000
_symmetry_Int_Tables_number   1
_chemical_formula_structural   MnH11C15N2O5
_chemical_formula_sum   'Mn2 H22 C30 N4 O10'
_cell_volume   673.28300292
_cell_formula_units_Z   2
loop_
 _symmetry_equiv_pos_site_id
 _symmetry_equiv_pos_as_xyz
  1  'x, y, z'
loop_
 _atom_site_type_symbol
 _atom_site_label
 _atom_site_symmetry_multiplicity
 _atom_site_fract_x
 _atom_site_fract_y
 _atom_site_fract_z
 _atom_site_occupancy
  Mn  Mn0  1  0.71110000  0.62760000  0.77978000  1.0
  Mn  Mn1  1  0.28890000  0.37239000  0.22023000  1.0
  H  H2  1  0.55272000  0.30159000  0.86966000  1.0
  H  H3  1  0.44727000  0.69841000  0.13034000  1.0
  H  H4  1  0.49898000  0.09352000  0.76184000  1.0
  H  H5  1  0.50103000  0.90648000  0.23816000  1.0
  H  H6  1  0.58167000  0.12324000  0.51258000  1.0
  H  H7  1  0.41834000  0.87675000  0.48742000  1.0
  H  H8  1  0.72192000  0.35039000  0.38317000  1.0
  H  H9  1  0.27808000  0.64960000  0.61683000  1.0
  H  H10  1  0.85544000  0.53435000  0.28541000  1.0
  H  H11  1  0.14456000  0.46565000  0.71459000  1.0
  H  H12  1  0.97776000  0.77908000  0.18443000  1.0
  H  H13  1  0.02225000  0.22091000  0.81558000  1.0
  H  H14  1  0.98072000  0.97230000  0.33164000  1.0
  H  H15  1  0.01928000  0.02770000  0.66836000  1.0
  H  H16  1  0.87454000  0.89819000  0.57921000  1.0
  H  H17  1  0.12545000  0.10181000  0.42080000  1.0
  H  H18  1  0.29738000  0.04277000  0.00331000  1.0
  H  H19  1  0.70261000  0.95722000  0.99670000  1.0
  H  H20  1  0.66606000  0.39188000  0.99119000  1.0
  H  H21  1  0.33393000  0.60813000  0.00882000  1.0
  H  H22  1  0.83299000  0.45246000  0.99728000  1.0
  H  H23  1  0.16700000  0.54753000  0.00274000  1.0
  C  C24  1  0.58978000  0.30867000  0.76191000  1.0
  C  C25  1  0.41021000  0.69133000  0.23809000  1.0
  C  C26  1  0.55960000  0.19307000  0.70195000  1.0
  C  C27  1  0.44040000  0.80693000  0.29805000  1.0
  C  C28  1  0.60642000  0.20851000  0.56402000  1.0
  C  C29  1  0.39359000  0.79148000  0.43598000  1.0
  C  C30  1  0.68488000  0.33711000  0.49092000  1.0
  C  C31  1  0.31512000  0.66289000  0.50908000  1.0
  C  C32  1  0.71295000  0.44837000  0.55774000  1.0
  C  C33  1  0.28705000  0.55163000  0.44226000  1.0
  C  C34  1  0.79408000  0.58880000  0.48773000  1.0
  C  C35  1  0.20593000  0.41120000  0.51227000  1.0
  C  C36  1  0.85733000  0.61789000  0.34926000  1.0
  C  C37  1  0.14267000  0.38211000  0.65074000  1.0
  C  C38  1  0.92618000  0.75609000  0.29206000  1.0
  C  C39  1  0.07382000  0.24391000  0.70794000  1.0
  C  C40  1  0.93036000  0.86216000  0.37343000  1.0
  C  C41  1  0.06963000  0.13784000  0.62656000  1.0
  C  C42  1  0.87046000  0.82277000  0.51010000  1.0
  C  C43  1  0.12954000  0.17722000  0.48991000  1.0
  C  C44  1  0.98391000  0.75048000  0.85950000  1.0
  C  C45  1  0.01609000  0.24953000  0.14050000  1.0
  C  C46  1  0.34627000  0.82548000  0.83810000  1.0
  C  C47  1  0.65373000  0.17452000  0.16190000  1.0
  C  C48  1  0.99598000  0.88327000  0.92632000  1.0
  C  C49  1  0.00403000  0.11673000  0.07367000  1.0
  C  C50  1  0.16716000  0.02251000  0.00184000  1.0
  C  C51  1  0.83285000  0.97749000  0.99815000  1.0
  C  C52  1  0.16552000  0.90768000  0.92666000  1.0
  C  C53  1  0.83449000  0.09233000  0.07332000  1.0
  N  N54  1  0.66434000  0.43387000  0.69204000  1.0
  N  N55  1  0.33566000  0.56613000  0.30796000  1.0
  N  N56  1  0.80440000  0.68959000  0.56608000  1.0
  N  N57  1  0.19559000  0.31041000  0.43392000  1.0
  O  O58  1  0.38620000  0.85244000  0.71562000  1.0
  O  O59  1  0.61380000  0.14759000  0.28435000  1.0
  O  O60  1  0.45625000  0.73457000  0.89910000  1.0
  O  O61  1  0.54375000  0.26544000  0.10088000  1.0
  O  O62  1  0.86155000  0.78211000  0.80128000  1.0
  O  O63  1  0.13845000  0.21789000  0.19873000  1.0
  O  O64  1  0.08843000  0.61731000  0.86729000  1.0
  O  O65  1  0.91157000  0.38269000  0.13271000  1.0
  O  O66  1  0.75388000  0.46403000  0.94057000  1.0
  O  O67  1  0.24611000  0.53598000  0.05944000  1.0
