# generated using pymatgen
data_CdH12C19(SN4)2
_symmetry_space_group_name_H-M   'P 1'
_cell_length_a   8.52434000
_cell_length_b   8.94826000
_cell_length_c   13.20690000
_cell_angle_alpha   88.06270000
_cell_angle_beta   81.88180000
_cell_angle_gamma   80.76080000
_symmetry_Int_Tables_number   1
_chemical_formula_structural   CdH12C19(SN4)2
_chemical_formula_sum   'Cd2 H24 C38 S4 N16'
_cell_volume   984.29856850
_cell_formula_units_Z   2
loop_
 _symmetry_equiv_pos_site_id
 _symmetry_equiv_pos_as_xyz
  1  'x, y, z'
loop_
 _atom_site_type_symbol
 _atom_site_label
 _atom_site_symmetry_multiplicity
 _atom_site_fract_x
 _atom_site_fract_y
 _atom_site_fract_z
 _atom_site_occupancy
  Cd  Cd0  1  0.75651000  0.26645000  0.52623000  1.0
  Cd  Cd1  1  0.24349000  0.73355000  0.47377000  1.0
  H  H2  1  0.37406000  0.53182000  0.27028000  1.0
  H  H3  1  0.62594000  0.46818000  0.72972000  1.0
  H  H4  1  0.91973000  0.76232000  0.36645000  1.0
  H  H5  1  0.08027000  0.23768000  0.63355000  1.0
  H  H6  1  0.80966000  0.67588000  0.21622000  1.0
  H  H7  1  0.19034000  0.32413000  0.78378000  1.0
  H  H8  1  0.99401000  0.50843000  0.08784000  1.0
  H  H9  1  0.00599000  0.49157000  0.91216000  1.0
  H  H10  1  0.64208000  0.18357000  0.80978000  1.0
  H  H11  1  0.35792000  0.81643000  0.19021000  1.0
  H  H12  1  0.87642000  0.97804000  0.76425000  1.0
  H  H13  1  0.12358000  0.02196000  0.23575000  1.0
  H  H14  1  0.98412000  0.81458000  0.90649000  1.0
  H  H15  1  0.01588000  0.18542000  0.09351000  1.0
  H  H16  1  0.85550000  0.86861000  0.08641000  1.0
  H  H17  1  0.14450000  0.13139000  0.91359000  1.0
  H  H18  1  0.34557000  0.14473000  0.26589000  1.0
  H  H19  1  0.65442000  0.85527000  0.73411000  1.0
  H  H20  1  0.48183000  0.10942000  0.42250000  1.0
  H  H21  1  0.51818000  0.89057000  0.57750000  1.0
  H  H22  1  0.83746000  0.35120000  0.29429000  1.0
  H  H23  1  0.16254000  0.64879000  0.70571000  1.0
  H  H24  1  0.71259000  0.40144000  0.13229000  1.0
  H  H25  1  0.28741000  0.59856000  0.86771000  1.0
  C  C26  1  0.25003000  0.55784000  0.25526000  1.0
  C  C27  1  0.74997000  0.44216000  0.74474000  1.0
  C  C28  1  0.99638000  0.68982000  0.30849000  1.0
  C  C29  1  0.00363000  0.31018000  0.69150000  1.0
  C  C30  1  0.93582000  0.64145000  0.22469000  1.0
  C  C31  1  0.06418000  0.35855000  0.77531000  1.0
  C  C32  1  0.03848000  0.54758000  0.15407000  1.0
  C  C33  1  0.96152000  0.45242000  0.84593000  1.0
  C  C34  1  0.19993000  0.50363000  0.16857000  1.0
  C  C35  1  0.80007000  0.49637000  0.83143000  1.0
  C  C36  1  0.30661000  0.41271000  0.08922000  1.0
  C  C37  1  0.69339000  0.58729000  0.91078000  1.0
  C  C38  1  0.49809000  0.25611000  0.00061000  1.0
  C  C39  1  0.50191000  0.74389000  0.99939000  1.0
  C  C40  1  0.63417000  0.13627000  0.97203000  1.0
  C  C41  1  0.36583000  0.86373000  0.02797000  1.0
  C  C42  1  0.69559000  0.11280000  0.86850000  1.0
  C  C43  1  0.30442000  0.88720000  0.13150000  1.0
  C  C44  1  0.82419000  0.99687000  0.84392000  1.0
  C  C45  1  0.17581000  0.00312000  0.15608000  1.0
  C  C46  1  0.88369000  0.90643000  0.92246000  1.0
  C  C47  1  0.11631000  0.09357000  0.07754000  1.0
  C  C48  1  0.81283000  0.93743000  0.02309000  1.0
  C  C49  1  0.18717000  0.06257000  0.97691000  1.0
  C  C50  1  0.52012000  0.27585000  0.18827000  1.0
  C  C51  1  0.47988000  0.72415000  0.81173000  1.0
  C  C52  1  0.45388000  0.19271000  0.26946000  1.0
  C  C53  1  0.54612000  0.80729000  0.73054000  1.0
  C  C54  1  0.53077000  0.17204000  0.35645000  1.0
  C  C55  1  0.46924000  0.82795000  0.64355000  1.0
  C  C56  1  0.72858000  0.30718000  0.28441000  1.0
  C  C57  1  0.27142000  0.69282000  0.71559000  1.0
  C  C58  1  0.66055000  0.33416000  0.19482000  1.0
  C  C59  1  0.33945000  0.66584000  0.80518000  1.0
  C  C60  1  0.12356000  0.10821000  0.42397000  1.0
  C  C61  1  0.87644000  0.89180000  0.57603000  1.0
  C  C62  1  0.37118000  0.38452000  0.56457000  1.0
  C  C63  1  0.62882000  0.61548000  0.43543000  1.0
  S  S64  1  0.05393000  0.28813000  0.42104000  1.0
  S  S65  1  0.94607000  0.71188000  0.57896000  1.0
  S  S66  1  0.45954000  0.24528000  0.62953000  1.0
  S  S67  1  0.54046000  0.75471000  0.37047000  1.0
  N  N68  1  0.15027000  0.64886000  0.32303000  1.0
  N  N69  1  0.84973000  0.35113000  0.67697000  1.0
  N  N70  1  0.28333000  0.42207000  0.99138000  1.0
  N  N71  1  0.71667000  0.57793000  0.00861000  1.0
  N  N72  1  0.40230000  0.32491000  0.93634000  1.0
  N  N73  1  0.59770000  0.67509000  0.06366000  1.0
  N  N74  1  0.44271000  0.30874000  0.09866000  1.0
  N  N75  1  0.55729000  0.69125000  0.90135000  1.0
  N  N76  1  0.69162000  0.05021000  0.04833000  1.0
  N  N77  1  0.30838000  0.94979000  0.95167000  1.0
  N  N78  1  0.66503000  0.22875000  0.36438000  1.0
  N  N79  1  0.33497000  0.77124000  0.63562000  1.0
  N  N80  1  0.17843000  0.97794000  0.42321000  1.0
  N  N81  1  0.82158000  0.02206000  0.57678000  1.0
  N  N82  1  0.30666000  0.48271000  0.51584000  1.0
  N  N83  1  0.69334000  0.51728000  0.48416000  1.0
