# generated using pymatgen
data_AgH16C12(NO)4
_symmetry_space_group_name_H-M   'P 1'
_cell_length_a   11.57900000
_cell_length_b   11.84890000
_cell_length_c   11.84860000
_cell_angle_alpha   70.23460000
_cell_angle_beta   72.15320000
_cell_angle_gamma   72.15470000
_symmetry_Int_Tables_number   1
_chemical_formula_structural   AgH16C12(NO)4
_chemical_formula_sum   'Ag4 H64 C48 N16 O16'
_cell_volume   1418.40864711
_cell_formula_units_Z   4
loop_
 _symmetry_equiv_pos_site_id
 _symmetry_equiv_pos_as_xyz
  1  'x, y, z'
loop_
 _atom_site_type_symbol
 _atom_site_label
 _atom_site_symmetry_multiplicity
 _atom_site_fract_x
 _atom_site_fract_y
 _atom_site_fract_z
 _atom_site_occupancy
  Ag  Ag0  1  0.13155000  0.83334000  0.48024000  1.0
  Ag  Ag1  1  0.63155000  0.48025000  0.83335000  1.0
  Ag  Ag2  1  0.86846000  0.16665000  0.51975000  1.0
  Ag  Ag3  1  0.36845000  0.51976000  0.16666000  1.0
  H  H4  1  0.56060000  0.69972000  0.61518000  1.0
  H  H5  1  0.06060000  0.61518000  0.69970000  1.0
  H  H6  1  0.43939000  0.30029000  0.38482000  1.0
  H  H7  1  0.93940000  0.38481000  0.30030000  1.0
  H  H8  1  0.29350000  0.62427000  0.48045000  1.0
  H  H9  1  0.79350000  0.48044000  0.62425000  1.0
  H  H10  1  0.70650000  0.37573000  0.51955000  1.0
  H  H11  1  0.20649000  0.51955000  0.37576000  1.0
  H  H12  1  0.30228000  0.42455000  0.64848000  1.0
  H  H13  1  0.80226000  0.64848000  0.42456000  1.0
  H  H14  1  0.69773000  0.57544000  0.35152000  1.0
  H  H15  1  0.19773000  0.35151000  0.57545000  1.0
  H  H16  1  0.35331000  0.91186000  0.15366000  1.0
  H  H17  1  0.85332000  0.15366000  0.91185000  1.0
  H  H18  1  0.64669000  0.08815000  0.84634000  1.0
  H  H19  1  0.14669000  0.84634000  0.08815000  1.0
  H  H20  1  0.31719000  0.07574000  0.12231000  1.0
  H  H21  1  0.81719000  0.12230000  0.07574000  1.0
  H  H22  1  0.68282000  0.92426000  0.87769000  1.0
  H  H23  1  0.18282000  0.87769000  0.92426000  1.0
  H  H24  1  0.20197000  0.99105000  0.21639000  1.0
  H  H25  1  0.70198000  0.21638000  0.99104000  1.0
  H  H26  1  0.79803000  0.00895000  0.78361000  1.0
  H  H27  1  0.29802000  0.78361000  0.00895000  1.0
  H  H28  1  0.44125000  0.37413000  0.79155000  1.0
  H  H29  1  0.94123000  0.79156000  0.37411000  1.0
  H  H30  1  0.55875000  0.62588000  0.20845000  1.0
  H  H31  1  0.05876000  0.20843000  0.62589000  1.0
  H  H32  1  0.27571000  0.07268000  0.45548000  1.0
  H  H33  1  0.77570000  0.45547000  0.07268000  1.0
  H  H34  1  0.72430000  0.92732000  0.54451000  1.0
  H  H35  1  0.22430000  0.54452000  0.92732000  1.0
  H  H36  1  0.15929000  0.08089000  0.38199000  1.0
  H  H37  1  0.65929000  0.38197000  0.08089000  1.0
  H  H38  1  0.84071000  0.91911000  0.61801000  1.0
  H  H39  1  0.34071000  0.61802000  0.91911000  1.0
  H  H40  1  0.27070000  0.17271000  0.30388000  1.0
  H  H41  1  0.77070000  0.30388000  0.17271000  1.0
  H  H42  1  0.72930000  0.82730000  0.69612000  1.0
  H  H43  1  0.22930000  0.69612000  0.82729000  1.0
  H  H44  1  0.46560000  0.08660000  0.40649000  1.0
  H  H45  1  0.96560000  0.40650000  0.08659000  1.0
  H  H46  1  0.53440000  0.91341000  0.59350000  1.0
  H  H47  1  0.03440000  0.59350000  0.91341000  1.0
  H  H48  1  0.49449000  0.15973000  0.24548000  1.0
  H  H49  1  0.99448000  0.24549000  0.15972000  1.0
  H  H50  1  0.50552000  0.84028000  0.75451000  1.0
  H  H51  1  0.00552000  0.75451000  0.84028000  1.0
  H  H52  1  0.61726000  0.05192000  0.31100000  1.0
  H  H53  1  0.11725000  0.31100000  0.05190000  1.0
  H  H54  1  0.38275000  0.94809000  0.68900000  1.0
  H  H55  1  0.88275000  0.68900000  0.94810000  1.0
  H  H56  1  0.55381000  0.87115000  0.14665000  1.0
  H  H57  1  0.05382000  0.14665000  0.87115000  1.0
  H  H58  1  0.44619000  0.12885000  0.85335000  1.0
  H  H59  1  0.94618000  0.85335000  0.12885000  1.0
  H  H60  1  0.66361000  0.93536000  0.16743000  1.0
  H  H61  1  0.16361000  0.16744000  0.93535000  1.0
  H  H62  1  0.33639000  0.06464000  0.83257000  1.0
  H  H63  1  0.83639000  0.83256000  0.06465000  1.0
  H  H64  1  0.54271000  0.03270000  0.09169000  1.0
  H  H65  1  0.04271000  0.09170000  0.03270000  1.0
  H  H66  1  0.45729000  0.96730000  0.90831000  1.0
  H  H67  1  0.95729000  0.90830000  0.96730000  1.0
  C  C68  1  0.41701000  0.79784000  0.44219000  1.0
  C  C69  1  0.91702000  0.44218000  0.79783000  1.0
  C  C70  1  0.58299000  0.20216000  0.55781000  1.0
  C  C71  1  0.08298000  0.55782000  0.20217000  1.0
  C  C72  1  0.48432000  0.97040000  0.28959000  1.0
  C  C73  1  0.98433000  0.28959000  0.97039000  1.0
  C  C74  1  0.51567000  0.02961000  0.71040000  1.0
  C  C75  1  0.01567000  0.71041000  0.02962000  1.0
  C  C76  1  0.42437000  0.67906000  0.53648000  1.0
  C  C77  1  0.92437000  0.53648000  0.67905000  1.0
  C  C78  1  0.57564000  0.32094000  0.46352000  1.0
  C  C79  1  0.07563000  0.46352000  0.32095000  1.0
  C  C80  1  0.50145000  0.64203000  0.61941000  1.0
  C  C81  1  0.00144000  0.61941000  0.64202000  1.0
  C  C82  1  0.49855000  0.35797000  0.38059000  1.0
  C  C83  1  0.99856000  0.38059000  0.35798000  1.0
  C  C84  1  0.34095000  0.97971000  0.30847000  1.0
  C  C85  1  0.84095000  0.30847000  0.97970000  1.0
  C  C86  1  0.65905000  0.02029000  0.69152000  1.0
  C  C87  1  0.15905000  0.69152000  0.02030000  1.0
  C  C88  1  0.35200000  0.59919000  0.54580000  1.0
  C  C89  1  0.85200000  0.54580000  0.59918000  1.0
  C  C90  1  0.64800000  0.40081000  0.45419000  1.0
  C  C91  1  0.14800000  0.45419000  0.40083000  1.0
  C  C92  1  0.35744000  0.48865000  0.63734000  1.0
  C  C93  1  0.85742000  0.63734000  0.48864000  1.0
  C  C94  1  0.64257000  0.51135000  0.36266000  1.0
  C  C95  1  0.14258000  0.36266000  0.51136000  1.0
  C  C96  1  0.30179000  0.98992000  0.19239000  1.0
  C  C97  1  0.80179000  0.19238000  0.98992000  1.0
  C  C98  1  0.69822000  0.01008000  0.80761000  1.0
  C  C99  1  0.19821000  0.80762000  0.01008000  1.0
  C  C100  1  0.43514000  0.45935000  0.71733000  1.0
  C  C101  1  0.93513000  0.71733000  0.45935000  1.0
  C  C102  1  0.56486000  0.54065000  0.28267000  1.0
  C  C103  1  0.06487000  0.28266000  0.54066000  1.0
  C  C104  1  0.25694000  0.08315000  0.36673000  1.0
  C  C105  1  0.75694000  0.36672000  0.08315000  1.0
  C  C106  1  0.74306000  0.91685000  0.63327000  1.0
  C  C107  1  0.24306000  0.63327000  0.91685000  1.0
  C  C108  1  0.51695000  0.07329000  0.31575000  1.0
  C  C109  1  0.01695000  0.31576000  0.07328000  1.0
  C  C110  1  0.48305000  0.92672000  0.68424000  1.0
  C  C111  1  0.98305000  0.68424000  0.92672000  1.0
  C  C112  1  0.56569000  0.95033000  0.16608000  1.0
  C  C113  1  0.06569000  0.16608000  0.95032000  1.0
  C  C114  1  0.43431000  0.04967000  0.83392000  1.0
  C  C115  1  0.93431000  0.83392000  0.04968000  1.0
  N  N116  1  0.31764000  0.86193000  0.39985000  1.0
  N  N117  1  0.81764000  0.39984000  0.86193000  1.0
  N  N118  1  0.68236000  0.13807000  0.60014000  1.0
  N  N119  1  0.18235000  0.60015000  0.13808000  1.0
  N  N120  1  0.51712000  0.85316000  0.38721000  1.0
  N  N121  1  0.01712000  0.38721000  0.85314000  1.0
  N  N122  1  0.48288000  0.14685000  0.61279000  1.0
  N  N123  1  0.98288000  0.61279000  0.14686000  1.0
  N  N124  1  0.50671000  0.53445000  0.70779000  1.0
  N  N125  1  0.00670000  0.70779000  0.53444000  1.0
  N  N126  1  0.49329000  0.46556000  0.29221000  1.0
  N  N127  1  0.99330000  0.29220000  0.46557000  1.0
  N  N128  1  0.09739000  0.95540000  0.68816000  1.0
  N  N129  1  0.59739000  0.68815000  0.95541000  1.0
  N  N130  1  0.90262000  0.04459000  0.31185000  1.0
  N  N131  1  0.40261000  0.31185000  0.04459000  1.0
  O  O132  1  0.62607000  0.80973000  0.40773000  1.0
  O  O133  1  0.12607000  0.40773000  0.80971000  1.0
  O  O134  1  0.37393000  0.19028000  0.59227000  1.0
  O  O135  1  0.87393000  0.59226000  0.19029000  1.0
  O  O136  1  0.02237000  0.96574000  0.62219000  1.0
  O  O137  1  0.52238000  0.62218000  0.96574000  1.0
  O  O138  1  0.97763000  0.03426000  0.37780000  1.0
  O  O139  1  0.47762000  0.37781000  0.03426000  1.0
  O  O140  1  0.19838000  0.87526000  0.68187000  1.0
  O  O141  1  0.69840000  0.68186000  0.87527000  1.0
  O  O142  1  0.80162000  0.12474000  0.31814000  1.0
  O  O143  1  0.30160000  0.31814000  0.12473000  1.0
  O  O144  1  0.06758000  0.02521000  0.75737000  1.0
  O  O145  1  0.56757000  0.75738000  0.02520000  1.0
  O  O146  1  0.93242000  0.97479000  0.24263000  1.0
  O  O147  1  0.43243000  0.24263000  0.97479000  1.0
