# generated using pymatgen
data_ZnH24C24(NO3)2
_symmetry_space_group_name_H-M   'P 1'
_cell_length_a   11.58360000
_cell_length_b   14.91880000
_cell_length_c   15.12860000
_cell_angle_alpha   106.94000000
_cell_angle_beta   90.00000000
_cell_angle_gamma   90.00000000
_symmetry_Int_Tables_number   1
_chemical_formula_structural   ZnH24C24(NO3)2
_chemical_formula_sum   'Zn4 H96 C96 N8 O24'
_cell_volume   2500.98613234
_cell_formula_units_Z   4
loop_
 _symmetry_equiv_pos_site_id
 _symmetry_equiv_pos_as_xyz
  1  'x, y, z'
loop_
 _atom_site_type_symbol
 _atom_site_label
 _atom_site_symmetry_multiplicity
 _atom_site_fract_x
 _atom_site_fract_y
 _atom_site_fract_z
 _atom_site_occupancy
  Zn  Zn0  1  0.41541000  0.51166000  0.57149000  1.0
  Zn  Zn1  1  0.91541000  0.98834000  0.42851000  1.0
  Zn  Zn2  1  0.58459000  0.48834000  0.42851000  1.0
  Zn  Zn3  1  0.08459000  0.01166000  0.57149000  1.0
  H  H4  1  0.94039000  0.25293000  0.76616000  1.0
  H  H5  1  0.44039000  0.24708000  0.23384000  1.0
  H  H6  1  0.05961000  0.74708000  0.23384000  1.0
  H  H7  1  0.55961000  0.75293000  0.76616000  1.0
  H  H8  1  0.77164000  0.27445000  0.51991000  1.0
  H  H9  1  0.27164000  0.22555000  0.48009000  1.0
  H  H10  1  0.22836000  0.72555000  0.48009000  1.0
  H  H11  1  0.72837000  0.77445000  0.51991000  1.0
  H  H12  1  0.64804000  0.46247000  0.00604000  1.0
  H  H13  1  0.14804000  0.03753000  0.99396000  1.0
  H  H14  1  0.35196000  0.53753000  0.99396000  1.0
  H  H15  1  0.85196000  0.96247000  0.00604000  1.0
  H  H16  1  0.67045000  0.61279000  0.12678000  1.0
  H  H17  1  0.17045000  0.88721000  0.87322000  1.0
  H  H18  1  0.32955000  0.38721000  0.87322000  1.0
  H  H19  1  0.82955000  0.11279000  0.12678000  1.0
  H  H20  1  0.75470000  0.77600000  0.17670000  1.0
  H  H21  1  0.25470000  0.72400000  0.82330000  1.0
  H  H22  1  0.24530000  0.22400000  0.82330000  1.0
  H  H23  1  0.74529000  0.27600000  0.17670000  1.0
  H  H24  1  0.89074000  0.89339000  0.14892000  1.0
  H  H25  1  0.39074000  0.60661000  0.85108000  1.0
  H  H26  1  0.10926000  0.10661000  0.85108000  1.0
  H  H27  1  0.60926000  0.39339000  0.14892000  1.0
  H  H28  1  0.00167000  0.85547000  0.00014000  1.0
  H  H29  1  0.50167000  0.64453000  0.99986000  1.0
  H  H30  1  0.99833000  0.14453000  0.99986000  1.0
  H  H31  1  0.49833000  0.35547000  0.00014000  1.0
  H  H32  1  0.97739000  0.70122000  0.88254000  1.0
  H  H33  1  0.47739000  0.79878000  0.11746000  1.0
  H  H34  1  0.02261000  0.29878000  0.11746000  1.0
  H  H35  1  0.52261000  0.20122000  0.88254000  1.0
  H  H36  1  0.50255000  0.43587000  0.77410000  1.0
  H  H37  1  0.00255000  0.06413000  0.22590000  1.0
  H  H38  1  0.49745000  0.56413000  0.22590000  1.0
  H  H39  1  0.99745000  0.93587000  0.77410000  1.0
  H  H40  1  0.51355000  0.49483000  0.89509000  1.0
  H  H41  1  0.01355000  0.00517000  0.10491000  1.0
  H  H42  1  0.48645000  0.50517000  0.10491000  1.0
  H  H43  1  0.98645000  0.99483000  0.89509000  1.0
  H  H44  1  0.56826000  0.37886000  0.85002000  1.0
  H  H45  1  0.06825000  0.12114000  0.14998000  1.0
  H  H46  1  0.43175000  0.62114000  0.14998000  1.0
  H  H47  1  0.93174000  0.87886000  0.85002000  1.0
  H  H48  1  0.73601000  0.60748000  0.77597000  1.0
  H  H49  1  0.23601000  0.89252000  0.22403000  1.0
  H  H50  1  0.26399000  0.39252000  0.22403000  1.0
  H  H51  1  0.76399000  0.10748000  0.77597000  1.0
  H  H52  1  0.63180000  0.63442000  0.86567000  1.0
  H  H53  1  0.13180000  0.86558000  0.13433000  1.0
  H  H54  1  0.36820000  0.36558000  0.13433000  1.0
  H  H55  1  0.86820000  0.13442000  0.86567000  1.0
  H  H56  1  0.58875000  0.57898000  0.75011000  1.0
  H  H57  1  0.08875000  0.92102000  0.24989000  1.0
  H  H58  1  0.41125000  0.42102000  0.24989000  1.0
  H  H59  1  0.91125000  0.07898000  0.75011000  1.0
  H  H60  1  0.90729000  0.30721000  0.92287000  1.0
  H  H61  1  0.40729000  0.19279000  0.07713000  1.0
  H  H62  1  0.09271000  0.69279000  0.07713000  1.0
  H  H63  1  0.59271000  0.80721000  0.92287000  1.0
  H  H64  1  0.87154000  0.41128000  0.01058000  1.0
  H  H65  1  0.37154000  0.08872000  0.98943000  1.0
  H  H66  1  0.12846000  0.58872000  0.98943000  1.0
  H  H67  1  0.62846000  0.91128000  0.01057000  1.0
  H  H68  1  0.98555000  0.41221000  0.93131000  1.0
  H  H69  1  0.48555000  0.08779000  0.06869000  1.0
  H  H70  1  0.01445000  0.58779000  0.06869000  1.0
  H  H71  1  0.51445000  0.91221000  0.93131000  1.0
  H  H72  1  0.16516000  0.55415000  0.58347000  1.0
  H  H73  1  0.66516000  0.94585000  0.41653000  1.0
  H  H74  1  0.83484000  0.44585000  0.41653000  1.0
  H  H75  1  0.33484000  0.05415000  0.58347000  1.0
  H  H76  1  0.97776000  0.55507000  0.60517000  1.0
  H  H77  1  0.47776000  0.94493000  0.39482000  1.0
  H  H78  1  0.02223000  0.44493000  0.39483000  1.0
  H  H79  1  0.52223000  0.05507000  0.60517000  1.0
  H  H80  1  0.92765000  0.58013000  0.72153000  1.0
  H  H81  1  0.42765000  0.91987000  0.27847000  1.0
  H  H82  1  0.07235000  0.41987000  0.27847000  1.0
  H  H83  1  0.57235000  0.08013000  0.72153000  1.0
  H  H84  1  0.93507000  0.46187000  0.65060000  1.0
  H  H85  1  0.43507000  0.03812000  0.34940000  1.0
  H  H86  1  0.06493000  0.53812000  0.34940000  1.0
  H  H87  1  0.56493000  0.96187000  0.65060000  1.0
  H  H88  1  0.12741000  0.41993000  0.76379000  1.0
  H  H89  1  0.62741000  0.08007000  0.23621000  1.0
  H  H90  1  0.87259000  0.58007000  0.23621000  1.0
  H  H91  1  0.37259000  0.91993000  0.76379000  1.0
  H  H92  1  0.03658000  0.51461000  0.82498000  1.0
  H  H93  1  0.53657000  0.98539000  0.17502000  1.0
  H  H94  1  0.96342000  0.48539000  0.17502000  1.0
  H  H95  1  0.46342000  0.01461000  0.82498000  1.0
  H  H96  1  0.18960000  0.53169000  0.81857000  1.0
  H  H97  1  0.68960000  0.96831000  0.18143000  1.0
  H  H98  1  0.81040000  0.46831000  0.18143000  1.0
  H  H99  1  0.31040000  0.03169000  0.81857000  1.0
  C  C100  1  0.81464000  0.36559000  0.78365000  1.0
  C  C101  1  0.31464000  0.13441000  0.21635000  1.0
  C  C102  1  0.18536000  0.63441000  0.21635000  1.0
  C  C103  1  0.68536000  0.86559000  0.78365000  1.0
  C  C104  1  0.87879000  0.28855000  0.73370000  1.0
  C  C105  1  0.37879000  0.21145000  0.26630000  1.0
  C  C106  1  0.12121000  0.71145000  0.26630000  1.0
  C  C107  1  0.62122000  0.78855000  0.73370000  1.0
  C  C108  1  0.85935000  0.25437000  0.63811000  1.0
  C  C109  1  0.35936000  0.24563000  0.36189000  1.0
  C  C110  1  0.14064000  0.74563000  0.36189000  1.0
  C  C111  1  0.64065000  0.75437000  0.63811000  1.0
  C  C112  1  0.78416000  0.30087000  0.59430000  1.0
  C  C113  1  0.28416000  0.19913000  0.40570000  1.0
  C  C114  1  0.21584000  0.69913000  0.40570000  1.0
  C  C115  1  0.71584000  0.80087000  0.59430000  1.0
  C  C116  1  0.72181000  0.38011000  0.64537000  1.0
  C  C117  1  0.22181000  0.11989000  0.35463000  1.0
  C  C118  1  0.27819000  0.61989000  0.35463000  1.0
  C  C119  1  0.77820000  0.88011000  0.64537000  1.0
  C  C120  1  0.73504000  0.41153000  0.74120000  1.0
  C  C121  1  0.23504000  0.08847000  0.25880000  1.0
  C  C122  1  0.26496000  0.58847000  0.25880000  1.0
  C  C123  1  0.76497000  0.91153000  0.74120000  1.0
  C  C124  1  0.67413000  0.48675000  0.81706000  1.0
  C  C125  1  0.17413000  0.01325000  0.18294000  1.0
  C  C126  1  0.32587000  0.51325000  0.18294000  1.0
  C  C127  1  0.82587000  0.98675000  0.81706000  1.0
  C  C128  1  0.75785000  0.49517000  0.90185000  1.0
  C  C129  1  0.25785000  0.00483000  0.09815000  1.0
  C  C130  1  0.24215000  0.50483000  0.09815000  1.0
  C  C131  1  0.74215000  0.99517000  0.90185000  1.0
  C  C132  1  0.70109000  0.51821000  0.99452000  1.0
  C  C133  1  0.20109000  0.98179000  0.00548000  1.0
  C  C134  1  0.29891000  0.48179000  0.00548000  1.0
  C  C135  1  0.79891000  0.01821000  0.99452000  1.0
  C  C136  1  0.71448000  0.60025000  0.06042000  1.0
  C  C137  1  0.21448000  0.89975000  0.93958000  1.0
  C  C138  1  0.28552000  0.39975000  0.93958000  1.0
  C  C139  1  0.78552000  0.10025000  0.06042000  1.0
  C  C140  1  0.78811000  0.67303000  0.04606000  1.0
  C  C141  1  0.28811000  0.82697000  0.95394000  1.0
  C  C142  1  0.21189000  0.32697000  0.95394000  1.0
  C  C143  1  0.71189000  0.17303000  0.04606000  1.0
  C  C144  1  0.80253000  0.76066000  0.11176000  1.0
  C  C145  1  0.30253000  0.73934000  0.88824000  1.0
  C  C146  1  0.19747000  0.23934000  0.88824000  1.0
  C  C147  1  0.69746000  0.26066000  0.11176000  1.0
  C  C148  1  0.87873000  0.82661000  0.09612000  1.0
  C  C149  1  0.37873000  0.67339000  0.90388000  1.0
  C  C150  1  0.12127000  0.17339000  0.90388000  1.0
  C  C151  1  0.62126000  0.32661000  0.09612000  1.0
  C  C152  1  0.94074000  0.80507000  0.01316000  1.0
  C  C153  1  0.44074000  0.69493000  0.98684000  1.0
  C  C154  1  0.05926000  0.19493000  0.98684000  1.0
  C  C155  1  0.55926000  0.30507000  0.01316000  1.0
  C  C156  1  0.92788000  0.71850000  0.94663000  1.0
  C  C157  1  0.42787000  0.78150000  0.05336000  1.0
  C  C158  1  0.07213000  0.28150000  0.05336000  1.0
  C  C159  1  0.57212000  0.21850000  0.94663000  1.0
  C  C160  1  0.85256000  0.65200000  0.96327000  1.0
  C  C161  1  0.35256000  0.84800000  0.03673000  1.0
  C  C162  1  0.14744000  0.34800000  0.03673000  1.0
  C  C163  1  0.64744000  0.15200000  0.96327000  1.0
  C  C164  1  0.91547000  0.16439000  0.58466000  1.0
  C  C165  1  0.41547000  0.33561000  0.41534000  1.0
  C  C166  1  0.08453000  0.83561000  0.41534000  1.0
  C  C167  1  0.58453000  0.66439000  0.58466000  1.0
  C  C168  1  0.64199000  0.42523000  0.59301000  1.0
  C  C169  1  0.14199000  0.07477000  0.40699000  1.0
  C  C170  1  0.35801000  0.57477000  0.40699000  1.0
  C  C171  1  0.85801000  0.92523000  0.59301000  1.0
  C  C172  1  0.55690000  0.44635000  0.83556000  1.0
  C  C173  1  0.05690000  0.05365000  0.16444000  1.0
  C  C174  1  0.44310000  0.55365000  0.16444000  1.0
  C  C175  1  0.94310000  0.94634000  0.83556000  1.0
  C  C176  1  0.65708000  0.58235000  0.80082000  1.0
  C  C177  1  0.15708000  0.91765000  0.19918000  1.0
  C  C178  1  0.34292000  0.41765000  0.19918000  1.0
  C  C179  1  0.84292000  0.08235000  0.80082000  1.0
  C  C180  1  0.89956000  0.38343000  0.93856000  1.0
  C  C181  1  0.39956000  0.11657000  0.06144000  1.0
  C  C182  1  0.10044000  0.61657000  0.06144000  1.0
  C  C183  1  0.60044000  0.88343000  0.93856000  1.0
  C  C184  1  0.18587000  0.53535000  0.64699000  1.0
  C  C185  1  0.68586000  0.96465000  0.35301000  1.0
  C  C186  1  0.81414000  0.46465000  0.35301000  1.0
  C  C187  1  0.31413000  0.03535000  0.64699000  1.0
  C  C188  1  0.97755000  0.53066000  0.66688000  1.0
  C  C189  1  0.47755000  0.96934000  0.33312000  1.0
  C  C190  1  0.02245000  0.46934000  0.33312000  1.0
  C  C191  1  0.52245000  0.03065000  0.66688000  1.0
  C  C192  1  0.11355000  0.49607000  0.78137000  1.0
  C  C193  1  0.61355000  0.00393000  0.21863000  1.0
  C  C194  1  0.88645000  0.50393000  0.21863000  1.0
  C  C195  1  0.38645000  0.99607000  0.78137000  1.0
  N  N196  1  0.81441000  0.40602000  0.87880000  1.0
  N  N197  1  0.31442000  0.09398000  0.12120000  1.0
  N  N198  1  0.18559000  0.59398000  0.12120000  1.0
  N  N199  1  0.68559000  0.90602000  0.87880000  1.0
  N  N200  1  0.09579000  0.52469000  0.69784000  1.0
  N  N201  1  0.59579000  0.97531000  0.30216000  1.0
  N  N202  1  0.90421000  0.47531000  0.30216000  1.0
  N  N203  1  0.40421000  0.02469000  0.69784000  1.0
  O  O204  1  0.84883000  0.56613000  0.89949000  1.0
  O  O205  1  0.34883000  0.93387000  0.10051000  1.0
  O  O206  1  0.15118000  0.43387000  0.10051000  1.0
  O  O207  1  0.65118000  0.06613000  0.89949000  1.0
  O  O208  1  0.00308000  0.13779000  0.62169000  1.0
  O  O209  1  0.50308000  0.36221000  0.37831000  1.0
  O  O210  1  0.99692000  0.86221000  0.37831000  1.0
  O  O211  1  0.49692000  0.63779000  0.62168000  1.0
  O  O212  1  0.86898000  0.12033000  0.50810000  1.0
  O  O213  1  0.36898000  0.37967000  0.49189000  1.0
  O  O214  1  0.13102000  0.87967000  0.49189000  1.0
  O  O215  1  0.63102000  0.62033000  0.50811000  1.0
  O  O216  1  0.68020000  0.43420000  0.51712000  1.0
  O  O217  1  0.18020000  0.06580000  0.48288000  1.0
  O  O218  1  0.31980000  0.56580000  0.48288000  1.0
  O  O219  1  0.81980000  0.93420000  0.51712000  1.0
  O  O220  1  0.54270000  0.44952000  0.62761000  1.0
  O  O221  1  0.04270000  0.05048000  0.37239000  1.0
  O  O222  1  0.45730000  0.55048000  0.37239000  1.0
  O  O223  1  0.95731000  0.94952000  0.62761000  1.0
  O  O224  1  0.28896000  0.52533000  0.66920000  1.0
  O  O225  1  0.78896000  0.97467000  0.33081000  1.0
  O  O226  1  0.71104000  0.47467000  0.33080000  1.0
  O  O227  1  0.21104000  0.02533000  0.66920000  1.0
