# generated using pymatgen
data_Zr3H2C24(O4F3)4
_symmetry_space_group_name_H-M   'P 1'
_cell_length_a   14.86690000
_cell_length_b   14.86682563
_cell_length_c   14.86690000
_cell_angle_alpha   60.00006547
_cell_angle_beta   60.00000000
_cell_angle_gamma   60.00016547
_symmetry_Int_Tables_number   1
_chemical_formula_structural   Zr3H2C24(O4F3)4
_chemical_formula_sum   'Zr6 H4 C48 O32 F24'
_cell_volume   2323.51161809
_cell_formula_units_Z   2
loop_
 _symmetry_equiv_pos_site_id
 _symmetry_equiv_pos_as_xyz
  1  'x, y, z'
loop_
 _atom_site_type_symbol
 _atom_site_label
 _atom_site_symmetry_multiplicity
 _atom_site_fract_x
 _atom_site_fract_y
 _atom_site_fract_z
 _atom_site_occupancy
  Zr  Zr0  1  0.88098000  0.11902000  0.88098000  1.0
  Zr  Zr1  1  0.11902000  0.88098000  0.11902000  1.0
  Zr  Zr2  1  0.11902000  0.11902000  0.88098000  1.0
  Zr  Zr3  1  0.88097000  0.88098000  0.11903000  1.0
  Zr  Zr4  1  0.11902000  0.88098000  0.88098000  1.0
  Zr  Zr5  1  0.88098000  0.11902000  0.11902000  1.0
  H  H6  1  0.09362000  0.09362000  0.71914000  1.0
  H  H7  1  0.09362000  0.71913000  0.09363000  1.0
  H  H8  1  0.09362000  0.09362000  0.09363000  1.0
  H  H9  1  0.71913000  0.09362000  0.09363000  1.0
  C  C10  1  0.99747000  0.99746000  0.70071000  1.0
  C  C11  1  0.30436000  0.70071000  0.99746000  1.0
  C  C12  1  0.99746000  0.99746000  0.30437000  1.0
  C  C13  1  0.70071000  0.30436000  0.99747000  1.0
  C  C14  1  0.99746000  0.30435000  0.70072000  1.0
  C  C15  1  0.70072000  0.99746000  0.99746000  1.0
  C  C16  1  0.99747000  0.70071000  0.30436000  1.0
  C  C17  1  0.30436000  0.99746000  0.99746000  1.0
  C  C18  1  0.30435000  0.99746000  0.70072000  1.0
  C  C19  1  0.99746000  0.30436000  0.99747000  1.0
  C  C20  1  0.70071000  0.99747000  0.30436000  1.0
  C  C21  1  0.99747000  0.70071000  0.99746000  1.0
  C  C22  1  0.99863000  0.99864000  0.40416000  1.0
  C  C23  1  0.99865000  0.99863000  0.59857000  1.0
  C  C24  1  0.07955000  0.91890000  0.45381000  1.0
  C  C25  1  0.91889000  0.07955000  0.54774000  1.0
  C  C26  1  0.07956000  0.91890000  0.54774000  1.0
  C  C27  1  0.91889000  0.07955000  0.45382000  1.0
  C  C28  1  0.40415000  0.59857000  0.99864000  1.0
  C  C29  1  0.59857000  0.40414000  0.99865000  1.0
  C  C30  1  0.45380000  0.54774000  0.07956000  1.0
  C  C31  1  0.54774000  0.45381000  0.91890000  1.0
  C  C32  1  0.54773000  0.45381000  0.07956000  1.0
  C  C33  1  0.45382000  0.54774000  0.91889000  1.0
  C  C34  1  0.99864000  0.40415000  0.99864000  1.0
  C  C35  1  0.99864000  0.59857000  0.99864000  1.0
  C  C36  1  0.91890000  0.45381000  0.07956000  1.0
  C  C37  1  0.07955000  0.54774000  0.91890000  1.0
  C  C38  1  0.91890000  0.54773000  0.07956000  1.0
  C  C39  1  0.07955000  0.45381000  0.91890000  1.0
  C  C40  1  0.40415000  0.99864000  0.59857000  1.0
  C  C41  1  0.59857000  0.99864000  0.40415000  1.0
  C  C42  1  0.45381000  0.91890000  0.54773000  1.0
  C  C43  1  0.54774000  0.07955000  0.45381000  1.0
  C  C44  1  0.54774000  0.91890000  0.45381000  1.0
  C  C45  1  0.45381000  0.07955000  0.54774000  1.0
  C  C46  1  0.99863000  0.59857000  0.40416000  1.0
  C  C47  1  0.99865000  0.40414000  0.59857000  1.0
  C  C48  1  0.91889000  0.54774000  0.45382000  1.0
  C  C49  1  0.07955000  0.45381000  0.54774000  1.0
  C  C50  1  0.91890000  0.45381000  0.54774000  1.0
  C  C51  1  0.07955000  0.54774000  0.45381000  1.0
  C  C52  1  0.40415000  0.99864000  0.99864000  1.0
  C  C53  1  0.59857000  0.99864000  0.99864000  1.0
  C  C54  1  0.45381000  0.91890000  0.07955000  1.0
  C  C55  1  0.54774000  0.07955000  0.91890000  1.0
  C  C56  1  0.54773000  0.91890000  0.07956000  1.0
  C  C57  1  0.45381000  0.07955000  0.91890000  1.0
  O  O58  1  0.92116000  0.07350000  0.73993000  1.0
  O  O59  1  0.26541000  0.73993000  0.07349000  1.0
  O  O60  1  0.07350000  0.92116000  0.26541000  1.0
  O  O61  1  0.73993000  0.26541000  0.92116000  1.0
  O  O62  1  0.07350000  0.26541000  0.73993000  1.0
  O  O63  1  0.73992000  0.92116000  0.07351000  1.0
  O  O64  1  0.92117000  0.73992000  0.26541000  1.0
  O  O65  1  0.26541000  0.07350000  0.92116000  1.0
  O  O66  1  0.26541000  0.92117000  0.73993000  1.0
  O  O67  1  0.92117000  0.26541000  0.07350000  1.0
  O  O68  1  0.73993000  0.07349000  0.26541000  1.0
  O  O69  1  0.07349000  0.73992000  0.92118000  1.0
  O  O70  1  0.07350000  0.26541000  0.92116000  1.0
  O  O71  1  0.73993000  0.92116000  0.26541000  1.0
  O  O72  1  0.92116000  0.73993000  0.07350000  1.0
  O  O73  1  0.26541000  0.07350000  0.73993000  1.0
  O  O74  1  0.92117000  0.26541000  0.73993000  1.0
  O  O75  1  0.26541000  0.92117000  0.07349000  1.0
  O  O76  1  0.07349000  0.73992000  0.26542000  1.0
  O  O77  1  0.73993000  0.07349000  0.92117000  1.0
  O  O78  1  0.73993000  0.26541000  0.07350000  1.0
  O  O79  1  0.07350000  0.92116000  0.73993000  1.0
  O  O80  1  0.26542000  0.73992000  0.92116000  1.0
  O  O81  1  0.92116000  0.07350000  0.26542000  1.0
  O  O82  1  0.79894000  0.06702000  0.06702000  1.0
  O  O83  1  0.06702000  0.06702000  0.06702000  1.0
  O  O84  1  0.06703000  0.79893000  0.06702000  1.0
  O  O85  1  0.06702000  0.06702000  0.79894000  1.0
  O  O86  1  0.14766000  0.95078000  0.95078000  1.0
  O  O87  1  0.95078000  0.95078000  0.95078000  1.0
  O  O88  1  0.95078000  0.95078000  0.14766000  1.0
  O  O89  1  0.95078000  0.14766000  0.95078000  1.0
  F  F90  1  0.16121000  0.83828000  0.41356000  1.0
  F  F91  1  0.83828000  0.16120000  0.58696000  1.0
  F  F92  1  0.16122000  0.83828000  0.58695000  1.0
  F  F93  1  0.83827000  0.16119000  0.41357000  1.0
  F  F94  1  0.41356000  0.58695000  0.16121000  1.0
  F  F95  1  0.58696000  0.41356000  0.83828000  1.0
  F  F96  1  0.58694000  0.41355000  0.16122000  1.0
  F  F97  1  0.41358000  0.58696000  0.83826000  1.0
  F  F98  1  0.83827000  0.41356000  0.16121000  1.0
  F  F99  1  0.16121000  0.58695000  0.83829000  1.0
  F  F100  1  0.83828000  0.58695000  0.16121000  1.0
  F  F101  1  0.16121000  0.41356000  0.83828000  1.0
  F  F102  1  0.41355000  0.83828000  0.58696000  1.0
  F  F103  1  0.58695000  0.16121000  0.41356000  1.0
  F  F104  1  0.58695000  0.83828000  0.41356000  1.0
  F  F105  1  0.41355000  0.16121000  0.58696000  1.0
  F  F106  1  0.83827000  0.58696000  0.41357000  1.0
  F  F107  1  0.16122000  0.41355000  0.58695000  1.0
  F  F108  1  0.83828000  0.41355000  0.58696000  1.0
  F  F109  1  0.16120000  0.58696000  0.41356000  1.0
  F  F110  1  0.41356000  0.83827000  0.16121000  1.0
  F  F111  1  0.58695000  0.16121000  0.83829000  1.0
  F  F112  1  0.58695000  0.83828000  0.16122000  1.0
  F  F113  1  0.41357000  0.16120000  0.83827000  1.0
