# generated using pymatgen
data_ZnH16C22(NO2)2
_symmetry_space_group_name_H-M   'P 1'
_cell_length_a   7.92321000
_cell_length_b   7.92324000
_cell_length_c   14.92990000
_cell_angle_alpha   97.93220000
_cell_angle_beta   97.93270000
_cell_angle_gamma   91.93180000
_symmetry_Int_Tables_number   1
_chemical_formula_structural   ZnH16C22(NO2)2
_chemical_formula_sum   'Zn2 H32 C44 N4 O8'
_cell_volume   918.08052944
_cell_formula_units_Z   2
loop_
 _symmetry_equiv_pos_site_id
 _symmetry_equiv_pos_as_xyz
  1  'x, y, z'
loop_
 _atom_site_type_symbol
 _atom_site_label
 _atom_site_symmetry_multiplicity
 _atom_site_fract_x
 _atom_site_fract_y
 _atom_site_fract_z
 _atom_site_occupancy
  Zn  Zn0  1  0.03618000  0.96382000  0.25000000  1.0
  Zn  Zn1  1  0.96381000  0.03618000  0.75000000  1.0
  H  H2  1  0.47977000  0.14509000  0.46634000  1.0
  H  H3  1  0.14511000  0.47977000  0.96634000  1.0
  H  H4  1  0.52021000  0.85491000  0.53365000  1.0
  H  H5  1  0.85491000  0.52023000  0.03365000  1.0
  H  H6  1  0.78667000  0.18863000  0.54235000  1.0
  H  H7  1  0.18864000  0.78666000  0.04235000  1.0
  H  H8  1  0.21333000  0.81136000  0.45765000  1.0
  H  H9  1  0.81137000  0.21335000  0.95764000  1.0
  H  H10  1  0.66268000  0.93386000  0.21914000  1.0
  H  H11  1  0.93386000  0.66268000  0.71914000  1.0
  H  H12  1  0.33731000  0.06613000  0.78086000  1.0
  H  H13  1  0.06614000  0.33732000  0.28086000  1.0
  H  H14  1  0.01766000  0.11031000  0.44656000  1.0
  H  H15  1  0.11030000  0.01765000  0.94656000  1.0
  H  H16  1  0.98233000  0.88969000  0.55344000  1.0
  H  H17  1  0.88970000  0.98235000  0.05343000  1.0
  H  H18  1  0.89515000  0.61866000  0.42434000  1.0
  H  H19  1  0.61867000  0.89513000  0.92434000  1.0
  H  H20  1  0.10486000  0.38134000  0.57566000  1.0
  H  H21  1  0.38134000  0.10487000  0.07567000  1.0
  H  H22  1  0.65301000  0.62400000  0.30105000  1.0
  H  H23  1  0.62400000  0.65298000  0.80106000  1.0
  H  H24  1  0.34700000  0.37601000  0.69894000  1.0
  H  H25  1  0.37600000  0.34702000  0.19895000  1.0
  H  H26  1  0.35550000  0.55502000  0.32640000  1.0
  H  H27  1  0.55502000  0.35548000  0.82642000  1.0
  H  H28  1  0.64451000  0.44498000  0.67359000  1.0
  H  H29  1  0.44498000  0.64452000  0.17360000  1.0
  H  H30  1  0.84330000  0.53852000  0.57501000  1.0
  H  H31  1  0.53853000  0.84330000  0.07501000  1.0
  H  H32  1  0.15670000  0.46147000  0.42498000  1.0
  H  H33  1  0.46148000  0.15670000  0.92500000  1.0
  C  C34  1  0.37127000  0.00143000  0.28731000  1.0
  C  C35  1  0.00144000  0.37127000  0.78731000  1.0
  C  C36  1  0.62872000  0.99857000  0.71269000  1.0
  C  C37  1  0.99857000  0.62873000  0.21269000  1.0
  C  C38  1  0.54926000  0.03620000  0.33716000  1.0
  C  C39  1  0.03621000  0.54926000  0.83716000  1.0
  C  C40  1  0.45073000  0.96380000  0.66284000  1.0
  C  C41  1  0.96380000  0.45074000  0.16284000  1.0
  C  C42  1  0.58474000  0.10893000  0.42898000  1.0
  C  C43  1  0.10895000  0.58473000  0.92898000  1.0
  C  C44  1  0.41526000  0.89106000  0.57102000  1.0
  C  C45  1  0.89106000  0.41527000  0.07102000  1.0
  C  C46  1  0.75418000  0.13453000  0.47066000  1.0
  C  C47  1  0.13454000  0.75417000  0.97066000  1.0
  C  C48  1  0.24581000  0.86546000  0.52934000  1.0
  C  C49  1  0.86547000  0.24583000  0.02934000  1.0
  C  C50  1  0.68575000  0.99216000  0.29056000  1.0
  C  C51  1  0.99216000  0.68575000  0.79056000  1.0
  C  C52  1  0.31424000  0.00783000  0.70943000  1.0
  C  C53  1  0.00784000  0.31425000  0.20943000  1.0
  C  C54  1  0.88283000  0.08950000  0.41871000  1.0
  C  C55  1  0.08951000  0.88282000  0.91871000  1.0
  C  C56  1  0.11716000  0.91049000  0.58129000  1.0
  C  C57  1  0.91050000  0.11718000  0.08128000  1.0
  C  C58  1  0.76642000  0.58704000  0.43718000  1.0
  C  C59  1  0.58704000  0.76641000  0.93718000  1.0
  C  C60  1  0.23358000  0.41296000  0.56281000  1.0
  C  C61  1  0.41296000  0.23359000  0.06282000  1.0
  C  C62  1  0.62814000  0.58974000  0.36644000  1.0
  C  C63  1  0.58974000  0.62813000  0.86645000  1.0
  C  C64  1  0.37186000  0.41027000  0.63355000  1.0
  C  C65  1  0.41026000  0.37187000  0.13356000  1.0
  C  C66  1  0.46352000  0.54887000  0.37962000  1.0
  C  C67  1  0.54886000  0.46351000  0.87963000  1.0
  C  C68  1  0.53649000  0.45114000  0.62038000  1.0
  C  C69  1  0.45114000  0.53650000  0.12038000  1.0
  C  C70  1  0.43002000  0.50108000  0.46401000  1.0
  C  C71  1  0.50107000  0.43002000  0.96401000  1.0
  C  C72  1  0.56999000  0.49893000  0.53599000  1.0
  C  C73  1  0.49893000  0.56999000  0.03600000  1.0
  C  C74  1  0.73763000  0.54324000  0.52031000  1.0
  C  C75  1  0.54324000  0.73763000  0.02031000  1.0
  C  C76  1  0.26237000  0.45677000  0.47969000  1.0
  C  C77  1  0.45677000  0.26238000  0.97970000  1.0
  N  N78  1  0.84876000  0.01861000  0.33029000  1.0
  N  N79  1  0.01861000  0.84875000  0.83029000  1.0
  N  N80  1  0.15123000  0.98138000  0.66971000  1.0
  N  N81  1  0.98139000  0.15125000  0.16971000  1.0
  O  O82  1  0.34789000  0.93643000  0.20471000  1.0
  O  O83  1  0.93644000  0.34789000  0.70470000  1.0
  O  O84  1  0.65210000  0.06357000  0.79529000  1.0
  O  O85  1  0.06357000  0.65210000  0.29529000  1.0
  O  O86  1  0.24921000  0.04095000  0.33453000  1.0
  O  O87  1  0.04096000  0.24921000  0.83453000  1.0
  O  O88  1  0.75078000  0.95904000  0.66547000  1.0
  O  O89  1  0.95904000  0.75079000  0.16547000  1.0
