# generated using pymatgen
data_Mn2H20C16O15
_symmetry_space_group_name_H-M   'P 1'
_cell_length_a   7.15996000
_cell_length_b   11.61941954
_cell_length_c   29.24370000
_cell_angle_alpha   87.77049611
_cell_angle_beta   89.91100000
_cell_angle_gamma   72.06497377
_symmetry_Int_Tables_number   1
_chemical_formula_structural   Mn2H20C16O15
_chemical_formula_sum   'Mn8 H80 C64 O60'
_cell_volume   2312.80165283
_cell_formula_units_Z   4
loop_
 _symmetry_equiv_pos_site_id
 _symmetry_equiv_pos_as_xyz
  1  'x, y, z'
loop_
 _atom_site_type_symbol
 _atom_site_label
 _atom_site_symmetry_multiplicity
 _atom_site_fract_x
 _atom_site_fract_y
 _atom_site_fract_z
 _atom_site_occupancy
  Mn  Mn0  1  0.24552000  0.00065000  0.74997000  1.0
  Mn  Mn1  1  0.75449000  0.99935000  0.25003000  1.0
  Mn  Mn2  1  0.58078000  0.94693000  0.64366000  1.0
  Mn  Mn3  1  0.52570000  0.05373000  0.85635000  1.0
  Mn  Mn4  1  0.41924000  0.05308000  0.35634000  1.0
  Mn  Mn5  1  0.47429000  0.94627000  0.14365000  1.0
  Mn  Mn6  1  0.99999000  0.50000000  0.50000000  1.0
  Mn  Mn7  1  0.50000000  0.50000000  1.00000000  1.0
  H  H8  1  0.23682000  0.32680000  0.61617000  1.0
  H  H9  1  0.56276000  0.67329000  0.88379000  1.0
  H  H10  1  0.76319000  0.67318000  0.38383000  1.0
  H  H11  1  0.43726000  0.32670000  0.11621000  1.0
  H  H12  1  0.97045000  0.64911000  0.68949000  1.0
  H  H13  1  0.61908000  0.35131000  0.81028000  1.0
  H  H14  1  0.02954000  0.35087000  0.31051000  1.0
  H  H15  1  0.38091000  0.64869000  0.18972000  1.0
  H  H16  1  0.28969000  0.31743000  0.76284000  1.0
  H  H17  1  0.60579000  0.68357000  0.73710000  1.0
  H  H18  1  0.71032000  0.68257000  0.23717000  1.0
  H  H19  1  0.39422000  0.31643000  0.26291000  1.0
  H  H20  1  0.07174000  0.39519000  0.81544000  1.0
  H  H21  1  0.46674000  0.60583000  0.68444000  1.0
  H  H22  1  0.92825000  0.60481000  0.18456000  1.0
  H  H23  1  0.53323000  0.39418000  0.31556000  1.0
  H  H24  1  0.03929000  0.70580000  0.89366000  1.0
  H  H25  1  0.74606000  0.29554000  0.60609000  1.0
  H  H26  1  0.96070000  0.29421000  0.10634000  1.0
  H  H27  1  0.25394000  0.70448000  0.39390000  1.0
  H  H28  1  0.10255000  0.72395000  0.74758000  1.0
  H  H29  1  0.82694000  0.27724000  0.75212000  1.0
  H  H30  1  0.89741000  0.27604000  0.25242000  1.0
  H  H31  1  0.17305000  0.72276000  0.24788000  1.0
  H  H32  1  0.17160000  0.98399000  0.65990000  1.0
  H  H33  1  0.15368000  0.01692000  0.84001000  1.0
  H  H34  1  0.82841000  0.01602000  0.34009000  1.0
  H  H35  1  0.84632000  0.98308000  0.15999000  1.0
  H  H36  1  0.29593000  0.84275000  0.67106000  1.0
  H  H37  1  0.13735000  0.15809000  0.82882000  1.0
  H  H38  1  0.70408000  0.15725000  0.32893000  1.0
  H  H39  1  0.86264000  0.84191000  0.17117000  1.0
  H  H40  1  0.85900000  0.94769000  0.71420000  1.0
  H  H41  1  0.80713000  0.05095000  0.78628000  1.0
  H  H42  1  0.14103000  0.05227000  0.28581000  1.0
  H  H43  1  0.19289000  0.94903000  0.21372000  1.0
  H  H44  1  0.70032000  0.88784000  0.73155000  1.0
  H  H45  1  0.58951000  0.11184000  0.76850000  1.0
  H  H46  1  0.29968000  0.11214000  0.26845000  1.0
  H  H47  1  0.41051000  0.88816000  0.23150000  1.0
  H  H48  1  0.53959000  0.71607000  0.62504000  1.0
  H  H49  1  0.25316000  0.28482000  0.87489000  1.0
  H  H50  1  0.46041000  0.28394000  0.37496000  1.0
  H  H51  1  0.74685000  0.71518000  0.12511000  1.0
  H  H52  1  0.75733000  0.72253000  0.63013000  1.0
  H  H53  1  0.47758000  0.27815000  0.86986000  1.0
  H  H54  1  0.24269000  0.27746000  0.36987000  1.0
  H  H55  1  0.52243000  0.72184000  0.13014000  1.0
  H  H56  1  0.91223000  0.98884000  0.61164000  1.0
  H  H57  1  0.89841000  0.01242000  0.88848000  1.0
  H  H58  1  0.08778000  0.01117000  0.38836000  1.0
  H  H59  1  0.10158000  0.98758000  0.11152000  1.0
  H  H60  1  0.93109000  0.85183000  0.59933000  1.0
  H  H61  1  0.77962000  0.14939000  0.90064000  1.0
  H  H62  1  0.06895000  0.14818000  0.40067000  1.0
  H  H63  1  0.22038000  0.85060000  0.09936000  1.0
  H  H64  1  0.33976000  0.06774000  0.56581000  1.0
  H  H65  1  0.40673000  0.93183000  0.93405000  1.0
  H  H66  1  0.66025000  0.93226000  0.43419000  1.0
  H  H67  1  0.59331000  0.06814000  0.06595000  1.0
  H  H68  1  0.44352000  0.93483000  0.55130000  1.0
  H  H69  1  0.37722000  0.06454000  0.94880000  1.0
  H  H70  1  0.55650000  0.06516000  0.44869000  1.0
  H  H71  1  0.62276000  0.93544000  0.05120000  1.0
  H  H72  1  0.31330000  0.57528000  0.47320000  1.0
  H  H73  1  0.88882000  0.42467000  0.02682000  1.0
  H  H74  1  0.68665000  0.42472000  0.52680000  1.0
  H  H75  1  0.11117000  0.57535000  0.97318000  1.0
  H  H76  1  0.32599000  0.54702000  0.52643000  1.0
  H  H77  1  0.87284000  0.45374000  0.97359000  1.0
  H  H78  1  0.67396000  0.45299000  0.47357000  1.0
  H  H79  1  0.12715000  0.54629000  0.02641000  1.0
  H  H80  1  0.64248000  0.67472000  0.52247000  1.0
  H  H81  1  0.31735000  0.32522000  0.97818000  1.0
  H  H82  1  0.35752000  0.32528000  0.47752000  1.0
  H  H83  1  0.68266000  0.67477000  0.02182000  1.0
  H  H84  1  0.82493000  0.69763000  0.54491000  1.0
  H  H85  1  0.52185000  0.30248000  0.95514000  1.0
  H  H86  1  0.17508000  0.30236000  0.45509000  1.0
  H  H87  1  0.47816000  0.69752000  0.04486000  1.0
  C  C88  1  0.38669000  0.17828000  0.68983000  1.0
  C  C89  1  0.56310000  0.82234000  0.81020000  1.0
  C  C90  1  0.61334000  0.82170000  0.31018000  1.0
  C  C91  1  0.43690000  0.17765000  0.18980000  1.0
  C  C92  1  0.27489000  0.30877000  0.68966000  1.0
  C  C93  1  0.58236000  0.69177000  0.81030000  1.0
  C  C94  1  0.72511000  0.69122000  0.31034000  1.0
  C  C95  1  0.41765000  0.30822000  0.18970000  1.0
  C  C96  1  0.20631000  0.37195000  0.64846000  1.0
  C  C97  1  0.57720000  0.62835000  0.85148000  1.0
  C  C98  1  0.79370000  0.62804000  0.35154000  1.0
  C  C99  1  0.42282000  0.37163000  0.14853000  1.0
  C  C100  1  0.09511000  0.49420000  0.64842000  1.0
  C  C101  1  0.58836000  0.50611000  0.85145000  1.0
  C  C102  1  0.90491000  0.50579000  0.35158000  1.0
  C  C103  1  0.41164000  0.49389000  0.14855000  1.0
  C  C104  1  0.05732000  0.55373000  0.68975000  1.0
  C  C105  1  0.61028000  0.44679000  0.81007000  1.0
  C  C106  1  0.94267000  0.44626000  0.31025000  1.0
  C  C107  1  0.38972000  0.55320000  0.18993000  1.0
  C  C108  1  0.12547000  0.49077000  0.73157000  1.0
  C  C109  1  0.61550000  0.51000000  0.76827000  1.0
  C  C110  1  0.87451000  0.50923000  0.26843000  1.0
  C  C111  1  0.38449000  0.48999000  0.23173000  1.0
  C  C112  1  0.23256000  0.36772000  0.73098000  1.0
  C  C113  1  0.59913000  0.63308000  0.76894000  1.0
  C  C114  1  0.76743000  0.63227000  0.26902000  1.0
  C  C115  1  0.40086000  0.36692000  0.23107000  1.0
  C  C116  1  0.09331000  0.55119000  0.77575000  1.0
  C  C117  1  0.64436000  0.44983000  0.72406000  1.0
  C  C118  1  0.90666000  0.44881000  0.22425000  1.0
  C  C119  1  0.35561000  0.55018000  0.27594000  1.0
  C  C120  1  0.07520000  0.48797000  0.81651000  1.0
  C  C121  1  0.56323000  0.51312000  0.68333000  1.0
  C  C122  1  0.92479000  0.51203000  0.18349000  1.0
  C  C123  1  0.43675000  0.48690000  0.31667000  1.0
  C  C124  1  0.05572000  0.54224000  0.85880000  1.0
  C  C125  1  0.59862000  0.45895000  0.64103000  1.0
  C  C126  1  0.94428000  0.45777000  0.14121000  1.0
  C  C127  1  0.40137000  0.54107000  0.35897000  1.0
  C  C128  1  0.05422000  0.66271000  0.86088000  1.0
  C  C129  1  0.71774000  0.33854000  0.63888000  1.0
  C  C130  1  0.94578000  0.33730000  0.13912000  1.0
  C  C131  1  0.28225000  0.66148000  0.36112000  1.0
  C  C132  1  0.07036000  0.72737000  0.82053000  1.0
  C  C133  1  0.79856000  0.27391000  0.67917000  1.0
  C  C134  1  0.92962000  0.27264000  0.17946000  1.0
  C  C135  1  0.20143000  0.72610000  0.32082000  1.0
  C  C136  1  0.08853000  0.67173000  0.77836000  1.0
  C  C137  1  0.76066000  0.32946000  0.72137000  1.0
  C  C138  1  0.91144000  0.32828000  0.22163000  1.0
  C  C139  1  0.23932000  0.67055000  0.27863000  1.0
  C  C140  1  0.03175000  0.47228000  0.90167000  1.0
  C  C141  1  0.50502000  0.52899000  0.59818000  1.0
  C  C142  1  0.96827000  0.52773000  0.09833000  1.0
  C  C143  1  0.49496000  0.47103000  0.40182000  1.0
  C  C144  1  0.07247000  0.85477000  0.82046000  1.0
  C  C145  1  0.92855000  0.14655000  0.67929000  1.0
  C  C146  1  0.92752000  0.14523000  0.17953000  1.0
  C  C147  1  0.07146000  0.85347000  0.32070000  1.0
  C  C148  1  0.01578000  0.55435000  0.60319000  1.0
  C  C149  1  0.56948000  0.44577000  0.89672000  1.0
  C  C150  1  0.98422000  0.44565000  0.39681000  1.0
  C  C151  1  0.43053000  0.55422000  0.10328000  1.0
  O  O152  1  0.40559000  0.11693000  0.72834000  1.0
  O  O153  1  0.52063000  0.88378000  0.77171000  1.0
  O  O154  1  0.59445000  0.88306000  0.27167000  1.0
  O  O155  1  0.47937000  0.11621000  0.22829000  1.0
  O  O156  1  0.45520000  0.13091000  0.65249000  1.0
  O  O157  1  0.58382000  0.86967000  0.84755000  1.0
  O  O158  1  0.54480000  0.86908000  0.34752000  1.0
  O  O159  1  0.41617000  0.13033000  0.15245000  1.0
  O  O160  1  0.01743000  0.48350000  0.57116000  1.0
  O  O161  1  0.50154000  0.51649000  0.92887000  1.0
  O  O162  1  0.98254000  0.51649000  0.42884000  1.0
  O  O163  1  0.49845000  0.48350000  0.07113000  1.0
  O  O164  1  0.94700000  0.67028000  0.59902000  1.0
  O  O165  1  0.61562000  0.32985000  0.90082000  1.0
  O  O166  1  0.05302000  0.32971000  0.40099000  1.0
  O  O167  1  0.38440000  0.67014000  0.09918000  1.0
  O  O168  1  0.06332000  0.90964000  0.78092000  1.0
  O  O169  1  0.97437000  0.09215000  0.71887000  1.0
  O  O170  1  0.93666000  0.09037000  0.21907000  1.0
  O  O171  1  0.02567000  0.90788000  0.28113000  1.0
  O  O172  1  0.08521000  0.90628000  0.85762000  1.0
  O  O173  1  0.99299000  0.09476000  0.64216000  1.0
  O  O174  1  0.91477000  0.09373000  0.14237000  1.0
  O  O175  1  0.00702000  0.90526000  0.35783000  1.0
  O  O176  1  0.95693000  0.53397000  0.93597000  1.0
  O  O177  1  0.49126000  0.46737000  0.56395000  1.0
  O  O178  1  0.04307000  0.46605000  0.06403000  1.0
  O  O179  1  0.50870000  0.53265000  0.43606000  1.0
  O  O180  1  0.08302000  0.35698000  0.90203000  1.0
  O  O181  1  0.44203000  0.64434000  0.59774000  1.0
  O  O182  1  0.91704000  0.64303000  0.09798000  1.0
  O  O183  1  0.55793000  0.35569000  0.40226000  1.0
  O  O184  1  0.29163000  0.92542000  0.67697000  1.0
  O  O185  1  0.21570000  0.07537000  0.82298000  1.0
  O  O186  1  0.70839000  0.07458000  0.32303000  1.0
  O  O187  1  0.78431000  0.92463000  0.17702000  1.0
  O  O188  1  0.77930000  0.89748000  0.70451000  1.0
  O  O189  1  0.67712000  0.10212000  0.79566000  1.0
  O  O190  1  0.22071000  0.10250000  0.29550000  1.0
  O  O191  1  0.32289000  0.89788000  0.20434000  1.0
  O  O192  1  0.62139000  0.76150000  0.64179000  1.0
  O  O193  1  0.38066000  0.23918000  0.85825000  1.0
  O  O194  1  0.37862000  0.23850000  0.35821000  1.0
  O  O195  1  0.61934000  0.76082000  0.14175000  1.0
  O  O196  1  0.83978000  0.93402000  0.60147000  1.0
  O  O197  1  0.77099000  0.06703000  0.89867000  1.0
  O  O198  1  0.16024000  0.06599000  0.39853000  1.0
  O  O199  1  0.22901000  0.93296000  0.10133000  1.0
  O  O200  1  0.39295000  0.98411000  0.57744000  1.0
  O  O201  1  0.37538000  0.01567000  0.92259000  1.0
  O  O202  1  0.60708000  0.01589000  0.42256000  1.0
  O  O203  1  0.62463000  0.98431000  0.07741000  1.0
  O  O204  1  0.22924000  0.58222000  0.50061000  1.0
  O  O205  1  0.81161000  0.41813000  0.99944000  1.0
  O  O206  1  0.77072000  0.41777000  0.49939000  1.0
  O  O207  1  0.18839000  0.58188000  0.00056000  1.0
  O  O208  1  0.76215000  0.69441000  0.51463000  1.0
  O  O209  1  0.45696000  0.30554000  0.98560000  1.0
  O  O210  1  0.23786000  0.30559000  0.48536000  1.0
  O  O211  1  0.54305000  0.69447000  0.01440000  1.0
