# generated using pymatgen
data_ZnH23C23S4N9O4
_symmetry_space_group_name_H-M   'P 1'
_cell_length_a   9.15590000
_cell_length_b   10.41360000
_cell_length_c   14.86500000
_cell_angle_alpha   85.81490000
_cell_angle_beta   88.59430000
_cell_angle_gamma   88.42030000
_symmetry_Int_Tables_number   1
_chemical_formula_structural   ZnH23C23S4N9O4
_chemical_formula_sum   'Zn2 H46 C46 S8 N18 O8'
_cell_volume   1412.63946486
_cell_formula_units_Z   2
loop_
 _symmetry_equiv_pos_site_id
 _symmetry_equiv_pos_as_xyz
  1  'x, y, z'
loop_
 _atom_site_type_symbol
 _atom_site_label
 _atom_site_symmetry_multiplicity
 _atom_site_fract_x
 _atom_site_fract_y
 _atom_site_fract_z
 _atom_site_occupancy
  Zn  Zn0  1  0.48657000  0.34703000  0.22862000  1.0
  Zn  Zn1  1  0.51343000  0.65298000  0.77138000  1.0
  H  H2  1  0.31818000  0.53959000  0.18731000  1.0
  H  H3  1  0.68183000  0.46041000  0.81269000  1.0
  H  H4  1  0.27701000  0.42225000  0.11967000  1.0
  H  H5  1  0.72300000  0.57775000  0.88033000  1.0
  H  H6  1  0.00752000  0.81362000  0.40912000  1.0
  H  H7  1  0.99248000  0.18638000  0.59088000  1.0
  H  H8  1  0.91082000  0.96112000  0.39530000  1.0
  H  H9  1  0.08918000  0.03888000  0.60470000  1.0
  H  H10  1  0.01500000  0.17822000  0.99060000  1.0
  H  H11  1  0.98500000  0.82178000  0.00940000  1.0
  H  H12  1  0.86079000  0.08171000  0.97637000  1.0
  H  H13  1  0.13922000  0.91829000  0.02362000  1.0
  H  H14  1  0.94805000  0.07238000  0.08177000  1.0
  H  H15  1  0.05195000  0.92763000  0.91823000  1.0
  H  H16  1  0.65069000  0.81909000  0.42885000  1.0
  H  H17  1  0.34930000  0.18092000  0.57115000  1.0
  H  H18  1  0.46170000  0.79662000  0.45524000  1.0
  H  H19  1  0.53830000  0.20337000  0.54477000  1.0
  H  H20  1  0.52093000  0.83712000  0.34160000  1.0
  H  H21  1  0.47906000  0.16288000  0.65841000  1.0
  H  H22  1  0.64511000  0.93346000  0.12814000  1.0
  H  H23  1  0.35490000  0.06652000  0.87186000  1.0
  H  H24  1  0.04440000  0.43577000  0.45751000  1.0
  H  H25  1  0.95561000  0.56423000  0.54250000  1.0
  H  H26  1  0.75733000  0.01276000  0.26202000  1.0
  H  H27  1  0.24267000  0.98723000  0.73798000  1.0
  H  H28  1  0.23410000  0.52479000  0.34962000  1.0
  H  H29  1  0.76591000  0.47521000  0.65038000  1.0
  H  H30  1  0.99268000  0.64838000  0.30644000  1.0
  H  H31  1  0.00731000  0.35161000  0.69358000  1.0
  H  H32  1  0.09338000  0.27558000  0.15114000  1.0
  H  H33  1  0.90661000  0.72443000  0.84885000  1.0
  H  H34  1  0.88014000  0.56992000  0.17291000  1.0
  H  H35  1  0.11987000  0.43007000  0.82710000  1.0
  H  H36  1  0.90072000  0.18951000  0.25810000  1.0
  H  H37  1  0.09928000  0.81051000  0.74190000  1.0
  H  H38  1  0.44268000  0.12868000  0.12094000  1.0
  H  H39  1  0.55733000  0.87132000  0.87907000  1.0
  H  H40  1  0.32542000  0.91410000  0.13997000  1.0
  H  H41  1  0.67459000  0.08590000  0.86004000  1.0
  H  H42  1  0.21264000  0.84352000  0.29162000  1.0
  H  H43  1  0.78735000  0.15649000  0.70838000  1.0
  H  H44  1  0.23313000  0.98671000  0.41909000  1.0
  H  H45  1  0.76685000  0.01331000  0.58091000  1.0
  H  H46  1  0.36463000  0.19404000  0.39042000  1.0
  H  H47  1  0.63536000  0.80597000  0.60958000  1.0
  C  C48  1  0.91651000  0.13840000  0.02419000  1.0
  C  C49  1  0.08349000  0.86159000  0.97580000  1.0
  C  C50  1  0.54892000  0.78199000  0.40452000  1.0
  C  C51  1  0.45107000  0.21802000  0.59548000  1.0
  C  C52  1  0.81682000  0.24204000  0.05588000  1.0
  C  C53  1  0.18317000  0.75795000  0.94412000  1.0
  C  C54  1  0.56657000  0.64341000  0.38763000  1.0
  C  C55  1  0.43343000  0.35660000  0.61237000  1.0
  C  C56  1  0.67664000  0.43965000  0.08286000  1.0
  C  C57  1  0.32335000  0.56034000  0.91714000  1.0
  C  C58  1  0.63278000  0.41506000  0.38824000  1.0
  C  C59  1  0.36722000  0.58494000  0.61175000  1.0
  C  C60  1  0.75303000  0.74649000  0.14244000  1.0
  C  C61  1  0.24699000  0.25350000  0.85757000  1.0
  C  C62  1  0.96347000  0.30613000  0.36519000  1.0
  C  C63  1  0.03653000  0.69387000  0.63480000  1.0
  C  C64  1  0.72143000  0.87152000  0.16735000  1.0
  C  C65  1  0.27858000  0.12847000  0.83264000  1.0
  C  C66  1  0.05520000  0.40148000  0.39033000  1.0
  C  C67  1  0.94481000  0.59852000  0.60967000  1.0
  C  C68  1  0.78549000  0.91609000  0.24240000  1.0
  C  C69  1  0.21451000  0.08390000  0.75760000  1.0
  C  C70  1  0.16146000  0.45107000  0.32985000  1.0
  C  C71  1  0.83854000  0.54893000  0.67015000  1.0
  C  C72  1  0.88167000  0.83526000  0.29556000  1.0
  C  C73  1  0.11833000  0.16473000  0.70445000  1.0
  C  C74  1  0.17570000  0.40468000  0.24398000  1.0
  C  C75  1  0.82430000  0.59532000  0.75601000  1.0
  C  C76  1  0.91768000  0.71122000  0.26672000  1.0
  C  C77  1  0.08231000  0.28877000  0.73328000  1.0
  C  C78  1  0.08139000  0.31026000  0.21834000  1.0
  C  C79  1  0.91860000  0.68975000  0.78165000  1.0
  C  C80  1  0.85373000  0.66728000  0.19178000  1.0
  C  C81  1  0.14628000  0.33271000  0.80822000  1.0
  C  C82  1  0.97506000  0.26129000  0.27867000  1.0
  C  C83  1  0.02493000  0.73872000  0.72132000  1.0
  C  C84  1  0.39581000  0.09273000  0.18587000  1.0
  C  C85  1  0.60419000  0.90727000  0.81413000  1.0
  C  C86  1  0.32760000  0.97453000  0.19674000  1.0
  C  C87  1  0.67240000  0.02548000  0.80326000  1.0
  C  C88  1  0.26668000  0.93542000  0.28083000  1.0
  C  C89  1  0.73330000  0.06458000  0.71917000  1.0
  C  C90  1  0.27773000  0.01469000  0.35211000  1.0
  C  C91  1  0.72225000  0.98532000  0.64789000  1.0
  C  C92  1  0.35031000  0.12976000  0.33682000  1.0
  C  C93  1  0.64968000  0.87025000  0.66319000  1.0
  S  S94  1  0.82410000  0.40119000  0.01014000  1.0
  S  S95  1  0.17590000  0.59881000  0.98985000  1.0
  S  S96  1  0.68480000  0.54097000  0.45141000  1.0
  S  S97  1  0.31520000  0.45904000  0.54859000  1.0
  S  S98  1  0.66099000  0.68637000  0.05252000  1.0
  S  S99  1  0.33903000  0.31362000  0.94748000  1.0
  S  S100  1  0.82454000  0.24734000  0.44118000  1.0
  S  S101  1  0.17545000  0.75267000  0.55882000  1.0
  N  N102  1  0.63984000  0.33356000  0.13474000  1.0
  N  N103  1  0.36015000  0.66643000  0.86525000  1.0
  N  N104  1  0.53500000  0.45832000  0.32674000  1.0
  N  N105  1  0.46501000  0.54169000  0.67326000  1.0
  N  N106  1  0.49714000  0.58621000  0.32681000  1.0
  N  N107  1  0.50287000  0.41379000  0.67319000  1.0
  N  N108  1  0.71741000  0.22334000  0.11928000  1.0
  N  N109  1  0.28259000  0.77666000  0.88071000  1.0
  N  N110  1  0.67468000  0.29070000  0.39442000  1.0
  N  N111  1  0.32532000  0.70930000  0.60557000  1.0
  N  N112  1  0.60197000  0.54961000  0.09149000  1.0
  N  N113  1  0.39803000  0.45038000  0.90851000  1.0
  N  N114  1  0.93616000  0.87266000  0.37342000  1.0
  N  N115  1  0.06382000  0.12733000  0.62658000  1.0
  N  N116  1  0.29350000  0.44471000  0.18517000  1.0
  N  N117  1  0.70650000  0.55529000  0.81483000  1.0
  N  N118  1  0.40736000  0.16861000  0.25507000  1.0
  N  N119  1  0.59264000  0.83139000  0.74493000  1.0
  O  O120  1  0.84524000  0.30586000  0.52676000  1.0
  O  O121  1  0.15476000  0.69415000  0.47324000  1.0
  O  O122  1  0.83121000  0.10717000  0.44600000  1.0
  O  O123  1  0.16880000  0.89284000  0.55400000  1.0
  O  O124  1  0.53714000  0.77227000  0.03132000  1.0
  O  O125  1  0.46288000  0.22773000  0.96867000  1.0
  O  O126  1  0.76905000  0.66962000  0.97821000  1.0
  O  O127  1  0.23097000  0.33037000  0.02179000  1.0
