# generated using pymatgen
data_TbH27C28(SO4)2
_symmetry_space_group_name_H-M   'P 1'
_cell_length_a   16.60410000
_cell_length_b   16.60370000
_cell_length_c   27.81340000
_cell_angle_alpha   80.51350000
_cell_angle_beta   80.51350000
_cell_angle_gamma   62.33310000
_symmetry_Int_Tables_number   1
_chemical_formula_structural   TbH27C28(SO4)2
_chemical_formula_sum   'Tb4 H108 C112 S8 O32'
_cell_volume   6663.96474461
_cell_formula_units_Z   4
loop_
 _symmetry_equiv_pos_site_id
 _symmetry_equiv_pos_as_xyz
  1  'x, y, z'
loop_
 _atom_site_type_symbol
 _atom_site_label
 _atom_site_symmetry_multiplicity
 _atom_site_fract_x
 _atom_site_fract_y
 _atom_site_fract_z
 _atom_site_occupancy
  Tb  Tb0  1  0.02891000  0.56271000  0.04567000  1.0
  Tb  Tb1  1  0.43730000  0.97109000  0.45433000  1.0
  Tb  Tb2  1  0.97110000  0.43729000  0.95433000  1.0
  Tb  Tb3  1  0.56271000  0.02891000  0.54567000  1.0
  H  H4  1  0.11946000  0.53902000  0.20794000  1.0
  H  H5  1  0.19371000  0.56863000  0.26977000  1.0
  H  H6  1  0.33613000  0.67286000  0.15253000  1.0
  H  H7  1  0.26126000  0.64255000  0.09198000  1.0
  H  H8  1  0.28161000  0.62906000  0.29125000  1.0
  H  H9  1  0.16003000  0.24049000  0.97918000  1.0
  H  H10  1  0.28814000  0.08438000  0.97008000  1.0
  H  H11  1  0.45836000  0.15368000  0.03961000  1.0
  H  H12  1  0.32891000  0.30782000  0.04967000  1.0
  H  H13  1  0.43595000  0.97379000  0.97929000  1.0
  H  H14  1  0.81359000  0.34766000  0.07927000  1.0
  H  H15  1  0.74282000  0.28592000  0.15211000  1.0
  H  H16  1  0.87632000  0.35867000  0.24600000  1.0
  H  H17  1  0.94638000  0.42048000  0.17175000  1.0
  H  H18  1  0.78226000  0.29275000  0.28317000  1.0
  H  H19  1  0.09494000  0.79038000  0.06835000  1.0
  H  H20  1  0.98848000  0.88438000  0.05103000  1.0
  H  H21  1  0.09587000  0.87080000  0.01654000  1.0
  H  H22  1  0.92332000  0.90306000  0.97252000  1.0
  H  H23  1  0.96332000  0.81566000  0.93157000  1.0
  H  H24  1  0.02733000  0.87790000  0.93153000  1.0
  H  H25  1  0.94955000  0.57454000  0.19556000  1.0
  H  H26  1  0.82643000  0.62790000  0.19669000  1.0
  H  H27  1  0.88117000  0.67662000  0.22614000  1.0
  H  H28  1  0.78319000  0.84642000  0.10977000  1.0
  H  H29  1  0.78210000  0.83595000  0.17526000  1.0
  H  H30  1  0.73436000  0.77817000  0.14752000  1.0
  H  H31  1  0.46099000  0.88055000  0.29206000  1.0
  H  H32  1  0.43139000  0.80630000  0.23022000  1.0
  H  H33  1  0.32714000  0.66389000  0.34745000  1.0
  H  H34  1  0.35744000  0.73876000  0.40801000  1.0
  H  H35  1  0.37096000  0.71839000  0.20874000  1.0
  H  H36  1  0.75951000  0.83997000  0.52081000  1.0
  H  H37  1  0.91563000  0.71186000  0.52990000  1.0
  H  H38  1  0.84632000  0.54162000  0.46040000  1.0
  H  H39  1  0.69219000  0.67108000  0.45033000  1.0
  H  H40  1  0.02620000  0.56405000  0.52072000  1.0
  H  H41  1  0.65234000  0.18642000  0.42074000  1.0
  H  H42  1  0.71408000  0.25718000  0.34790000  1.0
  H  H43  1  0.64133000  0.12368000  0.25400000  1.0
  H  H44  1  0.57952000  0.05362000  0.32826000  1.0
  H  H45  1  0.70725000  0.21774000  0.21684000  1.0
  H  H46  1  0.20965000  0.90505000  0.43166000  1.0
  H  H47  1  0.11563000  0.01151000  0.44897000  1.0
  H  H48  1  0.12923000  0.90412000  0.48346000  1.0
  H  H49  1  0.09693000  0.07668000  0.52748000  1.0
  H  H50  1  0.18431000  0.03670000  0.56844000  1.0
  H  H51  1  0.12209000  0.97268000  0.56847000  1.0
  H  H52  1  0.42545000  0.05046000  0.30445000  1.0
  H  H53  1  0.37209000  0.17358000  0.30331000  1.0
  H  H54  1  0.32337000  0.11882000  0.27387000  1.0
  H  H55  1  0.15358000  0.21679000  0.39024000  1.0
  H  H56  1  0.16404000  0.21787000  0.32475000  1.0
  H  H57  1  0.22180000  0.26564000  0.35249000  1.0
  H  H58  1  0.88055000  0.46097000  0.79206000  1.0
  H  H59  1  0.80629000  0.43138000  0.73022000  1.0
  H  H60  1  0.66388000  0.32712000  0.84745000  1.0
  H  H61  1  0.73876000  0.35742000  0.90801000  1.0
  H  H62  1  0.71839000  0.37096000  0.70874000  1.0
  H  H63  1  0.83997000  0.75950000  0.02083000  1.0
  H  H64  1  0.71185000  0.91561000  0.02994000  1.0
  H  H65  1  0.54164000  0.84632000  0.96039000  1.0
  H  H66  1  0.67109000  0.69219000  0.95032000  1.0
  H  H67  1  0.56404000  0.02620000  0.02072000  1.0
  H  H68  1  0.18639000  0.65235000  0.92074000  1.0
  H  H69  1  0.25715000  0.71410000  0.84790000  1.0
  H  H70  1  0.12366000  0.64134000  0.75400000  1.0
  H  H71  1  0.05361000  0.57953000  0.82826000  1.0
  H  H72  1  0.21773000  0.70726000  0.71684000  1.0
  H  H73  1  0.90508000  0.20960000  0.93165000  1.0
  H  H74  1  0.01154000  0.11561000  0.94897000  1.0
  H  H75  1  0.90415000  0.12917000  0.98345000  1.0
  H  H76  1  0.07668000  0.09693000  0.02748000  1.0
  H  H77  1  0.03667000  0.18433000  0.06844000  1.0
  H  H78  1  0.97267000  0.12209000  0.06847000  1.0
  H  H79  1  0.05046000  0.42545000  0.80444000  1.0
  H  H80  1  0.17358000  0.37209000  0.80331000  1.0
  H  H81  1  0.11883000  0.32337000  0.77386000  1.0
  H  H82  1  0.21680000  0.15357000  0.89024000  1.0
  H  H83  1  0.21788000  0.16404000  0.82474000  1.0
  H  H84  1  0.26563000  0.22182000  0.85248000  1.0
  H  H85  1  0.53901000  0.11948000  0.70793000  1.0
  H  H86  1  0.56860000  0.19373000  0.76977000  1.0
  H  H87  1  0.67286000  0.33613000  0.65253000  1.0
  H  H88  1  0.64254000  0.26127000  0.59198000  1.0
  H  H89  1  0.62905000  0.28160000  0.79124000  1.0
  H  H90  1  0.24051000  0.16003000  0.47917000  1.0
  H  H91  1  0.08439000  0.28813000  0.47008000  1.0
  H  H92  1  0.15367000  0.45835000  0.53962000  1.0
  H  H93  1  0.30782000  0.32891000  0.54968000  1.0
  H  H94  1  0.97381000  0.43593000  0.47929000  1.0
  H  H95  1  0.34765000  0.81361000  0.57927000  1.0
  H  H96  1  0.28590000  0.74285000  0.65210000  1.0
  H  H97  1  0.35864000  0.87634000  0.74601000  1.0
  H  H98  1  0.42047000  0.94639000  0.67176000  1.0
  H  H99  1  0.29272000  0.78228000  0.78317000  1.0
  H  H100  1  0.79040000  0.09493000  0.56834000  1.0
  H  H101  1  0.88439000  0.98847000  0.55103000  1.0
  H  H102  1  0.87082000  0.09587000  0.51654000  1.0
  H  H103  1  0.90308000  0.92331000  0.47252000  1.0
  H  H104  1  0.81568000  0.96331000  0.43156000  1.0
  H  H105  1  0.87791000  0.02732000  0.43152000  1.0
  H  H106  1  0.57456000  0.94954000  0.69555000  1.0
  H  H107  1  0.62790000  0.82642000  0.69669000  1.0
  H  H108  1  0.67663000  0.88117000  0.72614000  1.0
  H  H109  1  0.84643000  0.78318000  0.60976000  1.0
  H  H110  1  0.83596000  0.78210000  0.67525000  1.0
  H  H111  1  0.77818000  0.73436000  0.64751000  1.0
  C  C112  1  0.13403000  0.58018000  0.11015000  1.0
  C  C113  1  0.18425000  0.59116000  0.14647000  1.0
  C  C114  1  0.16684000  0.56869000  0.19657000  1.0
  C  C115  1  0.20853000  0.58508000  0.23070000  1.0
  C  C116  1  0.26851000  0.62504000  0.21599000  1.0
  C  C117  1  0.28826000  0.64408000  0.16526000  1.0
  C  C118  1  0.24674000  0.62750000  0.13119000  1.0
  C  C119  1  0.30269000  0.64885000  0.25364000  1.0
  C  C120  1  0.16175000  0.37736000  0.02032000  1.0
  C  C121  1  0.23723000  0.28363000  0.01467000  1.0
  C  C122  1  0.22551000  0.22061000  0.99238000  1.0
  C  C123  1  0.29726000  0.13386000  0.98732000  1.0
  C  C124  1  0.38309000  0.10766000  0.00331000  1.0
  C  C125  1  0.39337000  0.17181000  0.02616000  1.0
  C  C126  1  0.32157000  0.25800000  0.03196000  1.0
  C  C127  1  0.45611000  0.01702000  0.99516000  1.0
  C  C128  1  0.92736000  0.42398000  0.07749000  1.0
  C  C129  1  0.88514000  0.38627000  0.12139000  1.0
  C  C130  1  0.82755000  0.34825000  0.11614000  1.0
  C  C131  1  0.78847000  0.31386000  0.15703000  1.0
  C  C132  1  0.80572000  0.31622000  0.20471000  1.0
  C  C133  1  0.86288000  0.35563000  0.20936000  1.0
  C  C134  1  0.90203000  0.39005000  0.16847000  1.0
  C  C135  1  0.76793000  0.28008000  0.24888000  1.0
  C  C136  1  0.05755000  0.83543000  0.03774000  1.0
  C  C137  1  0.98382000  0.84975000  0.95427000  1.0
  C  C138  1  0.88677000  0.63926000  0.19565000  1.0
  C  C139  1  0.78759000  0.80106000  0.14372000  1.0
  C  C140  1  0.41982000  0.86599000  0.38985000  1.0
  C  C141  1  0.40884000  0.81576000  0.35353000  1.0
  C  C142  1  0.43131000  0.83318000  0.30342000  1.0
  C  C143  1  0.41493000  0.79149000  0.26930000  1.0
  C  C144  1  0.37496000  0.73151000  0.28400000  1.0
  C  C145  1  0.35590000  0.71176000  0.33473000  1.0
  C  C146  1  0.37250000  0.75327000  0.36880000  1.0
  C  C147  1  0.35116000  0.69733000  0.24635000  1.0
  C  C148  1  0.62265000  0.83826000  0.47968000  1.0
  C  C149  1  0.71637000  0.76276000  0.48532000  1.0
  C  C150  1  0.77939000  0.77449000  0.50761000  1.0
  C  C151  1  0.86615000  0.70274000  0.51267000  1.0
  C  C152  1  0.89234000  0.61690000  0.49669000  1.0
  C  C153  1  0.82819000  0.60662000  0.47384000  1.0
  C  C154  1  0.74199000  0.67842000  0.46804000  1.0
  C  C155  1  0.98297000  0.54389000  0.50485000  1.0
  C  C156  1  0.57602000  0.07264000  0.42250000  1.0
  C  C157  1  0.61373000  0.11486000  0.37861000  1.0
  C  C158  1  0.65175000  0.17245000  0.38387000  1.0
  C  C159  1  0.68614000  0.21153000  0.34298000  1.0
  C  C160  1  0.68379000  0.19428000  0.29529000  1.0
  C  C161  1  0.64438000  0.13712000  0.29064000  1.0
  C  C162  1  0.60995000  0.09797000  0.33154000  1.0
  C  C163  1  0.71993000  0.23207000  0.25112000  1.0
  C  C164  1  0.16459000  0.94245000  0.46226000  1.0
  C  C165  1  0.15024000  0.01619000  0.54573000  1.0
  C  C166  1  0.36072000  0.11323000  0.30435000  1.0
  C  C167  1  0.19893000  0.21240000  0.35629000  1.0
  C  C168  1  0.86598000  0.41980000  0.88986000  1.0
  C  C169  1  0.81575000  0.40883000  0.85353000  1.0
  C  C170  1  0.83317000  0.43131000  0.80343000  1.0
  C  C171  1  0.79148000  0.41492000  0.76930000  1.0
  C  C172  1  0.73149000  0.37497000  0.78400000  1.0
  C  C173  1  0.71174000  0.35591000  0.83474000  1.0
  C  C174  1  0.75326000  0.37249000  0.86880000  1.0
  C  C175  1  0.69731000  0.35117000  0.74635000  1.0
  C  C176  1  0.83826000  0.62264000  0.97968000  1.0
  C  C177  1  0.76277000  0.71636000  0.98533000  1.0
  C  C178  1  0.77448000  0.77937000  0.00763000  1.0
  C  C179  1  0.70273000  0.86613000  0.01270000  1.0
  C  C180  1  0.61690000  0.89233000  0.99670000  1.0
  C  C181  1  0.60663000  0.82819000  0.97384000  1.0
  C  C182  1  0.67844000  0.74199000  0.96804000  1.0
  C  C183  1  0.54388000  0.98296000  0.00486000  1.0
  C  C184  1  0.07264000  0.57602000  0.92251000  1.0
  C  C185  1  0.11484000  0.61374000  0.87862000  1.0
  C  C186  1  0.17243000  0.65176000  0.88387000  1.0
  C  C187  1  0.21151000  0.68616000  0.84298000  1.0
  C  C188  1  0.19425000  0.68381000  0.79529000  1.0
  C  C189  1  0.13710000  0.64439000  0.79064000  1.0
  C  C190  1  0.09796000  0.60996000  0.83154000  1.0
  C  C191  1  0.23205000  0.71994000  0.75112000  1.0
  C  C192  1  0.94247000  0.16455000  0.96226000  1.0
  C  C193  1  0.01618000  0.15023000  0.04573000  1.0
  C  C194  1  0.11324000  0.36073000  0.80435000  1.0
  C  C195  1  0.21241000  0.19893000  0.85629000  1.0
  C  C196  1  0.58019000  0.13403000  0.61014000  1.0
  C  C197  1  0.59115000  0.18427000  0.64646000  1.0
  C  C198  1  0.56867000  0.16685000  0.69657000  1.0
  C  C199  1  0.58507000  0.20853000  0.73069000  1.0
  C  C200  1  0.62503000  0.26851000  0.71599000  1.0
  C  C201  1  0.64408000  0.28827000  0.66526000  1.0
  C  C202  1  0.62749000  0.24675000  0.63119000  1.0
  C  C203  1  0.64884000  0.30269000  0.75364000  1.0
  C  C204  1  0.37736000  0.16175000  0.52032000  1.0
  C  C205  1  0.28363000  0.23723000  0.51467000  1.0
  C  C206  1  0.22062000  0.22550000  0.49238000  1.0
  C  C207  1  0.13387000  0.29725000  0.48732000  1.0
  C  C208  1  0.10767000  0.38309000  0.50331000  1.0
  C  C209  1  0.17181000  0.39337000  0.52616000  1.0
  C  C210  1  0.25800000  0.32157000  0.53196000  1.0
  C  C211  1  0.01704000  0.45611000  0.49515000  1.0
  C  C212  1  0.42398000  0.92736000  0.57750000  1.0
  C  C213  1  0.38626000  0.88515000  0.62139000  1.0
  C  C214  1  0.34824000  0.82756000  0.61614000  1.0
  C  C215  1  0.31384000  0.78849000  0.65703000  1.0
  C  C216  1  0.31620000  0.80575000  0.70471000  1.0
  C  C217  1  0.35562000  0.86290000  0.70937000  1.0
  C  C218  1  0.39003000  0.90205000  0.66847000  1.0
  C  C219  1  0.28005000  0.76794000  0.74888000  1.0
  C  C220  1  0.83545000  0.05754000  0.53773000  1.0
  C  C221  1  0.84977000  0.98381000  0.45426000  1.0
  C  C222  1  0.63928000  0.88676000  0.69565000  1.0
  C  C223  1  0.80107000  0.78758000  0.64371000  1.0
  S  S224  1  0.04977000  0.76192000  0.99938000  1.0
  S  S225  1  0.89889000  0.70365000  0.13831000  1.0
  S  S226  1  0.23808000  0.95024000  0.50063000  1.0
  S  S227  1  0.29635000  0.10110000  0.36170000  1.0
  S  S228  1  0.95024000  0.23807000  0.00062000  1.0
  S  S229  1  0.10111000  0.29635000  0.86170000  1.0
  S  S230  1  0.76194000  0.04976000  0.49938000  1.0
  S  S231  1  0.70366000  0.89888000  0.63830000  1.0
  O  O232  1  0.07505000  0.54985000  0.12594000  1.0
  O  O233  1  0.14799000  0.60377000  0.06480000  1.0
  O  O234  1  0.17024000  0.42765000  0.04684000  1.0
  O  O235  1  0.08983000  0.40526000  0.99848000  1.0
  O  O236  1  0.97372000  0.46217000  0.08592000  1.0
  O  O237  1  0.91381000  0.41437000  0.03541000  1.0
  O  O238  1  0.98191000  0.73049000  0.02874000  1.0
  O  O239  1  0.89280000  0.65399000  0.09905000  1.0
  O  O240  1  0.45016000  0.92495000  0.37406000  1.0
  O  O241  1  0.39621000  0.85203000  0.43520000  1.0
  O  O242  1  0.57236000  0.82976000  0.45316000  1.0
  O  O243  1  0.59476000  0.91018000  0.50150000  1.0
  O  O244  1  0.53783000  0.02629000  0.41407000  1.0
  O  O245  1  0.58564000  0.08618000  0.46459000  1.0
  O  O246  1  0.26951000  0.01810000  0.47127000  1.0
  O  O247  1  0.34600000  0.10719000  0.40095000  1.0
  O  O248  1  0.92496000  0.45013000  0.87407000  1.0
  O  O249  1  0.85201000  0.39621000  0.93520000  1.0
  O  O250  1  0.82977000  0.57235000  0.95316000  1.0
  O  O251  1  0.91017000  0.59475000  0.00151000  1.0
  O  O252  1  0.02628000  0.53783000  0.91408000  1.0
  O  O253  1  0.08618000  0.58564000  0.96460000  1.0
  O  O254  1  0.01810000  0.26949000  0.97126000  1.0
  O  O255  1  0.10721000  0.34600000  0.90095000  1.0
  O  O256  1  0.54987000  0.07504000  0.62593000  1.0
  O  O257  1  0.60378000  0.14799000  0.56480000  1.0
  O  O258  1  0.42764000  0.17025000  0.54684000  1.0
  O  O259  1  0.40526000  0.08983000  0.49849000  1.0
  O  O260  1  0.46218000  0.97370000  0.58593000  1.0
  O  O261  1  0.41437000  0.91382000  0.53541000  1.0
  O  O262  1  0.73051000  0.98190000  0.52874000  1.0
  O  O263  1  0.65401000  0.89278000  0.59904000  1.0
