# generated using pymatgen
data_Na4H18C12O17
_symmetry_space_group_name_H-M   'P 1'
_cell_length_a   8.71703000
_cell_length_b   10.62230000
_cell_length_c   10.99610000
_cell_angle_alpha   68.40740000
_cell_angle_beta   79.67210000
_cell_angle_gamma   81.77460000
_symmetry_Int_Tables_number   1
_chemical_formula_structural   Na4H18C12O17
_chemical_formula_sum   'Na8 H36 C24 O34'
_cell_volume   928.07841482
_cell_formula_units_Z   2
loop_
 _symmetry_equiv_pos_site_id
 _symmetry_equiv_pos_as_xyz
  1  'x, y, z'
loop_
 _atom_site_type_symbol
 _atom_site_label
 _atom_site_symmetry_multiplicity
 _atom_site_fract_x
 _atom_site_fract_y
 _atom_site_fract_z
 _atom_site_occupancy
  Na  Na0  1  0.08242000  0.07987000  0.68560000  1.0
  Na  Na1  1  0.91758000  0.92013000  0.31440000  1.0
  Na  Na2  1  0.33827000  0.86343000  0.85914000  1.0
  Na  Na3  1  0.66173000  0.13658000  0.14086000  1.0
  Na  Na4  1  0.63021000  0.67857000  0.08938000  1.0
  Na  Na5  1  0.36979000  0.32143000  0.91062000  1.0
  Na  Na6  1  0.73154000  0.20047000  0.79725000  1.0
  Na  Na7  1  0.26846000  0.79952000  0.20275000  1.0
  H  H8  1  0.33902000  0.06083000  0.93189000  1.0
  H  H9  1  0.66098000  0.93917000  0.06811000  1.0
  H  H10  1  0.16121000  0.05024000  0.97153000  1.0
  H  H11  1  0.83879000  0.94976000  0.02847000  1.0
  H  H12  1  0.69181000  0.89138000  0.82370000  1.0
  H  H13  1  0.30820000  0.10862000  0.17630000  1.0
  H  H14  1  0.61783000  0.77363000  0.80419000  1.0
  H  H15  1  0.38217000  0.22637000  0.19581000  1.0
  H  H16  1  0.05763000  0.79809000  0.76927000  1.0
  H  H17  1  0.94237000  0.20191000  0.23073000  1.0
  H  H18  1  0.01166000  0.80186000  0.91102000  1.0
  H  H19  1  0.98834000  0.19813000  0.08898000  1.0
  H  H20  1  0.56443000  0.38926000  0.61499000  1.0
  H  H21  1  0.43557000  0.61074000  0.38501000  1.0
  H  H22  1  0.57559000  0.08586000  0.46351000  1.0
  H  H23  1  0.42441000  0.91414000  0.53649000  1.0
  H  H24  1  0.71173000  0.20812000  0.40545000  1.0
  H  H25  1  0.28827000  0.79187000  0.59455000  1.0
  H  H26  1  0.34161000  0.39005000  0.50974000  1.0
  H  H27  1  0.65839000  0.60995000  0.49026000  1.0
  H  H28  1  0.33459000  0.24566000  0.46550000  1.0
  H  H29  1  0.66541000  0.75434000  0.53450000  1.0
  H  H30  1  0.90632000  0.87196000  0.58369000  1.0
  H  H31  1  0.09369000  0.12804000  0.41631000  1.0
  H  H32  1  0.91577000  0.38612000  0.61448000  1.0
  H  H33  1  0.08423000  0.61388000  0.38552000  1.0
  H  H34  1  0.91891000  0.53959000  0.90704000  1.0
  H  H35  1  0.08109000  0.46041000  0.09297000  1.0
  H  H36  1  0.78594000  0.60103000  0.79171000  1.0
  H  H37  1  0.21406000  0.39897000  0.20829000  1.0
  H  H38  1  0.14958000  0.48067000  0.61029000  1.0
  H  H39  1  0.85042000  0.51933000  0.38971000  1.0
  H  H40  1  0.15760000  0.53857000  0.74201000  1.0
  H  H41  1  0.84240000  0.46143000  0.25798000  1.0
  H  H42  1  0.58854000  0.41019000  0.12988000  1.0
  H  H43  1  0.41146000  0.58981000  0.87012000  1.0
  C  C44  1  0.76176000  0.04443000  0.57584000  1.0
  C  C45  1  0.23824000  0.95557000  0.42416000  1.0
  C  C46  1  0.64385000  0.14389000  0.49591000  1.0
  C  C47  1  0.35615000  0.85611000  0.50410000  1.0
  C  C48  1  0.53624000  0.23670000  0.55966000  1.0
  C  C49  1  0.46376000  0.76330000  0.44034000  1.0
  C  C50  1  0.41140000  0.31766000  0.46763000  1.0
  C  C51  1  0.58860000  0.68234000  0.53237000  1.0
  C  C52  1  0.48452000  0.39503000  0.32907000  1.0
  C  C53  1  0.51548000  0.60497000  0.67093000  1.0
  C  C54  1  0.44330000  0.14976000  0.69265000  1.0
  C  C55  1  0.55670000  0.85024000  0.30735000  1.0
  C  C56  1  0.72184000  0.42689000  0.95241000  1.0
  C  C57  1  0.27816000  0.57312000  0.04759000  1.0
  C  C58  1  0.84667000  0.50773000  0.85333000  1.0
  C  C59  1  0.15333000  0.49227000  0.14667000  1.0
  C  C60  1  0.94808000  0.43845000  0.76293000  1.0
  C  C61  1  0.05192000  0.56155000  0.23707000  1.0
  C  C62  1  0.08103000  0.52954000  0.67718000  1.0
  C  C63  1  0.91898000  0.47046000  0.32282000  1.0
  C  C64  1  0.01622000  0.66967000  0.59590000  1.0
  C  C65  1  0.98378000  0.33033000  0.40410000  1.0
  C  C66  1  0.02532000  0.29969000  0.85096000  1.0
  C  C67  1  0.97468000  0.70031000  0.14904000  1.0
  O  O68  1  0.26124000  0.99912000  0.99534000  1.0
  O  O69  1  0.73876000  0.00088000  0.00466000  1.0
  O  O70  1  0.61728000  0.82157000  0.86565000  1.0
  O  O71  1  0.38272000  0.17843000  0.13435000  1.0
  O  O72  1  0.08571000  0.83926000  0.82922000  1.0
  O  O73  1  0.91429000  0.16074000  0.17078000  1.0
  O  O74  1  0.83019000  0.95620000  0.52111000  1.0
  O  O75  1  0.16981000  0.04380000  0.47889000  1.0
  O  O76  1  0.79283000  0.04370000  0.68263000  1.0
  O  O77  1  0.20717000  0.95630000  0.31737000  1.0
  O  O78  1  0.35917000  0.06539000  0.68622000  1.0
  O  O79  1  0.64083000  0.93461000  0.31378000  1.0
  O  O80  1  0.45750000  0.16904000  0.79795000  1.0
  O  O81  1  0.54251000  0.83096000  0.20205000  1.0
  O  O82  1  0.53027000  0.51079000  0.30030000  1.0
  O  O83  1  0.46973000  0.48921000  0.69970000  1.0
  O  O84  1  0.50148000  0.33423000  0.24308000  1.0
  O  O85  1  0.49852000  0.66577000  0.75692000  1.0
  O  O86  1  0.63151000  0.32364000  0.57774000  1.0
  O  O87  1  0.36849000  0.67636000  0.42226000  1.0
  O  O88  1  0.66947000  0.47411000  0.04846000  1.0
  O  O89  1  0.33053000  0.52589000  0.95154000  1.0
  O  O90  1  0.67080000  0.32582000  0.94632000  1.0
  O  O91  1  0.32920000  0.67418000  0.05368000  1.0
  O  O92  1  0.09894000  0.30416000  0.93910000  1.0
  O  O93  1  0.90106000  0.69584000  0.06090000  1.0
  O  O94  1  0.00677000  0.19180000  0.83319000  1.0
  O  O95  1  0.99324000  0.80820000  0.16681000  1.0
  O  O96  1  0.98557000  0.69612000  0.48126000  1.0
  O  O97  1  0.01443000  0.30388000  0.51874000  1.0
  O  O98  1  0.98907000  0.76027000  0.65269000  1.0
  O  O99  1  0.01093000  0.23973000  0.34731000  1.0
  O  O100  1  0.84988000  0.42055000  0.68216000  1.0
  O  O101  1  0.15012000  0.57945000  0.31784000  1.0
