# generated using pymatgen
data_CuH20(C7N5)2
_symmetry_space_group_name_H-M   'P 1'
_cell_length_a   9.46256000
_cell_length_b   9.68945000
_cell_length_c   10.27020331
_cell_angle_alpha   88.58669014
_cell_angle_beta   62.61536020
_cell_angle_gamma   86.95410000
_symmetry_Int_Tables_number   1
_chemical_formula_structural   CuH20(C7N5)2
_chemical_formula_sum   'Cu2 H40 C28 N20'
_cell_volume   834.94108161
_cell_formula_units_Z   2
loop_
 _symmetry_equiv_pos_site_id
 _symmetry_equiv_pos_as_xyz
  1  'x, y, z'
loop_
 _atom_site_type_symbol
 _atom_site_label
 _atom_site_symmetry_multiplicity
 _atom_site_fract_x
 _atom_site_fract_y
 _atom_site_fract_z
 _atom_site_occupancy
  Cu  Cu0  1  0.95553000  0.75012000  0.08962000  1.0
  Cu  Cu1  1  0.04446000  0.24988000  0.91039000  1.0
  H  H2  1  0.85393000  0.73908000  0.85816000  1.0
  H  H3  1  0.71148000  0.23860000  0.14168000  1.0
  H  H4  1  0.14608000  0.26092000  0.14184000  1.0
  H  H5  1  0.28852000  0.76140000  0.85833000  1.0
  H  H6  1  0.97741000  0.73884000  0.58812000  1.0
  H  H7  1  0.56515000  0.23908000  0.41178000  1.0
  H  H8  1  0.02258000  0.26116000  0.41189000  1.0
  H  H9  1  0.43485000  0.76092000  0.58822000  1.0
  H  H10  1  0.13190000  0.65394000  0.35599000  1.0
  H  H11  1  0.48778000  0.15404000  0.64375000  1.0
  H  H12  1  0.86810000  0.34606000  0.64401000  1.0
  H  H13  1  0.51221000  0.84596000  0.35626000  1.0
  H  H14  1  0.28082000  0.74747000  0.21304000  1.0
  H  H15  1  0.49367000  0.24745000  0.78687000  1.0
  H  H16  1  0.71918000  0.25253000  0.78696000  1.0
  H  H17  1  0.50632000  0.75254000  0.21314000  1.0
  H  H18  1  0.11921000  0.83815000  0.35527000  1.0
  H  H19  1  0.47416000  0.33821000  0.64464000  1.0
  H  H20  1  0.88079000  0.16185000  0.64473000  1.0
  H  H21  1  0.52584000  0.66179000  0.35536000  1.0
  H  H22  1  0.83295000  0.96352000  0.32055000  1.0
  H  H23  1  0.15296000  0.46346000  0.67938000  1.0
  H  H24  1  0.16706000  0.03648000  0.67944000  1.0
  H  H25  1  0.84705000  0.53654000  0.32061000  1.0
  H  H26  1  0.70096000  0.97485000  0.59045000  1.0
  H  H27  1  0.29119000  0.47483000  0.40946000  1.0
  H  H28  1  0.29903000  0.02515000  0.40955000  1.0
  H  H29  1  0.70882000  0.52517000  0.59053000  1.0
  H  H30  1  0.68042000  0.93944000  0.82226000  1.0
  H  H31  1  0.50267000  0.43926000  0.17754000  1.0
  H  H32  1  0.31959000  0.06056000  0.17773000  1.0
  H  H33  1  0.49733000  0.56074000  0.82246000  1.0
  H  H34  1  0.51669000  0.85866000  0.96613000  1.0
  H  H35  1  0.48253000  0.35852000  0.03376000  1.0
  H  H36  1  0.48331000  0.14134000  0.03387000  1.0
  H  H37  1  0.51748000  0.64148000  0.96623000  1.0
  H  H38  1  0.49004000  0.94552000  0.82400000  1.0
  H  H39  1  0.31410000  0.44550000  0.17578000  1.0
  H  H40  1  0.50996000  0.05448000  0.17600000  1.0
  H  H41  1  0.68591000  0.55450000  0.82421000  1.0
  C  C42  1  0.98243000  0.74430000  0.79307000  1.0
  C  C43  1  0.77498000  0.24381000  0.20678000  1.0
  C  C44  1  0.01757000  0.25570000  0.20693000  1.0
  C  C45  1  0.22502000  0.75619000  0.79322000  1.0
  C  C46  1  0.05247000  0.74411000  0.64190000  1.0
  C  C47  1  0.69398000  0.24397000  0.35797000  1.0
  C  C48  1  0.94752000  0.25589000  0.35810000  1.0
  C  C49  1  0.30602000  0.75603000  0.64204000  1.0
  C  C50  1  0.22045000  0.75002000  0.55954000  1.0
  C  C51  1  0.77955000  0.24997000  0.44047000  1.0
  C  C52  1  0.20167000  0.74701000  0.33088000  1.0
  C  C53  1  0.53231000  0.24711000  0.66901000  1.0
  C  C54  1  0.79834000  0.25299000  0.66912000  1.0
  C  C55  1  0.46768000  0.75288000  0.33100000  1.0
  C  C56  1  0.80397000  0.86921000  0.38568000  1.0
  C  C57  1  0.18924000  0.36912000  0.61432000  1.0
  C  C58  1  0.19603000  0.13079000  0.61431000  1.0
  C  C59  1  0.81076000  0.63089000  0.38567000  1.0
  C  C60  1  0.72887000  0.87449000  0.53721000  1.0
  C  C61  1  0.26583000  0.37447000  0.46277000  1.0
  C  C62  1  0.27114000  0.12551000  0.46278000  1.0
  C  C63  1  0.73416000  0.62553000  0.53723000  1.0
  C  C64  1  0.69023000  0.75001000  0.61978000  1.0
  C  C65  1  0.30978000  0.24999000  0.38021000  1.0
  C  C66  1  0.57406000  0.88053000  0.84847000  1.0
  C  C67  1  0.42244000  0.38043000  0.15139000  1.0
  C  C68  1  0.42594000  0.11947000  0.15153000  1.0
  C  C69  1  0.57756000  0.61957000  0.84860000  1.0
  N  N70  1  0.79291000  0.90115000  0.09642000  1.0
  N  N71  1  0.88929000  0.40137000  0.90341000  1.0
  N  N72  1  0.20708000  0.09885000  0.90360000  1.0
  N  N73  1  0.11070000  0.59864000  0.09660000  1.0
  N  N74  1  0.82594000  0.98462000  0.99994000  1.0
  N  N75  1  0.82588000  0.48471000  0.99995000  1.0
  N  N76  1  0.17407000  0.01538000  0.00005000  1.0
  N  N77  1  0.17413000  0.51528000  0.00004000  1.0
  N  N78  1  0.85251000  0.06850000  0.90767000  1.0
  N  N79  1  0.76018000  0.56853000  0.09224000  1.0
  N  N80  1  0.14750000  0.93149000  0.09233000  1.0
  N  N81  1  0.23980000  0.43149000  0.90777000  1.0
  N  N82  1  0.06503000  0.75036000  0.87054000  1.0
  N  N83  1  0.93496000  0.24964000  0.12946000  1.0
  N  N84  1  0.29475000  0.74986000  0.41087000  1.0
  N  N85  1  0.70526000  0.25014000  0.58913000  1.0
  N  N86  1  0.84568000  0.75006000  0.30910000  1.0
  N  N87  1  0.15432000  0.24994000  0.69089000  1.0
  N  N88  1  0.61572000  0.75003000  0.76874000  1.0
  N  N89  1  0.38428000  0.24997000  0.23125000  1.0
