# generated using pymatgen
data_ZnH22C32(NO)4
_symmetry_space_group_name_H-M   'P 1'
_cell_length_a   7.61067000
_cell_length_b   11.51260000
_cell_length_c   15.99690000
_cell_angle_alpha   90.00000000
_cell_angle_beta   90.00000000
_cell_angle_gamma   109.30200000
_symmetry_Int_Tables_number   1
_chemical_formula_structural   ZnH22C32(NO)4
_chemical_formula_sum   'Zn2 H44 C64 N8 O8'
_cell_volume   1322.83975593
_cell_formula_units_Z   2
loop_
 _symmetry_equiv_pos_site_id
 _symmetry_equiv_pos_as_xyz
  1  'x, y, z'
loop_
 _atom_site_type_symbol
 _atom_site_label
 _atom_site_symmetry_multiplicity
 _atom_site_fract_x
 _atom_site_fract_y
 _atom_site_fract_z
 _atom_site_occupancy
  Zn  Zn0  1  0.64993000  0.00003000  0.49998000  1.0
  Zn  Zn1  1  0.14993000  0.00003000  0.00002000  1.0
  H  H2  1  0.24109000  0.64178000  0.47099000  1.0
  H  H3  1  0.59930000  0.35825000  0.52899000  1.0
  H  H4  1  0.74109000  0.64178000  0.02901000  1.0
  H  H5  1  0.09931000  0.35825000  0.97101000  1.0
  H  H6  1  0.93932000  0.47362000  0.45322000  1.0
  H  H7  1  0.46564000  0.52638000  0.54670000  1.0
  H  H8  1  0.43932000  0.47362000  0.04677000  1.0
  H  H9  1  0.96564000  0.52638000  0.95330000  1.0
  H  H10  1  0.76526000  0.69736000  0.27681000  1.0
  H  H11  1  0.06799000  0.30270000  0.72323000  1.0
  H  H12  1  0.26526000  0.69736000  0.22319000  1.0
  H  H13  1  0.56799000  0.30270000  0.77677000  1.0
  H  H14  1  0.06922000  0.86371000  0.29478000  1.0
  H  H15  1  0.20549000  0.13626000  0.70521000  1.0
  H  H16  1  0.56922000  0.86371000  0.20522000  1.0
  H  H17  1  0.70549000  0.13626000  0.79479000  1.0
  H  H18  1  0.76068000  0.32534000  0.36075000  1.0
  H  H19  1  0.43544000  0.67478000  0.63935000  1.0
  H  H20  1  0.26068000  0.32534000  0.13925000  1.0
  H  H21  1  0.93544000  0.67478000  0.86065000  1.0
  H  H22  1  0.45151000  0.16045000  0.36576000  1.0
  H  H23  1  0.29115000  0.83960000  0.63419000  1.0
  H  H24  1  0.95151000  0.16045000  0.13424000  1.0
  H  H25  1  0.79115000  0.83960000  0.86581000  1.0
  H  H26  1  0.18231000  0.43548000  0.35139000  1.0
  H  H27  1  0.74678000  0.56448000  0.64864000  1.0
  H  H28  1  0.68231000  0.43548000  0.14861000  1.0
  H  H29  1  0.24678000  0.56448000  0.85136000  1.0
  H  H30  1  0.48960000  0.60068000  0.35230000  1.0
  H  H31  1  0.88899000  0.39930000  0.64771000  1.0
  H  H32  1  0.98960000  0.60068000  0.14770000  1.0
  H  H33  1  0.38899000  0.39930000  0.85229000  1.0
  H  H34  1  0.03117000  0.23501000  0.48619000  1.0
  H  H35  1  0.79603000  0.76497000  0.51371000  1.0
  H  H36  1  0.53117000  0.23501000  0.01380000  1.0
  H  H37  1  0.29603000  0.76497000  0.98629000  1.0
  H  H38  1  0.77528000  0.95257000  0.31286000  1.0
  H  H39  1  0.82268000  0.04738000  0.68713000  1.0
  H  H40  1  0.27528000  0.95257000  0.18713000  1.0
  H  H41  1  0.32268000  0.04738000  0.81287000  1.0
  H  H42  1  0.11595000  0.09727000  0.24919000  1.0
  H  H43  1  0.01869000  0.90266000  0.75075000  1.0
  H  H44  1  0.61595000  0.09727000  0.25081000  1.0
  H  H45  1  0.51869000  0.90266000  0.74925000  1.0
  C  C46  1  0.35341000  0.86743000  0.39719000  1.0
  C  C47  1  0.48590000  0.13254000  0.60276000  1.0
  C  C48  1  0.85341000  0.86743000  0.10281000  1.0
  C  C49  1  0.98590000  0.13254000  0.89724000  1.0
  C  C50  1  0.17501000  0.76292000  0.38349000  1.0
  C  C51  1  0.41180000  0.23696000  0.61637000  1.0
  C  C52  1  0.67501000  0.76292000  0.11651000  1.0
  C  C53  1  0.91180000  0.23696000  0.88363000  1.0
  C  C54  1  0.13765000  0.65205000  0.42729000  1.0
  C  C55  1  0.48548000  0.34794000  0.57263000  1.0
  C  C56  1  0.63765000  0.65205000  0.07271000  1.0
  C  C57  1  0.98547000  0.34794000  0.92737000  1.0
  C  C58  1  0.96837000  0.55813000  0.41695000  1.0
  C  C59  1  0.41022000  0.44188000  0.58301000  1.0
  C  C60  1  0.46837000  0.55813000  0.08305000  1.0
  C  C61  1  0.91022000  0.44188000  0.91699000  1.0
  C  C62  1  0.83035000  0.57300000  0.36364000  1.0
  C  C63  1  0.25730000  0.42702000  0.63633000  1.0
  C  C64  1  0.33035000  0.57300000  0.13636000  1.0
  C  C65  1  0.75730000  0.42702000  0.86367000  1.0
  C  C66  1  0.86901000  0.68434000  0.31948000  1.0
  C  C67  1  0.18470000  0.31567000  0.68054000  1.0
  C  C68  1  0.36901000  0.68434000  0.18052000  1.0
  C  C69  1  0.68470000  0.31567000  0.81946000  1.0
  C  C70  1  0.03970000  0.77740000  0.32877000  1.0
  C  C71  1  0.26227000  0.22257000  0.67122000  1.0
  C  C72  1  0.53970000  0.77740000  0.17123000  1.0
  C  C73  1  0.76227000  0.22257000  0.82878000  1.0
  C  C74  1  0.64774000  0.47496000  0.35751000  1.0
  C  C75  1  0.17282000  0.52505000  0.64243000  1.0
  C  C76  1  0.14774000  0.47496000  0.14249000  1.0
  C  C77  1  0.67282000  0.52505000  0.85757000  1.0
  C  C78  1  0.63431000  0.35019000  0.35935000  1.0
  C  C79  1  0.28423000  0.64989000  0.64069000  1.0
  C  C80  1  0.13432000  0.35019000  0.14065000  1.0
  C  C81  1  0.78423000  0.64989000  0.85931000  1.0
  C  C82  1  0.46216000  0.25709000  0.36100000  1.0
  C  C83  1  0.20511000  0.74295000  0.63910000  1.0
  C  C84  1  0.96216000  0.25709000  0.13900000  1.0
  C  C85  1  0.70511000  0.74295000  0.86090000  1.0
  C  C86  1  0.30114000  0.28955000  0.35942000  1.0
  C  C87  1  0.01157000  0.71045000  0.64060000  1.0
  C  C88  1  0.80114000  0.28955000  0.14058000  1.0
  C  C89  1  0.51157000  0.71045000  0.85940000  1.0
  C  C90  1  0.30988000  0.41231000  0.35419000  1.0
  C  C91  1  0.89756000  0.58768000  0.64590000  1.0
  C  C92  1  0.80988000  0.41231000  0.14581000  1.0
  C  C93  1  0.39756000  0.58768000  0.85410000  1.0
  C  C94  1  0.48288000  0.50458000  0.35363000  1.0
  C  C95  1  0.97829000  0.49543000  0.64641000  1.0
  C  C96  1  0.98288000  0.50458000  0.14637000  1.0
  C  C97  1  0.47829000  0.49543000  0.85359000  1.0
  C  C98  1  0.00329000  0.17768000  0.43067000  1.0
  C  C99  1  0.82541000  0.82225000  0.56927000  1.0
  C  C100  1  0.50329000  0.17768000  0.06933000  1.0
  C  C101  1  0.32541000  0.82225000  0.93073000  1.0
  C  C102  1  0.87859000  0.03254000  0.33958000  1.0
  C  C103  1  0.84608000  0.96743000  0.66037000  1.0
  C  C104  1  0.37859000  0.03254000  0.16042000  1.0
  C  C105  1  0.34608000  0.96743000  0.83963000  1.0
  C  C106  1  0.04686000  0.10331000  0.30726000  1.0
  C  C107  1  0.94363000  0.89668000  0.69267000  1.0
  C  C108  1  0.54686000  0.10331000  0.19274000  1.0
  C  C109  1  0.44363000  0.89668000  0.80733000  1.0
  N  N110  1  0.12374000  0.19496000  0.36532000  1.0
  N  N111  1  0.92881000  0.80504000  0.63458000  1.0
  N  N112  1  0.62374000  0.19496000  0.13468000  1.0
  N  N113  1  0.42881000  0.80504000  0.86542000  1.0
  N  N114  1  0.85366000  0.07946000  0.41644000  1.0
  N  N115  1  0.77399000  0.92046000  0.58356000  1.0
  N  N116  1  0.35366000  0.07946000  0.08356000  1.0
  N  N117  1  0.27399000  0.92046000  0.91644000  1.0
  O  O118  1  0.45190000  0.85345000  0.46054000  1.0
  O  O119  1  0.59876000  0.14664000  0.53953000  1.0
  O  O120  1  0.95190000  0.85345000  0.03946000  1.0
  O  O121  1  0.09876000  0.14664000  0.96047000  1.0
  O  O122  1  0.39580000  0.95962000  0.35042000  1.0
  O  O123  1  0.43640000  0.04043000  0.64963000  1.0
  O  O124  1  0.89580000  0.95962000  0.14958000  1.0
  O  O125  1  0.93640000  0.04043000  0.85037000  1.0
