# generated using pymatgen
data_Cd3H8C12O13
_symmetry_space_group_name_H-M   'P 1'
_cell_length_a   9.53240000
_cell_length_b   9.59919000
_cell_length_c   10.32330000
_cell_angle_alpha   105.41600000
_cell_angle_beta   112.26400000
_cell_angle_gamma   107.60300000
_symmetry_Int_Tables_number   1
_chemical_formula_structural   Cd3H8C12O13
_chemical_formula_sum   'Cd6 H16 C24 O26'
_cell_volume   751.79638853
_cell_formula_units_Z   2
loop_
 _symmetry_equiv_pos_site_id
 _symmetry_equiv_pos_as_xyz
  1  'x, y, z'
loop_
 _atom_site_type_symbol
 _atom_site_label
 _atom_site_symmetry_multiplicity
 _atom_site_fract_x
 _atom_site_fract_y
 _atom_site_fract_z
 _atom_site_occupancy
  Cd  Cd0  1  0.26548000  0.38580000  0.07838000  1.0
  Cd  Cd1  1  0.73452000  0.61420000  0.92162000  1.0
  Cd  Cd2  1  0.83099000  0.18280000  0.76159000  1.0
  Cd  Cd3  1  0.16902000  0.81720000  0.23841000  1.0
  Cd  Cd4  1  0.75072000  0.78106000  0.54969000  1.0
  Cd  Cd5  1  0.24928000  0.21894000  0.45031000  1.0
  H  H6  1  0.04413000  0.80864000  0.62683000  1.0
  H  H7  1  0.95587000  0.19136000  0.37317000  1.0
  H  H8  1  0.42263000  0.02809000  0.84638000  1.0
  H  H9  1  0.57738000  0.97191000  0.15362000  1.0
  H  H10  1  0.24238000  0.71365000  0.54947000  1.0
  H  H11  1  0.75762000  0.28634000  0.45052000  1.0
  H  H12  1  0.44812000  0.75266000  0.87904000  1.0
  H  H13  1  0.55188000  0.24734000  0.12096000  1.0
  H  H14  1  0.06602000  0.57599000  0.64021000  1.0
  H  H15  1  0.93398000  0.42401000  0.35979000  1.0
  H  H16  1  0.26772000  0.86516000  0.95961000  1.0
  H  H17  1  0.73228000  0.13484000  0.04039000  1.0
  H  H18  1  0.38626000  0.68781000  0.37168000  1.0
  H  H19  1  0.61374000  0.31219000  0.62832000  1.0
  H  H20  1  0.43536000  0.72247000  0.25075000  1.0
  H  H21  1  0.56464000  0.27754000  0.74925000  1.0
  C  C22  1  0.15234000  0.88853000  0.74472000  1.0
  C  C23  1  0.84766000  0.11147000  0.25528000  1.0
  C  C24  1  0.31413000  0.93819000  0.73115000  1.0
  C  C25  1  0.68587000  0.06181000  0.26885000  1.0
  C  C26  1  0.34453000  0.79296000  0.67026000  1.0
  C  C27  1  0.65547000  0.20704000  0.32974000  1.0
  C  C28  1  0.33931000  0.68748000  0.76022000  1.0
  C  C29  1  0.66069000  0.31252000  0.23978000  1.0
  C  C30  1  0.17055000  0.63810000  0.76089000  1.0
  C  C31  1  0.82945000  0.36190000  0.23911000  1.0
  C  C32  1  0.15672000  0.79056000  0.84193000  1.0
  C  C33  1  0.84328000  0.20944000  0.15807000  1.0
  C  C34  1  0.12683000  0.03499000  0.81369000  1.0
  C  C35  1  0.87317000  0.96501000  0.18631000  1.0
  C  C36  1  0.30126000  0.02057000  0.62114000  1.0
  C  C37  1  0.69874000  0.97943000  0.37886000  1.0
  C  C38  1  0.51078000  0.84791000  0.66740000  1.0
  C  C39  1  0.48922000  0.15209000  0.33260000  1.0
  C  C40  1  0.34358000  0.53418000  0.67396000  1.0
  C  C41  1  0.65642000  0.46582000  0.32604000  1.0
  C  C42  1  0.14483000  0.51347000  0.82750000  1.0
  C  C43  1  0.85517000  0.48653000  0.17249000  1.0
  C  C44  1  0.00181000  0.73848000  0.86228000  1.0
  C  C45  1  0.99819000  0.26152000  0.13772000  1.0
  O  O46  1  0.24646000  0.14664000  0.94389000  1.0
  O  O47  1  0.75354000  0.85336000  0.05611000  1.0
  O  O48  1  0.98187000  0.03047000  0.73697000  1.0
  O  O49  1  0.01813000  0.96953000  0.26303000  1.0
  O  O50  1  0.28592000  0.15075000  0.65682000  1.0
  O  O51  1  0.71408000  0.84925000  0.34318000  1.0
  O  O52  1  0.31161000  0.95831000  0.50223000  1.0
  O  O53  1  0.68839000  0.04169000  0.49777000  1.0
  O  O54  1  0.63386000  0.98357000  0.77004000  1.0
  O  O55  1  0.36614000  0.01643000  0.22996000  1.0
  O  O56  1  0.51450000  0.74530000  0.56084000  1.0
  O  O57  1  0.48550000  0.25470000  0.43916000  1.0
  O  O58  1  0.47572000  0.51242000  0.72062000  1.0
  O  O59  1  0.52428000  0.48758000  0.27938000  1.0
  O  O60  1  0.20593000  0.42841000  0.54980000  1.0
  O  O61  1  0.79407000  0.57159000  0.45020000  1.0
  O  O62  1  0.27333000  0.53581000  0.94711000  1.0
  O  O63  1  0.72667000  0.46419000  0.05289000  1.0
  O  O64  1  0.99697000  0.39642000  0.75292000  1.0
  O  O65  1  0.00303000  0.60358000  0.24708000  1.0
  O  O66  1  0.01616000  0.69613000  0.97343000  1.0
  O  O67  1  0.98385000  0.30387000  0.02657000  1.0
  O  O68  1  0.86074000  0.72830000  0.77322000  1.0
  O  O69  1  0.13926000  0.27170000  0.22677000  1.0
  O  O70  1  0.33617000  0.67414000  0.26150000  1.0
  O  O71  1  0.66383000  0.32586000  0.73850000  1.0
