# generated using pymatgen
data_CdH9C9S2N3O
_symmetry_space_group_name_H-M   'P 1'
_cell_length_a   10.87770000
_cell_length_b   10.87780000
_cell_length_c   11.65560000
_cell_angle_alpha   73.20710000
_cell_angle_beta   73.20700000
_cell_angle_gamma   87.21630000
_symmetry_Int_Tables_number   1
_chemical_formula_structural   CdH9C9S2N3O
_chemical_formula_sum   'Cd4 H36 C36 S8 N12 O4'
_cell_volume   1263.11723937
_cell_formula_units_Z   4
loop_
 _symmetry_equiv_pos_site_id
 _symmetry_equiv_pos_as_xyz
  1  'x, y, z'
loop_
 _atom_site_type_symbol
 _atom_site_label
 _atom_site_symmetry_multiplicity
 _atom_site_fract_x
 _atom_site_fract_y
 _atom_site_fract_z
 _atom_site_occupancy
  Cd  Cd0  1  0.57492000  0.26935000  0.42909000  1.0
  Cd  Cd1  1  0.73065000  0.42508000  0.07091000  1.0
  Cd  Cd2  1  0.42508000  0.73065000  0.57091000  1.0
  Cd  Cd3  1  0.26936000  0.57491000  0.92909000  1.0
  H  H4  1  0.36411000  0.25117000  0.20838000  1.0
  H  H5  1  0.74883000  0.63589000  0.29162000  1.0
  H  H6  1  0.63589000  0.74883000  0.79162000  1.0
  H  H7  1  0.25117000  0.36411000  0.70838000  1.0
  H  H8  1  0.40183000  0.87722000  0.14220000  1.0
  H  H9  1  0.12278000  0.59818000  0.35780000  1.0
  H  H10  1  0.59817000  0.12278000  0.85779000  1.0
  H  H11  1  0.87722000  0.40182000  0.64221000  1.0
  H  H12  1  0.70644000  0.07053000  0.20298000  1.0
  H  H13  1  0.92947000  0.29357000  0.29702000  1.0
  H  H14  1  0.29356000  0.92947000  0.79702000  1.0
  H  H15  1  0.07052000  0.70644000  0.70297000  1.0
  H  H16  1  0.20888000  0.00384000  0.11758000  1.0
  H  H17  1  0.99616000  0.79112000  0.38242000  1.0
  H  H18  1  0.79112000  0.99616000  0.88241000  1.0
  H  H19  1  0.00384000  0.20888000  0.61759000  1.0
  H  H20  1  0.19273000  0.15980000  0.14021000  1.0
  H  H21  1  0.84020000  0.80727000  0.35979000  1.0
  H  H22  1  0.80727000  0.84020000  0.85978000  1.0
  H  H23  1  0.15980000  0.19274000  0.64022000  1.0
  H  H24  1  0.16155000  0.02027000  0.27108000  1.0
  H  H25  1  0.97973000  0.83845000  0.22893000  1.0
  H  H26  1  0.83845000  0.97973000  0.72892000  1.0
  H  H27  1  0.02027000  0.16155000  0.77108000  1.0
  H  H28  1  0.74965000  0.86789000  0.13962000  1.0
  H  H29  1  0.13211000  0.25035000  0.36038000  1.0
  H  H30  1  0.25035000  0.13211000  0.86037000  1.0
  H  H31  1  0.86788000  0.74964000  0.63963000  1.0
  H  H32  1  0.63315000  0.79933000  0.09250000  1.0
  H  H33  1  0.20067000  0.36686000  0.40750000  1.0
  H  H34  1  0.36686000  0.20067000  0.90750000  1.0
  H  H35  1  0.79932000  0.63315000  0.59250000  1.0
  H  H36  1  0.61715000  0.76999000  0.25281000  1.0
  H  H37  1  0.23001000  0.38285000  0.24719000  1.0
  H  H38  1  0.38285000  0.23001000  0.74718000  1.0
  H  H39  1  0.76998000  0.61715000  0.75282000  1.0
  C  C40  1  0.39658000  0.53740000  0.40863000  1.0
  C  C41  1  0.46260000  0.60342000  0.09138000  1.0
  C  C42  1  0.60342000  0.46260000  0.59138000  1.0
  C  C43  1  0.53741000  0.39658000  0.90862000  1.0
  C  C44  1  0.33743000  0.03940000  0.52743000  1.0
  C  C45  1  0.96059000  0.66257000  0.97257000  1.0
  C  C46  1  0.66257000  0.96059000  0.47257000  1.0
  C  C47  1  0.03941000  0.33743000  0.02743000  1.0
  C  C48  1  0.36167000  0.06192000  0.17628000  1.0
  C  C49  1  0.93808000  0.63833000  0.32372000  1.0
  C  C50  1  0.63833000  0.93809000  0.82372000  1.0
  C  C51  1  0.06191000  0.36167000  0.67628000  1.0
  C  C52  1  0.41400000  0.16469000  0.19729000  1.0
  C  C53  1  0.83531000  0.58600000  0.30271000  1.0
  C  C54  1  0.58600000  0.83531000  0.80271000  1.0
  C  C55  1  0.16469000  0.41400000  0.69729000  1.0
  C  C56  1  0.43970000  0.95852000  0.16038000  1.0
  C  C57  1  0.04148000  0.56030000  0.33962000  1.0
  C  C58  1  0.56030000  0.04148000  0.83962000  1.0
  C  C59  1  0.95852000  0.43970000  0.66038000  1.0
  C  C60  1  0.61156000  0.06205000  0.19193000  1.0
  C  C61  1  0.93795000  0.38844000  0.30808000  1.0
  C  C62  1  0.38844000  0.93795000  0.80807000  1.0
  C  C63  1  0.06205000  0.61156000  0.69193000  1.0
  C  C64  1  0.56553000  0.95725000  0.16908000  1.0
  C  C65  1  0.04275000  0.43447000  0.33092000  1.0
  C  C66  1  0.43447000  0.04275000  0.83092000  1.0
  C  C67  1  0.95724000  0.56553000  0.66908000  1.0
  C  C68  1  0.22393000  0.06223000  0.17531000  1.0
  C  C69  1  0.93776000  0.77607000  0.32469000  1.0
  C  C70  1  0.77607000  0.93777000  0.82469000  1.0
  C  C71  1  0.06223000  0.22393000  0.67531000  1.0
  C  C72  1  0.64721000  0.84344000  0.16147000  1.0
  C  C73  1  0.15656000  0.35279000  0.33853000  1.0
  C  C74  1  0.35279000  0.15656000  0.83853000  1.0
  C  C75  1  0.84344000  0.64721000  0.66147000  1.0
  S  S76  1  0.34081000  0.68164000  0.39762000  1.0
  S  S77  1  0.31836000  0.65918000  0.10239000  1.0
  S  S78  1  0.65918000  0.31836000  0.60238000  1.0
  S  S79  1  0.68165000  0.34081000  0.89762000  1.0
  S  S80  1  0.24118000  0.91892000  0.55074000  1.0
  S  S81  1  0.08109000  0.75882000  0.94926000  1.0
  S  S82  1  0.75882000  0.08108000  0.44926000  1.0
  S  S83  1  0.91891000  0.24117000  0.05074000  1.0
  N  N84  1  0.53583000  0.16268000  0.20532000  1.0
  N  N85  1  0.83732000  0.46417000  0.29468000  1.0
  N  N86  1  0.46417000  0.83732000  0.79468000  1.0
  N  N87  1  0.16268000  0.53583000  0.70532000  1.0
  N  N88  1  0.43454000  0.43275000  0.41653000  1.0
  N  N89  1  0.56725000  0.56545000  0.08347000  1.0
  N  N90  1  0.56545000  0.56725000  0.58347000  1.0
  N  N91  1  0.43276000  0.43455000  0.91653000  1.0
  N  N92  1  0.40584000  0.12699000  0.51375000  1.0
  N  N93  1  0.87302000  0.59417000  0.98625000  1.0
  N  N94  1  0.59417000  0.87301000  0.48625000  1.0
  N  N95  1  0.12699000  0.40583000  0.01375000  1.0
  O  O96  1  0.58170000  0.26264000  0.22693000  1.0
  O  O97  1  0.73736000  0.41830000  0.27307000  1.0
  O  O98  1  0.41830000  0.73736000  0.77307000  1.0
  O  O99  1  0.26264000  0.58170000  0.72693000  1.0
