# generated using pymatgen
data_SmB2H24(C4O)2
_symmetry_space_group_name_H-M   'P 1'
_cell_length_a   3.96502000
_cell_length_b   7.91509000
_cell_length_c   18.66470000
_cell_angle_alpha   89.99820000
_cell_angle_beta   92.09610000
_cell_angle_gamma   89.99820000
_symmetry_Int_Tables_number   1
_chemical_formula_structural   SmB2H24(C4O)2
_chemical_formula_sum   'Sm2 B4 H48 C16 O4'
_cell_volume   585.37148536
_cell_formula_units_Z   2
loop_
 _symmetry_equiv_pos_site_id
 _symmetry_equiv_pos_as_xyz
  1  'x, y, z'
loop_
 _atom_site_type_symbol
 _atom_site_label
 _atom_site_symmetry_multiplicity
 _atom_site_fract_x
 _atom_site_fract_y
 _atom_site_fract_z
 _atom_site_occupancy
  Sm  Sm0  1  0.00000000  0.00000000  0.00000000  1.0
  Sm  Sm1  1  0.50001000  0.50000000  0.50000000  1.0
  B  B2  1  0.51950000  0.80397000  0.07032000  1.0
  B  B3  1  0.98052000  0.30389000  0.42965000  1.0
  B  B4  1  0.48050000  0.19603000  0.92967000  1.0
  B  B5  1  0.01949000  0.69611000  0.57035000  1.0
  H  H6  1  0.86709000  0.56735000  0.94152000  1.0
  H  H7  1  0.63296000  0.06727000  0.55847000  1.0
  H  H8  1  0.13288000  0.43264000  0.05847000  1.0
  H  H9  1  0.36706000  0.93272000  0.44153000  1.0
  H  H10  1  0.30005000  0.58991000  0.92014000  1.0
  H  H11  1  0.20000000  0.08987000  0.57988000  1.0
  H  H12  1  0.69993000  0.41009000  0.07985000  1.0
  H  H13  1  0.80001000  0.91011000  0.42013000  1.0
  H  H14  1  0.10443000  0.43585000  0.81605000  1.0
  H  H15  1  0.39578000  0.93582000  0.68394000  1.0
  H  H16  1  0.89555000  0.56417000  0.18394000  1.0
  H  H17  1  0.60426000  0.06416000  0.31606000  1.0
  H  H18  1  0.69425000  0.52303000  0.81861000  1.0
  H  H19  1  0.80579000  0.02297000  0.68139000  1.0
  H  H20  1  0.30573000  0.47698000  0.18138000  1.0
  H  H21  1  0.19424000  0.97702000  0.31861000  1.0
  H  H22  1  0.12390000  0.96494000  0.81735000  1.0
  H  H23  1  0.37619000  0.46488000  0.68268000  1.0
  H  H24  1  0.87606000  0.03508000  0.18266000  1.0
  H  H25  1  0.62384000  0.53508000  0.31733000  1.0
  H  H26  1  0.69921000  0.89071000  0.81237000  1.0
  H  H27  1  0.80089000  0.39063000  0.68764000  1.0
  H  H28  1  0.30076000  0.10930000  0.18763000  1.0
  H  H29  1  0.19913000  0.60937000  0.31237000  1.0
  H  H30  1  0.33677000  0.70141000  0.77136000  1.0
  H  H31  1  0.16340000  0.20135000  0.72866000  1.0
  H  H32  1  0.66320000  0.29862000  0.22864000  1.0
  H  H33  1  0.83661000  0.79863000  0.27134000  1.0
  H  H34  1  0.93828000  0.70105000  0.72550000  1.0
  H  H35  1  0.56181000  0.20100000  0.77449000  1.0
  H  H36  1  0.06169000  0.29898000  0.27449000  1.0
  H  H37  1  0.43820000  0.79899000  0.22552000  1.0
  H  H38  1  0.42309000  0.78238000  0.00708000  1.0
  H  H39  1  0.07705000  0.28226000  0.49289000  1.0
  H  H40  1  0.57690000  0.21763000  0.99292000  1.0
  H  H41  1  0.92296000  0.71773000  0.50711000  1.0
  H  H42  1  0.42351000  0.69106000  0.10818000  1.0
  H  H43  1  0.07645000  0.19102000  0.39178000  1.0
  H  H44  1  0.57649000  0.30894000  0.89182000  1.0
  H  H45  1  0.92356000  0.80899000  0.60822000  1.0
  H  H46  1  0.41490000  0.94249000  0.09132000  1.0
  H  H47  1  0.08505000  0.44243000  0.40866000  1.0
  H  H48  1  0.58510000  0.05752000  0.90868000  1.0
  H  H49  1  0.91495000  0.55758000  0.59134000  1.0
  H  H50  1  0.83144000  0.79994000  0.07590000  1.0
  H  H51  1  0.66859000  0.29987000  0.42410000  1.0
  H  H52  1  0.16856000  0.20006000  0.92409000  1.0
  H  H53  1  0.33142000  0.70013000  0.57590000  1.0
  C  C54  1  0.03896000  0.61637000  0.90175000  1.0
  C  C55  1  0.46110000  0.11629000  0.59826000  1.0
  C  C56  1  0.96103000  0.38361000  0.09825000  1.0
  C  C57  1  0.53895000  0.88371000  0.40174000  1.0
  C  C58  1  0.96380000  0.55217000  0.82610000  1.0
  C  C59  1  0.53631000  0.05213000  0.67391000  1.0
  C  C60  1  0.03617000  0.44786000  0.17389000  1.0
  C  C61  1  0.46371000  0.94784000  0.32609000  1.0
  C  C62  1  0.96312000  0.85330000  0.82338000  1.0
  C  C63  1  0.53694000  0.35326000  0.67666000  1.0
  C  C64  1  0.03683000  0.14671000  0.17662000  1.0
  C  C65  1  0.46306000  0.64674000  0.32334000  1.0
  C  C66  1  0.06342000  0.70140000  0.77899000  1.0
  C  C67  1  0.43674000  0.20129000  0.72102000  1.0
  C  C68  1  0.93657000  0.29862000  0.22101000  1.0
  C  C69  1  0.56329000  0.79869000  0.27899000  1.0
  O  O70  1  0.99574000  0.80005000  0.89808000  1.0
  O  O71  1  0.50433000  0.29996000  0.60196000  1.0
  O  O72  1  0.00423000  0.19994000  0.10192000  1.0
  O  O73  1  0.49568000  0.70003000  0.39804000  1.0
