# generated using pymatgen
data_Al2H45C50N2Cl3O14
_symmetry_space_group_name_H-M   'P 1'
_cell_length_a   6.59427000
_cell_length_b   25.56950000
_cell_length_c   28.61380000
_cell_angle_alpha   90.54900000
_cell_angle_beta   91.22150000
_cell_angle_gamma   90.86430000
_symmetry_Int_Tables_number   1
_chemical_formula_structural   Al2H45C50N2Cl3O14
_chemical_formula_sum   'Al4 H90 C100 N4 Cl6 O28'
_cell_volume   4822.75354256
_cell_formula_units_Z   2
loop_
 _symmetry_equiv_pos_site_id
 _symmetry_equiv_pos_as_xyz
  1  'x, y, z'
loop_
 _atom_site_type_symbol
 _atom_site_label
 _atom_site_symmetry_multiplicity
 _atom_site_fract_x
 _atom_site_fract_y
 _atom_site_fract_z
 _atom_site_occupancy
  Al  Al0  1  0.76984000  0.74699000  0.74712000  1.0
  Al  Al1  1  0.22607000  0.25043000  0.25445000  1.0
  Al  Al2  1  0.27007000  0.74570000  0.74985000  1.0
  Al  Al3  1  0.72718000  0.25086000  0.25537000  1.0
  H  H4  1  0.70318000  0.57238000  0.57131000  1.0
  H  H5  1  0.32942000  0.42019000  0.43134000  1.0
  H  H6  1  0.34686000  0.60289000  0.56339000  1.0
  H  H7  1  0.68907000  0.44193000  0.40622000  1.0
  H  H8  1  0.32919000  0.65957000  0.63396000  1.0
  H  H9  1  0.68755000  0.36768000  0.34960000  1.0
  H  H10  1  0.75487000  0.61141000  0.94871000  1.0
  H  H11  1  0.16457000  0.37057000  0.04525000  1.0
  H  H12  1  0.27418000  0.53569000  0.89146000  1.0
  H  H13  1  0.76075000  0.47030000  0.12086000  1.0
  H  H14  1  0.79562000  0.12626000  0.34393000  1.0
  H  H15  1  0.19477000  0.86636000  0.65785000  1.0
  H  H16  1  0.79480000  0.05873000  0.40612000  1.0
  H  H17  1  0.18632000  0.93292000  0.59487000  1.0
  H  H18  1  0.17073000  0.09362000  0.43402000  1.0
  H  H19  1  0.80719000  0.89831000  0.56319000  1.0
  H  H20  1  0.16892000  0.15739000  0.36878000  1.0
  H  H21  1  0.81714000  0.83474000  0.62852000  1.0
  H  H22  1  0.17546000  0.00603000  0.45110000  1.0
  H  H23  1  0.80131000  0.98623000  0.54837000  1.0
  H  H24  1  0.18158000  0.94196000  0.51464000  1.0
  H  H25  1  0.79522000  0.05033000  0.48495000  1.0
  H  H26  1  0.68708000  0.13274000  0.04335000  1.0
  H  H27  1  0.28469000  0.96423000  0.88168000  1.0
  H  H28  1  0.25366000  0.03475000  0.11464000  1.0
  H  H29  1  0.76861000  0.88548000  0.95409000  1.0
  H  H30  1  0.17341000  0.01427000  0.03859000  1.0
  H  H31  1  0.82827000  0.99047000  0.95888000  1.0
  H  H32  1  0.19637000  0.95062000  0.97338000  1.0
  H  H33  1  0.80646000  0.05416000  0.02406000  1.0
  H  H34  1  0.47150000  0.61295000  0.70153000  1.0
  H  H35  1  0.73604000  0.60934000  0.71411000  1.0
  H  H36  1  0.49016000  0.53002000  0.65351000  1.0
  H  H37  1  0.75264000  0.52648000  0.66642000  1.0
  H  H38  1  0.67369000  0.51972000  0.75343000  1.0
  H  H39  1  0.56755000  0.46718000  0.71973000  1.0
  H  H40  1  0.41129000  0.51879000  0.73836000  1.0
  H  H41  1  0.52524000  0.27682000  0.36940000  1.0
  H  H42  1  0.26874000  0.26788000  0.38602000  1.0
  H  H43  1  0.60854000  0.31880000  0.44696000  1.0
  H  H44  1  0.35432000  0.31054000  0.46411000  1.0
  H  H45  1  0.38653000  0.21216000  0.45773000  1.0
  H  H46  1  0.57327000  0.23900000  0.49699000  1.0
  H  H47  1  0.64005000  0.21989000  0.43957000  1.0
  H  H48  1  0.56977000  0.40944000  0.99143000  1.0
  H  H49  1  0.68302000  0.36636000  0.03282000  1.0
  H  H50  1  0.62221000  0.34248000  0.92803000  1.0
  H  H51  1  0.72740000  0.29963000  0.96979000  1.0
  H  H52  1  0.39319000  0.29797000  0.01258000  1.0
  H  H53  1  0.36141000  0.27624000  0.95385000  1.0
  H  H54  1  0.28712000  0.34015000  0.96968000  1.0
  H  H55  1  0.29354000  0.62865000  0.96923000  1.0
  H  H56  1  0.41123000  0.58615000  0.01044000  1.0
  H  H57  1  0.25291000  0.69566000  0.03278000  1.0
  H  H58  1  0.37288000  0.65390000  0.07324000  1.0
  H  H59  1  0.69630000  0.65798000  0.02736000  1.0
  H  H60  1  0.61861000  0.72175000  0.04283000  1.0
  H  H61  1  0.57548000  0.69800000  0.98494000  1.0
  H  H62  1  0.42305000  0.08922000  0.23675000  1.0
  H  H63  1  0.31724000  0.03021000  0.21192000  1.0
  H  H64  1  0.10357000  0.10978000  0.27434000  1.0
  H  H65  1  0.97476000  0.05797000  0.24408000  1.0
  H  H66  1  0.18224000  0.99172000  0.28753000  1.0
  H  H67  1  0.06160000  0.03374000  0.32773000  1.0
  H  H68  1  0.32272000  0.04264000  0.31676000  1.0
  H  H69  1  0.92421000  0.75382000  0.92925000  1.0
  H  H70  1  0.81851000  0.80552000  0.96218000  1.0
  H  H71  1  0.19030000  0.81434000  0.89943000  1.0
  H  H72  1  0.09753000  0.86609000  0.93344000  1.0
  H  H73  1  0.16617000  0.81290000  0.00735000  1.0
  H  H74  1  0.38936000  0.82513000  0.97532000  1.0
  H  H75  1  0.26778000  0.76274000  0.97186000  1.0
  H  H76  1  0.66798000  0.50764000  0.89176000  1.0
  H  H77  1  0.61576000  0.44806000  0.92165000  1.0
  H  H78  1  0.78545000  0.45601000  0.82290000  1.0
  H  H79  1  0.73932000  0.39720000  0.85317000  1.0
  H  H80  1  0.36394000  0.41991000  0.85716000  1.0
  H  H81  1  0.44614000  0.41567000  0.79858000  1.0
  H  H82  1  0.41360000  0.47772000  0.82514000  1.0
  H  H83  1  0.36822000  0.54529000  0.08233000  1.0
  H  H84  1  0.30767000  0.48778000  0.11446000  1.0
  H  H85  1  0.24718000  0.60083000  0.14787000  1.0
  H  H86  1  0.18809000  0.54433000  0.18032000  1.0
  H  H87  1  0.55626000  0.51901000  0.18236000  1.0
  H  H88  1  0.52952000  0.58301000  0.20534000  1.0
  H  H89  1  0.61960000  0.57408000  0.14786000  1.0
  H  H90  1  0.52506000  0.68482000  0.77251000  1.0
  H  H91  1  0.47842000  0.31664000  0.23975000  1.0
  H  H92  1  0.02564000  0.80910000  0.77174000  1.0
  H  H93  1  0.96776000  0.19000000  0.22740000  1.0
  C  C94  1  0.51341000  0.80865000  0.68579000  1.0
  C  C95  1  0.48440000  0.18531000  0.31510000  1.0
  C  C96  1  0.53168000  0.81219000  0.81159000  1.0
  C  C97  1  0.46108000  0.18985000  0.18886000  1.0
  C  C98  1  0.02000000  0.68050000  0.81077000  1.0
  C  C99  1  0.96809000  0.31608000  0.19362000  1.0
  C  C100  1  0.01001000  0.68416000  0.68437000  1.0
  C  C101  1  0.99423000  0.31122000  0.32016000  1.0
  C  C102  1  0.83168000  0.62180000  0.62561000  1.0
  C  C103  1  0.18734000  0.36651000  0.38242000  1.0
  C  C104  1  0.84119000  0.59138000  0.58503000  1.0
  C  C105  1  0.18738000  0.40867000  0.41380000  1.0
  C  C106  1  0.02512000  0.58425000  0.56245000  1.0
  C  C107  1  0.01007000  0.43627000  0.42240000  1.0
  C  C108  1  0.20323000  0.60825000  0.58077000  1.0
  C  C109  1  0.82758000  0.42063000  0.39966000  1.0
  C  C110  1  0.19265000  0.63983000  0.62036000  1.0
  C  C111  1  0.82757000  0.37912000  0.36804000  1.0
  C  C112  1  0.00919000  0.64755000  0.64345000  1.0
  C  C113  1  0.00497000  0.35152000  0.35820000  1.0
  C  C114  1  0.01840000  0.48118000  0.45483000  1.0
  C  C115  1  0.02700000  0.55102000  0.52041000  1.0
  C  C116  1  0.86439000  0.64244000  0.88419000  1.0
  C  C117  1  0.08020000  0.34467000  0.11344000  1.0
  C  C118  1  0.86971000  0.60854000  0.92208000  1.0
  C  C119  1  0.07698000  0.37918000  0.07609000  1.0
  C  C120  1  0.01820000  0.57030000  0.92536000  1.0
  C  C121  1  0.96218000  0.42473000  0.07838000  1.0
  C  C122  1  0.16164000  0.56637000  0.89030000  1.0
  C  C123  1  0.84873000  0.43481000  0.11823000  1.0
  C  C124  1  0.16032000  0.60176000  0.85360000  1.0
  C  C125  1  0.85035000  0.39937000  0.15490000  1.0
  C  C126  1  0.01400000  0.64136000  0.84956000  1.0
  C  C127  1  0.96685000  0.35376000  0.15375000  1.0
  C  C128  1  0.95605000  0.48081000  0.95576000  1.0
  C  C129  1  0.02606000  0.51470000  0.04811000  1.0
  C  C130  1  0.93141000  0.44547000  0.99265000  1.0
  C  C131  1  0.05095000  0.54997000  0.01114000  1.0
  C  C132  1  0.96832000  0.46217000  0.03923000  1.0
  C  C133  1  0.01387000  0.53314000  0.96478000  1.0
  C  C134  1  0.65959000  0.11841000  0.36386000  1.0
  C  C135  1  0.32788000  0.87392000  0.63685000  1.0
  C  C136  1  0.65865000  0.08130000  0.39900000  1.0
  C  C137  1  0.32367000  0.91060000  0.60128000  1.0
  C  C138  1  0.48300000  0.07153000  0.42490000  1.0
  C  C139  1  0.49624000  0.92045000  0.57441000  1.0
  C  C140  1  0.30682000  0.09959000  0.41360000  1.0
  C  C141  1  0.67390000  0.89251000  0.58461000  1.0
  C  C142  1  0.30552000  0.13575000  0.37762000  1.0
  C  C143  1  0.67989000  0.85649000  0.62065000  1.0
  C  C144  1  0.48261000  0.14577000  0.35281000  1.0
  C  C145  1  0.50655000  0.84687000  0.64695000  1.0
  C  C146  1  0.31239000  0.00257000  0.47288000  1.0
  C  C147  1  0.66436000  0.98974000  0.52663000  1.0
  C  C148  1  0.31575000  0.96632000  0.50880000  1.0
  C  C149  1  0.66105000  0.02594000  0.49072000  1.0
  C  C150  1  0.49183000  0.95906000  0.53645000  1.0
  C  C151  1  0.48510000  0.03313000  0.46300000  1.0
  C  C152  1  0.58658000  0.16054000  0.10966000  1.0
  C  C153  1  0.39905000  0.89556000  0.84766000  1.0
  C  C154  1  0.59290000  0.12419000  0.07322000  1.0
  C  C155  1  0.39154000  0.93226000  0.88391000  1.0
  C  C156  1  0.47543000  0.07803000  0.07441000  1.0
  C  C157  1  0.52509000  0.92833000  0.92229000  1.0
  C  C158  1  0.34690000  0.07014000  0.11225000  1.0
  C  C159  1  0.66673000  0.88813000  0.92381000  1.0
  C  C160  1  0.33751000  0.10716000  0.14823000  1.0
  C  C161  1  0.67008000  0.85043000  0.88800000  1.0
  C  C162  1  0.46117000  0.15270000  0.14814000  1.0
  C  C163  1  0.53486000  0.85377000  0.84882000  1.0
  C  C164  1  0.31783000  0.00917000  0.02134000  1.0
  C  C165  1  0.68490000  0.99539000  0.97664000  1.0
  C  C166  1  0.33006000  0.97364000  0.98438000  1.0
  C  C167  1  0.67174000  0.03156000  0.01305000  1.0
  C  C168  1  0.51372000  0.96617000  0.96146000  1.0
  C  C169  1  0.48804000  0.03919000  0.03609000  1.0
  C  C170  1  0.61552000  0.59817000  0.68848000  1.0
  C  C171  1  0.60709000  0.53916000  0.68053000  1.0
  C  C172  1  0.56250000  0.50966000  0.72540000  1.0
  C  C173  1  0.40615000  0.29224000  0.39174000  1.0
  C  C174  1  0.47388000  0.29304000  0.44295000  1.0
  C  C175  1  0.52096000  0.23808000  0.46030000  1.0
  C  C176  1  0.67766000  0.37708000  0.99557000  1.0
  C  C177  1  0.61511000  0.33064000  0.96487000  1.0
  C  C178  1  0.40271000  0.31025000  0.97597000  1.0
  C  C179  1  0.30263000  0.61841000  0.00658000  1.0
  C  C180  1  0.36903000  0.66535000  0.03624000  1.0
  C  C181  1  0.57609000  0.68684000  0.02198000  1.0
  C  C182  1  0.28112000  0.07037000  0.22340000  1.0
  C  C183  1  0.12072000  0.06975000  0.26069000  1.0
  C  C184  1  0.17517000  0.03237000  0.30025000  1.0
  C  C185  1  0.90683000  0.79646000  0.93085000  1.0
  C  C186  1  0.11395000  0.82335000  0.93227000  1.0
  C  C187  1  0.24115000  0.80505000  0.97406000  1.0
  C  C188  1  0.71208000  0.46623000  0.89501000  1.0
  C  C189  1  0.68648000  0.43752000  0.84870000  1.0
  C  C190  1  0.46536000  0.43771000  0.83154000  1.0
  C  C191  1  0.26846000  0.52927000  0.10938000  1.0
  C  C192  1  0.29326000  0.56032000  0.15452000  1.0
  C  C193  1  0.51161000  0.55901000  0.17346000  1.0
  N  N194  1  0.20641000  0.53266000  0.50575000  1.0
  N  N195  1  0.84579000  0.50741000  0.46287000  1.0
  N  N196  1  0.20239000  0.49738000  0.47195000  1.0
  N  N197  1  0.85020000  0.54346000  0.49603000  1.0
  Cl  Cl198  1  0.73175000  0.21718000  0.10494000  1.0
  Cl  Cl199  1  0.23492000  0.90482000  0.80036000  1.0
  Cl  Cl200  1  0.66486000  0.68561000  0.88223000  1.0
  Cl  Cl201  1  0.22495000  0.28914000  0.10828000  1.0
  Cl  Cl202  1  0.34030000  0.59217000  0.81118000  1.0
  Cl  Cl203  1  0.71008000  0.41439000  0.20377000  1.0
  O  O204  1  0.35753000  0.79435000  0.79924000  1.0
  O  O205  1  0.63171000  0.19886000  0.20913000  1.0
  O  O206  1  0.68765000  0.79454000  0.70027000  1.0
  O  O207  1  0.31475000  0.19683000  0.29615000  1.0
  O  O208  1  0.84160000  0.70198000  0.69741000  1.0
  O  O209  1  0.15856000  0.29073000  0.30731000  1.0
  O  O210  1  0.70023000  0.79816000  0.79529000  1.0
  O  O211  1  0.29165000  0.20813000  0.20057000  1.0
  O  O212  1  0.85176000  0.69252000  0.79173000  1.0
  O  O213  1  0.13877000  0.30631000  0.21268000  1.0
  O  O214  1  0.34516000  0.79325000  0.70225000  1.0
  O  O215  1  0.65612000  0.20459000  0.30441000  1.0
  O  O216  1  0.51942000  0.71406000  0.75112000  1.0
  O  O217  1  0.47823000  0.28277000  0.25478000  1.0
  O  O218  1  0.19339000  0.69841000  0.80031000  1.0
  O  O219  1  0.79687000  0.29748000  0.20487000  1.0
  O  O220  1  0.18165000  0.69563000  0.70360000  1.0
  O  O221  1  0.82061000  0.30066000  0.30151000  1.0
  O  O222  1  0.02276000  0.77816000  0.75175000  1.0
  O  O223  1  0.97405000  0.21778000  0.25085000  1.0
  O  O224  1  0.64491000  0.62588000  0.64530000  1.0
  O  O225  1  0.37172000  0.34458000  0.37488000  1.0
  O  O226  1  0.87652000  0.39483000  0.98110000  1.0
  O  O227  1  0.10575000  0.60082000  0.02225000  1.0
  O  O228  1  0.20321000  0.09917000  0.18380000  1.0
  O  O229  1  0.79008000  0.80790000  0.88923000  1.0
  O  O230  1  0.92227000  0.46422000  0.91029000  1.0
  O  O231  1  0.05944000  0.53213000  0.09330000  1.0
