# generated using pymatgen
data_Zn2H34C41(NO3)4
_symmetry_space_group_name_H-M   'P 1'
_cell_length_a   14.69280000
_cell_length_b   16.08740000
_cell_length_c   16.08920000
_cell_angle_alpha   89.70910000
_cell_angle_beta   89.48460000
_cell_angle_gamma   89.33710000
_symmetry_Int_Tables_number   1
_chemical_formula_structural   Zn2H34C41(NO3)4
_chemical_formula_sum   'Zn2 H34 C41 N4 O12'
_cell_volume   3802.53190570
_cell_formula_units_Z   1
loop_
 _symmetry_equiv_pos_site_id
 _symmetry_equiv_pos_as_xyz
  1  'x, y, z'
loop_
 _atom_site_type_symbol
 _atom_site_label
 _atom_site_symmetry_multiplicity
 _atom_site_fract_x
 _atom_site_fract_y
 _atom_site_fract_z
 _atom_site_occupancy
  Zn  Zn0  1  0.59575000  0.49892000  0.49939000  1.0
  Zn  Zn1  1  0.40342000  0.50052000  0.50033000  1.0
  H  H2  1  0.50103000  0.05343000  0.36020000  1.0
  H  H3  1  0.63586000  0.94705000  0.42979000  1.0
  H  H4  1  0.36382000  0.95170000  0.43084000  1.0
  H  H5  1  0.36375000  0.05209000  0.57588000  1.0
  H  H6  1  0.63609000  0.04741000  0.57482000  1.0
  H  H7  1  0.64495000  0.53906000  0.92526000  1.0
  H  H8  1  0.64604000  0.53854000  0.07048000  1.0
  H  H9  1  0.38903000  0.59167000  0.07114000  1.0
  H  H10  1  0.38797000  0.59157000  0.93088000  1.0
  H  H11  1  0.46802000  0.37692000  0.07377000  1.0
  H  H12  1  0.37257000  0.44434000  0.07493000  1.0
  H  H13  1  0.46725000  0.37702000  0.92796000  1.0
  H  H14  1  0.62389000  0.43077000  0.07121000  1.0
  H  H15  1  0.62326000  0.43122000  0.92566000  1.0
  H  H16  1  0.37173000  0.44433000  0.92870000  1.0
  H  H17  1  0.92161000  0.52436000  0.36687000  1.0
  H  H18  1  0.08050000  0.52539000  0.36768000  1.0
  H  H19  1  0.07573000  0.60310000  0.58760000  1.0
  H  H20  1  0.07687000  0.63441000  0.48226000  1.0
  H  H21  1  0.91795000  0.63356000  0.48133000  1.0
  H  H22  1  0.91682000  0.60243000  0.58673000  1.0
  H  H23  1  0.08070000  0.37346000  0.54598000  1.0
  H  H24  1  0.07801000  0.44905000  0.62522000  1.0
  H  H25  1  0.92180000  0.37264000  0.54517000  1.0
  H  H26  1  0.08220000  0.41862000  0.39371000  1.0
  H  H27  1  0.92334000  0.41764000  0.39311000  1.0
  H  H28  1  0.91914000  0.44816000  0.62447000  1.0
  H  H29  1  0.43740000  0.92916000  0.83606000  1.0
  H  H30  1  0.55771000  0.92727000  0.83573000  1.0
  H  H31  1  0.49790000  0.01677000  0.87190000  1.0
  H  H32  1  0.55902000  0.04281000  0.72793000  1.0
  H  H33  1  0.43921000  0.04497000  0.72832000  1.0
  H  H34  1  0.43814000  0.89653000  0.67808000  1.0
  H  H35  1  0.55791000  0.89431000  0.67767000  1.0
  C  C36  1  0.49904000  0.50202000  0.33754000  1.0
  C  C37  1  0.50188000  0.33825000  0.50037000  1.0
  C  C38  1  0.49749000  0.50039000  0.66226000  1.0
  C  C39  1  0.49952000  0.66099000  0.50095000  1.0
  C  C40  1  0.57562000  0.97123000  0.46240000  1.0
  C  C41  1  0.50051000  0.02848000  0.42354000  1.0
  C  C42  1  0.50163000  0.24855000  0.50192000  1.0
  C  C43  1  0.49910000  0.75058000  0.50179000  1.0
  C  C44  1  0.57570000  0.02531000  0.54273000  1.0
  C  C45  1  0.50057000  0.08490000  0.50422000  1.0
  C  C46  1  0.49923000  0.97034000  0.58287000  1.0
  C  C47  1  0.49922000  0.91412000  0.50120000  1.0
  C  C48  1  0.42409000  0.02793000  0.54330000  1.0
  C  C49  1  0.42411000  0.97378000  0.46298000  1.0
  C  C50  1  0.50122000  0.17279000  0.50343000  1.0
  C  C51  1  0.49887000  0.82634000  0.50132000  1.0
  C  C52  1  0.60063000  0.49109000  0.04655000  1.0
  C  C53  1  0.45943000  0.58793000  0.04852000  1.0
  C  C54  1  0.45873000  0.58793000  0.95142000  1.0
  C  C55  1  0.49805000  0.50343000  0.75244000  1.0
  C  C56  1  0.50350000  0.50624000  0.08165000  1.0
  C  C57  1  0.60005000  0.49132000  0.95063000  1.0
  C  C58  1  0.50248000  0.50635000  0.91794000  1.0
  C  C59  1  0.44095000  0.43607000  0.95292000  1.0
  C  C60  1  0.44150000  0.43603000  0.04901000  1.0
  C  C61  1  0.50011000  0.50586000  0.82779000  1.0
  C  C62  1  0.50203000  0.50610000  0.17187000  1.0
  C  C63  1  0.50013000  0.50445000  0.24730000  1.0
  C  C64  1  0.05392000  0.47936000  0.41198000  1.0
  C  C65  1  0.05021000  0.58761000  0.52572000  1.0
  C  C66  1  0.94490000  0.58711000  0.52515000  1.0
  C  C67  1  0.08723000  0.50068000  0.50042000  1.0
  C  C68  1  0.94865000  0.47874000  0.41151000  1.0
  C  C69  1  0.91189000  0.49979000  0.49960000  1.0
  C  C70  1  0.94718000  0.43400000  0.56260000  1.0
  C  C71  1  0.05244000  0.43455000  0.56310000  1.0
  C  C72  1  0.81328000  0.49922000  0.49921000  1.0
  C  C73  1  0.18583000  0.50093000  0.50073000  1.0
  C  C74  1  0.49846000  0.93611000  0.66974000  1.0
  C  C75  1  0.49870000  0.00350000  0.73679000  1.0
  C  C76  1  0.49787000  0.96741000  0.82489000  1.0
  N  N77  1  0.73449000  0.49859000  0.49895000  1.0
  N  N78  1  0.26463000  0.50082000  0.50086000  1.0
  N  N79  1  0.50059000  0.66657000  0.08514000  1.0
  N  N80  1  0.49895000  0.66687000  0.91295000  1.0
  O  O81  1  0.57644000  0.49999000  0.37223000  1.0
  O  O82  1  0.42099000  0.50200000  0.37233000  1.0
  O  O83  1  0.57956000  0.37274000  0.49937000  1.0
  O  O84  1  0.42423000  0.37460000  0.50021000  1.0
  O  O85  1  0.57516000  0.49794000  0.62684000  1.0
  O  O86  1  0.41971000  0.50041000  0.62826000  1.0
  O  O87  1  0.57733000  0.62499000  0.50035000  1.0
  O  O88  1  0.42202000  0.62605000  0.50078000  1.0
  O  O89  1  0.58410000  0.67128000  0.09001000  1.0
  O  O90  1  0.44511000  0.72045000  0.10760000  1.0
  O  O91  1  0.44294000  0.72140000  0.89359000  1.0
  O  O92  1  0.58215000  0.67127000  0.90373000  1.0
