# generated using pymatgen
data_SrH16C14(NO3)2
_symmetry_space_group_name_H-M   'P 1'
_cell_length_a   6.78139000
_cell_length_b   7.45362000
_cell_length_c   16.26520000
_cell_angle_alpha   103.23300000
_cell_angle_beta   98.29090000
_cell_angle_gamma   90.02640000
_symmetry_Int_Tables_number   1
_chemical_formula_structural   SrH16C14(NO3)2
_chemical_formula_sum   'Sr2 H32 C28 N4 O12'
_cell_volume   791.46670308
_cell_formula_units_Z   2
loop_
 _symmetry_equiv_pos_site_id
 _symmetry_equiv_pos_as_xyz
  1  'x, y, z'
loop_
 _atom_site_type_symbol
 _atom_site_label
 _atom_site_symmetry_multiplicity
 _atom_site_fract_x
 _atom_site_fract_y
 _atom_site_fract_z
 _atom_site_occupancy
  Sr  Sr0  1  0.72897000  0.42604000  0.94151000  1.0
  Sr  Sr1  1  0.27059000  0.48385000  0.05855000  1.0
  H  H2  1  0.96722000  0.57649000  0.66218000  1.0
  H  H3  1  0.03206000  0.91451000  0.33784000  1.0
  H  H4  1  0.88713000  0.60977000  0.76171000  1.0
  H  H5  1  0.11183000  0.84833000  0.23828000  1.0
  H  H6  1  0.31987000  0.32114000  0.25756000  1.0
  H  H7  1  0.68012000  0.06372000  0.74211000  1.0
  H  H8  1  0.14243000  0.27766000  0.17019000  1.0
  H  H9  1  0.85686000  0.10800000  0.82973000  1.0
  H  H10  1  0.76282000  0.65684000  0.54377000  1.0
  H  H11  1  0.23712000  0.11300000  0.45623000  1.0
  H  H12  1  0.46927000  0.74247000  0.94871000  1.0
  H  H13  1  0.52949000  0.79371000  0.05111000  1.0
  H  H14  1  0.45068000  0.78789000  0.48803000  1.0
  H  H15  1  0.54973000  0.29931000  0.51186000  1.0
  H  H16  1  0.20037000  0.90696000  0.58513000  1.0
  H  H17  1  0.79975000  0.32137000  0.41460000  1.0
  H  H18  1  0.26278000  0.87636000  0.73558000  1.0
  H  H19  1  0.73675000  0.14041000  0.26414000  1.0
  H  H20  1  0.61537000  0.99779000  0.93129000  1.0
  H  H21  1  0.38442000  0.06611000  0.06856000  1.0
  H  H22  1  0.74694000  0.08790000  0.01996000  1.0
  H  H23  1  0.25447000  0.06773000  0.97963000  1.0
  H  H24  1  0.27219000  0.49786000  0.38986000  1.0
  H  H25  1  0.72869000  0.10860000  0.60992000  1.0
  H  H26  1  0.05154000  0.68874000  0.47926000  1.0
  H  H27  1  0.94989000  0.21056000  0.52086000  1.0
  H  H28  1  0.71539000  0.77188000  0.41340000  1.0
  H  H29  1  0.28632000  0.35909000  0.58705000  1.0
  H  H30  1  0.60464000  0.64629000  0.25793000  1.0
  H  H31  1  0.39619000  0.38827000  0.74255000  1.0
  H  H32  1  0.06513000  0.82405000  0.04632000  1.0
  H  H33  1  0.93568000  0.77951000  0.95440000  1.0
  C  C34  1  0.57511000  0.74549000  0.81728000  1.0
  C  C35  1  0.42428000  0.92790000  0.18263000  1.0
  C  C36  1  0.54733000  0.75539000  0.72631000  1.0
  C  C37  1  0.45220000  0.02872000  0.27359000  1.0
  C  C38  1  0.69543000  0.69551000  0.67240000  1.0
  C  C39  1  0.30416000  0.02291000  0.32757000  1.0
  C  C40  1  0.65250000  0.70536000  0.58568000  1.0
  C  C41  1  0.34743000  0.11934000  0.41428000  1.0
  C  C42  1  0.47705000  0.77852000  0.55468000  1.0
  C  C43  1  0.52306000  0.22338000  0.44523000  1.0
  C  C44  1  0.33506000  0.84350000  0.60832000  1.0
  C  C45  1  0.66493000  0.23471000  0.39151000  1.0
  C  C46  1  0.37109000  0.82939000  0.69272000  1.0
  C  C47  1  0.62859000  0.13629000  0.30710000  1.0
  C  C48  1  0.80340000  0.45142000  0.14175000  1.0
  C  C49  1  0.19625000  0.30970000  0.85845000  1.0
  C  C50  1  0.87669000  0.51093000  0.23506000  1.0
  C  C51  1  0.12353000  0.27602000  0.76508000  1.0
  C  C52  1  0.06969000  0.46919000  0.27179000  1.0
  C  C53  1  0.93051000  0.19771000  0.72815000  1.0
  C  C54  1  0.12658000  0.53329000  0.36073000  1.0
  C  C55  1  0.87420000  0.17309000  0.63922000  1.0
  C  C56  1  0.00113000  0.64035000  0.41093000  1.0
  C  C57  1  0.00005000  0.23019000  0.58921000  1.0
  C  C58  1  0.81291000  0.68554000  0.37458000  1.0
  C  C59  1  0.18834000  0.31153000  0.62574000  1.0
  C  C60  1  0.75184000  0.61703000  0.28763000  1.0
  C  C61  1  0.24895000  0.32961000  0.71270000  1.0
  N  N62  1  0.87643000  0.64044000  0.70335000  1.0
  N  N63  1  0.12297000  0.93715000  0.29669000  1.0
  N  N64  1  0.20454000  0.37223000  0.22334000  1.0
  N  N65  1  0.79531000  0.14910000  0.77642000  1.0
  O  O66  1  0.61788000  0.44594000  0.11487000  1.0
  O  O67  1  0.38174000  0.33053000  0.88556000  1.0
  O  O68  1  0.93087000  0.40949000  0.08961000  1.0
  O  O69  1  0.06831000  0.32031000  0.91042000  1.0
  O  O70  1  0.71985000  0.65414000  0.84571000  1.0
  O  O71  1  0.27936000  0.80819000  0.15420000  1.0
  O  O72  1  0.45366000  0.83147000  0.86541000  1.0
  O  O73  1  0.54571000  0.96582000  0.13448000  1.0
  O  O74  1  0.49930000  0.68658000  0.99992000  1.0
  O  O75  1  0.72894000  0.08610000  0.95931000  1.0
  O  O76  1  0.27080000  0.12592000  0.04033000  1.0
  O  O77  1  0.99937000  0.72437000  0.00027000  1.0
