# generated using pymatgen
data_Zr3H18(C15O8)2
_symmetry_space_group_name_H-M   'P 1'
_cell_length_a   17.40790000
_cell_length_b   17.42510000
_cell_length_c   18.43260000
_cell_angle_alpha   89.84150000
_cell_angle_beta   89.82190000
_cell_angle_gamma   109.52800000
_symmetry_Int_Tables_number   1
_chemical_formula_structural   Zr3H18(C15O8)2
_chemical_formula_sum   'Zr6 H36 C60 O32'
_cell_volume   5269.55521223
_cell_formula_units_Z   2
loop_
 _symmetry_equiv_pos_site_id
 _symmetry_equiv_pos_as_xyz
  1  'x, y, z'
loop_
 _atom_site_type_symbol
 _atom_site_label
 _atom_site_symmetry_multiplicity
 _atom_site_fract_x
 _atom_site_fract_y
 _atom_site_fract_z
 _atom_site_occupancy
  Zr  Zr0  1  0.88297000  0.89549000  0.09065000  1.0
  Zr  Zr1  1  0.89383000  0.90789000  0.89703000  1.0
  Zr  Zr2  1  0.05877000  0.07290000  0.10182000  1.0
  Zr  Zr3  1  0.07145000  0.08297000  0.90887000  1.0
  Zr  Zr4  1  0.06488000  0.90222000  0.99992000  1.0
  Zr  Zr5  1  0.88850000  0.07740000  0.99960000  1.0
  H  H6  1  0.76676000  0.91538000  0.99397000  1.0
  H  H7  1  0.05301000  0.92836000  0.84654000  1.0
  H  H8  1  0.05059000  0.19937000  0.00469000  1.0
  H  H9  1  0.04154000  0.91720000  0.15306000  1.0
  H  H10  1  0.92680000  0.88750000  0.75533000  1.0
  H  H11  1  0.99310000  0.00710000  0.78059000  1.0
  H  H12  1  0.22217000  0.18782000  0.91562000  1.0
  H  H13  1  0.17806000  0.18797000  0.01860000  1.0
  H  H14  1  0.02438000  0.08746000  0.24007000  1.0
  H  H15  1  0.95806000  0.97125000  0.21888000  1.0
  H  H16  1  0.78192000  0.74265000  0.08195000  1.0
  H  H17  1  0.78056000  0.78752000  0.98066000  1.0
  H  H18  1  0.21787000  0.16849000  0.09423000  1.0
  H  H19  1  0.91468000  0.87374000  0.23893000  1.0
  H  H20  1  0.79827000  0.74779000  0.90381000  1.0
  H  H21  1  0.03028000  0.10595000  0.77000000  1.0
  H  H22  1  0.60112000  0.99231000  0.33247000  1.0
  H  H23  1  0.35225000  0.98942000  0.33113000  1.0
  H  H24  1  0.47859000  0.99030000  0.12935000  1.0
  H  H25  1  0.60286000  0.99567000  0.66409000  1.0
  H  H26  1  0.35385000  0.99228000  0.66933000  1.0
  H  H27  1  0.48376000  0.99723000  0.86907000  1.0
  H  H28  1  0.97007000  0.48273000  0.13039000  1.0
  H  H29  1  0.96754000  0.61013000  0.33026000  1.0
  H  H30  1  0.97168000  0.36403000  0.33559000  1.0
  H  H31  1  0.97541000  0.48788000  0.86969000  1.0
  H  H32  1  0.97051000  0.61269000  0.66825000  1.0
  H  H33  1  0.97181000  0.36557000  0.66613000  1.0
  H  H34  1  0.89079000  0.36391000  0.56798000  1.0
  H  H35  1  0.04807000  0.61448000  0.56567000  1.0
  H  H36  1  0.04766000  0.61371000  0.43203000  1.0
  H  H37  1  0.89043000  0.36314000  0.43441000  1.0
  H  H38  1  0.55327000  0.91724000  0.56632000  1.0
  H  H39  1  0.39980000  0.06682000  0.56561000  1.0
  H  H40  1  0.39934000  0.06572000  0.43223000  1.0
  H  H41  1  0.55282000  0.91614000  0.43303000  1.0
  C  C42  1  0.97111000  0.75808000  0.11546000  1.0
  C  C43  1  0.75942000  0.99905000  0.87267000  1.0
  C  C44  1  0.98004000  0.76532000  0.87910000  1.0
  C  C45  1  0.75281000  0.99109000  0.11992000  1.0
  C  C46  1  0.96777000  0.20674000  0.12791000  1.0
  C  C47  1  0.20965000  0.99614000  0.88633000  1.0
  C  C48  1  0.97391000  0.21332000  0.87783000  1.0
  C  C49  1  0.20223000  0.98809000  0.11943000  1.0
  C  C50  1  0.54745000  0.99073000  0.22716000  1.0
  C  C51  1  0.54612000  0.99064000  0.30351000  1.0
  C  C52  1  0.47654000  0.99076000  0.34197000  1.0
  C  C53  1  0.40768000  0.99081000  0.30272000  1.0
  C  C54  1  0.40784000  0.99039000  0.22632000  1.0
  C  C55  1  0.47799000  0.99044000  0.18841000  1.0
  C  C56  1  0.55112000  0.99617000  0.77027000  1.0
  C  C57  1  0.54838000  0.99453000  0.69398000  1.0
  C  C58  1  0.47807000  0.99364000  0.65661000  1.0
  C  C59  1  0.40981000  0.99434000  0.69690000  1.0
  C  C60  1  0.41135000  0.99540000  0.77330000  1.0
  C  C61  1  0.48224000  0.99634000  0.81006000  1.0
  C  C62  1  0.96940000  0.41498000  0.22929000  1.0
  C  C63  1  0.96993000  0.48399000  0.18942000  1.0
  C  C64  1  0.97027000  0.55466000  0.22617000  1.0
  C  C65  1  0.96944000  0.55560000  0.30257000  1.0
  C  C66  1  0.96944000  0.48725000  0.34289000  1.0
  C  C67  1  0.96984000  0.41738000  0.30562000  1.0
  C  C68  1  0.97202000  0.41833000  0.77172000  1.0
  C  C69  1  0.97408000  0.48820000  0.81064000  1.0
  C  C70  1  0.97457000  0.55853000  0.77291000  1.0
  C  C71  1  0.97224000  0.55830000  0.69654000  1.0
  C  C72  1  0.97077000  0.48910000  0.65719000  1.0
  C  C73  1  0.97100000  0.41952000  0.69540000  1.0
  C  C74  1  0.92626000  0.41866000  0.53840000  1.0
  C  C75  1  0.96953000  0.48924000  0.57700000  1.0
  C  C76  1  0.01217000  0.55951000  0.53711000  1.0
  C  C77  1  0.01193000  0.55908000  0.46162000  1.0
  C  C78  1  0.96905000  0.48837000  0.42307000  1.0
  C  C79  1  0.92605000  0.41822000  0.46296000  1.0
  C  C80  1  0.52022000  0.95095000  0.53722000  1.0
  C  C81  1  0.47665000  0.99222000  0.57638000  1.0
  C  C82  1  0.43250000  0.03249000  0.53685000  1.0
  C  C83  1  0.43225000  0.03186000  0.46134000  1.0
  C  C84  1  0.47611000  0.99091000  0.42220000  1.0
  C  C85  1  0.51996000  0.95032000  0.46177000  1.0
  C  C86  1  0.34147000  0.99545000  0.81321000  1.0
  C  C87  1  0.28176000  0.99587000  0.84762000  1.0
  C  C88  1  0.62363000  0.99797000  0.80622000  1.0
  C  C89  1  0.68649000  0.99932000  0.83583000  1.0
  C  C90  1  0.33698000  0.98961000  0.18801000  1.0
  C  C91  1  0.27577000  0.98906000  0.15586000  1.0
  C  C92  1  0.68084000  0.99185000  0.15851000  1.0
  C  C93  1  0.61902000  0.99141000  0.18981000  1.0
  C  C94  1  0.97246000  0.28505000  0.83939000  1.0
  C  C95  1  0.97216000  0.34690000  0.80869000  1.0
  C  C96  1  0.97672000  0.62973000  0.81125000  1.0
  C  C97  1  0.97873000  0.69147000  0.84318000  1.0
  C  C98  1  0.96807000  0.27986000  0.16455000  1.0
  C  C99  1  0.96893000  0.34282000  0.19358000  1.0
  C  C100  1  0.97052000  0.62482000  0.18668000  1.0
  C  C101  1  0.97090000  0.68541000  0.15335000  1.0
  O  O102  1  0.91336000  0.78532000  0.13198000  1.0
  O  O103  1  0.02850000  0.78896000  0.07021000  1.0
  O  O104  1  0.78866000  0.94402000  0.85457000  1.0
  O  O105  1  0.78717000  0.05378000  0.92100000  1.0
  O  O106  1  0.92354000  0.79358000  0.86146000  1.0
  O  O107  1  0.03730000  0.79613000  0.92411000  1.0
  O  O108  1  0.78060000  0.93438000  0.13580000  1.0
  O  O109  1  0.78113000  0.04724000  0.07244000  1.0
  O  O110  1  0.78212000  0.79326000  0.05948000  1.0
  O  O111  1  0.90536000  0.91839000  0.21290000  1.0
  O  O112  1  0.78608000  0.79448000  0.92307000  1.0
  O  O113  1  0.92117000  0.93116000  0.78514000  1.0
  O  O114  1  0.94122000  0.87980000  0.99577000  1.0
  O  O115  1  0.82592000  0.93665000  0.99466000  1.0
  O  O116  1  0.02137000  0.17572000  0.14774000  1.0
  O  O117  1  0.91469000  0.18045000  0.07839000  1.0
  O  O118  1  0.18369000  0.05501000  0.87205000  1.0
  O  O119  1  0.17789000  0.93744000  0.93036000  1.0
  O  O120  1  0.02874000  0.18349000  0.85908000  1.0
  O  O121  1  0.92080000  0.18705000  0.92784000  1.0
  O  O122  1  0.17528000  0.04599000  0.13448000  1.0
  O  O123  1  0.17021000  0.92905000  0.07620000  1.0
  O  O124  1  0.17165000  0.18228000  0.07578000  1.0
  O  O125  1  0.03211000  0.04250000  0.21334000  1.0
  O  O126  1  0.17127000  0.18663000  0.93834000  1.0
  O  O127  1  0.04495000  0.05974000  0.78730000  1.0
  O  O128  1  0.02953000  0.14024000  0.00452000  1.0
  O  O129  1  0.08671000  0.02551000  0.00360000  1.0
  O  O130  1  0.93577000  0.02253000  0.07894000  1.0
  O  O131  1  0.03266000  0.94611000  0.89017000  1.0
  O  O132  1  0.02190000  0.93600000  0.10961000  1.0
  O  O133  1  0.94333000  0.03016000  0.91971000  1.0
