# generated using pymatgen
data_Ni2H26C19(NO5)2
_symmetry_space_group_name_H-M   'P 1'
_cell_length_a   8.36732000
_cell_length_b   16.99670000
_cell_length_c   17.00392168
_cell_angle_alpha   117.34136748
_cell_angle_beta   99.42899992
_cell_angle_gamma   99.41620000
_symmetry_Int_Tables_number   1
_chemical_formula_structural   Ni2H26C19(NO5)2
_chemical_formula_sum   'Ni6 H78 C57 N6 O30'
_cell_volume   2038.83347969
_cell_formula_units_Z   3
loop_
 _symmetry_equiv_pos_site_id
 _symmetry_equiv_pos_as_xyz
  1  'x, y, z'
loop_
 _atom_site_type_symbol
 _atom_site_label
 _atom_site_symmetry_multiplicity
 _atom_site_fract_x
 _atom_site_fract_y
 _atom_site_fract_z
 _atom_site_occupancy
  Ni  Ni0  1  0.02531000  0.21596000  0.06082000  1.0
  Ni  Ni1  1  0.96394000  0.93871000  0.15488000  1.0
  Ni  Ni2  1  0.80936000  0.84514000  0.78385000  1.0
  Ni  Ni3  1  0.34107000  0.78279000  0.93943000  1.0
  Ni  Ni4  1  0.40186000  0.06123000  0.84349000  1.0
  Ni  Ni5  1  0.55783000  0.15627000  0.21707000  1.0
  H  H6  1  0.10005000  0.10084000  0.12179000  1.0
  H  H7  1  0.97786000  0.87785000  0.97887000  1.0
  H  H8  1  0.99917000  0.02105000  0.89887000  1.0
  H  H9  1  0.90664000  0.09471000  0.11338000  1.0
  H  H10  1  0.79278000  0.88622000  0.98087000  1.0
  H  H11  1  0.81215000  0.01920000  0.90511000  1.0
  H  H12  1  0.45590000  0.89716000  0.87849000  1.0
  H  H13  1  0.57724000  0.12185000  0.01884000  1.0
  H  H14  1  0.55831000  0.98132000  0.10265000  1.0
  H  H15  1  0.27392000  0.90673000  0.88741000  1.0
  H  H16  1  0.38587000  0.11233000  0.01899000  1.0
  H  H17  1  0.36682000  0.98083000  0.09319000  1.0
  H  H18  1  0.30091000  0.33410000  0.02400000  1.0
  H  H19  1  0.27653000  0.97575000  0.30985000  1.0
  H  H20  1  0.96798000  0.69042000  0.66646000  1.0
  H  H21  1  0.19330000  0.31186000  0.91332000  1.0
  H  H22  1  0.27986000  0.08671000  0.39799000  1.0
  H  H23  1  0.88321000  0.60199000  0.68911000  1.0
  H  H24  1  0.91954000  0.23119000  0.85595000  1.0
  H  H25  1  0.06327000  0.14402000  0.37445000  1.0
  H  H26  1  0.68975000  0.62550000  0.76983000  1.0
  H  H27  1  0.82441000  0.31312000  0.92185000  1.0
  H  H28  1  0.90246000  0.07837000  0.39090000  1.0
  H  H29  1  0.51260000  0.60884000  0.68767000  1.0
  H  H30  1  0.17893000  0.42026000  0.12060000  1.0
  H  H31  1  0.05809000  0.87933000  0.29975000  1.0
  H  H32  1  0.75962000  0.69980000  0.57979000  1.0
  H  H33  1  0.96529000  0.38976000  0.11172000  1.0
  H  H34  1  0.85340000  0.88835000  0.27806000  1.0
  H  H35  1  0.57651000  0.72182000  0.61023000  1.0
  H  H36  1  0.69067000  0.53936000  0.98432000  1.0
  H  H37  1  0.70568000  0.01524000  0.55483000  1.0
  H  H38  1  0.15183000  0.44526000  0.46061000  1.0
  H  H39  1  0.34728000  0.47790000  0.08163000  1.0
  H  H40  1  0.26577000  0.91866000  0.39637000  1.0
  H  H41  1  0.87095000  0.60282000  0.52286000  1.0
  H  H42  1  0.40681000  0.57724000  0.07288000  1.0
  H  H43  1  0.33470000  0.92807000  0.50465000  1.0
  H  H44  1  0.83220000  0.49429000  0.42451000  1.0
  H  H45  1  0.36012000  0.46728000  0.97462000  1.0
  H  H46  1  0.38508000  0.02605000  0.49234000  1.0
  H  H47  1  0.89322000  0.50699000  0.53498000  1.0
  H  H48  1  0.77265000  0.44689000  0.13205000  1.0
  H  H49  1  0.64072000  0.86797000  0.31480000  1.0
  H  H50  1  0.32739000  0.68541000  0.55379000  1.0
  H  H51  1  0.66727000  0.36156000  0.01696000  1.0
  H  H52  1  0.65022000  0.98319000  0.34466000  1.0
  H  H53  1  0.30701000  0.65532000  0.63899000  1.0
  H  H54  1  0.62018000  0.46899000  0.06519000  1.0
  H  H55  1  0.55485000  0.93476000  0.40373000  1.0
  H  H56  1  0.15250000  0.59652000  0.53168000  1.0
  H  H57  1  0.74143000  0.61835000  0.90995000  1.0
  H  H58  1  0.83064000  0.08949000  0.70810000  1.0
  H  H59  1  0.12302000  0.29188000  0.38070000  1.0
  H  H60  1  0.88735000  0.58867000  0.84317000  1.0
  H  H61  1  0.04329000  0.15631000  0.74551000  1.0
  H  H62  1  0.29766000  0.25411000  0.41021000  1.0
  H  H63  1  0.94691000  0.69257000  0.94871000  1.0
  H  H64  1  0.99727000  0.05050000  0.74334000  1.0
  H  H65  1  0.25493000  0.25669000  0.30680000  1.0
  H  H66  1  0.15532000  0.60544000  0.88089000  1.0
  H  H67  1  0.27373000  0.11924000  0.72420000  1.0
  H  H68  1  0.54918000  0.27501000  0.39421000  1.0
  H  H69  1  0.30808000  0.55991000  0.91615000  1.0
  H  H70  1  0.39119000  0.08397000  0.64339000  1.0
  H  H71  1  0.74781000  0.35534000  0.43971000  1.0
  H  H72  1  0.19504000  0.70366000  0.10280000  1.0
  H  H73  1  0.09243000  0.89707000  0.60110000  1.0
  H  H74  1  0.49073000  0.39882000  0.29596000  1.0
  H  H75  1  0.39007000  0.78829000  0.15111000  1.0
  H  H76  1  0.23989000  0.84924000  0.63773000  1.0
  H  H77  1  0.60158000  0.36258000  0.21149000  1.0
  H  H78  1  0.54959000  0.66143000  0.97132000  1.0
  H  H79  1  0.57805000  0.02918000  0.69033000  1.0
  H  H80  1  0.88774000  0.30974000  0.33835000  1.0
  H  H81  1  0.54880000  0.68592000  0.08541000  1.0
  H  H82  1  0.46420000  0.91506000  0.60068000  1.0
  H  H83  1  0.86252000  0.39920000  0.31357000  1.0
  C  C84  1  0.20588000  0.19271000  0.92767000  1.0
  C  C85  1  0.27770000  0.07176000  0.26427000  1.0
  C  C86  1  0.01417000  0.73567000  0.80779000  1.0
  C  C87  1  0.18910000  0.29082000  0.96547000  1.0
  C  C88  1  0.22333000  0.03435000  0.32492000  1.0
  C  C89  1  0.89949000  0.67509000  0.70978000  1.0
  C  C90  1  0.88478000  0.26024000  0.92113000  1.0
  C  C91  1  0.96342000  0.07884000  0.33864000  1.0
  C  C92  1  0.62556000  0.66127000  0.74040000  1.0
  C  C93  1  0.75344000  0.18225000  0.91530000  1.0
  C  C94  1  0.83757000  0.08436000  0.26637000  1.0
  C  C95  1  0.57179000  0.73356000  0.81811000  1.0
  C  C96  1  0.05364000  0.39698000  0.07316000  1.0
  C  C97  1  0.98028000  0.92690000  0.32379000  1.0
  C  C98  1  0.65761000  0.67601000  0.60333000  1.0
  C  C99  1  0.01919000  0.46297000  0.04035000  1.0
  C  C100  1  0.97864000  0.95989000  0.42257000  1.0
  C  C101  1  0.55718000  0.57718000  0.53767000  1.0
  C  C102  1  0.85615000  0.47638000  0.03125000  1.0
  C  C103  1  0.82461000  0.96875000  0.44506000  1.0
  C  C104  1  0.38066000  0.55488000  0.52402000  1.0
  C  C105  1  0.81680000  0.52939000  0.99187000  1.0
  C  C106  1  0.82444000  0.00797000  0.53738000  1.0
  C  C107  1  0.28802000  0.46262000  0.47079000  1.0
  C  C108  1  0.93154000  0.56937000  0.96065000  1.0
  C  C109  1  0.97036000  0.03922000  0.60855000  1.0
  C  C110  1  0.36254000  0.39131000  0.43059000  1.0
  C  C111  1  0.09741000  0.56077000  0.97445000  1.0
  C  C112  1  0.12254000  0.02562000  0.58616000  1.0
  C  C113  1  0.53710000  0.41349000  0.43949000  1.0
  C  C114  1  0.14132000  0.50924000  0.01626000  1.0
  C  C115  1  0.12486000  0.98409000  0.49292000  1.0
  C  C116  1  0.63295000  0.50666000  0.49152000  1.0
  C  C117  1  0.32234000  0.50736000  0.03723000  1.0
  C  C118  1  0.28517000  0.96337000  0.47013000  1.0
  C  C119  1  0.81633000  0.52911000  0.49407000  1.0
  C  C120  1  0.72291000  0.43617000  0.06292000  1.0
  C  C121  1  0.65981000  0.93708000  0.37319000  1.0
  C  C122  1  0.28798000  0.62691000  0.56441000  1.0
  C  C123  1  0.87408000  0.62010000  0.91363000  1.0
  C  C124  1  0.95964000  0.08585000  0.70620000  1.0
  C  C125  1  0.25400000  0.29370000  0.37920000  1.0
  C  C126  1  0.22339000  0.60329000  0.94041000  1.0
  C  C127  1  0.28251000  0.05972000  0.66263000  1.0
  C  C128  1  0.61989000  0.33671000  0.39656000  1.0
  C  C129  1  0.27987000  0.75074000  0.09043000  1.0
  C  C130  1  0.18990000  0.90980000  0.66058000  1.0
  C  C131  1  0.52883000  0.33943000  0.24904000  1.0
  C  C132  1  0.19374000  0.82260000  0.08881000  1.0
  C  C133  1  0.10569000  0.91149000  0.73413000  1.0
  C  C134  1  0.37108000  0.26597000  0.17714000  1.0
  C  C135  1  0.62447000  0.80434000  0.07025000  1.0
  C  C136  1  0.55456000  0.93010000  0.73423000  1.0
  C  C137  1  0.82007000  0.26560000  0.19539000  1.0
  C  C138  1  0.51571000  0.70640000  0.03338000  1.0
  C  C139  1  0.48251000  0.96696000  0.67313000  1.0
  C  C140  1  0.80898000  0.32673000  0.29326000  1.0
  N  N141  1  0.03822000  0.30085000  0.99913000  1.0
  N  N142  1  0.03891000  0.00079000  0.30148000  1.0
  N  N143  1  0.73831000  0.69849000  0.69957000  1.0
  N  N144  1  0.33530000  0.70028000  0.00732000  1.0
  N  N145  1  0.32793000  0.99287000  0.69281000  1.0
  N  N146  1  0.63483000  0.30694000  0.29959000  1.0
  O  O147  1  0.13443000  0.14430000  0.95770000  1.0
  O  O148  1  0.17612000  0.04155000  0.18587000  1.0
  O  O149  1  0.99078000  0.81409000  0.85581000  1.0
  O  O150  1  0.00411000  0.11710000  0.09706000  1.0
  O  O151  1  0.90605000  0.90183000  0.01970000  1.0
  O  O152  1  0.88689000  0.98023000  0.88270000  1.0
  O  O153  1  0.36454000  0.88239000  0.90325000  1.0
  O  O154  1  0.46141000  0.09788000  0.97920000  1.0
  O  O155  1  0.48168000  0.02089000  0.11688000  1.0
  O  O156  1  0.29600000  0.16914000  0.87227000  1.0
  O  O157  1  0.42318000  0.12701000  0.29582000  1.0
  O  O158  1  0.12791000  0.70401000  0.83165000  1.0
  O  O159  1  0.79104000  0.15152000  0.96946000  1.0
  O  O160  1  0.82085000  0.02995000  0.18158000  1.0
  O  O161  1  0.63978000  0.81838000  0.84845000  1.0
  O  O162  1  0.61530000  0.15291000  0.85421000  1.0
  O  O163  1  0.76033000  0.14545000  0.29790000  1.0
  O  O164  1  0.46315000  0.70201000  0.84771000  1.0
  O  O165  1  0.11146000  0.85137000  0.14765000  1.0
  O  O166  1  0.96492000  0.85247000  0.70422000  1.0
  O  O167  1  0.26038000  0.29597000  0.14797000  1.0
  O  O168  1  0.21226000  0.84964000  0.03157000  1.0
  O  O169  1  0.18139000  0.96890000  0.81830000  1.0
  O  O170  1  0.36234000  0.18172000  0.15044000  1.0
  O  O171  1  0.76575000  0.82913000  0.12713000  1.0
  O  O172  1  0.63900000  0.87315000  0.70216000  1.0
  O  O173  1  0.93660000  0.29761000  0.17052000  1.0
  O  O174  1  0.56581000  0.85229000  0.03931000  1.0
  O  O175  1  0.52702000  0.96113000  0.81311000  1.0
  O  O176  1  0.71369000  0.18673000  0.14757000  1.0
