# generated using pymatgen
data_Co2H26C19(NO5)2
_symmetry_space_group_name_H-M   'P 1'
_cell_length_a   8.47570000
_cell_length_b   17.01730000
_cell_length_c   17.02840000
_cell_angle_alpha   117.29400000
_cell_angle_beta   99.55920000
_cell_angle_gamma   99.52770000
_symmetry_Int_Tables_number   1
_chemical_formula_structural   Co2H26C19(NO5)2
_chemical_formula_sum   'Co6 H78 C57 N6 O30'
_cell_volume   2068.84743109
_cell_formula_units_Z   3
loop_
 _symmetry_equiv_pos_site_id
 _symmetry_equiv_pos_as_xyz
  1  'x, y, z'
loop_
 _atom_site_type_symbol
 _atom_site_label
 _atom_site_symmetry_multiplicity
 _atom_site_fract_x
 _atom_site_fract_y
 _atom_site_fract_z
 _atom_site_occupancy
  Co  Co0  1  0.41268000  0.84671000  0.06661000  1.0
  Co  Co1  1  0.56524000  0.21971000  0.15310000  1.0
  Co  Co2  1  0.34592000  0.93354000  0.78044000  1.0
  Co  Co3  1  0.96840000  0.15010000  0.93192000  1.0
  Co  Co4  1  0.81843000  0.78179000  0.84999000  1.0
  Co  Co5  1  0.03674000  0.06776000  0.21808000  1.0
  H  H6  1  0.39827000  0.02315000  0.11502000  1.0
  H  H7  1  0.37484000  0.09167000  0.97657000  1.0
  H  H8  1  0.28316000  0.88495000  0.90840000  1.0
  H  H9  1  0.58637000  0.02095000  0.12247000  1.0
  H  H10  1  0.56545000  0.10162000  0.97924000  1.0
  H  H11  1  0.46381000  0.87748000  0.89850000  1.0
  H  H12  1  0.98169000  0.97385000  0.87674000  1.0
  H  H13  1  0.00815000  0.90243000  0.02584000  1.0
  H  H14  1  0.10482000  0.12319000  0.09719000  1.0
  H  H15  1  0.79824000  0.97759000  0.88326000  1.0
  H  H16  1  0.82134000  0.90566000  0.02268000  1.0
  H  H17  1  0.91472000  0.11671000  0.09440000  1.0
  H  H18  1  0.72039000  0.55599000  0.02375000  1.0
  H  H19  1  0.16512000  0.46844000  0.44424000  1.0
  H  H20  1  0.69740000  0.97642000  0.53213000  1.0
  H  H21  1  0.84732000  0.70837000  0.10242000  1.0
  H  H22  1  0.13944000  0.39460000  0.29193000  1.0
  H  H23  1  0.74543000  0.89776000  0.60589000  1.0
  H  H24  1  0.99011000  0.74120000  0.05057000  1.0
  H  H25  1  0.24953000  0.30989000  0.25916000  1.0
  H  H26  1  0.94011000  0.94961000  0.69055000  1.0
  H  H27  1  0.06503000  0.74823000  0.15712000  1.0
  H  H28  1  0.31699000  0.40928000  0.25176000  1.0
  H  H29  1  0.90832000  0.84285000  0.59118000  1.0
  H  H30  1  0.67606000  0.33242000  0.97599000  1.0
  H  H31  1  0.34433000  0.64398000  0.66768000  1.0
  H  H32  1  0.70117000  0.02419000  0.35638000  1.0
  H  H33  1  0.63540000  0.32573000  0.86750000  1.0
  H  H34  1  0.31051000  0.54210000  0.67433000  1.0
  H  H35  1  0.76923000  0.13267000  0.45819000  1.0
  H  H36  1  0.57241000  0.40728000  0.95810000  1.0
  H  H37  1  0.16590000  0.55131000  0.59289000  1.0
  H  H38  1  0.61532000  0.04212000  0.44904000  1.0
  H  H39  1  0.85840000  0.27827000  0.88785000  1.0
  H  H40  1  0.58068000  0.60955000  0.72160000  1.0
  H  H41  1  0.97160000  0.11197000  0.39029000  1.0
  H  H42  1  0.05955000  0.29981000  0.87682000  1.0
  H  H43  1  0.76030000  0.57691000  0.69995000  1.0
  H  H44  1  0.18375000  0.12276000  0.42281000  1.0
  H  H45  1  0.38323000  0.48612000  0.02205000  1.0
  H  H46  1  0.89772000  0.53623000  0.51374000  1.0
  H  H47  1  0.36176000  0.97737000  0.46392000  1.0
  H  H48  1  0.33897000  0.50802000  0.93029000  1.0
  H  H49  1  0.83158000  0.42248000  0.49164000  1.0
  H  H50  1  0.40944000  0.06912000  0.57754000  1.0
  H  H51  1  0.26378000  0.39628000  0.91138000  1.0
  H  H52  1  0.86804000  0.51510000  0.60342000  1.0
  H  H53  1  0.35334000  0.08820000  0.48484000  1.0
  H  H54  1  0.39443000  0.64165000  0.08517000  1.0
  H  H55  1  0.75285000  0.44332000  0.35781000  1.0
  H  H56  1  0.30988000  0.91458000  0.55687000  1.0
  H  H57  1  0.28100000  0.72354000  0.12003000  1.0
  H  H58  1  0.55733000  0.39658000  0.27630000  1.0
  H  H59  1  0.16120000  0.87988000  0.60371000  1.0
  H  H60  1  0.10733000  0.59779000  0.89463000  1.0
  H  H61  1  0.50863000  0.29701000  0.40198000  1.0
  H  H62  1  0.21189000  0.10519000  0.70312000  1.0
  H  H63  1  0.25377000  0.64123000  0.85156000  1.0
  H  H64  1  0.61193000  0.21051000  0.35899000  1.0
  H  H65  1  0.40169000  0.14864000  0.78945000  1.0
  H  H66  1  0.47347000  0.60005000  0.91808000  1.0
  H  H67  1  0.87266000  0.31758000  0.39969000  1.0
  H  H68  1  0.55528000  0.08209000  0.68229000  1.0
  H  H69  1  0.58285000  0.68896000  0.03288000  1.0
  H  H70  1  0.89351000  0.34361000  0.31090000  1.0
  H  H71  1  0.55000000  0.96723000  0.65635000  1.0
  H  H72  1  0.92618000  0.39509000  0.08292000  1.0
  H  H73  1  0.53213000  0.68831000  0.60509000  1.0
  H  H74  1  0.84378000  0.91691000  0.31207000  1.0
  H  H75  1  0.07559000  0.36683000  0.14166000  1.0
  H  H76  1  0.70978000  0.77531000  0.63354000  1.0
  H  H77  1  0.93464000  0.85787000  0.22533000  1.0
  H  H78  1  0.28672000  0.39714000  0.08235000  1.0
  H  H79  1  0.89056000  0.68542000  0.60313000  1.0
  H  H80  1  0.20510000  0.91719000  0.31476000  1.0
  H  H81  1  0.27888000  0.30849000  0.97096000  1.0
  H  H82  1  0.97120000  0.66268000  0.69185000  1.0
  H  H83  1  0.30874000  0.02868000  0.33752000  1.0
  C  C84  1  0.12898000  0.58610000  0.02652000  1.0
  C  C85  1  0.54341000  0.44083000  0.41386000  1.0
  C  C86  1  0.10302000  0.97325000  0.55947000  1.0
  C  C87  1  0.12917000  0.49253000  0.98329000  1.0
  C  C88  1  0.63729000  0.49108000  0.50733000  1.0
  C  C89  1  0.14661000  0.01632000  0.50906000  1.0
  C  C90  1  0.98466000  0.42252000  0.95988000  1.0
  C  C91  1  0.56279000  0.53766000  0.57738000  1.0
  C  C92  1  0.02557000  0.03983000  0.46248000  1.0
  C  C93  1  0.83437000  0.44561000  0.97223000  1.0
  C  C94  1  0.38947000  0.52708000  0.55443000  1.0
  C  C95  1  0.86292000  0.02763000  0.47317000  1.0
  C  C96  1  0.83611000  0.53809000  0.01313000  1.0
  C  C97  1  0.29866000  0.47565000  0.46203000  1.0
  C  C98  1  0.82362000  0.98685000  0.52479000  1.0
  C  C99  1  0.98034000  0.60900000  0.04273000  1.0
  C  C100  1  0.37195000  0.43433000  0.39111000  1.0
  C  C101  1  0.93815000  0.95717000  0.56611000  1.0
  C  C102  1  0.97032000  0.70663000  0.09047000  1.0
  C  C103  1  0.26419000  0.38438000  0.29357000  1.0
  C  C104  1  0.88037000  0.90960000  0.61610000  1.0
  C  C105  1  0.67189000  0.37392000  0.94210000  1.0
  C  C106  1  0.29873000  0.56857000  0.62616000  1.0
  C  C107  1  0.73087000  0.05802000  0.43173000  1.0
  C  C108  1  0.98486000  0.32346000  0.92547000  1.0
  C  C109  1  0.66203000  0.60209000  0.67644000  1.0
  C  C110  1  0.06030000  0.07421000  0.39785000  1.0
  C  C111  1  0.28598000  0.46927000  0.96074000  1.0
  C  C112  1  0.81728000  0.49168000  0.53050000  1.0
  C  C113  1  0.32600000  0.03878000  0.50838000  1.0
  C  C114  1  0.28871000  0.66180000  0.06056000  1.0
  C  C115  1  0.62693000  0.39882000  0.33798000  1.0
  C  C116  1  0.22855000  0.93932000  0.60143000  1.0
  C  C117  1  0.20157000  0.65973000  0.91073000  1.0
  C  C118  1  0.54121000  0.25106000  0.34019000  1.0
  C  C119  1  0.29049000  0.08931000  0.74901000  1.0
  C  C120  1  0.11414000  0.73237000  0.91462000  1.0
  C  C121  1  0.38146000  0.18213000  0.26753000  1.0
  C  C122  1  0.19971000  0.08565000  0.81797000  1.0
  C  C123  1  0.56454000  0.73369000  0.93473000  1.0
  C  C124  1  0.83018000  0.20069000  0.26606000  1.0
  C  C125  1  0.62970000  0.06532000  0.79914000  1.0
  C  C126  1  0.49008000  0.67215000  0.97014000  1.0
  C  C127  1  0.81735000  0.29767000  0.32765000  1.0
  C  C128  1  0.51986000  0.02998000  0.70228000  1.0
  C  C129  1  0.97594000  0.33775000  0.07766000  1.0
  C  C130  1  0.63905000  0.74027000  0.66246000  1.0
  C  C131  1  0.89901000  0.92195000  0.26002000  1.0
  C  C132  1  0.84300000  0.26647000  0.07949000  1.0
  C  C133  1  0.57712000  0.81326000  0.73371000  1.0
  C  C134  1  0.76432000  0.92003000  0.18674000  1.0
  C  C135  1  0.28372000  0.26392000  0.06782000  1.0
  C  C136  1  0.02024000  0.80411000  0.73623000  1.0
  C  C137  1  0.21672000  0.93177000  0.19614000  1.0
  C  C138  1  0.22891000  0.32413000  0.03033000  1.0
  C  C139  1  0.90554000  0.70639000  0.67609000  1.0
  C  C140  1  0.19937000  0.96927000  0.29379000  1.0
  N  N141  1  0.33645000  0.69142000  0.99404000  1.0
  N  N142  1  0.64462000  0.30257000  0.30845000  1.0
  N  N143  1  0.34235000  0.00599000  0.69753000  1.0
  N  N144  1  0.04664000  0.30090000  0.99861000  1.0
  N  N145  1  0.74640000  0.69788000  0.69921000  1.0
  N  N146  1  0.04877000  0.00100000  0.30220000  1.0
  O  O147  1  0.18788000  0.81679000  0.97194000  1.0
  O  O148  1  0.37093000  0.15499000  0.18317000  1.0
  O  O149  1  0.21657000  0.02847000  0.84526000  1.0
  O  O150  1  0.47095000  0.98240000  0.09935000  1.0
  O  O151  1  0.48806000  0.11669000  0.01751000  1.0
  O  O152  1  0.37140000  0.90071000  0.88331000  1.0
  O  O153  1  0.91142000  0.01554000  0.89922000  1.0
  O  O154  1  0.89616000  0.88362000  0.98448000  1.0
  O  O155  1  0.01202000  0.10073000  0.11638000  1.0
  O  O156  1  0.97275000  0.70198000  0.85720000  1.0
  O  O157  1  0.27051000  0.15499000  0.29790000  1.0
  O  O158  1  0.11559000  0.14307000  0.84497000  1.0
  O  O159  1  0.54068000  0.81327000  0.96647000  1.0
  O  O160  1  0.72696000  0.15300000  0.18649000  1.0
  O  O161  1  0.57422000  0.03354000  0.84695000  1.0
  O  O162  1  0.64818000  0.70137000  0.87833000  1.0
  O  O163  1  0.94600000  0.17644000  0.29832000  1.0
  O  O164  1  0.76977000  0.12171000  0.82322000  1.0
  O  O165  1  0.82253000  0.18141000  0.02416000  1.0
  O  O166  1  0.64154000  0.84281000  0.81869000  1.0
  O  O167  1  0.79918000  0.97539000  0.15704000  1.0
  O  O168  1  0.76495000  0.29855000  0.13921000  1.0
  O  O169  1  0.46693000  0.84092000  0.70165000  1.0
  O  O170  1  0.62662000  0.86026000  0.15902000  1.0
  O  O171  1  0.18487000  0.18492000  0.03730000  1.0
  O  O172  1  0.00005000  0.85249000  0.81514000  1.0
  O  O173  1  0.14825000  0.96230000  0.14768000  1.0
  O  O174  1  0.42743000  0.29638000  0.12350000  1.0
  O  O175  1  0.13150000  0.82740000  0.70379000  1.0
  O  O176  1  0.30492000  0.87611000  0.17295000  1.0
