# generated using pymatgen
data_ZnH16C19NO4
_symmetry_space_group_name_H-M   'P 1'
_cell_length_a   9.69264000
_cell_length_b   11.06950000
_cell_length_c   17.69050000
_cell_angle_alpha   90.79280000
_cell_angle_beta   89.86780000
_cell_angle_gamma   89.76760000
_symmetry_Int_Tables_number   1
_chemical_formula_structural   ZnH16C19NO4
_chemical_formula_sum   'Zn2 H32 C38 N2 O8'
_cell_volume   1897.85851454
_cell_formula_units_Z   2
loop_
 _symmetry_equiv_pos_site_id
 _symmetry_equiv_pos_as_xyz
  1  'x, y, z'
loop_
 _atom_site_type_symbol
 _atom_site_label
 _atom_site_symmetry_multiplicity
 _atom_site_fract_x
 _atom_site_fract_y
 _atom_site_fract_z
 _atom_site_occupancy
  Zn  Zn0  1  0.36395000  0.48742000  0.49666000  1.0
  Zn  Zn1  1  0.64578000  0.48849000  0.49742000  1.0
  H  H2  1  0.72896000  0.09513000  0.46313000  1.0
  H  H3  1  0.27506000  0.51783000  0.25729000  1.0
  H  H4  1  0.87395000  0.70086000  0.61880000  1.0
  H  H5  1  0.71136000  0.58000000  0.26343000  1.0
  H  H6  1  0.70986000  0.62178000  0.12454000  1.0
  H  H7  1  0.34646000  0.43095000  0.89457000  1.0
  H  H8  1  0.65012000  0.65323000  0.71944000  1.0
  H  H9  1  0.64913000  0.70726000  0.85709000  1.0
  H  H10  1  0.72578000  0.87066000  0.47002000  1.0
  H  H11  1  0.98521000  0.45155000  0.05376000  1.0
  H  H12  1  0.08680000  0.49101000  0.97434000  1.0
  H  H13  1  0.21932000  0.11445000  0.57754000  1.0
  H  H14  1  0.06157000  0.33648000  0.99641000  1.0
  H  H15  1  0.29873000  0.40481000  0.03659000  1.0
  H  H16  1  0.19967000  0.36287000  0.11562000  1.0
  H  H17  1  0.14533000  0.57781000  0.14490000  1.0
  H  H18  1  0.23184000  0.62331000  0.06170000  1.0
  H  H19  1  0.87154000  0.56335000  0.67071000  1.0
  H  H20  1  0.08936000  0.19998000  0.73173000  1.0
  H  H21  1  0.23822000  0.10625000  0.73561000  1.0
  H  H22  1  0.11858000  0.10864000  0.81189000  1.0
  H  H23  1  0.32820000  0.23075000  0.84567000  1.0
  H  H24  1  0.17716000  0.10679000  0.47959000  1.0
  H  H25  1  0.17962000  0.32318000  0.84234000  1.0
  H  H26  1  0.24205000  0.38503000  0.71035000  1.0
  H  H27  1  0.38482000  0.28945000  0.71083000  1.0
  H  H28  1  0.21519000  0.88801000  0.58362000  1.0
  H  H29  1  0.17328000  0.87886000  0.48536000  1.0
  H  H30  1  0.87498000  0.38918000  0.39681000  1.0
  H  H31  1  0.13603000  0.38806000  0.39708000  1.0
  H  H32  1  0.13397000  0.56059000  0.67195000  1.0
  H  H33  1  0.13662000  0.69748000  0.62018000  1.0
  C  C34  1  0.51002000  0.72434000  0.50174000  1.0
  C  C35  1  0.49635000  0.57246000  0.88455000  1.0
  C  C36  1  0.39124000  0.92833000  0.50783000  1.0
  C  C37  1  0.49957000  0.49170000  0.64586000  1.0
  C  C38  1  0.50961000  0.85856000  0.49665000  1.0
  C  C39  1  0.63147000  0.92254000  0.48006000  1.0
  C  C40  1  0.63319000  0.04831000  0.47607000  1.0
  C  C41  1  0.51332000  0.11835000  0.48918000  1.0
  C  C42  1  0.39332000  0.05422000  0.50459000  1.0
  C  C43  1  0.24148000  0.06697000  0.52389000  1.0
  C  C44  1  0.23890000  0.92421000  0.52750000  1.0
  C  C45  1  0.49125000  0.58974000  0.11238000  1.0
  C  C46  1  0.93268000  0.53970000  0.55151000  1.0
  C  C47  1  0.93325000  0.43273000  0.44211000  1.0
  C  C48  1  0.07713000  0.43162000  0.44242000  1.0
  C  C49  1  0.51509000  0.25287000  0.48921000  1.0
  C  C50  1  0.07655000  0.53801000  0.55209000  1.0
  C  C51  1  0.08615000  0.60944000  0.62525000  1.0
  C  C52  1  0.92195000  0.61150000  0.62451000  1.0
  C  C53  1  0.49517000  0.51291000  0.34989000  1.0
  C  C54  1  0.36537000  0.56305000  0.14991000  1.0
  C  C55  1  0.36981000  0.53983000  0.22712000  1.0
  C  C56  1  0.49398000  0.59933000  0.03267000  1.0
  C  C57  1  0.49373000  0.54289000  0.26775000  1.0
  C  C58  1  0.61624000  0.57497000  0.23089000  1.0
  C  C59  1  0.61495000  0.59859000  0.15409000  1.0
  C  C60  1  0.23192000  0.55543000  0.10667000  1.0
  C  C61  1  0.20737000  0.43015000  0.07051000  1.0
  C  C62  1  0.07823000  0.42689000  0.02113000  1.0
  C  C63  1  0.32069000  0.34721000  0.74832000  1.0
  C  C64  1  0.25032000  0.26810000  0.80701000  1.0
  C  C65  1  0.16964000  0.16505000  0.76965000  1.0
  C  C66  1  0.49625000  0.59412000  0.96365000  1.0
  C  C67  1  0.41097000  0.48005000  0.85505000  1.0
  C  C68  1  0.40957000  0.44930000  0.77837000  1.0
  C  C69  1  0.49789000  0.51386000  0.72972000  1.0
  C  C70  1  0.58345000  0.60515000  0.75852000  1.0
  C  C71  1  0.58288000  0.63574000  0.83503000  1.0
  N  N72  1  0.85778000  0.48808000  0.49748000  1.0
  N  N73  1  0.15204000  0.48526000  0.49832000  1.0
  O  O74  1  0.39355000  0.67181000  0.49582000  1.0
  O  O75  1  0.62620000  0.67250000  0.51152000  1.0
  O  O76  1  0.38301000  0.49441000  0.61285000  1.0
  O  O77  1  0.61628000  0.47616000  0.61397000  1.0
  O  O78  1  0.39854000  0.30529000  0.49801000  1.0
  O  O79  1  0.63105000  0.30562000  0.48191000  1.0
  O  O80  1  0.38002000  0.48694000  0.38073000  1.0
  O  O81  1  0.61155000  0.51579000  0.38348000  1.0
