# generated using pymatgen
data_Li2UH10C14(NO6)2
_symmetry_space_group_name_H-M   'P 1'
_cell_length_a   7.10987000
_cell_length_b   8.31043000
_cell_length_c   8.41665000
_cell_angle_alpha   83.56790000
_cell_angle_beta   71.43290000
_cell_angle_gamma   69.98630000
_symmetry_Int_Tables_number   1
_chemical_formula_structural   Li2UH10C14(NO6)2
_chemical_formula_sum   'Li2 U1 H10 C14 N2 O12'
_cell_volume   442.95127709
_cell_formula_units_Z   1
loop_
 _symmetry_equiv_pos_site_id
 _symmetry_equiv_pos_as_xyz
  1  'x, y, z'
loop_
 _atom_site_type_symbol
 _atom_site_label
 _atom_site_symmetry_multiplicity
 _atom_site_fract_x
 _atom_site_fract_y
 _atom_site_fract_z
 _atom_site_occupancy
  Li  Li0  1  0.77295000  0.34972000  0.91154000  1.0
  Li  Li1  1  0.22706000  0.65028000  0.08846000  1.0
  U  U2  1  0.00000000  0.50000000  0.50000000  1.0
  H  H3  1  0.89167000  0.40405000  0.15935000  1.0
  H  H4  1  0.10833000  0.59596000  0.84066000  1.0
  H  H5  1  0.94574000  0.20970000  0.12956000  1.0
  H  H6  1  0.05426000  0.79031000  0.87044000  1.0
  H  H7  1  0.31166000  0.77043000  0.55489000  1.0
  H  H8  1  0.68833000  0.22958000  0.44511000  1.0
  H  H9  1  0.59083000  0.70949000  0.27633000  1.0
  H  H10  1  0.40915000  0.29051000  0.72368000  1.0
  H  H11  1  0.63938000  0.95981000  0.08549000  1.0
  H  H12  1  0.36062000  0.04018000  0.91451000  1.0
  C  C13  1  0.05011000  0.09581000  0.67564000  1.0
  C  C14  1  0.94990000  0.90419000  0.32437000  1.0
  C  C15  1  0.39643000  0.29777000  0.15408000  1.0
  C  C16  1  0.60360000  0.70223000  0.84590000  1.0
  C  C17  1  0.21515000  0.04285000  0.51094000  1.0
  C  C18  1  0.78485000  0.95714000  0.48905000  1.0
  C  C19  1  0.33791000  0.87335000  0.46775000  1.0
  C  C20  1  0.66208000  0.12665000  0.53225000  1.0
  C  C21  1  0.49208000  0.84018000  0.31265000  1.0
  C  C22  1  0.50791000  0.15981000  0.68736000  1.0
  C  C23  1  0.51834000  0.97712000  0.20627000  1.0
  C  C24  1  0.48165000  0.02288000  0.79372000  1.0
  C  C25  1  0.38545000  0.14194000  0.25834000  1.0
  C  C26  1  0.61456000  0.85806000  0.74166000  1.0
  N  N27  1  0.23758000  0.17493000  0.40770000  1.0
  N  N28  1  0.76242000  0.82506000  0.59230000  1.0
  O  O29  1  0.18974000  0.52084000  0.59249000  1.0
  O  O30  1  0.81026000  0.47916000  0.40751000  1.0
  O  O31  1  0.92547000  0.32226000  0.07163000  1.0
  O  O32  1  0.07453000  0.67776000  0.92838000  1.0
  O  O33  1  0.96108000  0.26057000  0.69058000  1.0
  O  O34  1  0.03894000  0.73944000  0.30941000  1.0
  O  O35  1  0.00509000  0.99135000  0.78643000  1.0
  O  O36  1  0.99490000  0.00866000  0.21357000  1.0
  O  O37  1  0.26028000  0.43917000  0.22363000  1.0
  O  O38  1  0.73974000  0.56083000  0.77637000  1.0
  O  O39  1  0.52751000  0.28729000  0.01300000  1.0
  O  O40  1  0.47248000  0.71271000  0.98701000  1.0
