# generated using pymatgen
data_ZnH7C18Br2N3(ClO2)2
_symmetry_space_group_name_H-M   'P 1'
_cell_length_a   11.03630000
_cell_length_b   15.95860000
_cell_length_c   17.27860000
_cell_angle_alpha   99.20550000
_cell_angle_beta   93.03830000
_cell_angle_gamma   99.79730000
_symmetry_Int_Tables_number   1
_chemical_formula_structural   ZnH7C18Br2N3(ClO2)2
_chemical_formula_sum   'Zn2 H14 C36 Br4 N6 Cl4 O8'
_cell_volume   2950.08584663
_cell_formula_units_Z   2
loop_
 _symmetry_equiv_pos_site_id
 _symmetry_equiv_pos_as_xyz
  1  'x, y, z'
loop_
 _atom_site_type_symbol
 _atom_site_label
 _atom_site_symmetry_multiplicity
 _atom_site_fract_x
 _atom_site_fract_y
 _atom_site_fract_z
 _atom_site_occupancy
  Zn  Zn0  1  0.47085000  0.41105000  0.49556000  1.0
  Zn  Zn1  1  0.52251000  0.59668000  0.51256000  1.0
  H  H2  1  0.39073000  0.70170000  0.43443000  1.0
  H  H3  1  0.38245000  0.85729000  0.42832000  1.0
  H  H4  1  0.69822000  0.92721000  0.59959000  1.0
  H  H5  1  0.30579000  0.08009000  0.40310000  1.0
  H  H6  1  0.63351000  0.15086000  0.56442000  1.0
  H  H7  1  0.61925000  0.30679000  0.56252000  1.0
  H  H8  1  0.46207000  0.61250000  0.26869000  1.0
  H  H9  1  0.46827000  0.61141000  0.12354000  1.0
  H  H10  1  0.54347000  0.35315000  0.09552000  1.0
  H  H11  1  0.45199000  0.65168000  0.90992000  1.0
  H  H12  1  0.53775000  0.39629000  0.88564000  1.0
  H  H13  1  0.53786000  0.39148000  0.73954000  1.0
  H  H14  1  0.77637000  0.55912000  0.37691000  1.0
  H  H15  1  0.23077000  0.57215000  0.38546000  1.0
  C  C16  1  0.48755000  0.49154000  0.35156000  1.0
  C  C17  1  0.26374000  0.51095000  0.50878000  1.0
  C  C18  1  0.50500000  0.51005000  0.65501000  1.0
  C  C19  1  0.73283000  0.50479000  0.50433000  1.0
  C  C20  1  0.45653000  0.75428000  0.46973000  1.0
  C  C21  1  0.45214000  0.83972000  0.46645000  1.0
  C  C22  1  0.54051000  0.90336000  0.51427000  1.0
  C  C23  1  0.62890000  0.87879000  0.56243000  1.0
  C  C24  1  0.62547000  0.79074000  0.56204000  1.0
  C  C25  1  0.37633000  0.12874000  0.43901000  1.0
  C  C26  1  0.46943000  0.10449000  0.48363000  1.0
  C  C27  1  0.55982000  0.16838000  0.52953000  1.0
  C  C28  1  0.55179000  0.25384000  0.52892000  1.0
  C  C29  1  0.37614000  0.21673000  0.44195000  1.0
  C  C30  1  0.49629000  0.48407000  0.26429000  1.0
  C  C31  1  0.47911000  0.55587000  0.22950000  1.0
  C  C32  1  0.48268000  0.55574000  0.14959000  1.0
  C  C33  1  0.50539000  0.48144000  0.10100000  1.0
  C  C34  1  0.52488000  0.40981000  0.13394000  1.0
  C  C35  1  0.52044000  0.41052000  0.21464000  1.0
  C  C36  1  0.47238000  0.59514000  0.87220000  1.0
  C  C37  1  0.49591000  0.52502000  0.90624000  1.0
  C  C38  1  0.52036000  0.45064000  0.85856000  1.0
  C  C39  1  0.52088000  0.44856000  0.77821000  1.0
  C  C40  1  0.49944000  0.51883000  0.74251000  1.0
  C  C41  1  0.47424000  0.59252000  0.79114000  1.0
  C  C42  1  0.87000000  0.50708000  0.50693000  1.0
  C  C43  1  0.93569000  0.53559000  0.44410000  1.0
  C  C44  1  0.93288000  0.48404000  0.56946000  1.0
  C  C45  1  0.87554000  0.56136000  0.37956000  1.0
  C  C46  1  0.94108000  0.59155000  0.32080000  1.0
  C  C47  1  0.12738000  0.51147000  0.50974000  1.0
  C  C48  1  0.06232000  0.48620000  0.57091000  1.0
  C  C49  1  0.06610000  0.53845000  0.44594000  1.0
  C  C50  1  0.13132000  0.56907000  0.38441000  1.0
  C  C51  1  0.07098000  0.59651000  0.32386000  1.0
  Br  Br52  1  0.14952000  0.45731000  0.65762000  1.0
  Br  Br53  1  0.84614000  0.45316000  0.65599000  1.0
  Br  Br54  1  0.85300000  0.62546000  0.23730000  1.0
  Br  Br55  1  0.16581000  0.64155000  0.24631000  1.0
  N  N56  1  0.54136000  0.72968000  0.51676000  1.0
  N  N57  1  0.54864000  0.99380000  0.51868000  1.0
  N  N58  1  0.46258000  0.01409000  0.47855000  1.0
  N  N59  1  0.46124000  0.27802000  0.48611000  1.0
  N  N60  1  0.51060000  0.47125000  0.01855000  1.0
  N  N61  1  0.49141000  0.53588000  0.98881000  1.0
  Cl  Cl62  1  0.73151000  0.75901000  0.62147000  1.0
  Cl  Cl63  1  0.26335000  0.24835000  0.38773000  1.0
  Cl  Cl64  1  0.54916000  0.31812000  0.24722000  1.0
  Cl  Cl65  1  0.43895000  0.68140000  0.75524000  1.0
  O  O66  1  0.47855000  0.42283000  0.38054000  1.0
  O  O67  1  0.48932000  0.56710000  0.39033000  1.0
  O  O68  1  0.33411000  0.58427000  0.52060000  1.0
  O  O69  1  0.29445000  0.43753000  0.49371000  1.0
  O  O70  1  0.53644000  0.57845000  0.62689000  1.0
  O  O71  1  0.47930000  0.43338000  0.61606000  1.0
  O  O72  1  0.66420000  0.43231000  0.50222000  1.0
  O  O73  1  0.69891000  0.57677000  0.50256000  1.0
