# generated using pymatgen
data_CuH23C19(NO)5
_symmetry_space_group_name_H-M   'P 1'
_cell_length_a   7.90893000
_cell_length_b   15.79370000
_cell_length_c   18.22500000
_cell_angle_alpha   89.99890000
_cell_angle_beta   87.81060000
_cell_angle_gamma   89.99420000
_symmetry_Int_Tables_number   1
_chemical_formula_structural   CuH23C19(NO)5
_chemical_formula_sum   'Cu4 H92 C76 N20 O20'
_cell_volume   2274.84599475
_cell_formula_units_Z   4
loop_
 _symmetry_equiv_pos_site_id
 _symmetry_equiv_pos_as_xyz
  1  'x, y, z'
loop_
 _atom_site_type_symbol
 _atom_site_label
 _atom_site_symmetry_multiplicity
 _atom_site_fract_x
 _atom_site_fract_y
 _atom_site_fract_z
 _atom_site_occupancy
  Cu  Cu0  1  0.95752000  0.14132000  0.79583000  1.0
  Cu  Cu1  1  0.54248000  0.64132000  0.70417000  1.0
  Cu  Cu2  1  0.04248000  0.85868000  0.20416000  1.0
  Cu  Cu3  1  0.45752000  0.35869000  0.29583000  1.0
  H  H4  1  0.73471000  0.09859000  0.71855000  1.0
  H  H5  1  0.76530000  0.59859000  0.78146000  1.0
  H  H6  1  0.26532000  0.90140000  0.28145000  1.0
  H  H7  1  0.23470000  0.40143000  0.21854000  1.0
  H  H8  1  0.84041000  0.09855000  0.95277000  1.0
  H  H9  1  0.65953000  0.59856000  0.54724000  1.0
  H  H10  1  0.15960000  0.90146000  0.04723000  1.0
  H  H11  1  0.34044000  0.40145000  0.45275000  1.0
  H  H12  1  0.84126000  0.00328000  0.00573000  1.0
  H  H13  1  0.65870000  0.50328000  0.49428000  1.0
  H  H14  1  0.15874000  0.99674000  0.99427000  1.0
  H  H15  1  0.34127000  0.49673000  0.50571000  1.0
  H  H16  1  0.66739000  0.02763000  0.95107000  1.0
  H  H17  1  0.83258000  0.52763000  0.54894000  1.0
  H  H18  1  0.33261000  0.97238000  0.04893000  1.0
  H  H19  1  0.16741000  0.47238000  0.45105000  1.0
  H  H20  1  0.88134000  0.84826000  0.92607000  1.0
  H  H21  1  0.61867000  0.34827000  0.57396000  1.0
  H  H22  1  0.11866000  0.15175000  0.07396000  1.0
  H  H23  1  0.38131000  0.65174000  0.42604000  1.0
  H  H24  1  0.94242000  0.78562000  0.73506000  1.0
  H  H25  1  0.55761000  0.28564000  0.76497000  1.0
  H  H26  1  0.05759000  0.21435000  0.26497000  1.0
  H  H27  1  0.44237000  0.71436000  0.23503000  1.0
  H  H28  1  0.03628000  0.74969000  0.81585000  1.0
  H  H29  1  0.46376000  0.24971000  0.68419000  1.0
  H  H30  1  0.96372000  0.25030000  0.18419000  1.0
  H  H31  1  0.53624000  0.75029000  0.31582000  1.0
  H  H32  1  0.15948000  0.80657000  0.74958000  1.0
  H  H33  1  0.34055000  0.30661000  0.75044000  1.0
  H  H34  1  0.84053000  0.19341000  0.25045000  1.0
  H  H35  1  0.65945000  0.69340000  0.24956000  1.0
  H  H36  1  0.09903000  0.92164000  0.68115000  1.0
  H  H37  1  0.40101000  0.42167000  0.81887000  1.0
  H  H38  1  0.90096000  0.07832000  0.31886000  1.0
  H  H39  1  0.59899000  0.57834000  0.18113000  1.0
  H  H40  1  0.16275000  0.02449000  0.71009000  1.0
  H  H41  1  0.33726000  0.52452000  0.78994000  1.0
  H  H42  1  0.83725000  0.97548000  0.28991000  1.0
  H  H43  1  0.66275000  0.47549000  0.21005000  1.0
  H  H44  1  0.95548000  0.02620000  0.60836000  1.0
  H  H45  1  0.54454000  0.52623000  0.89166000  1.0
  H  H46  1  0.04454000  0.97378000  0.39164000  1.0
  H  H47  1  0.45546000  0.47379000  0.10833000  1.0
  H  H48  1  0.80391000  0.97468000  0.66715000  1.0
  H  H49  1  0.69613000  0.47469000  0.83287000  1.0
  H  H50  1  0.19611000  0.02531000  0.33285000  1.0
  H  H51  1  0.30390000  0.52532000  0.16713000  1.0
  H  H52  1  0.75572000  0.21422000  0.65022000  1.0
  H  H53  1  0.74426000  0.71423000  0.84978000  1.0
  H  H54  1  0.24428000  0.78575000  0.34977000  1.0
  H  H55  1  0.25572000  0.28579000  0.15022000  1.0
  H  H56  1  0.84001000  0.14381000  0.58361000  1.0
  H  H57  1  0.65998000  0.64382000  0.91640000  1.0
  H  H58  1  0.16000000  0.85617000  0.41638000  1.0
  H  H59  1  0.33998000  0.35618000  0.08359000  1.0
  H  H60  1  0.13381000  0.17532000  0.64582000  1.0
  H  H61  1  0.36618000  0.67534000  0.85418000  1.0
  H  H62  1  0.86619000  0.82468000  0.35416000  1.0
  H  H63  1  0.63379000  0.32466000  0.14581000  1.0
  H  H64  1  0.04718000  0.24965000  0.58368000  1.0
  H  H65  1  0.45279000  0.74967000  0.91632000  1.0
  H  H66  1  0.95280000  0.75035000  0.41631000  1.0
  H  H67  1  0.54718000  0.25034000  0.08368000  1.0
  H  H68  1  0.21072000  0.38239000  0.59061000  1.0
  H  H69  1  0.28926000  0.88242000  0.90939000  1.0
  H  H70  1  0.78927000  0.61759000  0.40938000  1.0
  H  H71  1  0.71073000  0.11759000  0.09061000  1.0
  H  H72  1  0.10768000  0.47634000  0.62203000  1.0
  H  H73  1  0.39229000  0.97636000  0.87798000  1.0
  H  H74  1  0.89232000  0.52365000  0.37796000  1.0
  H  H75  1  0.60768000  0.02365000  0.12203000  1.0
  H  H76  1  0.99411000  0.39795000  0.57357000  1.0
  H  H77  1  0.50588000  0.89796000  0.92643000  1.0
  H  H78  1  0.00589000  0.60204000  0.42643000  1.0
  H  H79  1  0.49409000  0.10205000  0.07357000  1.0
  H  H80  1  0.02096000  0.47035000  0.76783000  1.0
  H  H81  1  0.47901000  0.97037000  0.73217000  1.0
  H  H82  1  0.97902000  0.52964000  0.23216000  1.0
  H  H83  1  0.52099000  0.02965000  0.26784000  1.0
  H  H84  1  0.83277000  0.29558000  0.90084000  1.0
  H  H85  1  0.66723000  0.79558000  0.59916000  1.0
  H  H86  1  0.16727000  0.70440000  0.09916000  1.0
  H  H87  1  0.33277000  0.20444000  0.40084000  1.0
  H  H88  1  0.88683000  0.40559000  0.89684000  1.0
  H  H89  1  0.61314000  0.90559000  0.60316000  1.0
  H  H90  1  0.11317000  0.59440000  0.10315000  1.0
  H  H91  1  0.38684000  0.09443000  0.39684000  1.0
  H  H92  1  0.04101000  0.32815000  0.91658000  1.0
  H  H93  1  0.45899000  0.82816000  0.58342000  1.0
  H  H94  1  0.95902000  0.67185000  0.08341000  1.0
  H  H95  1  0.54100000  0.17185000  0.41658000  1.0
  C  C96  1  0.80602000  0.03143000  0.95345000  1.0
  C  C97  1  0.69395000  0.53142000  0.54657000  1.0
  C  C98  1  0.19399000  0.96859000  0.04657000  1.0
  C  C99  1  0.30603000  0.46858000  0.45342000  1.0
  C  C100  1  0.88709000  0.98402000  0.89096000  1.0
  C  C101  1  0.61291000  0.48403000  0.60905000  1.0
  C  C102  1  0.11292000  0.01598000  0.10905000  1.0
  C  C103  1  0.38708000  0.51598000  0.39095000  1.0
  C  C104  1  0.91275000  0.89601000  0.88481000  1.0
  C  C105  1  0.58725000  0.39601000  0.61522000  1.0
  C  C106  1  0.08725000  0.10399000  0.11521000  1.0
  C  C107  1  0.41275000  0.60400000  0.38478000  1.0
  C  C108  1  0.98402000  0.88191000  0.81499000  1.0
  C  C109  1  0.51600000  0.38192000  0.68503000  1.0
  C  C110  1  0.01597000  0.11808000  0.18503000  1.0
  C  C111  1  0.48401000  0.61809000  0.31497000  1.0
  C  C112  1  0.03350000  0.80226000  0.77676000  1.0
  C  C113  1  0.46653000  0.30229000  0.72326000  1.0
  C  C114  1  0.96650000  0.19772000  0.22327000  1.0
  C  C115  1  0.53347000  0.69772000  0.27674000  1.0
  C  C116  1  0.05582000  0.98025000  0.70808000  1.0
  C  C117  1  0.44419000  0.48027000  0.79194000  1.0
  C  C118  1  0.94418000  0.01973000  0.29193000  1.0
  C  C119  1  0.55582000  0.51973000  0.20806000  1.0
  C  C120  1  0.91157000  0.01878000  0.66598000  1.0
  C  C121  1  0.58845000  0.51879000  0.83404000  1.0
  C  C122  1  0.08844000  0.98120000  0.33402000  1.0
  C  C123  1  0.41156000  0.48122000  0.16597000  1.0
  C  C124  1  0.85987000  0.16989000  0.63849000  1.0
  C  C125  1  0.64013000  0.66990000  0.86151000  1.0
  C  C126  1  0.14014000  0.83010000  0.36150000  1.0
  C  C127  1  0.35986000  0.33011000  0.13849000  1.0
  C  C128  1  0.02683000  0.21836000  0.63706000  1.0
  C  C129  1  0.47314000  0.71837000  0.86294000  1.0
  C  C130  1  0.97315000  0.78162000  0.36293000  1.0
  C  C131  1  0.52683000  0.28164000  0.13706000  1.0
  C  C132  1  0.09151000  0.40811000  0.61406000  1.0
  C  C133  1  0.40847000  0.90813000  0.88594000  1.0
  C  C134  1  0.90848000  0.59188000  0.38594000  1.0
  C  C135  1  0.59151000  0.09188000  0.11406000  1.0
  C  C136  1  0.04365000  0.36790000  0.68557000  1.0
  C  C137  1  0.45632000  0.86792000  0.81443000  1.0
  C  C138  1  0.95633000  0.63209000  0.31443000  1.0
  C  C139  1  0.54367000  0.13210000  0.18557000  1.0
  C  C140  1  0.01347000  0.40340000  0.75478000  1.0
  C  C141  1  0.48650000  0.90342000  0.74522000  1.0
  C  C142  1  0.98652000  0.59659000  0.24521000  1.0
  C  C143  1  0.51349000  0.09660000  0.25479000  1.0
  C  C144  1  0.97418000  0.33602000  0.80311000  1.0
  C  C145  1  0.52579000  0.83603000  0.69690000  1.0
  C  C146  1  0.02581000  0.66398000  0.19689000  1.0
  C  C147  1  0.47419000  0.16399000  0.30310000  1.0
  C  C148  1  0.93089000  0.34129000  0.88334000  1.0
  C  C149  1  0.56910000  0.84129000  0.61667000  1.0
  C  C150  1  0.06912000  0.65870000  0.11666000  1.0
  C  C151  1  0.43089000  0.15873000  0.38334000  1.0
  C  C152  1  0.51476000  0.15737000  0.85060000  1.0
  C  C153  1  0.98522000  0.65735000  0.64941000  1.0
  C  C154  1  0.48523000  0.84264000  0.14940000  1.0
  C  C155  1  0.01480000  0.34265000  0.35059000  1.0
  C  C156  1  0.50914000  0.19745000  0.92446000  1.0
  C  C157  1  0.99085000  0.69744000  0.57554000  1.0
  C  C158  1  0.49087000  0.80255000  0.07553000  1.0
  C  C159  1  0.00916000  0.30256000  0.42446000  1.0
  C  C160  1  0.33946000  0.14475000  0.82812000  1.0
  C  C161  1  0.16052000  0.64474000  0.67189000  1.0
  C  C162  1  0.66058000  0.85527000  0.17188000  1.0
  C  C163  1  0.83948000  0.35525000  0.32811000  1.0
  C  C164  1  0.22687000  0.17137000  0.88936000  1.0
  C  C165  1  0.27312000  0.67137000  0.61065000  1.0
  C  C166  1  0.77317000  0.82864000  0.11063000  1.0
  C  C167  1  0.72689000  0.32863000  0.38936000  1.0
  C  C168  1  0.32761000  0.20482000  0.94901000  1.0
  C  C169  1  0.17237000  0.70479000  0.55100000  1.0
  C  C170  1  0.67242000  0.79520000  0.05098000  1.0
  C  C171  1  0.82766000  0.29519000  0.44899000  1.0
  N  N172  1  0.94273000  0.02183000  0.82821000  1.0
  N  N173  1  0.55727000  0.52183000  0.67180000  1.0
  N  N174  1  0.05728000  0.97817000  0.17180000  1.0
  N  N175  1  0.44273000  0.47817000  0.32819000  1.0
  N  N176  1  0.00129000  0.95919000  0.78262000  1.0
  N  N177  1  0.49873000  0.45922000  0.71740000  1.0
  N  N178  1  0.99871000  0.04078000  0.21739000  1.0
  N  N179  1  0.50129000  0.54080000  0.28259000  1.0
  N  N180  1  0.85437000  0.10233000  0.69454000  1.0
  N  N181  1  0.64565000  0.60234000  0.80547000  1.0
  N  N182  1  0.14564000  0.89765000  0.30546000  1.0
  N  N183  1  0.35433000  0.39768000  0.19452000  1.0
  N  N184  1  0.02346000  0.28300000  0.69389000  1.0
  N  N185  1  0.47652000  0.78301000  0.80612000  1.0
  N  N186  1  0.97654000  0.71699000  0.30610000  1.0
  N  N187  1  0.52347000  0.21699000  0.19388000  1.0
  N  N188  1  0.98027000  0.26230000  0.76500000  1.0
  N  N189  1  0.51970000  0.76230000  0.73501000  1.0
  N  N190  1  0.01972000  0.73769000  0.23500000  1.0
  N  N191  1  0.48028000  0.23772000  0.26499000  1.0
  O  O192  1  0.64501000  0.13966000  0.81232000  1.0
  O  O193  1  0.85497000  0.63965000  0.68768000  1.0
  O  O194  1  0.35498000  0.86033000  0.18768000  1.0
  O  O195  1  0.14503000  0.36037000  0.31233000  1.0
  O  O196  1  0.63123000  0.22271000  0.95955000  1.0
  O  O197  1  0.86875000  0.72270000  0.54045000  1.0
  O  O198  1  0.36877000  0.77729000  0.04045000  1.0
  O  O199  1  0.13127000  0.27730000  0.45954000  1.0
  O  O200  1  0.29252000  0.11841000  0.76700000  1.0
  O  O201  1  0.20746000  0.61840000  0.73301000  1.0
  O  O202  1  0.70748000  0.88161000  0.23300000  1.0
  O  O203  1  0.79254000  0.38158000  0.26699000  1.0
  O  O204  1  0.06650000  0.16971000  0.89077000  1.0
  O  O205  1  0.43349000  0.66974000  0.60925000  1.0
  O  O206  1  0.93354000  0.83028000  0.10923000  1.0
  O  O207  1  0.56653000  0.33028000  0.39075000  1.0
  O  O208  1  0.27265000  0.23564000  0.00810000  1.0
  O  O209  1  0.22733000  0.73561000  0.49190000  1.0
  O  O210  1  0.72736000  0.76438000  0.99187000  1.0
  O  O211  1  0.77272000  0.26435000  0.50809000  1.0
