# generated using pymatgen
data_ZnH20C34(NO2)2
_symmetry_space_group_name_H-M   'P 1'
_cell_length_a   8.58975000
_cell_length_b   12.30880000
_cell_length_c   14.22360000
_cell_angle_alpha   72.60630000
_cell_angle_beta   88.11560000
_cell_angle_gamma   71.61590000
_symmetry_Int_Tables_number   1
_chemical_formula_structural   ZnH20C34(NO2)2
_chemical_formula_sum   'Zn2 H40 C68 N4 O8'
_cell_volume   1358.71248958
_cell_formula_units_Z   2
loop_
 _symmetry_equiv_pos_site_id
 _symmetry_equiv_pos_as_xyz
  1  'x, y, z'
loop_
 _atom_site_type_symbol
 _atom_site_label
 _atom_site_symmetry_multiplicity
 _atom_site_fract_x
 _atom_site_fract_y
 _atom_site_fract_z
 _atom_site_occupancy
  Zn  Zn0  1  0.10508000  0.20138000  0.27617000  1.0
  Zn  Zn1  1  0.89492000  0.79862000  0.72383000  1.0
  H  H2  1  0.02209000  0.92113000  0.16056000  1.0
  H  H3  1  0.97791000  0.07888000  0.83944000  1.0
  H  H4  1  0.02014000  0.83351000  0.47618000  1.0
  H  H5  1  0.97986000  0.16649000  0.52382000  1.0
  H  H6  1  0.80090000  0.47289000  0.42389000  1.0
  H  H7  1  0.19910000  0.52711000  0.57610000  1.0
  H  H8  1  0.96137000  0.64555000  0.48469000  1.0
  H  H9  1  0.03863000  0.35445000  0.51531000  1.0
  H  H10  1  0.92124000  0.59845000  0.33094000  1.0
  H  H11  1  0.07877000  0.40155000  0.66906000  1.0
  H  H12  1  0.96802000  0.79954000  0.07541000  1.0
  H  H13  1  0.03198000  0.20046000  0.92459000  1.0
  H  H14  1  0.27083000  0.57961000  0.23497000  1.0
  H  H15  1  0.72917000  0.42039000  0.76504000  1.0
  H  H16  1  0.82980000  0.59984000  0.19283000  1.0
  H  H17  1  0.17020000  0.40016000  0.80717000  1.0
  H  H18  1  0.29057000  0.68819000  0.35091000  1.0
  H  H19  1  0.70943000  0.31181000  0.64909000  1.0
  H  H20  1  0.74777000  0.71938000  0.58095000  1.0
  H  H21  1  0.25223000  0.28062000  0.41905000  1.0
  H  H22  1  0.33498000  0.78620000  0.44247000  1.0
  H  H23  1  0.66503000  0.21380000  0.55753000  1.0
  H  H24  1  0.23149000  0.93239000  0.52975000  1.0
  H  H25  1  0.76851000  0.06761000  0.47025000  1.0
  H  H26  1  0.69105000  0.61785000  0.50247000  1.0
  H  H27  1  0.30895000  0.38215000  0.49753000  1.0
  H  H28  1  0.57007000  0.98029000  0.71966000  1.0
  H  H29  1  0.42993000  0.01971000  0.28035000  1.0
  H  H30  1  0.28555000  0.04065000  0.64205000  1.0
  H  H31  1  0.71445000  0.95934000  0.35795000  1.0
  H  H32  1  0.52031000  0.41794000  0.20956000  1.0
  H  H33  1  0.47969000  0.58206000  0.79044000  1.0
  H  H34  1  0.74438000  0.49188000  0.10162000  1.0
  H  H35  1  0.25562000  0.50811000  0.89838000  1.0
  H  H36  1  0.69482000  0.46074000  0.94214000  1.0
  H  H37  1  0.30518000  0.53926000  0.05786000  1.0
  H  H38  1  0.76445000  0.59481000  0.78522000  1.0
  H  H39  1  0.23555000  0.40519000  0.21478000  1.0
  H  H40  1  0.92170000  0.78288000  0.93694000  1.0
  H  H41  1  0.07830000  0.21712000  0.06306000  1.0
  C  C42  1  0.60967000  0.07581000  0.04809000  1.0
  C  C43  1  0.39032000  0.92419000  0.95190000  1.0
  C  C44  1  0.58961000  0.11824000  0.94978000  1.0
  C  C45  1  0.41039000  0.88177000  0.05022000  1.0
  C  C46  1  0.64232000  0.20939000  0.94841000  1.0
  C  C47  1  0.35768000  0.79061000  0.05159000  1.0
  C  C48  1  0.69875000  0.26581000  0.99915000  1.0
  C  C49  1  0.30126000  0.73419000  0.00085000  1.0
  C  C50  1  0.69190000  0.18697000  0.08576000  1.0
  C  C51  1  0.30810000  0.81303000  0.91424000  1.0
  C  C52  1  0.65531000  0.08788000  0.13176000  1.0
  C  C53  1  0.34469000  0.91212000  0.86824000  1.0
  C  C54  1  0.06128000  0.00049000  0.31107000  1.0
  C  C55  1  0.93871000  0.99951000  0.68893000  1.0
  C  C56  1  0.82401000  0.34617000  0.29456000  1.0
  C  C57  1  0.17599000  0.65383000  0.70544000  1.0
  C  C58  1  0.67523000  0.43791000  0.31410000  1.0
  C  C59  1  0.32477000  0.56209000  0.68590000  1.0
  C  C60  1  0.02589000  0.88744000  0.31732000  1.0
  C  C61  1  0.97411000  0.11256000  0.68268000  1.0
  C  C62  1  0.00612000  0.86013000  0.23086000  1.0
  C  C63  1  0.99388000  0.13987000  0.76914000  1.0
  C  C64  1  0.00710000  0.81078000  0.40905000  1.0
  C  C65  1  0.99290000  0.18922000  0.59096000  1.0
  C  C66  1  0.68461000  0.49834000  0.38159000  1.0
  C  C67  1  0.31540000  0.50166000  0.61841000  1.0
  C  C68  1  0.97150000  0.70632000  0.41284000  1.0
  C  C69  1  0.02851000  0.29368000  0.58716000  1.0
  C  C70  1  0.96315000  0.75825000  0.23347000  1.0
  C  C71  1  0.03685000  0.24174000  0.76653000  1.0
  C  C72  1  0.94909000  0.68022000  0.32654000  1.0
  C  C73  1  0.05091000  0.31977000  0.67346000  1.0
  C  C74  1  0.93380000  0.73945000  0.14023000  1.0
  C  C75  1  0.06620000  0.26055000  0.85977000  1.0
  C  C76  1  0.54860000  0.59066000  0.39543000  1.0
  C  C77  1  0.45140000  0.40934000  0.60457000  1.0
  C  C78  1  0.38814000  0.55654000  0.27558000  1.0
  C  C79  1  0.61186000  0.44346000  0.72442000  1.0
  C  C80  1  0.86687000  0.65834000  0.12821000  1.0
  C  C81  1  0.13313000  0.34166000  0.87179000  1.0
  C  C82  1  0.39920000  0.61823000  0.34140000  1.0
  C  C83  1  0.60080000  0.38177000  0.65860000  1.0
  C  C84  1  0.63954000  0.78822000  0.59270000  1.0
  C  C85  1  0.36046000  0.21178000  0.40730000  1.0
  C  C86  1  0.45763000  0.75052000  0.48006000  1.0
  C  C87  1  0.54237000  0.24948000  0.51994000  1.0
  C  C88  1  0.35446000  0.90745000  0.56446000  1.0
  C  C89  1  0.64554000  0.09255000  0.43554000  1.0
  C  C90  1  0.48463000  0.81417000  0.54611000  1.0
  C  C91  1  0.51537000  0.18583000  0.45390000  1.0
  C  C92  1  0.56967000  0.65398000  0.46317000  1.0
  C  C93  1  0.43033000  0.34602000  0.53683000  1.0
  C  C94  1  0.54080000  0.93549000  0.67036000  1.0
  C  C95  1  0.45920000  0.06450000  0.32964000  1.0
  C  C96  1  0.38372000  0.96830000  0.62664000  1.0
  C  C97  1  0.61627000  0.03170000  0.37336000  1.0
  C  C98  1  0.52554000  0.46694000  0.26112000  1.0
  C  C99  1  0.47446000  0.53306000  0.73888000  1.0
  C  C100  1  0.83644000  0.64082000  0.03470000  1.0
  C  C101  1  0.16356000  0.35918000  0.96530000  1.0
  C  C102  1  0.77082000  0.55008000  0.03289000  1.0
  C  C103  1  0.22918000  0.44992000  0.96711000  1.0
  C  C104  1  0.74284000  0.53250000  0.94366000  1.0
  C  C105  1  0.25716000  0.46750000  0.05634000  1.0
  C  C106  1  0.78198000  0.60505000  0.85728000  1.0
  C  C107  1  0.21802000  0.39495000  0.14272000  1.0
  C  C108  1  0.87115000  0.71030000  0.94329000  1.0
  C  C109  1  0.12885000  0.28970000  0.05671000  1.0
  N  N110  1  0.66623000  0.84657000  0.65313000  1.0
  N  N111  1  0.33377000  0.15343000  0.34688000  1.0
  N  N112  1  0.84473000  0.69231000  0.85782000  1.0
  N  N113  1  0.15527000  0.30769000  0.14218000  1.0
  O  O114  1  0.96326000  0.32815000  0.33910000  1.0
  O  O115  1  0.03674000  0.67185000  0.66090000  1.0
  O  O116  1  0.04797000  0.03743000  0.38589000  1.0
  O  O117  1  0.95202000  0.96257000  0.61410000  1.0
  O  O118  1  0.10277000  0.05851000  0.22791000  1.0
  O  O119  1  0.89723000  0.94149000  0.77209000  1.0
  O  O120  1  0.81239000  0.29215000  0.23365000  1.0
  O  O121  1  0.18761000  0.70785000  0.76635000  1.0
