# generated using pymatgen
data_ZnH24C28(NO4)2
_symmetry_space_group_name_H-M   'P 1'
_cell_length_a   14.01670000
_cell_length_b   15.19610000
_cell_length_c   15.47773305
_cell_angle_alpha   87.26411561
_cell_angle_beta   64.82600921
_cell_angle_gamma   87.41330000
_symmetry_Int_Tables_number   1
_chemical_formula_structural   ZnH24C28(NO4)2
_chemical_formula_sum   'Zn2 H48 C56 N4 O16'
_cell_volume   2979.09539840
_cell_formula_units_Z   2
loop_
 _symmetry_equiv_pos_site_id
 _symmetry_equiv_pos_as_xyz
  1  'x, y, z'
loop_
 _atom_site_type_symbol
 _atom_site_label
 _atom_site_symmetry_multiplicity
 _atom_site_fract_x
 _atom_site_fract_y
 _atom_site_fract_z
 _atom_site_occupancy
  Zn  Zn0  1  0.08649000  0.49480000  0.52420000  1.0
  Zn  Zn1  1  0.90738000  0.50806000  0.48960000  1.0
  H  H2  1  0.64284000  0.60272000  0.12611000  1.0
  H  H3  1  0.32985000  0.52576000  0.86874000  1.0
  H  H4  1  0.30824000  0.53344000  0.23592000  1.0
  H  H5  1  0.67427000  0.51861000  0.76868000  1.0
  H  H6  1  0.03984000  0.50418000  0.17718000  1.0
  H  H7  1  0.94063000  0.56256000  0.82559000  1.0
  H  H8  1  0.82120000  0.59419000  0.99574000  1.0
  H  H9  1  0.15479000  0.51143000  0.00178000  1.0
  H  H10  1  0.45205000  0.58294000  0.18638000  1.0
  H  H11  1  0.52149000  0.53843000  0.80935000  1.0
  H  H12  1  0.10611000  0.21065000  0.56127000  1.0
  H  H13  1  0.85158000  0.78483000  0.54087000  1.0
  H  H14  1  0.91968000  0.23769000  0.39979000  1.0
  H  H15  1  0.19128000  0.77158000  0.41316000  1.0
  H  H16  1  0.52703000  0.41792000  0.62512000  1.0
  H  H17  1  0.45004000  0.61368000  0.42740000  1.0
  H  H18  1  0.71139000  0.43381000  0.60857000  1.0
  H  H19  1  0.26301000  0.60398000  0.44896000  1.0
  H  H20  1  0.62068000  0.56558000  0.35596000  1.0
  H  H21  1  0.41269000  0.35834000  0.57467000  1.0
  H  H22  1  0.12720000  0.95545000  0.65651000  1.0
  H  H23  1  0.01070000  0.95608000  0.63746000  1.0
  H  H24  1  0.07689000  0.10828000  0.72233000  1.0
  H  H25  1  0.95826000  0.10465000  0.70910000  1.0
  H  H26  1  0.90608000  0.96870000  0.82121000  1.0
  H  H27  1  0.92488000  0.06134000  0.87740000  1.0
  H  H28  1  0.02343000  0.97623000  0.83699000  1.0
  H  H29  1  0.72955000  0.03877000  0.62554000  1.0
  H  H30  1  0.85444000  0.03383000  0.62959000  1.0
  H  H31  1  0.69917000  0.88179000  0.69329000  1.0
  H  H32  1  0.81819000  0.88313000  0.70636000  1.0
  H  H33  1  0.74500000  0.01474000  0.81532000  1.0
  H  H34  1  0.66661000  0.92032000  0.86123000  1.0
  H  H35  1  0.62466000  0.00790000  0.80438000  1.0
  H  H36  1  0.03051000  0.97021000  0.29528000  1.0
  H  H37  1  0.05901000  0.07539000  0.23420000  1.0
  H  H38  1  0.86981000  0.96175000  0.26802000  1.0
  H  H39  1  0.89058000  0.06839000  0.21310000  1.0
  H  H40  1  0.06274000  0.01445000  0.08236000  1.0
  H  H41  1  0.95586000  0.95190000  0.08867000  1.0
  H  H42  1  0.04232000  0.90722000  0.13720000  1.0
  H  H43  1  0.20171000  0.02747000  0.27990000  1.0
  H  H44  1  0.23032000  0.91539000  0.24434000  1.0
  H  H45  1  0.38040000  0.03700000  0.27656000  1.0
  H  H46  1  0.40872000  0.92565000  0.24349000  1.0
  H  H47  1  0.39042000  0.96301000  0.08997000  1.0
  H  H48  1  0.48796000  0.02745000  0.09904000  1.0
  H  H49  1  0.36161000  0.07493000  0.12292000  1.0
  C  C50  1  0.99865000  0.33161000  0.49832000  1.0
  C  C51  1  0.01673000  0.67044000  0.49574000  1.0
  C  C52  1  0.88200000  0.51548000  0.68775000  1.0
  C  C53  1  0.10287000  0.50837000  0.32052000  1.0
  C  C54  1  0.81214000  0.53795000  0.78873000  1.0
  C  C55  1  0.16975000  0.51791000  0.21545000  1.0
  C  C56  1  0.78889000  0.57789000  0.94573000  1.0
  C  C57  1  0.18826000  0.51784000  0.05319000  1.0
  C  C58  1  0.85522000  0.56045000  0.85211000  1.0
  C  C59  1  0.12449000  0.51303000  0.14988000  1.0
  C  C60  1  0.70366000  0.53617000  0.82005000  1.0
  C  C61  1  0.27684000  0.53140000  0.18275000  1.0
  C  C62  1  0.63375000  0.55358000  0.91515000  1.0
  C  C63  1  0.34349000  0.53965000  0.08443000  1.0
  C  C64  1  0.67793000  0.57321000  0.97977000  1.0
  C  C65  1  0.29817000  0.52997000  0.01836000  1.0
  C  C66  1  0.52053000  0.54857000  0.94956000  1.0
  C  C67  1  0.45547000  0.55401000  0.04872000  1.0
  C  C68  1  0.50250000  0.57441000  0.11084000  1.0
  C  C69  1  0.47225000  0.53847000  0.88599000  1.0
  C  C70  1  0.60883000  0.58554000  0.07762000  1.0
  C  C71  1  0.36540000  0.53146000  0.91873000  1.0
  C  C72  1  0.07472000  0.09093000  0.51105000  1.0
  C  C73  1  0.92899000  0.90921000  0.50119000  1.0
  C  C74  1  0.06800000  0.18183000  0.52151000  1.0
  C  C75  1  0.92677000  0.81763000  0.50979000  1.0
  C  C76  1  0.00991000  0.23457000  0.48358000  1.0
  C  C77  1  0.02088000  0.76801000  0.48072000  1.0
  C  C78  1  0.96307000  0.19658000  0.43122000  1.0
  C  C79  1  0.11750000  0.80990000  0.43795000  1.0
  C  C80  1  0.97309000  0.10599000  0.41739000  1.0
  C  C81  1  0.12027000  0.90129000  0.42523000  1.0
  C  C82  1  0.02653000  0.05063000  0.45967000  1.0
  C  C83  1  0.02594000  0.95334000  0.45955000  1.0
  C  C84  1  0.58426000  0.45341000  0.56329000  1.0
  C  C85  1  0.40466000  0.55596000  0.46340000  1.0
  C  C86  1  0.68562000  0.46273000  0.55596000  1.0
  C  C87  1  0.30065000  0.55233000  0.47605000  1.0
  C  C88  1  0.73149000  0.54544000  0.41732000  1.0
  C  C89  1  0.28037000  0.42067000  0.55930000  1.0
  C  C90  1  0.63416000  0.53723000  0.41584000  1.0
  C  C91  1  0.38421000  0.41611000  0.54738000  1.0
  C  C92  1  0.55646000  0.49175000  0.49260000  1.0
  C  C93  1  0.44832000  0.48729000  0.50013000  1.0
  C  C94  1  0.06973000  0.99866000  0.64283000  1.0
  C  C95  1  0.01715000  0.06327000  0.72298000  1.0
  C  C96  1  0.96500000  0.01483000  0.81991000  1.0
  C  C97  1  0.79375000  0.99356000  0.62403000  1.0
  C  C98  1  0.75235000  0.92531000  0.70597000  1.0
  C  C99  1  0.69408000  0.96941000  0.80199000  1.0
  C  C100  1  0.99476000  0.03059000  0.27786000  1.0
  C  C101  1  0.93124000  0.00805000  0.22379000  1.0
  C  C102  1  0.00195000  0.96820000  0.12775000  1.0
  C  C103  1  0.24802000  0.96746000  0.28250000  1.0
  C  C104  1  0.36512000  0.98568000  0.23658000  1.0
  C  C105  1  0.40324000  0.01436000  0.13140000  1.0
  N  N106  1  0.75843000  0.51051000  0.48454000  1.0
  N  N107  1  0.23758000  0.48597000  0.52589000  1.0
  N  N108  1  0.80988000  0.60072000  0.33976000  1.0
  N  N109  1  0.21005000  0.34932000  0.61845000  1.0
  O  O110  1  0.05929000  0.36492000  0.52990000  1.0
  O  O111  1  0.93016000  0.63491000  0.51129000  1.0
  O  O112  1  0.92958000  0.37405000  0.47853000  1.0
  O  O113  1  0.09942000  0.62937000  0.49300000  1.0
  O  O114  1  0.98100000  0.52209000  0.65982000  1.0
  O  O115  1  0.00360000  0.52108000  0.34827000  1.0
  O  O116  1  0.83706000  0.49155000  0.63647000  1.0
  O  O117  1  0.14938000  0.48882000  0.37407000  1.0
  O  O118  1  0.84442000  0.66276000  0.36479000  1.0
  O  O119  1  0.82896000  0.58081000  0.25726000  1.0
  O  O120  1  0.12506000  0.37275000  0.68202000  1.0
  O  O121  1  0.24607000  0.27309000  0.60046000  1.0
  O  O122  1  0.13084000  0.04072000  0.55128000  1.0
  O  O123  1  0.83412000  0.95572000  0.53106000  1.0
  O  O124  1  0.92575000  0.07414000  0.36381000  1.0
  O  O125  1  0.21823000  0.93856000  0.38047000  1.0
