# generated using pymatgen
data_CuH4C8N4(OF)2
_symmetry_space_group_name_H-M   'P 1'
_cell_length_a   9.79132000
_cell_length_b   15.76220000
_cell_length_c   15.77470000
_cell_angle_alpha   84.50800000
_cell_angle_beta   71.96660000
_cell_angle_gamma   71.93620000
_symmetry_Int_Tables_number   1
_chemical_formula_structural   CuH4C8N4(OF)2
_chemical_formula_sum   'Cu8 H32 C64 N32 O16 F16'
_cell_volume   2200.85813018
_cell_formula_units_Z   8
loop_
 _symmetry_equiv_pos_site_id
 _symmetry_equiv_pos_as_xyz
  1  'x, y, z'
loop_
 _atom_site_type_symbol
 _atom_site_label
 _atom_site_symmetry_multiplicity
 _atom_site_fract_x
 _atom_site_fract_y
 _atom_site_fract_z
 _atom_site_occupancy
  Cu  Cu0  1  0.12283000  0.00040000  0.26296000  1.0
  Cu  Cu1  1  0.12293000  0.26295000  0.00046000  1.0
  Cu  Cu2  1  0.38673000  0.99923000  0.73738000  1.0
  Cu  Cu3  1  0.38630000  0.73727000  0.99970000  1.0
  Cu  Cu4  1  0.63558000  0.50049000  0.23687000  1.0
  Cu  Cu5  1  0.63624000  0.23801000  0.50009000  1.0
  Cu  Cu6  1  0.37331000  0.76325000  0.49981000  1.0
  Cu  Cu7  1  0.37335000  0.49970000  0.76294000  1.0
  H  H8  1  0.84199000  0.00810000  0.21146000  1.0
  H  H9  1  0.84254000  0.21108000  0.00778000  1.0
  H  H10  1  0.06069000  0.99227000  0.78905000  1.0
  H  H11  1  0.06140000  0.78895000  0.99238000  1.0
  H  H12  1  0.30355000  0.50759000  0.28930000  1.0
  H  H13  1  0.30442000  0.28840000  0.50767000  1.0
  H  H14  1  0.10066000  0.71085000  0.49274000  1.0
  H  H15  1  0.10057000  0.49224000  0.71057000  1.0
  H  H16  1  0.94231000  0.86652000  0.33780000  1.0
  H  H17  1  0.94228000  0.33693000  0.86688000  1.0
  H  H18  1  0.14908000  0.13253000  0.66197000  1.0
  H  H19  1  0.14737000  0.66177000  0.13331000  1.0
  H  H20  1  0.52943000  0.36663000  0.16195000  1.0
  H  H21  1  0.53022000  0.16210000  0.36655000  1.0
  H  H22  1  0.05937000  0.83817000  0.63333000  1.0
  H  H23  1  0.05936000  0.63343000  0.83768000  1.0
  H  H24  1  0.88425000  0.31106000  0.49151000  1.0
  H  H25  1  0.88483000  0.49032000  0.31161000  1.0
  H  H26  1  0.68631000  0.68871000  0.50975000  1.0
  H  H27  1  0.68711000  0.50929000  0.68872000  1.0
  H  H28  1  0.62673000  0.81151000  0.00943000  1.0
  H  H29  1  0.62201000  0.00979000  0.81012000  1.0
  H  H30  1  0.44661000  0.99064000  0.18868000  1.0
  H  H31  1  0.44674000  0.18835000  0.99044000  1.0
  H  H32  1  0.26710000  0.13621000  0.30358000  1.0
  H  H33  1  0.26843000  0.30383000  0.13570000  1.0
  H  H34  1  0.70959000  0.86405000  0.69627000  1.0
  H  H35  1  0.70815000  0.69619000  0.86459000  1.0
  H  H36  1  0.82224000  0.63556000  0.19654000  1.0
  H  H37  1  0.82130000  0.19615000  0.63520000  1.0
  H  H38  1  0.65407000  0.80331000  0.36418000  1.0
  H  H39  1  0.65391000  0.36445000  0.80382000  1.0
  C  C40  1  0.08437000  0.12706000  0.12716000  1.0
  C  C41  1  0.33792000  0.87339000  0.87325000  1.0
  C  C42  1  0.46162000  0.62695000  0.37332000  1.0
  C  C43  1  0.46181000  0.37300000  0.62703000  1.0
  C  C44  1  0.89115000  0.05602000  0.16849000  1.0
  C  C45  1  0.89150000  0.16824000  0.05585000  1.0
  C  C46  1  0.11487000  0.94434000  0.83200000  1.0
  C  C47  1  0.11531000  0.83198000  0.94445000  1.0
  C  C48  1  0.30987000  0.55561000  0.33218000  1.0
  C  C49  1  0.31045000  0.33146000  0.55561000  1.0
  C  C50  1  0.19762000  0.66799000  0.44470000  1.0
  C  C51  1  0.19768000  0.44419000  0.66781000  1.0
  C  C52  1  0.82847000  0.10445000  0.10447000  1.0
  C  C53  1  0.03680000  0.89588000  0.89601000  1.0
  C  C54  1  0.18327000  0.60401000  0.39621000  1.0
  C  C55  1  0.18360000  0.39541000  0.60396000  1.0
  C  C56  1  0.22298000  0.85227000  0.14782000  1.0
  C  C57  1  0.22511000  0.14767000  0.85210000  1.0
  C  C58  1  0.62125000  0.35228000  0.35170000  1.0
  C  C59  1  0.32593000  0.64807000  0.64787000  1.0
  C  C60  1  0.02216000  0.83822000  0.27449000  1.0
  C  C61  1  0.02272000  0.27375000  0.83847000  1.0
  C  C62  1  0.13675000  0.16097000  0.72537000  1.0
  C  C63  1  0.13533000  0.72524000  0.16160000  1.0
  C  C64  1  0.54618000  0.33837000  0.22526000  1.0
  C  C65  1  0.54662000  0.22548000  0.33816000  1.0
  C  C66  1  0.11095000  0.77478000  0.66158000  1.0
  C  C67  1  0.11097000  0.66175000  0.77440000  1.0
  C  C68  1  0.02823000  0.75814000  0.24155000  1.0
  C  C69  1  0.02912000  0.24081000  0.75831000  1.0
  C  C70  1  0.51903000  0.25841000  0.25831000  1.0
  C  C71  1  0.03682000  0.74174000  0.74143000  1.0
  C  C72  1  0.91371000  0.12579000  0.38972000  1.0
  C  C73  1  0.91456000  0.38938000  0.12603000  1.0
  C  C74  1  0.43058000  0.87442000  0.61106000  1.0
  C  C75  1  0.42998000  0.61085000  0.87378000  1.0
  C  C76  1  0.55363000  0.62655000  0.11083000  1.0
  C  C77  1  0.55161000  0.11167000  0.62452000  1.0
  C  C78  1  0.29060000  0.88955000  0.37396000  1.0
  C  C79  1  0.29066000  0.37361000  0.88910000  1.0
  C  C80  1  0.93944000  0.25148000  0.44951000  1.0
  C  C81  1  0.93992000  0.44865000  0.25184000  1.0
  C  C82  1  0.64045000  0.74840000  0.55155000  1.0
  C  C83  1  0.64087000  0.55111000  0.74839000  1.0
  C  C84  1  0.63961000  0.75184000  0.05126000  1.0
  C  C85  1  0.63687000  0.05145000  0.75043000  1.0
  C  C86  1  0.44187000  0.94887000  0.24836000  1.0
  C  C87  1  0.44207000  0.24803000  0.94863000  1.0
  C  C88  1  0.09125000  0.22740000  0.40265000  1.0
  C  C89  1  0.09191000  0.40206000  0.22747000  1.0
  C  C90  1  0.72199000  0.77256000  0.59802000  1.0
  C  C91  1  0.72188000  0.59766000  0.77294000  1.0
  C  C92  1  0.74494000  0.72724000  0.09795000  1.0
  C  C93  1  0.74316000  0.09746000  0.72651000  1.0
  C  C94  1  0.56941000  0.90202000  0.27275000  1.0
  C  C95  1  0.56954000  0.27249000  0.90193000  1.0
  C  C96  1  0.15049000  0.15455000  0.34561000  1.0
  C  C97  1  0.15155000  0.34551000  0.15428000  1.0
  C  C98  1  0.65245000  0.84571000  0.65470000  1.0
  C  C99  1  0.65147000  0.65451000  0.84593000  1.0
  C  C100  1  0.74721000  0.65426000  0.15473000  1.0
  C  C101  1  0.74601000  0.15449000  0.65361000  1.0
  C  C102  1  0.55579000  0.84528000  0.34573000  1.0
  C  C103  1  0.55575000  0.34570000  0.84540000  1.0
  N  N104  1  0.01372000  0.06771000  0.17943000  1.0
  N  N105  1  0.01411000  0.17914000  0.06754000  1.0
  N  N106  1  0.26004000  0.93263000  0.82102000  1.0
  N  N107  1  0.26045000  0.82112000  0.93269000  1.0
  N  N108  1  0.44330000  0.56744000  0.32110000  1.0
  N  N109  1  0.44378000  0.32073000  0.56744000  1.0
  N  N110  1  0.33178000  0.67908000  0.43289000  1.0
  N  N111  1  0.33180000  0.43260000  0.67890000  1.0
  N  N112  1  0.11608000  0.88363000  0.22858000  1.0
  N  N113  1  0.11701000  0.22803000  0.88375000  1.0
  N  N114  1  0.23022000  0.11607000  0.77144000  1.0
  N  N115  1  0.22846000  0.77136000  0.11638000  1.0
  N  N116  1  0.59472000  0.38370000  0.27101000  1.0
  N  N117  1  0.59521000  0.27148000  0.38315000  1.0
  N  N118  1  0.25037000  0.72888000  0.61642000  1.0
  N  N119  1  0.25038000  0.61652000  0.72855000  1.0
  N  N120  1  0.06429000  0.10602000  0.33959000  1.0
  N  N121  1  0.06533000  0.33955000  0.10576000  1.0
  N  N122  1  0.51183000  0.89443000  0.66085000  1.0
  N  N123  1  0.51064000  0.66076000  0.89411000  1.0
  N  N124  1  0.65445000  0.60611000  0.16077000  1.0
  N  N125  1  0.65370000  0.16090000  0.60514000  1.0
  N  N126  1  0.42104000  0.83947000  0.39421000  1.0
  N  N127  1  0.42103000  0.39409000  0.83939000  1.0
  N  N128  1  0.85482000  0.20190000  0.44253000  1.0
  N  N129  1  0.85513000  0.44195000  0.20232000  1.0
  N  N130  1  0.49951000  0.79813000  0.55850000  1.0
  N  N131  1  0.49972000  0.55813000  0.79766000  1.0
  N  N132  1  0.54748000  0.70270000  0.05810000  1.0
  N  N133  1  0.54532000  0.05934000  0.70058000  1.0
  N  N134  1  0.30755000  0.94224000  0.29776000  1.0
  N  N135  1  0.30781000  0.29745000  0.94183000  1.0
  O  O136  1  0.20334000  0.13433000  0.13448000  1.0
  O  O137  1  0.47137000  0.86643000  0.86593000  1.0
  O  O138  1  0.58781000  0.63434000  0.36605000  1.0
  O  O139  1  0.58788000  0.36568000  0.63464000  1.0
  O  O140  1  0.31060000  0.89474000  0.10559000  1.0
  O  O141  1  0.31397000  0.10585000  0.89394000  1.0
  O  O142  1  0.66708000  0.39458000  0.39392000  1.0
  O  O143  1  0.45614000  0.60587000  0.60568000  1.0
  O  O144  1  0.83546000  0.07825000  0.38569000  1.0
  O  O145  1  0.83620000  0.38529000  0.07851000  1.0
  O  O146  1  0.30080000  0.92213000  0.61525000  1.0
  O  O147  1  0.30002000  0.61495000  0.92099000  1.0
  O  O148  1  0.47077000  0.57929000  0.11491000  1.0
  O  O149  1  0.46923000  0.11620000  0.57710000  1.0
  O  O150  1  0.16470000  0.88561000  0.42136000  1.0
  O  O151  1  0.16476000  0.42074000  0.88485000  1.0
  F  F152  1  0.70629000  0.09073000  0.09075000  1.0
  F  F153  1  0.88727000  0.90943000  0.90975000  1.0
  F  F154  1  0.04745000  0.59024000  0.40994000  1.0
  F  F155  1  0.04785000  0.40876000  0.59024000  1.0
  F  F156  1  0.92846000  0.71301000  0.28648000  1.0
  F  F157  1  0.92921000  0.28554000  0.71323000  1.0
  F  F158  1  0.46346000  0.21344000  0.21362000  1.0
  F  F159  1  0.89181000  0.78660000  0.78625000  1.0
  F  F160  1  0.18057000  0.27581000  0.41056000  1.0
  F  F161  1  0.18122000  0.40989000  0.27595000  1.0
  F  F162  1  0.86753000  0.72395000  0.58990000  1.0
  F  F163  1  0.86761000  0.58966000  0.72478000  1.0
  F  F164  1  0.84261000  0.77538000  0.09009000  1.0
  F  F165  1  0.83998000  0.08937000  0.77518000  1.0
  F  F166  1  0.70722000  0.90978000  0.22448000  1.0
  F  F167  1  0.70744000  0.22413000  0.90963000  1.0
