# generated using pymatgen
data_CuH7C7SIN
_symmetry_space_group_name_H-M   'P 1'
_cell_length_a   5.35008000
_cell_length_b   8.46694000
_cell_length_c   22.08060000
_cell_angle_alpha   89.99620000
_cell_angle_beta   89.99840000
_cell_angle_gamma   100.74200000
_symmetry_Int_Tables_number   1
_chemical_formula_structural   CuH7C7SIN
_chemical_formula_sum   'Cu4 H28 C28 S4 I4 N4'
_cell_volume   982.69731272
_cell_formula_units_Z   4
loop_
 _symmetry_equiv_pos_site_id
 _symmetry_equiv_pos_as_xyz
  1  'x, y, z'
loop_
 _atom_site_type_symbol
 _atom_site_label
 _atom_site_symmetry_multiplicity
 _atom_site_fract_x
 _atom_site_fract_y
 _atom_site_fract_z
 _atom_site_occupancy
  Cu  Cu0  1  0.26102000  0.01054000  0.49519000  1.0
  Cu  Cu1  1  0.73900000  0.48952000  0.99519000  1.0
  Cu  Cu2  1  0.73894000  0.98948000  0.50482000  1.0
  Cu  Cu3  1  0.26101000  0.51051000  0.00481000  1.0
  H  H4  1  0.50498000  0.04352000  0.36927000  1.0
  H  H5  1  0.49500000  0.45643000  0.86928000  1.0
  H  H6  1  0.49500000  0.95650000  0.63072000  1.0
  H  H7  1  0.50500000  0.54357000  0.13072000  1.0
  H  H8  1  0.24350000  0.05008000  0.27705000  1.0
  H  H9  1  0.75652000  0.44986000  0.77705000  1.0
  H  H10  1  0.75651000  0.94995000  0.72294000  1.0
  H  H11  1  0.24348000  0.55010000  0.22295000  1.0
  H  H12  1  0.43030000  0.20209000  0.18534000  1.0
  H  H13  1  0.56964000  0.29791000  0.68534000  1.0
  H  H14  1  0.56974000  0.79790000  0.81464000  1.0
  H  H15  1  0.43035000  0.70208000  0.31466000  1.0
  H  H16  1  0.87029000  0.35704000  0.18886000  1.0
  H  H17  1  0.12964000  0.14295000  0.68886000  1.0
  H  H18  1  0.12974000  0.64296000  0.81114000  1.0
  H  H19  1  0.87038000  0.85702000  0.31115000  1.0
  H  H20  1  0.12675000  0.36132000  0.28354000  1.0
  H  H21  1  0.87320000  0.13867000  0.78356000  1.0
  H  H22  1  0.87326000  0.63870000  0.71646000  1.0
  H  H23  1  0.12682000  0.86129000  0.21645000  1.0
  H  H24  1  0.11647000  0.43744000  0.39240000  1.0
  H  H25  1  0.88353000  0.06257000  0.89241000  1.0
  H  H26  1  0.88350000  0.56258000  0.60760000  1.0
  H  H27  1  0.11650000  0.93743000  0.10758000  1.0
  H  H28  1  0.25940000  0.32077000  0.44257000  1.0
  H  H29  1  0.74056000  0.17920000  0.94257000  1.0
  H  H30  1  0.74055000  0.67924000  0.55744000  1.0
  H  H31  1  0.25944000  0.82079000  0.05743000  1.0
  C  C32  1  0.99159000  0.19422000  0.38598000  1.0
  C  C33  1  0.00836000  0.30579000  0.88599000  1.0
  C  C34  1  0.00838000  0.80579000  0.61402000  1.0
  C  C35  1  0.99164000  0.69421000  0.11401000  1.0
  C  C36  1  0.83100000  0.20418000  0.33251000  1.0
  C  C37  1  0.16892000  0.29580000  0.83252000  1.0
  C  C38  1  0.16899000  0.79584000  0.66749000  1.0
  C  C39  1  0.83110000  0.70419000  0.16748000  1.0
  C  C40  1  0.58310000  0.11397000  0.33000000  1.0
  C  C41  1  0.41685000  0.38598000  0.83001000  1.0
  C  C42  1  0.41690000  0.88603000  0.66999000  1.0
  C  C43  1  0.58315000  0.61401000  0.16999000  1.0
  C  C44  1  0.43833000  0.11627000  0.27775000  1.0
  C  C45  1  0.56164000  0.38370000  0.77776000  1.0
  C  C46  1  0.56166000  0.88375000  0.72224000  1.0
  C  C47  1  0.43839000  0.61628000  0.22224000  1.0
  C  C48  1  0.54134000  0.20269000  0.22685000  1.0
  C  C49  1  0.45861000  0.29728000  0.72686000  1.0
  C  C50  1  0.45867000  0.79730000  0.77314000  1.0
  C  C51  1  0.54140000  0.70269000  0.27314000  1.0
  C  C52  1  0.78902000  0.29160000  0.22897000  1.0
  C  C53  1  0.21090000  0.20838000  0.72897000  1.0
  C  C54  1  0.21098000  0.70841000  0.77102000  1.0
  C  C55  1  0.78908000  0.79157000  0.27103000  1.0
  C  C56  1  0.93139000  0.29530000  0.28194000  1.0
  C  C57  1  0.06855000  0.20469000  0.78196000  1.0
  C  C58  1  0.06861000  0.70470000  0.71805000  1.0
  C  C59  1  0.93146000  0.79529000  0.21805000  1.0
  S  S60  1  0.99350000  0.00892000  0.41551000  1.0
  S  S61  1  0.00647000  0.49109000  0.91550000  1.0
  S  S62  1  0.00647000  0.99109000  0.58450000  1.0
  S  S63  1  0.99354000  0.50892000  0.08450000  1.0
  I  I64  1  0.59615000  0.26980000  0.52263000  1.0
  I  I65  1  0.40385000  0.23020000  0.02258000  1.0
  I  I66  1  0.40381000  0.73021000  0.47741000  1.0
  I  I67  1  0.59617000  0.76983000  0.97742000  1.0
  N  N68  1  0.13623000  0.32674000  0.40725000  1.0
  N  N69  1  0.86374000  0.17325000  0.90726000  1.0
  N  N70  1  0.86374000  0.67327000  0.59275000  1.0
  N  N71  1  0.13628000  0.82675000  0.09275000  1.0
