# generated using pymatgen
data_ZnSiH8C24N12(O8F3)2
_symmetry_space_group_name_H-M   'P 1'
_cell_length_a   7.43262000
_cell_length_b   14.02800000
_cell_length_c   14.05560000
_cell_angle_alpha   90.00260000
_cell_angle_beta   89.97840000
_cell_angle_gamma   90.01240000
_symmetry_Int_Tables_number   1
_chemical_formula_structural   ZnSiH8C24N12(O8F3)2
_chemical_formula_sum   'Zn1 Si1 H8 C24 N12 O16 F6'
_cell_volume   1465.50408959
_cell_formula_units_Z   1
loop_
 _symmetry_equiv_pos_site_id
 _symmetry_equiv_pos_as_xyz
  1  'x, y, z'
loop_
 _atom_site_type_symbol
 _atom_site_label
 _atom_site_symmetry_multiplicity
 _atom_site_fract_x
 _atom_site_fract_y
 _atom_site_fract_z
 _atom_site_occupancy
  Zn  Zn0  1  0.49998000  0.50003000  0.50008000  1.0
  Si  Si1  1  0.99998000  0.50002000  0.49995000  1.0
  H  H2  1  0.74053000  0.42210000  0.33717000  1.0
  H  H3  1  0.25989000  0.57804000  0.33718000  1.0
  H  H4  1  0.74030000  0.57790000  0.66295000  1.0
  H  H5  1  0.25918000  0.42223000  0.66299000  1.0
  H  H6  1  0.73753000  0.33787000  0.58001000  1.0
  H  H7  1  0.26220000  0.33787000  0.42010000  1.0
  H  H8  1  0.73775000  0.66217000  0.41997000  1.0
  H  H9  1  0.26252000  0.66217000  0.58016000  1.0
  C  C10  1  0.63105000  0.45528000  0.29709000  1.0
  C  C11  1  0.63207000  0.45198000  0.19841000  1.0
  C  C12  1  0.50013000  0.49991000  0.14324000  1.0
  C  C13  1  0.36824000  0.54795000  0.19842000  1.0
  C  C14  1  0.36935000  0.54479000  0.29709000  1.0
  C  C15  1  0.50020000  0.49987000  0.04363000  1.0
  C  C16  1  0.49984000  0.49983000  0.95653000  1.0
  C  C17  1  0.49989000  0.49987000  0.85691000  1.0
  C  C18  1  0.63189000  0.54787000  0.80173000  1.0
  C  C19  1  0.63075000  0.54471000  0.70305000  1.0
  C  C20  1  0.36879000  0.45534000  0.70306000  1.0
  C  C21  1  0.36781000  0.45201000  0.80174000  1.0
  C  C22  1  0.62930000  0.29758000  0.54591000  1.0
  C  C23  1  0.63053000  0.19870000  0.54877000  1.0
  C  C24  1  0.49994000  0.14358000  0.49995000  1.0
  C  C25  1  0.36934000  0.19870000  0.45118000  1.0
  C  C26  1  0.37044000  0.29758000  0.45417000  1.0
  C  C27  1  0.49989000  0.04357000  0.49991000  1.0
  C  C28  1  0.49999000  0.95647000  0.49988000  1.0
  C  C29  1  0.49999000  0.85646000  0.49992000  1.0
  C  C30  1  0.63054000  0.80135000  0.45104000  1.0
  C  C31  1  0.62950000  0.70246000  0.45407000  1.0
  C  C32  1  0.37074000  0.70246000  0.54601000  1.0
  C  C33  1  0.36951000  0.80134000  0.54887000  1.0
  N  N34  1  0.50020000  0.50006000  0.34572000  1.0
  N  N35  1  0.49975000  0.50006000  0.65443000  1.0
  N  N36  1  0.49984000  0.34613000  0.50008000  1.0
  N  N37  1  0.50017000  0.65392000  0.50009000  1.0
  N  N38  1  0.22198000  0.60322000  0.15303000  1.0
  N  N39  1  0.77823000  0.39667000  0.15295000  1.0
  N  N40  1  0.22155000  0.39674000  0.84719000  1.0
  N  N41  1  0.77834000  0.60304000  0.84710000  1.0
  N  N42  1  0.22480000  0.15328000  0.39477000  1.0
  N  N43  1  0.77523000  0.15328000  0.60504000  1.0
  N  N44  1  0.22493000  0.84675000  0.60528000  1.0
  N  N45  1  0.77494000  0.84677000  0.39451000  1.0
  O  O46  1  0.19722000  0.59084000  0.06694000  1.0
  O  O47  1  0.13545000  0.65763000  0.20497000  1.0
  O  O48  1  0.80114000  0.40799000  0.06656000  1.0
  O  O49  1  0.86648000  0.34326000  0.20506000  1.0
  O  O50  1  0.19927000  0.40767000  0.93368000  1.0
  O  O51  1  0.13255000  0.34375000  0.79498000  1.0
  O  O52  1  0.80271000  0.59089000  0.93326000  1.0
  O  O53  1  0.86544000  0.65715000  0.79510000  1.0
  O  O54  1  0.18575000  0.06996000  0.41435000  1.0
  O  O55  1  0.15415000  0.20297000  0.33242000  1.0
  O  O56  1  0.81477000  0.07012000  0.58512000  1.0
  O  O57  1  0.84554000  0.20285000  0.66763000  1.0
  O  O58  1  0.18538000  0.92992000  0.58544000  1.0
  O  O59  1  0.15471000  0.79715000  0.66790000  1.0
  O  O60  1  0.81368000  0.93019000  0.41387000  1.0
  O  O61  1  0.84582000  0.79700000  0.33226000  1.0
  F  F62  1  0.76714000  0.49957000  0.50052000  1.0
  F  F63  1  0.23281000  0.50048000  0.49943000  1.0
  F  F64  1  0.99867000  0.58567000  0.41429000  1.0
  F  F65  1  0.00096000  0.41432000  0.58557000  1.0
  F  F66  1  0.00004000  0.41413000  0.41452000  1.0
  F  F67  1  0.00019000  0.58591000  0.58539000  1.0
