# generated using pymatgen
data_Al3H24C49O15
_symmetry_space_group_name_H-M   'P 1'
_cell_length_a   12.62540000
_cell_length_b   12.92422340
_cell_length_c   27.66020000
_cell_angle_alpha   89.11825909
_cell_angle_beta   89.01270000
_cell_angle_gamma   61.68557477
_symmetry_Int_Tables_number   1
_chemical_formula_structural   Al3H24C49O15
_chemical_formula_sum   'Al6 H48 C98 O30'
_cell_volume   3972.69425736
_cell_formula_units_Z   2
loop_
 _symmetry_equiv_pos_site_id
 _symmetry_equiv_pos_as_xyz
  1  'x, y, z'
loop_
 _atom_site_type_symbol
 _atom_site_label
 _atom_site_symmetry_multiplicity
 _atom_site_fract_x
 _atom_site_fract_y
 _atom_site_fract_z
 _atom_site_occupancy
  Al  Al0  1  0.40845000  0.40276000  0.50143000  1.0
  Al  Al1  1  0.42170000  0.64406000  0.50044000  1.0
  Al  Al2  1  0.65374000  0.41928000  0.49980000  1.0
  Al  Al3  1  0.92519000  0.91477000  0.01456000  1.0
  Al  Al4  1  0.67732000  0.90364000  0.01761000  1.0
  Al  Al5  1  0.90597000  0.67511000  0.01728000  1.0
  H  H6  1  0.47029000  0.82223000  0.78804000  1.0
  H  H7  1  0.47100000  0.30062000  0.79567000  1.0
  H  H8  1  0.51010000  0.13191000  0.72333000  1.0
  H  H9  1  0.70893000  0.96243000  0.77654000  1.0
  H  H10  1  0.20186000  0.45872000  0.78640000  1.0
  H  H11  1  0.02606000  0.60713000  0.71888000  1.0
  H  H12  1  0.37365000  0.50788000  0.73831000  1.0
  H  H13  1  0.30990000  0.70169000  0.80138000  1.0
  H  H14  1  0.13434000  0.84987000  0.73384000  1.0
  H  H15  1  0.96272000  0.80104000  0.78192000  1.0
  H  H16  1  0.54627000  0.86224000  0.13854000  1.0
  H  H17  1  0.61371000  0.85306000  0.71498000  1.0
  H  H18  1  0.44848000  0.94827000  0.21626000  1.0
  H  H19  1  0.44474000  0.93964000  0.30495000  1.0
  H  H20  1  0.83370000  0.50696000  0.13312000  1.0
  H  H21  1  0.88867000  0.38011000  0.20804000  1.0
  H  H22  1  0.87049000  0.36365000  0.29654000  1.0
  H  H23  1  0.76964000  0.45153000  0.37488000  1.0
  H  H24  1  0.86827000  0.07706000  0.13760000  1.0
  H  H25  1  0.81587000  0.22856000  0.37457000  1.0
  H  H26  1  0.95436000  0.11941000  0.21100000  1.0
  H  H27  1  0.50494000  0.61365000  0.74197000  1.0
  H  H28  1  0.93949000  0.16629000  0.29803000  1.0
  H  H29  1  0.52960000  0.07542000  0.14729000  1.0
  H  H30  1  0.41604000  0.11867000  0.22626000  1.0
  H  H31  1  0.48643000  0.20886000  0.38558000  1.0
  H  H32  1  0.02266000  0.56366000  0.15213000  1.0
  H  H33  1  0.17351000  0.50017000  0.38869000  1.0
  H  H34  1  0.02473000  0.47457000  0.23323000  1.0
  H  H35  1  0.07156000  0.45689000  0.32028000  1.0
  H  H36  1  0.09647000  0.85473000  0.13969000  1.0
  H  H37  1  0.71246000  0.48186000  0.79908000  1.0
  H  H38  1  0.15621000  0.92652000  0.21233000  1.0
  H  H39  1  0.20661000  0.90662000  0.29911000  1.0
  H  H40  1  0.24706000  0.79101000  0.37645000  1.0
  H  H41  1  0.85582000  0.51258000  0.72599000  1.0
  H  H42  1  0.82117000  0.72120000  0.77200000  1.0
  H  H43  1  0.82396000  0.19789000  0.79666000  1.0
  H  H44  1  0.86306000  0.02927000  0.72431000  1.0
  H  H45  1  0.62518000  0.36743000  0.74343000  1.0
  H  H46  1  0.34453000  0.86802000  0.41816000  1.0
  H  H47  1  0.34340000  0.89063000  0.35400000  1.0
  H  H48  1  0.35177000  0.99475000  0.39373000  1.0
  H  H49  1  0.30650000  0.32268000  0.33721000  1.0
  H  H50  1  0.22640000  0.24158000  0.34899000  1.0
  H  H51  1  0.24414000  0.28189000  0.28785000  1.0
  H  H52  1  0.30236000  0.30814000  0.53193000  1.0
  H  H53  1  0.07895000  0.96190000  0.03061000  1.0
  C  C54  1  0.28115000  0.60970000  0.56968000  1.0
  C  C55  1  0.63292000  0.62620000  0.61536000  1.0
  C  C56  1  0.75080000  0.69726000  0.76474000  1.0
  C  C57  1  0.67080000  0.68046000  0.80597000  1.0
  C  C58  1  0.77037000  0.58140000  0.74018000  1.0
  C  C59  1  0.65538000  0.65445000  0.70806000  1.0
  C  C60  1  0.69051000  0.56405000  0.77990000  1.0
  C  C61  1  0.57533000  0.63759000  0.74927000  1.0
  C  C62  1  0.68275000  0.69421000  0.85591000  1.0
  C  C63  1  0.64405000  0.64033000  0.65812000  1.0
  C  C64  1  0.77615000  0.08935000  0.74061000  1.0
  C  C65  1  0.60850000  0.59993000  0.56788000  1.0
  C  C66  1  0.75441000  0.18347000  0.77982000  1.0
  C  C67  1  0.68414000  0.09430000  0.90193000  1.0
  C  C68  1  0.64876000  0.23348000  0.61778000  1.0
  C  C69  1  0.69037000  0.05254000  0.76848000  1.0
  C  C70  1  0.66870000  0.14635000  0.80910000  1.0
  C  C71  1  0.57965000  0.14637000  0.74016000  1.0
  C  C72  1  0.66525000  0.18354000  0.71085000  1.0
  C  C73  1  0.55789000  0.24052000  0.77935000  1.0
  C  C74  1  0.64368000  0.27734000  0.75146000  1.0
  C  C75  1  0.67372000  0.12143000  0.85920000  1.0
  C  C76  1  0.61721000  0.28305000  0.56995000  1.0
  C  C77  1  0.65983000  0.20774000  0.66066000  1.0
  C  C78  1  0.08879000  0.62793000  0.73784000  1.0
  C  C79  1  0.18699000  0.54544000  0.77428000  1.0
  C  C80  1  0.10597000  0.66699000  0.90264000  1.0
  C  C81  1  0.23025000  0.63864000  0.61754000  1.0
  C  C82  1  0.05393000  0.73574000  0.77145000  1.0
  C  C83  1  0.15179000  0.65277000  0.80923000  1.0
  C  C84  1  0.14928000  0.76307000  0.74591000  1.0
  C  C85  1  0.18435000  0.65558000  0.71098000  1.0
  C  C86  1  0.24738000  0.68064000  0.78239000  1.0
  C  C87  1  0.27983000  0.60860000  0.43349000  1.0
  C  C88  1  0.28234000  0.57286000  0.74878000  1.0
  C  C89  1  0.13013000  0.65701000  0.85956000  1.0
  C  C90  1  0.20617000  0.65014000  0.66062000  1.0
  C  C91  1  0.56880000  0.74228000  0.36058000  1.0
  C  C92  1  0.57459000  0.75275000  0.30964000  1.0
  C  C93  1  0.58832000  0.76914000  0.20706000  1.0
  C  C94  1  0.50592000  0.86673000  0.23527000  1.0
  C  C95  1  0.50218000  0.86098000  0.28451000  1.0
  C  C96  1  0.60138000  0.77924000  0.15712000  1.0
  C  C97  1  0.69078000  0.68599000  0.13099000  1.0
  C  C98  1  0.61015000  0.60775000  0.43378000  1.0
  C  C99  1  0.71823000  0.53531000  0.35621000  1.0
  C  C100  1  0.73096000  0.54367000  0.30618000  1.0
  C  C101  1  0.65558000  0.65238000  0.28230000  1.0
  C  C102  1  0.81452000  0.44630000  0.27785000  1.0
  C  C103  1  0.82461000  0.45548000  0.22895000  1.0
  C  C104  1  0.75130000  0.56373000  0.20382000  1.0
  C  C105  1  0.66462000  0.66131000  0.23118000  1.0
  C  C106  1  0.76424000  0.57846000  0.15406000  1.0
  C  C107  1  0.63595000  0.63160000  0.38338000  1.0
  C  C108  1  0.74960000  0.21009000  0.35744000  1.0
  C  C109  1  0.62005000  0.28185000  0.43245000  1.0
  C  C110  1  0.76494000  0.17430000  0.30902000  1.0
  C  C111  1  0.78333000  0.11776000  0.20867000  1.0
  C  C112  1  0.87605000  0.13130000  0.23239000  1.0
  C  C113  1  0.86748000  0.15767000  0.28036000  1.0
  C  C114  1  0.79075000  0.08937000  0.15960000  1.0
  C  C115  1  0.70007000  0.07333000  0.13806000  1.0
  C  C116  1  0.56261000  0.19959000  0.36354000  1.0
  C  C117  1  0.57344000  0.16645000  0.31508000  1.0
  C  C118  1  0.67324000  0.15700000  0.28667000  1.0
  C  C119  1  0.48372000  0.14664000  0.29173000  1.0
  C  C120  1  0.63561000  0.77084000  0.73414000  1.0
  C  C121  1  0.48823000  0.12818000  0.24313000  1.0
  C  C122  1  0.58786000  0.11707000  0.21409000  1.0
  C  C123  1  0.68161000  0.13059000  0.23661000  1.0
  C  C124  1  0.59881000  0.08856000  0.16489000  1.0
  C  C125  1  0.64757000  0.22600000  0.38393000  1.0
  C  C126  1  0.17158000  0.57193000  0.36679000  1.0
  C  C127  1  0.12884000  0.59116000  0.31932000  1.0
  C  C128  1  0.07091000  0.61430000  0.21917000  1.0
  C  C129  1  0.05736000  0.53027000  0.24947000  1.0
  C  C130  1  0.08347000  0.52034000  0.29750000  1.0
  C  C131  1  0.55577000  0.75346000  0.77385000  1.0
  C  C132  1  0.04958000  0.62268000  0.16936000  1.0
  C  C133  1  0.06031000  0.70822000  0.14123000  1.0
  C  C134  1  0.21381000  0.73648000  0.35983000  1.0
  C  C135  1  0.17518000  0.75670000  0.31178000  1.0
  C  C136  1  0.13576000  0.68085000  0.29059000  1.0
  C  C137  1  0.17900000  0.84737000  0.28244000  1.0
  C  C138  1  0.15109000  0.85856000  0.23457000  1.0
  C  C139  1  0.11610000  0.78062000  0.21187000  1.0
  C  C140  1  0.10676000  0.69248000  0.24074000  1.0
  C  C141  1  0.09157000  0.78748000  0.16243000  1.0
  C  C142  1  0.69527000  0.70740000  0.89862000  1.0
  C  C143  1  0.21685000  0.64210000  0.38633000  1.0
  C  C144  1  0.71594000  0.04197000  0.94931000  1.0
  C  C145  1  0.72077000  0.73019000  0.94656000  1.0
  C  C146  1  0.05297000  0.70044000  0.94999000  1.0
  C  C147  1  0.71881000  0.02993000  0.08736000  1.0
  C  C148  1  0.71639000  0.70972000  0.08063000  1.0
  C  C149  1  0.02940000  0.72174000  0.08907000  1.0
  C  C150  1  0.37883000  0.90161000  0.38842000  1.0
  C  C151  1  0.28670000  0.25432000  0.32345000  1.0
  O  O152  1  0.51284000  0.30920000  0.55584000  1.0
  O  O153  1  0.50867000  0.67855000  0.45293000  1.0
  O  O154  1  0.68606000  0.51132000  0.45386000  1.0
  O  O155  1  0.69652000  0.31092000  0.45001000  1.0
  O  O156  1  0.49535000  0.48953000  0.50103000  1.0
  O  O157  1  0.02546000  0.80302000  0.96324000  1.0
  O  O158  1  0.82168000  0.01174000  0.96274000  1.0
  O  O159  1  0.63600000  0.02610000  0.97323000  1.0
  O  O160  1  0.64480000  0.82690000  0.96607000  1.0
  O  O161  1  0.82002000  0.65437000  0.96499000  1.0
  O  O162  1  0.03309000  0.62442000  0.97403000  1.0
  O  O163  1  0.30374000  0.51058000  0.55335000  1.0
  O  O164  1  0.02349000  0.81051000  0.06674000  1.0
  O  O165  1  0.81344000  0.01500000  0.06551000  1.0
  O  O166  1  0.63905000  0.00521000  0.06979000  1.0
  O  O167  1  0.64367000  0.80854000  0.06143000  1.0
  O  O168  1  0.81424000  0.63416000  0.06028000  1.0
  O  O169  1  0.00611000  0.64403000  0.07049000  1.0
  O  O170  1  0.83554000  0.82992000  0.01658000  1.0
  O  O171  1  0.30414000  0.68650000  0.54834000  1.0
  O  O172  1  0.50976000  0.67429000  0.54854000  1.0
  O  O173  1  0.68455000  0.50162000  0.54960000  1.0
  O  O174  1  0.69625000  0.30072000  0.54620000  1.0
  O  O175  1  0.52115000  0.30264000  0.45222000  1.0
  O  O176  1  0.30848000  0.50729000  0.45009000  1.0
  O  O177  1  0.30603000  0.68375000  0.45301000  1.0
  O  O178  1  0.50805000  0.83982000  0.38836000  1.0
  O  O179  1  0.39412000  0.14340000  0.32015000  1.0
  O  O180  1  0.32904000  0.32215000  0.50074000  1.0
  O  O181  1  0.00575000  0.99407000  0.01216000  1.0
