# generated using pymatgen
data_KZnH3C9(NO2)3
_symmetry_space_group_name_H-M   'P 1'
_cell_length_a   9.27150000
_cell_length_b   9.27150000
_cell_length_c   13.26830000
_cell_angle_alpha   90.00000000
_cell_angle_beta   90.00000000
_cell_angle_gamma   108.98500000
_symmetry_Int_Tables_number   1
_chemical_formula_structural   KZnH3C9(NO2)3
_chemical_formula_sum   'K4 Zn4 H12 C36 N12 O24'
_cell_volume   1078.51076892
_cell_formula_units_Z   4
loop_
 _symmetry_equiv_pos_site_id
 _symmetry_equiv_pos_as_xyz
  1  'x, y, z'
loop_
 _atom_site_type_symbol
 _atom_site_label
 _atom_site_symmetry_multiplicity
 _atom_site_fract_x
 _atom_site_fract_y
 _atom_site_fract_z
 _atom_site_occupancy
  K  K0  1  0.90962000  0.09038000  0.61185000  1.0
  K  K1  1  0.09038000  0.90962000  0.11185000  1.0
  K  K2  1  0.90962000  0.09038000  0.88815000  1.0
  K  K3  1  0.09038000  0.90962000  0.38815000  1.0
  Zn  Zn4  1  0.29626000  0.33525000  0.75000000  1.0
  Zn  Zn5  1  0.70374000  0.66475000  0.25000000  1.0
  Zn  Zn6  1  0.66475000  0.70374000  0.75000000  1.0
  Zn  Zn7  1  0.33525000  0.29626000  0.25000000  1.0
  H  H8  1  0.02652000  0.73875000  0.75000000  1.0
  H  H9  1  0.97348000  0.26124000  0.25000000  1.0
  H  H10  1  0.26124000  0.97348000  0.75000000  1.0
  H  H11  1  0.73875000  0.02652000  0.25000000  1.0
  H  H12  1  0.59291000  0.16832000  0.02583000  1.0
  H  H13  1  0.40709000  0.83168000  0.52583000  1.0
  H  H14  1  0.83168000  0.40709000  0.47417000  1.0
  H  H15  1  0.16832000  0.59291000  0.97417000  1.0
  H  H16  1  0.40709000  0.83168000  0.97417000  1.0
  H  H17  1  0.59291000  0.16832000  0.47417000  1.0
  H  H18  1  0.16832000  0.59291000  0.52583000  1.0
  H  H19  1  0.83168000  0.40709000  0.02583000  1.0
  C  C20  1  0.16258000  0.58846000  0.75000000  1.0
  C  C21  1  0.83742000  0.41154000  0.25000000  1.0
  C  C22  1  0.41154000  0.83742000  0.75000000  1.0
  C  C23  1  0.58846000  0.16258000  0.25000000  1.0
  C  C24  1  0.14096000  0.73089000  0.75000000  1.0
  C  C25  1  0.85904000  0.26911000  0.25000000  1.0
  C  C26  1  0.26911000  0.85904000  0.75000000  1.0
  C  C27  1  0.73089000  0.14096000  0.25000000  1.0
  C  C28  1  0.02868000  0.44098000  0.75000000  1.0
  C  C29  1  0.97132000  0.55902000  0.25000000  1.0
  C  C30  1  0.55902000  0.97132000  0.75000000  1.0
  C  C31  1  0.44098000  0.02868000  0.25000000  1.0
  C  C32  1  0.47879000  0.27243000  0.92130000  1.0
  C  C33  1  0.52121000  0.72757000  0.42130000  1.0
  C  C34  1  0.72757000  0.52121000  0.57870000  1.0
  C  C35  1  0.27243000  0.47879000  0.07870000  1.0
  C  C36  1  0.52121000  0.72757000  0.07870000  1.0
  C  C37  1  0.47879000  0.27243000  0.57870000  1.0
  C  C38  1  0.27243000  0.47879000  0.42130000  1.0
  C  C39  1  0.72757000  0.52121000  0.92130000  1.0
  C  C40  1  0.60093000  0.27077000  0.98291000  1.0
  C  C41  1  0.39907000  0.72923000  0.48291000  1.0
  C  C42  1  0.72923000  0.39907000  0.51709000  1.0
  C  C43  1  0.27077000  0.60092000  0.01709000  1.0
  C  C44  1  0.39907000  0.72923000  0.01709000  1.0
  C  C45  1  0.60093000  0.27077000  0.51709000  1.0
  C  C46  1  0.27077000  0.60093000  0.48291000  1.0
  C  C47  1  0.72923000  0.39907000  0.98291000  1.0
  C  C48  1  0.32883000  0.14213000  0.91890000  1.0
  C  C49  1  0.67117000  0.85787000  0.41890000  1.0
  C  C50  1  0.85787000  0.67117000  0.58110000  1.0
  C  C51  1  0.14213000  0.32883000  0.08110000  1.0
  C  C52  1  0.67117000  0.85787000  0.08110000  1.0
  C  C53  1  0.32883000  0.14213000  0.58110000  1.0
  C  C54  1  0.14212000  0.32883000  0.41890000  1.0
  C  C55  1  0.85787000  0.67117000  0.91890000  1.0
  N  N56  1  0.30201000  0.57435000  0.75000000  1.0
  N  N57  1  0.69799000  0.42565000  0.25000000  1.0
  N  N58  1  0.42565000  0.69799000  0.75000000  1.0
  N  N59  1  0.57435000  0.30201000  0.25000000  1.0
  N  N60  1  0.48629000  0.39043000  0.86125000  1.0
  N  N61  1  0.51371000  0.60958000  0.36125000  1.0
  N  N62  1  0.60958000  0.51371000  0.63874000  1.0
  N  N63  1  0.39042000  0.48629000  0.13874000  1.0
  N  N64  1  0.51371000  0.60958000  0.13874000  1.0
  N  N65  1  0.48629000  0.39042000  0.63875000  1.0
  N  N66  1  0.39043000  0.48629000  0.36125000  1.0
  N  N67  1  0.60958000  0.51371000  0.86125000  1.0
  O  O68  1  0.06429000  0.31770000  0.75000000  1.0
  O  O69  1  0.93571000  0.68230000  0.25000000  1.0
  O  O70  1  0.68230000  0.93571000  0.75000000  1.0
  O  O71  1  0.31770000  0.06430000  0.25000000  1.0
  O  O72  1  0.89771000  0.44987000  0.75000000  1.0
  O  O73  1  0.10230000  0.55013000  0.25000000  1.0
  O  O74  1  0.55013000  0.10230000  0.75000000  1.0
  O  O75  1  0.44987000  0.89771000  0.25000000  1.0
  O  O76  1  0.22765000  0.15905000  0.85837000  1.0
  O  O77  1  0.77235000  0.84095000  0.35837000  1.0
  O  O78  1  0.84095000  0.77235000  0.64163000  1.0
  O  O79  1  0.15905000  0.22765000  0.14163000  1.0
  O  O80  1  0.77235000  0.84095000  0.14163000  1.0
  O  O81  1  0.22765000  0.15905000  0.64163000  1.0
  O  O82  1  0.15905000  0.22765000  0.35837000  1.0
  O  O83  1  0.84095000  0.77235000  0.85837000  1.0
  O  O84  1  0.31445000  0.03196000  0.97672000  1.0
  O  O85  1  0.68555000  0.96804000  0.47672000  1.0
  O  O86  1  0.96804000  0.68555000  0.52328000  1.0
  O  O87  1  0.03196000  0.31445000  0.02328000  1.0
  O  O88  1  0.68555000  0.96804000  0.02328000  1.0
  O  O89  1  0.31445000  0.03196000  0.52328000  1.0
  O  O90  1  0.03196000  0.31445000  0.47672000  1.0
  O  O91  1  0.96804000  0.68555000  0.97672000  1.0
