# generated using pymatgen
data_Cd3H12(C6N5)2
_symmetry_space_group_name_H-M   'P 1'
_cell_length_a   7.80715000
_cell_length_b   11.41650000
_cell_length_c   13.30050000
_cell_angle_alpha   90.00000000
_cell_angle_beta   90.00000000
_cell_angle_gamma   109.99200000
_symmetry_Int_Tables_number   1
_chemical_formula_structural   Cd3H12(C6N5)2
_chemical_formula_sum   'Cd6 H24 C24 N20'
_cell_volume   1114.04146199
_cell_formula_units_Z   2
loop_
 _symmetry_equiv_pos_site_id
 _symmetry_equiv_pos_as_xyz
  1  'x, y, z'
loop_
 _atom_site_type_symbol
 _atom_site_label
 _atom_site_symmetry_multiplicity
 _atom_site_fract_x
 _atom_site_fract_y
 _atom_site_fract_z
 _atom_site_occupancy
  Cd  Cd0  1  0.27471000  0.31327000  0.25000000  1.0
  Cd  Cd1  1  0.96131000  0.68672000  0.25000000  1.0
  Cd  Cd2  1  0.03869000  0.31328000  0.75000000  1.0
  Cd  Cd3  1  0.72529000  0.68673000  0.75000000  1.0
  Cd  Cd4  1  0.50000000  0.00000000  0.00000000  1.0
  Cd  Cd5  1  0.50000000  0.00000000  0.50000000  1.0
  H  H6  1  0.91624000  0.00000000  0.81724000  1.0
  H  H7  1  0.08376000  0.00000000  0.31724000  1.0
  H  H8  1  0.08376000  0.00000000  0.18276000  1.0
  H  H9  1  0.91623000  0.00000000  0.68276000  1.0
  H  H10  1  0.18879000  0.11291000  0.90737000  1.0
  H  H11  1  0.07582000  0.88701000  0.90737000  1.0
  H  H12  1  0.92418000  0.11300000  0.40737000  1.0
  H  H13  1  0.81121000  0.88709000  0.40737000  1.0
  H  H14  1  0.81121000  0.88709000  0.09263000  1.0
  H  H15  1  0.92418000  0.11299000  0.09263000  1.0
  H  H16  1  0.07582000  0.88701000  0.59263000  1.0
  H  H17  1  0.18879000  0.11291000  0.59263000  1.0
  H  H18  1  0.39235000  0.19637000  0.84060000  1.0
  H  H19  1  0.19585000  0.80352000  0.84060000  1.0
  H  H20  1  0.80415000  0.19648000  0.34060000  1.0
  H  H21  1  0.60765000  0.80363000  0.34060000  1.0
  H  H22  1  0.60765000  0.80363000  0.15940000  1.0
  H  H23  1  0.80415000  0.19648000  0.15940000  1.0
  H  H24  1  0.19585000  0.80352000  0.65940000  1.0
  H  H25  1  0.39235000  0.19637000  0.65940000  1.0
  H  H26  1  0.47130000  0.91656000  0.75000000  1.0
  H  H27  1  0.55469000  0.08341000  0.75000000  1.0
  H  H28  1  0.44531000  0.91659000  0.25000000  1.0
  H  H29  1  0.52870000  0.08344000  0.25000000  1.0
  C  C30  1  0.10212000  0.42802000  0.25000000  1.0
  C  C31  1  0.67401000  0.57213000  0.25000000  1.0
  C  C32  1  0.32599000  0.42787000  0.75000000  1.0
  C  C33  1  0.89788000  0.57198000  0.75000000  1.0
  C  C34  1  0.34885000  0.21560000  0.12081000  1.0
  C  C35  1  0.13319000  0.78439000  0.12084000  1.0
  C  C36  1  0.86681000  0.21561000  0.62084000  1.0
  C  C37  1  0.65115000  0.78439000  0.62081000  1.0
  C  C38  1  0.65115000  0.78440000  0.87919000  1.0
  C  C39  1  0.86681000  0.21561000  0.87916000  1.0
  C  C40  1  0.13319000  0.78439000  0.37916000  1.0
  C  C41  1  0.34885000  0.21561000  0.37919000  1.0
  C  C42  1  0.99780000  0.00000000  0.75000000  1.0
  C  C43  1  0.00220000  0.00000000  0.25000000  1.0
  C  C44  1  0.26951000  0.11258000  0.83990000  1.0
  C  C45  1  0.15685000  0.88735000  0.83990000  1.0
  C  C46  1  0.84315000  0.11265000  0.33990000  1.0
  C  C47  1  0.73049000  0.88742000  0.33990000  1.0
  C  C48  1  0.73049000  0.88742000  0.16010000  1.0
  C  C49  1  0.84315000  0.11265000  0.16010000  1.0
  C  C50  1  0.15685000  0.88735000  0.66010000  1.0
  C  C51  1  0.26951000  0.11258000  0.66010000  1.0
  C  C52  1  0.43169000  0.99999000  0.75000000  1.0
  C  C53  1  0.56831000  0.00001000  0.25000000  1.0
  N  N54  1  0.04007000  0.50759000  0.25000000  1.0
  N  N55  1  0.53244000  0.49246000  0.25000000  1.0
  N  N56  1  0.46756000  0.50754000  0.75000000  1.0
  N  N57  1  0.95993000  0.49241000  0.75000000  1.0
  N  N58  1  0.39699000  0.15114000  0.06782000  1.0
  N  N59  1  0.24573000  0.84890000  0.06785000  1.0
  N  N60  1  0.75427000  0.15110000  0.56785000  1.0
  N  N61  1  0.60301000  0.84886000  0.56782000  1.0
  N  N62  1  0.60301000  0.84886000  0.93218000  1.0
  N  N63  1  0.75427000  0.15110000  0.93215000  1.0
  N  N64  1  0.24573000  0.84890000  0.43215000  1.0
  N  N65  1  0.39699000  0.15114000  0.43218000  1.0
  N  N66  1  0.32496000  0.99995000  0.84235000  1.0
  N  N67  1  0.67504000  0.00005000  0.34235000  1.0
  N  N68  1  0.67504000  0.00005000  0.15765000  1.0
  N  N69  1  0.32496000  0.99995000  0.65765000  1.0
  N  N70  1  0.16077000  0.11350000  0.75000000  1.0
  N  N71  1  0.04723000  0.88649000  0.75000000  1.0
  N  N72  1  0.95277000  0.11351000  0.25000000  1.0
  N  N73  1  0.83923000  0.88650000  0.25000000  1.0
