# generated using pymatgen
data_CuH10C13(NO2)2
_symmetry_space_group_name_H-M   'P 1'
_cell_length_a   6.30783000
_cell_length_b   6.68793000
_cell_length_c   14.17400000
_cell_angle_alpha   98.21520000
_cell_angle_beta   89.99640000
_cell_angle_gamma   89.99980000
_symmetry_Int_Tables_number   1
_chemical_formula_structural   CuH10C13(NO2)2
_chemical_formula_sum   'Cu2 H20 C26 N4 O8'
_cell_volume   591.81303799
_cell_formula_units_Z   2
loop_
 _symmetry_equiv_pos_site_id
 _symmetry_equiv_pos_as_xyz
  1  'x, y, z'
loop_
 _atom_site_type_symbol
 _atom_site_label
 _atom_site_symmetry_multiplicity
 _atom_site_fract_x
 _atom_site_fract_y
 _atom_site_fract_z
 _atom_site_occupancy
  Cu  Cu0  1  0.30611000  0.27187000  0.58443000  1.0
  Cu  Cu1  1  0.80610000  0.72816000  0.41555000  1.0
  H  H2  1  0.89226000  0.77943000  0.58298000  1.0
  H  H3  1  0.39223000  0.22061000  0.41701000  1.0
  H  H4  1  0.43495000  0.79316000  0.76031000  1.0
  H  H5  1  0.93495000  0.20689000  0.23971000  1.0
  H  H6  1  0.50371000  0.83064000  0.93453000  1.0
  H  H7  1  0.00369000  0.16933000  0.06549000  1.0
  H  H8  1  0.87092000  0.87475000  0.99635000  1.0
  H  H9  1  0.37090000  0.12520000  0.00364000  1.0
  H  H10  1  0.17127000  0.88793000  0.88317000  1.0
  H  H11  1  0.67126000  0.11201000  0.11679000  1.0
  H  H12  1  0.10292000  0.83996000  0.70840000  1.0
  H  H13  1  0.60291000  0.15999000  0.29157000  1.0
  H  H14  1  0.42682000  0.40601000  0.78714000  1.0
  H  H15  1  0.92684000  0.59403000  0.21287000  1.0
  H  H16  1  0.92412000  0.42992000  0.97796000  1.0
  H  H17  1  0.42416000  0.57003000  0.02206000  1.0
  H  H18  1  0.67747000  0.31916000  0.84175000  1.0
  H  H19  1  0.17749000  0.68080000  0.15829000  1.0
  H  H20  1  0.83095000  0.26792000  0.67530000  1.0
  H  H21  1  0.33096000  0.73208000  0.32472000  1.0
  C  C22  1  0.62491000  0.58429000  0.57290000  1.0
  C  C23  1  0.12489000  0.41573000  0.42710000  1.0
  C  C24  1  0.73446000  0.78230000  0.61682000  1.0
  C  C25  1  0.23445000  0.21773000  0.38318000  1.0
  C  C26  1  0.61017000  0.94838000  0.57503000  1.0
  C  C27  1  0.11017000  0.05167000  0.42496000  1.0
  C  C28  1  0.76469000  0.81255000  0.72287000  1.0
  C  C29  1  0.26469000  0.18747000  0.27713000  1.0
  C  C30  1  0.59599000  0.81377000  0.78726000  1.0
  C  C31  1  0.09598000  0.18625000  0.21275000  1.0
  C  C32  1  0.63483000  0.83661000  0.88499000  1.0
  C  C33  1  0.13482000  0.16337000  0.11501000  1.0
  C  C34  1  0.84146000  0.86262000  0.92002000  1.0
  C  C35  1  0.34143000  0.13735000  0.07996000  1.0
  C  C36  1  0.00976000  0.86626000  0.85644000  1.0
  C  C37  1  0.50974000  0.13370000  0.14353000  1.0
  C  C38  1  0.97159000  0.83942000  0.75854000  1.0
  C  C39  1  0.47157000  0.16056000  0.24144000  1.0
  C  C40  1  0.25906000  0.38483000  0.80083000  1.0
  C  C41  1  0.75909000  0.61518000  0.19919000  1.0
  C  C42  1  0.98334000  0.39730000  0.90485000  1.0
  C  C43  1  0.48338000  0.60267000  0.09517000  1.0
  C  C44  1  0.84518000  0.34062000  0.82937000  1.0
  C  C45  1  0.34520000  0.65937000  0.17066000  1.0
  C  C46  1  0.92994000  0.30986000  0.73793000  1.0
  C  C47  1  0.42994000  0.69014000  0.26209000  1.0
  N  N48  1  0.13862000  0.33174000  0.72323000  1.0
  N  N49  1  0.63863000  0.66829000  0.27678000  1.0
  N  N50  1  0.19290000  0.41866000  0.89114000  1.0
  N  N51  1  0.69295000  0.58133000  0.10887000  1.0
  O  O52  1  0.51952000  0.48755000  0.62750000  1.0
  O  O53  1  0.01949000  0.51247000  0.37250000  1.0
  O  O54  1  0.64273000  0.53361000  0.48310000  1.0
  O  O55  1  0.14270000  0.46642000  0.51688000  1.0
  O  O56  1  0.49706000  0.06901000  0.63109000  1.0
  O  O57  1  0.99706000  0.93103000  0.36890000  1.0
  O  O58  1  0.62643000  0.95098000  0.48561000  1.0
  O  O59  1  0.12640000  0.04904000  0.51438000  1.0
