# generated using pymatgen
data_SmH6C7(NO4)2
_symmetry_space_group_name_H-M   'P 1'
_cell_length_a   6.21574000
_cell_length_b   6.56369032
_cell_length_c   13.33510000
_cell_angle_alpha   91.76765536
_cell_angle_beta   100.00400000
_cell_angle_gamma   111.42158917
_symmetry_Int_Tables_number   1
_chemical_formula_structural   SmH6C7(NO4)2
_chemical_formula_sum   'Sm2 H12 C14 N4 O16'
_cell_volume   496.11852366
_cell_formula_units_Z   2
loop_
 _symmetry_equiv_pos_site_id
 _symmetry_equiv_pos_as_xyz
  1  'x, y, z'
loop_
 _atom_site_type_symbol
 _atom_site_label
 _atom_site_symmetry_multiplicity
 _atom_site_fract_x
 _atom_site_fract_y
 _atom_site_fract_z
 _atom_site_occupancy
  Sm  Sm0  1  0.56792000  0.38292000  0.22600000  1.0
  Sm  Sm1  1  0.43207000  0.61708000  0.77400000  1.0
  H  H2  1  0.61869000  0.96500000  0.03258000  1.0
  H  H3  1  0.04999000  0.82152000  0.61072000  1.0
  H  H4  1  0.36334000  0.06992000  0.38546000  1.0
  H  H5  1  0.47521000  0.93453000  0.32521000  1.0
  H  H6  1  0.08339000  0.58021000  0.22467000  1.0
  H  H7  1  0.09506000  0.80591000  0.26753000  1.0
  H  H8  1  0.38129000  0.03502000  0.96741000  1.0
  H  H9  1  0.95006000  0.17847000  0.38928000  1.0
  H  H10  1  0.63668000  0.93008000  0.61455000  1.0
  H  H11  1  0.52480000  0.06548000  0.67480000  1.0
  H  H12  1  0.91661000  0.41982000  0.77530000  1.0
  H  H13  1  0.90494000  0.19409000  0.73248000  1.0
  C  C14  1  0.97620000  0.18397000  0.19099000  1.0
  C  C15  1  0.98973000  0.07881000  0.09196000  1.0
  C  C16  1  0.78785000  0.98064000  0.01576000  1.0
  C  C17  1  0.70049000  0.73397000  0.43623000  1.0
  C  C18  1  0.85774000  0.60942000  0.47093000  1.0
  C  C19  1  0.02799000  0.67806000  0.56135000  1.0
  C  C20  1  0.41892000  0.55894000  0.01319000  1.0
  C  C21  1  0.02378000  0.81603000  0.80900000  1.0
  C  C22  1  0.01025000  0.92119000  0.90804000  1.0
  C  C23  1  0.21214000  0.01936000  0.98423000  1.0
  C  C24  1  0.29955000  0.26602000  0.56377000  1.0
  C  C25  1  0.14233000  0.39059000  0.52907000  1.0
  C  C26  1  0.97206000  0.32193000  0.43865000  1.0
  C  C27  1  0.58102000  0.44109000  0.98682000  1.0
  N  N28  1  0.20400000  0.09953000  0.07634000  1.0
  N  N29  1  0.83186000  0.43204000  0.40973000  1.0
  N  N30  1  0.79598000  0.90046000  0.92366000  1.0
  N  N31  1  0.16819000  0.56795000  0.59027000  1.0
  O  O32  1  0.16902000  0.31933000  0.24459000  1.0
  O  O33  1  0.77532000  0.14101000  0.21303000  1.0
  O  O34  1  0.59255000  0.68935000  0.34200000  1.0
  O  O35  1  0.68767000  0.87354000  0.49879000  1.0
  O  O36  1  0.41161000  0.58776000  0.10671000  1.0
  O  O37  1  0.31099000  0.62098000  0.93872000  1.0
  O  O38  1  0.38443000  0.03154000  0.31561000  1.0
  O  O39  1  0.98132000  0.66101000  0.23373000  1.0
  O  O40  1  0.83097000  0.68063000  0.75541000  1.0
  O  O41  1  0.22466000  0.85901000  0.78697000  1.0
  O  O42  1  0.40747000  0.31064000  0.65801000  1.0
  O  O43  1  0.31241000  0.12645000  0.50122000  1.0
  O  O44  1  0.58831000  0.41224000  0.89329000  1.0
  O  O45  1  0.68896000  0.37905000  0.06128000  1.0
  O  O46  1  0.61559000  0.96847000  0.68440000  1.0
  O  O47  1  0.01867000  0.33901000  0.76627000  1.0
