# generated using pymatgen
data_GdPH11C9SNO9
_symmetry_space_group_name_H-M   'P 1'
_cell_length_a   6.75272000
_cell_length_b   13.34190000
_cell_length_c   15.04110000
_cell_angle_alpha   90.51980000
_cell_angle_beta   90.00000000
_cell_angle_gamma   90.00000000
_symmetry_Int_Tables_number   1
_chemical_formula_structural   GdPH11C9SNO9
_chemical_formula_sum   'Gd4 P4 H44 C36 S4 N4 O36'
_cell_volume   1355.05882654
_cell_formula_units_Z   4
loop_
 _symmetry_equiv_pos_site_id
 _symmetry_equiv_pos_as_xyz
  1  'x, y, z'
loop_
 _atom_site_type_symbol
 _atom_site_label
 _atom_site_symmetry_multiplicity
 _atom_site_fract_x
 _atom_site_fract_y
 _atom_site_fract_z
 _atom_site_occupancy
  Gd  Gd0  1  0.87265000  0.54800000  0.61925000  1.0
  Gd  Gd1  1  0.37265000  0.45200000  0.88075000  1.0
  Gd  Gd2  1  0.12735000  0.45200000  0.38075000  1.0
  Gd  Gd3  1  0.62735000  0.54800000  0.11925000  1.0
  P  P4  1  0.86634000  0.37555000  0.80329000  1.0
  P  P5  1  0.36634000  0.62445000  0.69671000  1.0
  P  P6  1  0.13366000  0.62445000  0.19671000  1.0
  P  P7  1  0.63366000  0.37555000  0.30329000  1.0
  H  H8  1  0.84895000  0.22196000  0.94265000  1.0
  H  H9  1  0.34896000  0.77804000  0.55735000  1.0
  H  H10  1  0.15104000  0.77804000  0.05735000  1.0
  H  H11  1  0.65105000  0.22196000  0.44265000  1.0
  H  H12  1  0.85240000  0.03462000  0.93561000  1.0
  H  H13  1  0.35240000  0.96538000  0.56439000  1.0
  H  H14  1  0.14760000  0.96538000  0.06439000  1.0
  H  H15  1  0.64760000  0.03462000  0.43561000  1.0
  H  H16  1  0.85184000  0.87569000  0.84237000  1.0
  H  H17  1  0.35184000  0.12431000  0.65763000  1.0
  H  H18  1  0.14816000  0.12431000  0.15763000  1.0
  H  H19  1  0.64816000  0.87569000  0.34237000  1.0
  H  H20  1  0.85734000  0.79669000  0.69270000  1.0
  H  H21  1  0.35734000  0.20331000  0.80730000  1.0
  H  H22  1  0.14266000  0.20331000  0.30730000  1.0
  H  H23  1  0.64266000  0.79669000  0.19270000  1.0
  H  H24  1  0.86250000  0.89954000  0.55820000  1.0
  H  H25  1  0.36249000  0.10046000  0.94180000  1.0
  H  H26  1  0.13751000  0.10046000  0.44180000  1.0
  H  H27  1  0.63750000  0.89954000  0.05820000  1.0
  H  H28  1  0.86582000  0.08841000  0.56999000  1.0
  H  H29  1  0.36582000  0.91159000  0.93001000  1.0
  H  H30  1  0.13419000  0.91160000  0.43001000  1.0
  H  H31  1  0.63418000  0.08840000  0.06999000  1.0
  H  H32  1  0.86535000  0.23025000  0.66238000  1.0
  H  H33  1  0.36535000  0.76975000  0.83762000  1.0
  H  H34  1  0.13465000  0.76975000  0.33762000  1.0
  H  H35  1  0.63465000  0.23025000  0.16238000  1.0
  H  H36  1  0.83576000  0.65124000  0.81074000  1.0
  H  H37  1  0.33576000  0.34876000  0.68927000  1.0
  H  H38  1  0.16424000  0.34876000  0.18927000  1.0
  H  H39  1  0.66424000  0.65124000  0.31073000  1.0
  H  H40  1  0.05406000  0.61070000  0.79156000  1.0
  H  H41  1  0.55406000  0.38930000  0.70844000  1.0
  H  H42  1  0.94594000  0.38930000  0.20844000  1.0
  H  H43  1  0.44593000  0.61070000  0.29156000  1.0
  H  H44  1  0.70940000  0.36626000  0.55055000  1.0
  H  H45  1  0.20940000  0.63374000  0.94945000  1.0
  H  H46  1  0.29060000  0.63374000  0.44945000  1.0
  H  H47  1  0.79060000  0.36626000  0.05055000  1.0
  H  H48  1  0.66583000  0.44095000  0.47577000  1.0
  H  H49  1  0.16583000  0.55905000  0.02423000  1.0
  H  H50  1  0.33416000  0.55905000  0.52423000  1.0
  H  H51  1  0.83416000  0.44095000  0.97577000  1.0
  C  C52  1  0.85782000  0.23783000  0.80031000  1.0
  C  C53  1  0.35782000  0.76217000  0.69969000  1.0
  C  C54  1  0.14218000  0.76217000  0.19969000  1.0
  C  C55  1  0.64218000  0.23783000  0.30031000  1.0
  C  C56  1  0.85525000  0.18205000  0.87937000  1.0
  C  C57  1  0.35525000  0.81795000  0.62063000  1.0
  C  C58  1  0.14475000  0.81795000  0.12063000  1.0
  C  C59  1  0.64476000  0.18205000  0.37938000  1.0
  C  C60  1  0.85531000  0.07882000  0.87492000  1.0
  C  C61  1  0.35531000  0.92118000  0.62508000  1.0
  C  C62  1  0.14469000  0.92118000  0.12508000  1.0
  C  C63  1  0.64469000  0.07882000  0.37492000  1.0
  C  C64  1  0.85761000  0.02791000  0.79199000  1.0
  C  C65  1  0.35761000  0.97209000  0.70800000  1.0
  C  C66  1  0.14239000  0.97209000  0.20800000  1.0
  C  C67  1  0.64239000  0.02791000  0.29200000  1.0
  C  C68  1  0.85680000  0.92208000  0.78308000  1.0
  C  C69  1  0.35680000  0.07792000  0.71692000  1.0
  C  C70  1  0.14321000  0.07792000  0.21692000  1.0
  C  C71  1  0.64320000  0.92208000  0.28308000  1.0
  C  C72  1  0.85812000  0.87787000  0.69991000  1.0
  C  C73  1  0.35812000  0.12213000  0.80009000  1.0
  C  C74  1  0.14189000  0.12213000  0.30009000  1.0
  C  C75  1  0.64188000  0.87787000  0.19991000  1.0
  C  C76  1  0.86097000  0.93753000  0.62265000  1.0
  C  C77  1  0.36097000  0.06247000  0.87735000  1.0
  C  C78  1  0.13904000  0.06247000  0.37735000  1.0
  C  C79  1  0.63903000  0.93753000  0.12265000  1.0
  C  C80  1  0.86188000  0.04089000  0.62846000  1.0
  C  C81  1  0.36188000  0.95911000  0.87153000  1.0
  C  C82  1  0.13813000  0.95912000  0.37153000  1.0
  C  C83  1  0.63812000  0.04089000  0.12847000  1.0
  C  C84  1  0.85973000  0.08686000  0.71341000  1.0
  C  C85  1  0.35973000  0.91314000  0.78659000  1.0
  C  C86  1  0.14028000  0.91314000  0.28659000  1.0
  C  C87  1  0.64027000  0.08686000  0.21341000  1.0
  S  S88  1  0.91056000  0.69296000  0.46047000  1.0
  S  S89  1  0.41057000  0.30704000  0.03953000  1.0
  S  S90  1  0.08943000  0.30704000  0.53953000  1.0
  S  S91  1  0.58944000  0.69296000  0.96047000  1.0
  N  N92  1  0.85945000  0.18937000  0.72209000  1.0
  N  N93  1  0.35945000  0.81063000  0.77791000  1.0
  N  N94  1  0.14055000  0.81063000  0.27791000  1.0
  N  N95  1  0.64055000  0.18937000  0.22209000  1.0
  O  O96  1  0.82197000  0.40775000  0.70776000  1.0
  O  O97  1  0.32197000  0.59225000  0.79224000  1.0
  O  O98  1  0.17803000  0.59225000  0.29224000  1.0
  O  O99  1  0.67803000  0.40775000  0.20776000  1.0
  O  O100  1  0.70599000  0.40672000  0.86962000  1.0
  O  O101  1  0.20599000  0.59328000  0.63038000  1.0
  O  O102  1  0.29401000  0.59328000  0.13038000  1.0
  O  O103  1  0.79400000  0.40672000  0.36962000  1.0
  O  O104  1  0.07342000  0.39936000  0.83492000  1.0
  O  O105  1  0.57342000  0.60064000  0.66508000  1.0
  O  O106  1  0.92658000  0.60064000  0.16508000  1.0
  O  O107  1  0.42657000  0.39936000  0.33492000  1.0
  O  O108  1  0.84181000  0.71563000  0.55250000  1.0
  O  O109  1  0.34181000  0.28437000  0.94750000  1.0
  O  O110  1  0.15818000  0.28437000  0.44750000  1.0
  O  O111  1  0.65819000  0.71563000  0.05250000  1.0
  O  O112  1  0.92643000  0.57936000  0.45843000  1.0
  O  O113  1  0.42643000  0.42064000  0.04157000  1.0
  O  O114  1  0.07357000  0.42064000  0.54157000  1.0
  O  O115  1  0.57358000  0.57936000  0.95843000  1.0
  O  O116  1  0.11171000  0.73684000  0.44518000  1.0
  O  O117  1  0.61171000  0.26316000  0.05482000  1.0
  O  O118  1  0.88829000  0.26316000  0.55482000  1.0
  O  O119  1  0.38829000  0.73684000  0.94518000  1.0
  O  O120  1  0.77217000  0.72806000  0.39227000  1.0
  O  O121  1  0.27218000  0.27194000  0.10773000  1.0
  O  O122  1  0.22782000  0.27194000  0.60773000  1.0
  O  O123  1  0.72783000  0.72806000  0.89227000  1.0
  O  O124  1  0.92373000  0.62323000  0.76396000  1.0
  O  O125  1  0.42373000  0.37677000  0.73604000  1.0
  O  O126  1  0.07627000  0.37677000  0.23604000  1.0
  O  O127  1  0.57627000  0.62323000  0.26395000  1.0
  O  O128  1  0.64859000  0.43272000  0.54062000  1.0
  O  O129  1  0.14859000  0.56728000  0.95938000  1.0
  O  O130  1  0.35141000  0.56728000  0.45938000  1.0
  O  O131  1  0.85141000  0.43272000  0.04062000  1.0
