# generated using pymatgen
data_Gd2P2H14C9NO18
_symmetry_space_group_name_H-M   'P 1'
_cell_length_a   8.29654000
_cell_length_b   9.51939000
_cell_length_c   30.97230000
_cell_angle_alpha   89.99950000
_cell_angle_beta   89.99990000
_cell_angle_gamma   99.96570000
_symmetry_Int_Tables_number   1
_chemical_formula_structural   Gd2P2H14C9NO18
_chemical_formula_sum   'Gd8 P8 H56 C36 N4 O72'
_cell_volume   2409.22194440
_cell_formula_units_Z   4
loop_
 _symmetry_equiv_pos_site_id
 _symmetry_equiv_pos_as_xyz
  1  'x, y, z'
loop_
 _atom_site_type_symbol
 _atom_site_label
 _atom_site_symmetry_multiplicity
 _atom_site_fract_x
 _atom_site_fract_y
 _atom_site_fract_z
 _atom_site_occupancy
  Gd  Gd0  1  0.57768000  0.16766000  0.78559000  1.0
  Gd  Gd1  1  0.92231000  0.33233000  0.28559000  1.0
  Gd  Gd2  1  0.42231000  0.83232000  0.21441000  1.0
  Gd  Gd3  1  0.07768000  0.66766000  0.71441000  1.0
  Gd  Gd4  1  0.23061000  0.68214000  0.02320000  1.0
  Gd  Gd5  1  0.26939000  0.81787000  0.52320000  1.0
  Gd  Gd6  1  0.76939000  0.31786000  0.97681000  1.0
  Gd  Gd7  1  0.73061000  0.18214000  0.47680000  1.0
  P  P8  1  0.26425000  0.40321000  0.76864000  1.0
  P  P9  1  0.23575000  0.09678000  0.26864000  1.0
  P  P10  1  0.73576000  0.59678000  0.23136000  1.0
  P  P11  1  0.76425000  0.90322000  0.73136000  1.0
  P  P12  1  0.08820000  0.57548000  0.91740000  1.0
  P  P13  1  0.41181000  0.92453000  0.41741000  1.0
  P  P14  1  0.91180000  0.42453000  0.08260000  1.0
  P  P15  1  0.58819000  0.07547000  0.58260000  1.0
  H  H16  1  0.07448000  0.71458000  0.85947000  1.0
  H  H17  1  0.42553000  0.78542000  0.35947000  1.0
  H  H18  1  0.92553000  0.28542000  0.14053000  1.0
  H  H19  1  0.57448000  0.21458000  0.64053000  1.0
  H  H20  1  0.46499000  0.90131000  0.98195000  1.0
  H  H21  1  0.03501000  0.59870000  0.48195000  1.0
  H  H22  1  0.53501000  0.09865000  0.01804000  1.0
  H  H23  1  0.96499000  0.40137000  0.51804000  1.0
  H  H24  1  0.29576000  0.88121000  0.95921000  1.0
  H  H25  1  0.20424000  0.61879000  0.45921000  1.0
  H  H26  1  0.70423000  0.11881000  0.04080000  1.0
  H  H27  1  0.79578000  0.38119000  0.54080000  1.0
  H  H28  1  0.94659000  0.84299000  0.03375000  1.0
  H  H29  1  0.55342000  0.65701000  0.53375000  1.0
  H  H30  1  0.05342000  0.15702000  0.96625000  1.0
  H  H31  1  0.44659000  0.34299000  0.46625000  1.0
  H  H32  1  0.87487000  0.71637000  0.00188000  1.0
  H  H33  1  0.62513000  0.78364000  0.50188000  1.0
  H  H34  1  0.12513000  0.28364000  0.99812000  1.0
  H  H35  1  0.37487000  0.21637000  0.49812000  1.0
  H  H36  1  0.33733000  0.34674000  0.85701000  1.0
  H  H37  1  0.16268000  0.15326000  0.35701000  1.0
  H  H38  1  0.66267000  0.65326000  0.14300000  1.0
  H  H39  1  0.83732000  0.84674000  0.64299000  1.0
  H  H40  1  0.38271000  0.57632000  0.82219000  1.0
  H  H41  1  0.11730000  0.92368000  0.32219000  1.0
  H  H42  1  0.61730000  0.42368000  0.17781000  1.0
  H  H43  1  0.88271000  0.07631000  0.67781000  1.0
  H  H44  1  0.16564000  0.56679000  0.81691000  1.0
  H  H45  1  0.33437000  0.93321000  0.31691000  1.0
  H  H46  1  0.83437000  0.43321000  0.18309000  1.0
  H  H47  1  0.66564000  0.06679000  0.68309000  1.0
  H  H48  1  0.36610000  0.56981000  0.89559000  1.0
  H  H49  1  0.13389000  0.93021000  0.39560000  1.0
  H  H50  1  0.63390000  0.43020000  0.10440000  1.0
  H  H51  1  0.86610000  0.06979000  0.60440000  1.0
  H  H52  1  0.27733000  0.41513000  0.92399000  1.0
  H  H53  1  0.22269000  0.08488000  0.42399000  1.0
  H  H54  1  0.72268000  0.58488000  0.07601000  1.0
  H  H55  1  0.77730000  0.91511000  0.57601000  1.0
  H  H56  1  0.98082000  0.36365000  0.84951000  1.0
  H  H57  1  0.51919000  0.13635000  0.34951000  1.0
  H  H58  1  0.01918000  0.63635000  0.15049000  1.0
  H  H59  1  0.48082000  0.86365000  0.65049000  1.0
  H  H60  1  0.06383000  0.23827000  0.88199000  1.0
  H  H61  1  0.43618000  0.26174000  0.38199000  1.0
  H  H62  1  0.93618000  0.76174000  0.11801000  1.0
  H  H63  1  0.56381000  0.73825000  0.61801000  1.0
  H  H64  1  0.18599000  0.14509000  0.81571000  1.0
  H  H65  1  0.31401000  0.35491000  0.31571000  1.0
  H  H66  1  0.81401000  0.85491000  0.18429000  1.0
  H  H67  1  0.68598000  0.64509000  0.68429000  1.0
  H  H68  1  0.96939000  0.13085000  0.81193000  1.0
  H  H69  1  0.53061000  0.36915000  0.31193000  1.0
  H  H70  1  0.03061000  0.86915000  0.18808000  1.0
  H  H71  1  0.46939000  0.63085000  0.68808000  1.0
  C  C72  1  0.26478000  0.50470000  0.81857000  1.0
  C  C73  1  0.23522000  0.99530000  0.31858000  1.0
  C  C74  1  0.73522000  0.49529000  0.18142000  1.0
  C  C75  1  0.76480000  0.00470000  0.68142000  1.0
  C  C76  1  0.25531000  0.48845000  0.89815000  1.0
  C  C77  1  0.24468000  0.01155000  0.39815000  1.0
  C  C78  1  0.74468000  0.51155000  0.10185000  1.0
  C  C79  1  0.75533000  0.98845000  0.60185000  1.0
  C  C80  1  0.08116000  0.30265000  0.85244000  1.0
  C  C81  1  0.41885000  0.19736000  0.35245000  1.0
  C  C82  1  0.91884000  0.69735000  0.14756000  1.0
  C  C83  1  0.58115000  0.80264000  0.64756000  1.0
  C  C84  1  0.08515000  0.20615000  0.81356000  1.0
  C  C85  1  0.41485000  0.29385000  0.31356000  1.0
  C  C86  1  0.91484000  0.79385000  0.18644000  1.0
  C  C87  1  0.58515000  0.70615000  0.68644000  1.0
  C  C88  1  0.79616000  0.39923000  0.72519000  1.0
  C  C89  1  0.70383000  0.10075000  0.22519000  1.0
  C  C90  1  0.20384000  0.60075000  0.27481000  1.0
  C  C91  1  0.29616000  0.89924000  0.77481000  1.0
  C  C92  1  0.83494000  0.45171000  0.77228000  1.0
  C  C93  1  0.66504000  0.04829000  0.27228000  1.0
  C  C94  1  0.16505000  0.54828000  0.22772000  1.0
  C  C95  1  0.33495000  0.95170000  0.72772000  1.0
  C  C96  1  0.57314000  0.25844000  0.88836000  1.0
  C  C97  1  0.92685000  0.24155000  0.38836000  1.0
  C  C98  1  0.42684000  0.74155000  0.11164000  1.0
  C  C99  1  0.07315000  0.75845000  0.61164000  1.0
  C  C100  1  0.70396000  0.16073000  0.88636000  1.0
  C  C101  1  0.79604000  0.33926000  0.38636000  1.0
  C  C102  1  0.29604000  0.83928000  0.11364000  1.0
  C  C103  1  0.20396000  0.66073000  0.61363000  1.0
  C  C104  1  0.43801000  0.42987000  0.00438000  1.0
  C  C105  1  0.06200000  0.07015000  0.50438000  1.0
  C  C106  1  0.56199000  0.57014000  0.99562000  1.0
  C  C107  1  0.93801000  0.92987000  0.49562000  1.0
  N  N108  1  0.23870000  0.40722000  0.85676000  1.0
  N  N109  1  0.26130000  0.09280000  0.35676000  1.0
  N  N110  1  0.76130000  0.59279000  0.14324000  1.0
  N  N111  1  0.73869000  0.90720000  0.64324000  1.0
  O  O112  1  0.41094000  0.33010000  0.76903000  1.0
  O  O113  1  0.08906000  0.16988000  0.26903000  1.0
  O  O114  1  0.58906000  0.66989000  0.23097000  1.0
  O  O115  1  0.91095000  0.83011000  0.73097000  1.0
  O  O116  1  0.09834000  0.28723000  0.77352000  1.0
  O  O117  1  0.40165000  0.21278000  0.27352000  1.0
  O  O118  1  0.90167000  0.71277000  0.22648000  1.0
  O  O119  1  0.59834000  0.78722000  0.72648000  1.0
  O  O120  1  0.24106000  0.50047000  0.73179000  1.0
  O  O121  1  0.25893000  0.99953000  0.23179000  1.0
  O  O122  1  0.75894000  0.49952000  0.26821000  1.0
  O  O123  1  0.74107000  0.00048000  0.76821000  1.0
  O  O124  1  0.17424000  0.68612000  0.94875000  1.0
  O  O125  1  0.32577000  0.81389000  0.44875000  1.0
  O  O126  1  0.82576000  0.31389000  0.05125000  1.0
  O  O127  1  0.67424000  0.18611000  0.55125000  1.0
  O  O128  1  0.00731000  0.64374000  0.87784000  1.0
  O  O129  1  0.49269000  0.85627000  0.37784000  1.0
  O  O130  1  0.99269000  0.35627000  0.12216000  1.0
  O  O131  1  0.50732000  0.14373000  0.62216000  1.0
  O  O132  1  0.95462000  0.46561000  0.93664000  1.0
  O  O133  1  0.54539000  0.03440000  0.43664000  1.0
  O  O134  1  0.04539000  0.53440000  0.06336000  1.0
  O  O135  1  0.45460000  0.96561000  0.56336000  1.0
  O  O136  1  0.70291000  0.28058000  0.72056000  1.0
  O  O137  1  0.79707000  0.21941000  0.22056000  1.0
  O  O138  1  0.29708000  0.71941000  0.27945000  1.0
  O  O139  1  0.20292000  0.78058000  0.77944000  1.0
  O  O140  1  0.86258000  0.47933000  0.69496000  1.0
  O  O141  1  0.63742000  0.02066000  0.19496000  1.0
  O  O142  1  0.13742000  0.52065000  0.30504000  1.0
  O  O143  1  0.36258000  0.97933000  0.80503000  1.0
  O  O144  1  0.76421000  0.37541000  0.80263000  1.0
  O  O145  1  0.73579000  0.12458000  0.30263000  1.0
  O  O146  1  0.23579000  0.62458000  0.19737000  1.0
  O  O147  1  0.26421000  0.87541000  0.69736000  1.0
  O  O148  1  0.93662000  0.56555000  0.77671000  1.0
  O  O149  1  0.56338000  0.93445000  0.27671000  1.0
  O  O150  1  0.06338000  0.43444000  0.22329000  1.0
  O  O151  1  0.43662000  0.06555000  0.72329000  1.0
  O  O152  1  0.57035000  0.33494000  0.92163000  1.0
  O  O153  1  0.92964000  0.16506000  0.42163000  1.0
  O  O154  1  0.42964000  0.66506000  0.07837000  1.0
  O  O155  1  0.07036000  0.83493000  0.57836000  1.0
  O  O156  1  0.47790000  0.25392000  0.85605000  1.0
  O  O157  1  0.02210000  0.24607000  0.35605000  1.0
  O  O158  1  0.52209000  0.74607000  0.14395000  1.0
  O  O159  1  0.97790000  0.75392000  0.64395000  1.0
  O  O160  1  0.78567000  0.15414000  0.92109000  1.0
  O  O161  1  0.71432000  0.34587000  0.42109000  1.0
  O  O162  1  0.21432000  0.84586000  0.07891000  1.0
  O  O163  1  0.28569000  0.65414000  0.57891000  1.0
  O  O164  1  0.71956000  0.09935000  0.85126000  1.0
  O  O165  1  0.78044000  0.40064000  0.35126000  1.0
  O  O166  1  0.28042000  0.90064000  0.14874000  1.0
  O  O167  1  0.21957000  0.59936000  0.64873000  1.0
  O  O168  1  0.28775000  0.44232000  0.00769000  1.0
  O  O169  1  0.21224000  0.05770000  0.50769000  1.0
  O  O170  1  0.71224000  0.55770000  0.99231000  1.0
  O  O171  1  0.78775000  0.94231000  0.49231000  1.0
  O  O172  1  0.49552000  0.31630000  0.00714000  1.0
  O  O173  1  0.00448000  0.18372000  0.50714000  1.0
  O  O174  1  0.50448000  0.68372000  0.99286000  1.0
  O  O175  1  0.99553000  0.81630000  0.49286000  1.0
  O  O176  1  0.35160000  0.91522000  0.98619000  1.0
  O  O177  1  0.14840000  0.58479000  0.48619000  1.0
  O  O178  1  0.64842000  0.08479000  0.01381000  1.0
  O  O179  1  0.85157000  0.41522000  0.51382000  1.0
  O  O180  1  0.97613000  0.78063000  0.01134000  1.0
  O  O181  1  0.52387000  0.71938000  0.51134000  1.0
  O  O182  1  0.02388000  0.21938000  0.98866000  1.0
  O  O183  1  0.47613000  0.28063000  0.48866000  1.0
