# generated using pymatgen
data_Cu2H9C11Br3(NO)2
_symmetry_space_group_name_H-M   'P 1'
_cell_length_a   8.80051000
_cell_length_b   9.58360000
_cell_length_c   10.11220000
_cell_angle_alpha   73.45160000
_cell_angle_beta   70.82330000
_cell_angle_gamma   63.62180000
_symmetry_Int_Tables_number   1
_chemical_formula_structural   Cu2H9C11Br3(NO)2
_chemical_formula_sum   'Cu4 H18 C22 Br6 N4 O4'
_cell_volume   711.88372522
_cell_formula_units_Z   2
loop_
 _symmetry_equiv_pos_site_id
 _symmetry_equiv_pos_as_xyz
  1  'x, y, z'
loop_
 _atom_site_type_symbol
 _atom_site_label
 _atom_site_symmetry_multiplicity
 _atom_site_fract_x
 _atom_site_fract_y
 _atom_site_fract_z
 _atom_site_occupancy
  Cu  Cu0  1  0.32800000  0.96870000  0.63941000  1.0
  Cu  Cu1  1  0.67200000  0.03130000  0.36058000  1.0
  Cu  Cu2  1  0.96148000  0.05019000  0.82126000  1.0
  Cu  Cu3  1  0.03851000  0.94981000  0.17874000  1.0
  H  H4  1  0.99780000  0.87337000  0.49891000  1.0
  H  H5  1  0.00220000  0.12662000  0.50109000  1.0
  H  H6  1  0.25700000  0.46578000  0.68849000  1.0
  H  H7  1  0.74300000  0.53422000  0.31152000  1.0
  H  H8  1  0.56673000  0.28753000  0.68013000  1.0
  H  H9  1  0.43328000  0.71247000  0.31986000  1.0
  H  H10  1  0.67568000  0.95420000  0.03716000  1.0
  H  H11  1  0.32432000  0.04581000  0.96283000  1.0
  H  H12  1  0.67374000  0.69803000  0.63992000  1.0
  H  H13  1  0.32626000  0.30197000  0.36007000  1.0
  H  H14  1  0.58228000  0.73064000  0.07896000  1.0
  H  H15  1  0.41771000  0.26936000  0.92104000  1.0
  H  H16  1  0.75443000  0.52115000  0.92262000  1.0
  H  H17  1  0.24557000  0.47885000  0.07738000  1.0
  H  H18  1  0.78268000  0.40369000  0.65547000  1.0
  H  H19  1  0.21732000  0.59631000  0.34452000  1.0
  H  H20  1  0.99592000  0.55821000  0.71981000  1.0
  H  H21  1  0.00408000  0.44178000  0.28019000  1.0
  C  C22  1  0.11757000  0.79809000  0.65584000  1.0
  C  C23  1  0.88244000  0.20191000  0.34416000  1.0
  C  C24  1  0.97079000  0.76802000  0.77825000  1.0
  C  C25  1  0.02922000  0.23198000  0.22176000  1.0
  C  C26  1  0.30144000  0.67610000  0.66814000  1.0
  C  C27  1  0.69856000  0.32390000  0.33186000  1.0
  C  C28  1  0.35145000  0.51411000  0.67951000  1.0
  C  C29  1  0.64856000  0.48589000  0.32049000  1.0
  C  C30  1  0.52515000  0.41396000  0.67582000  1.0
  C  C31  1  0.47485000  0.58605000  0.32418000  1.0
  C  C32  1  0.74471000  0.86152000  0.97168000  1.0
  C  C33  1  0.25529000  0.13848000  0.02832000  1.0
  C  C34  1  0.58704000  0.63988000  0.65185000  1.0
  C  C35  1  0.41296000  0.36013000  0.34815000  1.0
  C  C36  1  0.69516000  0.73613000  0.99476000  1.0
  C  C37  1  0.30484000  0.26387000  0.00525000  1.0
  C  C38  1  0.78897000  0.62204000  0.90665000  1.0
  C  C39  1  0.21102000  0.37796000  0.09335000  1.0
  C  C40  1  0.64532000  0.47783000  0.66166000  1.0
  C  C41  1  0.35468000  0.52217000  0.33833000  1.0
  C  C42  1  0.92639000  0.64031000  0.79534000  1.0
  C  C43  1  0.07361000  0.35969000  0.20466000  1.0
  Br  Br44  1  0.12138000  0.22528000  0.71082000  1.0
  Br  Br45  1  0.87861000  0.77472000  0.28918000  1.0
  Br  Br46  1  0.76114000  0.20242000  0.99786000  1.0
  Br  Br47  1  0.23886000  0.79758000  0.00214000  1.0
  Br  Br48  1  0.57572000  0.99827000  0.65770000  1.0
  Br  Br49  1  0.42428000  0.00172000  0.34230000  1.0
  N  N50  1  0.41909000  0.73595000  0.65538000  1.0
  N  N51  1  0.58091000  0.26405000  0.34462000  1.0
  N  N52  1  0.88105000  0.87530000  0.86673000  1.0
  N  N53  1  0.11895000  0.12470000  0.13327000  1.0
  O  O54  1  0.10659000  0.95093000  0.65043000  1.0
  O  O55  1  0.89342000  0.04907000  0.34957000  1.0
  O  O56  1  0.10081000  0.78342000  0.52610000  1.0
  O  O57  1  0.89919000  0.21657000  0.47390000  1.0
