# generated using pymatgen
data_NaH2C4N5O
_symmetry_space_group_name_H-M   'P 1'
_cell_length_a   3.68603000
_cell_length_b   9.67247000
_cell_length_c   20.33010000
_cell_angle_alpha   90.00000000
_cell_angle_beta   90.00010000
_cell_angle_gamma   96.72420000
_symmetry_Int_Tables_number   1
_chemical_formula_structural   NaH2C4N5O
_chemical_formula_sum   'Na4 H8 C16 N20 O4'
_cell_volume   719.84345585
_cell_formula_units_Z   4
loop_
 _symmetry_equiv_pos_site_id
 _symmetry_equiv_pos_as_xyz
  1  'x, y, z'
loop_
 _atom_site_type_symbol
 _atom_site_label
 _atom_site_symmetry_multiplicity
 _atom_site_fract_x
 _atom_site_fract_y
 _atom_site_fract_z
 _atom_site_occupancy
  Na  Na0  1  0.16943000  0.69650000  0.87574000  1.0
  Na  Na1  1  0.83057000  0.80350000  0.37574000  1.0
  Na  Na2  1  0.83057000  0.30350000  0.12426000  1.0
  Na  Na3  1  0.16943000  0.19650000  0.62426000  1.0
  H  H4  1  0.70812000  0.69168000  0.76132000  1.0
  H  H5  1  0.29188000  0.80832000  0.26131000  1.0
  H  H6  1  0.29188000  0.30832000  0.23868000  1.0
  H  H7  1  0.70812000  0.19168000  0.73869000  1.0
  H  H8  1  0.67379000  0.55211000  0.80189000  1.0
  H  H9  1  0.32621000  0.94789000  0.30189000  1.0
  H  H10  1  0.32621000  0.44789000  0.19811000  1.0
  H  H11  1  0.67379000  0.05211000  0.69811000  1.0
  C  C12  1  0.11779000  0.31294000  0.91395000  1.0
  C  C13  1  0.88221000  0.18706000  0.41395000  1.0
  C  C14  1  0.88221000  0.68706000  0.08605000  1.0
  C  C15  1  0.11779000  0.81295000  0.58605000  1.0
  C  C16  1  0.02707000  0.20320000  0.86907000  1.0
  C  C17  1  0.97293000  0.29680000  0.36907000  1.0
  C  C18  1  0.97293000  0.79680000  0.13093000  1.0
  C  C19  1  0.02707000  0.70320000  0.63093000  1.0
  C  C20  1  0.27883000  0.30957000  0.97653000  1.0
  C  C21  1  0.72117000  0.19043000  0.47653000  1.0
  C  C22  1  0.72116000  0.69043000  0.02347000  1.0
  C  C23  1  0.27883000  0.80957000  0.52347000  1.0
  C  C24  1  0.08567000  0.06224000  0.87375000  1.0
  C  C25  1  0.91434000  0.43776000  0.37375000  1.0
  C  C26  1  0.91433000  0.93775000  0.12625000  1.0
  C  C27  1  0.08567000  0.56225000  0.62625000  1.0
  N  N28  1  0.87313000  0.25861000  0.81593000  1.0
  N  N29  1  0.12688000  0.24139000  0.31593000  1.0
  N  N30  1  0.12688000  0.74140000  0.18407000  1.0
  N  N31  1  0.87313000  0.75861000  0.68407000  1.0
  N  N32  1  0.87115000  0.39372000  0.82785000  1.0
  N  N33  1  0.12885000  0.10628000  0.32785000  1.0
  N  N34  1  0.12885000  0.60628000  0.17215000  1.0
  N  N35  1  0.87115000  0.89372000  0.67215000  1.0
  N  N36  1  0.01702000  0.43050000  0.88618000  1.0
  N  N37  1  0.98298000  0.06950000  0.38618000  1.0
  N  N38  1  0.98298000  0.56950000  0.11382000  1.0
  N  N39  1  0.01702000  0.93050000  0.61382000  1.0
  N  N40  1  0.14078000  0.94631000  0.87837000  1.0
  N  N41  1  0.85922000  0.55368000  0.37837000  1.0
  N  N42  1  0.85922000  0.05369000  0.12163000  1.0
  N  N43  1  0.14078000  0.44632000  0.62163000  1.0
  N  N44  1  0.41086000  0.30418000  0.02854000  1.0
  N  N45  1  0.58914000  0.19582000  0.52854000  1.0
  N  N46  1  0.58913000  0.69582000  0.97146000  1.0
  N  N47  1  0.41086000  0.80418000  0.47146000  1.0
  O  O48  1  0.63922000  0.65198000  0.80545000  1.0
  O  O49  1  0.36078000  0.84802000  0.30545000  1.0
  O  O50  1  0.36078000  0.34802000  0.19455000  1.0
  O  O51  1  0.63922000  0.15198000  0.69455000  1.0
