# generated using pymatgen
data_Zn3H40C60(NO3)4
_symmetry_space_group_name_H-M   'P 1'
_cell_length_a   10.56990000
_cell_length_b   12.44490000
_cell_length_c   25.45990000
_cell_angle_alpha   93.74640000
_cell_angle_beta   90.00000000
_cell_angle_gamma   90.00000000
_symmetry_Int_Tables_number   1
_chemical_formula_structural   Zn3H40C60(NO3)4
_chemical_formula_sum   'Zn6 H80 C120 N8 O24'
_cell_volume   3341.87280543
_cell_formula_units_Z   2
loop_
 _symmetry_equiv_pos_site_id
 _symmetry_equiv_pos_as_xyz
  1  'x, y, z'
loop_
 _atom_site_type_symbol
 _atom_site_label
 _atom_site_symmetry_multiplicity
 _atom_site_fract_x
 _atom_site_fract_y
 _atom_site_fract_z
 _atom_site_occupancy
  Zn  Zn0  1  0.50000000  0.50000000  0.50000000  1.0
  Zn  Zn1  1  0.50000000  0.00000000  0.00000000  1.0
  Zn  Zn2  1  0.76769000  0.57981000  0.56023000  1.0
  Zn  Zn3  1  0.76769000  0.92019000  0.93977000  1.0
  Zn  Zn4  1  0.23231000  0.42019000  0.43977000  1.0
  Zn  Zn5  1  0.23231000  0.07981000  0.06023000  1.0
  H  H6  1  0.62467000  0.98932000  0.16429000  1.0
  H  H7  1  0.62468000  0.51069000  0.33572000  1.0
  H  H8  1  0.37533000  0.01069000  0.83571000  1.0
  H  H9  1  0.37533000  0.48931000  0.66429000  1.0
  H  H10  1  0.35730000  0.96234000  0.20940000  1.0
  H  H11  1  0.35731000  0.53766000  0.29060000  1.0
  H  H12  1  0.64270000  0.03766000  0.79060000  1.0
  H  H13  1  0.64270000  0.46235000  0.70940000  1.0
  H  H14  1  0.34166000  0.86498000  0.28664000  1.0
  H  H15  1  0.34166000  0.63503000  0.21336000  1.0
  H  H16  1  0.65834000  0.13503000  0.71336000  1.0
  H  H17  1  0.65835000  0.36497000  0.78665000  1.0
  H  H18  1  0.43500000  0.77826000  0.36236000  1.0
  H  H19  1  0.43500000  0.72174000  0.13764000  1.0
  H  H20  1  0.56500000  0.22174000  0.63764000  1.0
  H  H21  1  0.56500000  0.27825000  0.86237000  1.0
  H  H22  1  0.80675000  0.86966000  0.31165000  1.0
  H  H23  1  0.80675000  0.63034000  0.18835000  1.0
  H  H24  1  0.19325000  0.13034000  0.68834000  1.0
  H  H25  1  0.19325000  0.36966000  0.81166000  1.0
  H  H26  1  0.71336000  0.95679000  0.23650000  1.0
  H  H27  1  0.71337000  0.54321000  0.26350000  1.0
  H  H28  1  0.28664000  0.04321000  0.76350000  1.0
  H  H29  1  0.28665000  0.45679000  0.73650000  1.0
  H  H30  1  0.53511000  0.69365000  0.42471000  1.0
  H  H31  1  0.53511000  0.80636000  0.07529000  1.0
  H  H32  1  0.46489000  0.30636000  0.57529000  1.0
  H  H33  1  0.46489000  0.19364000  0.92471000  1.0
  H  H34  1  0.79435000  0.76907000  0.38511000  1.0
  H  H35  1  0.79434000  0.73092000  0.11489000  1.0
  H  H36  1  0.20566000  0.23092000  0.61489000  1.0
  H  H37  1  0.20566000  0.26907000  0.88511000  1.0
  H  H38  1  0.69608000  0.18343000  0.50762000  1.0
  H  H39  1  0.69609000  0.31657000  0.99238000  1.0
  H  H40  1  0.30391000  0.81657000  0.49238000  1.0
  H  H41  1  0.30391000  0.68343000  0.00762000  1.0
  H  H42  1  0.96433000  0.27442000  0.52899000  1.0
  H  H43  1  0.96434000  0.22558000  0.97101000  1.0
  H  H44  1  0.03566000  0.72558000  0.47101000  1.0
  H  H45  1  0.03566000  0.77442000  0.02900000  1.0
  H  H46  1  0.13251000  0.15582000  0.53145000  1.0
  H  H47  1  0.13252000  0.34418000  0.96856000  1.0
  H  H48  1  0.86749000  0.84418000  0.46855000  1.0
  H  H49  1  0.86749000  0.65582000  0.03145000  1.0
  H  H50  1  0.77007000  0.02488000  0.48364000  1.0
  H  H51  1  0.77008000  0.47512000  0.01636000  1.0
  H  H52  1  0.22992000  0.97512000  0.51636000  1.0
  H  H53  1  0.22992000  0.52488000  0.98364000  1.0
  H  H54  1  0.55919000  0.77682000  0.56644000  1.0
  H  H55  1  0.55919000  0.72318000  0.93355000  1.0
  H  H56  1  0.44080000  0.22318000  0.43356000  1.0
  H  H57  1  0.44081000  0.27682000  0.06644000  1.0
  H  H58  1  0.56176000  0.97463000  0.59742000  1.0
  H  H59  1  0.56175000  0.52537000  0.90258000  1.0
  H  H60  1  0.43824000  0.02537000  0.40258000  1.0
  H  H61  1  0.43825000  0.47463000  0.09742000  1.0
  H  H62  1  0.76453000  0.05653000  0.63086000  1.0
  H  H63  1  0.76453000  0.44346000  0.86914000  1.0
  H  H64  1  0.23547000  0.94346000  0.36914000  1.0
  H  H65  1  0.23547000  0.55653000  0.13086000  1.0
  H  H66  1  0.28259000  0.72682000  0.62867000  1.0
  H  H67  1  0.28259000  0.77318000  0.87133000  1.0
  H  H68  1  0.71740000  0.27318000  0.37133000  1.0
  H  H69  1  0.71741000  0.22682000  0.12867000  1.0
  H  H70  1  0.25391000  0.54004000  0.59068000  1.0
  H  H71  1  0.25391000  0.95996000  0.90932000  1.0
  H  H72  1  0.74609000  0.45996000  0.40932000  1.0
  H  H73  1  0.74609000  0.04004000  0.09068000  1.0
  H  H74  1  0.03607000  0.47663000  0.56269000  1.0
  H  H75  1  0.03607000  0.02337000  0.93731000  1.0
  H  H76  1  0.96392000  0.52337000  0.43731000  1.0
  H  H77  1  0.96393000  0.97663000  0.06269000  1.0
  H  H78  1  0.99727000  0.03079000  0.65235000  1.0
  H  H79  1  0.99726000  0.46921000  0.84765000  1.0
  H  H80  1  0.00273000  0.96920000  0.34765000  1.0
  H  H81  1  0.00274000  0.53079000  0.15235000  1.0
  H  H82  1  0.18415000  0.91081000  0.65248000  1.0
  H  H83  1  0.18414000  0.58919000  0.84751000  1.0
  H  H84  1  0.81585000  0.08918000  0.34751000  1.0
  H  H85  1  0.81585000  0.41081000  0.15249000  1.0
  C  C86  1  0.45561000  0.02883000  0.12040000  1.0
  C  C87  1  0.45561000  0.47117000  0.37960000  1.0
  C  C88  1  0.54440000  0.97118000  0.87960000  1.0
  C  C89  1  0.54440000  0.52882000  0.62040000  1.0
  C  C90  1  0.52186000  0.99279000  0.16750000  1.0
  C  C91  1  0.52186000  0.50722000  0.33250000  1.0
  C  C92  1  0.47815000  0.00722000  0.83250000  1.0
  C  C93  1  0.47815000  0.49278000  0.66750000  1.0
  C  C94  1  0.46079000  0.95972000  0.21004000  1.0
  C  C95  1  0.46080000  0.54028000  0.28996000  1.0
  C  C96  1  0.53921000  0.04028000  0.78996000  1.0
  C  C97  1  0.53921000  0.45972000  0.71004000  1.0
  C  C98  1  0.51991000  0.91630000  0.25569000  1.0
  C  C99  1  0.51991000  0.58370000  0.24431000  1.0
  C  C100  1  0.48010000  0.08370000  0.74430000  1.0
  C  C101  1  0.48010000  0.41630000  0.75570000  1.0
  C  C102  1  0.44394000  0.86669000  0.29270000  1.0
  C  C103  1  0.44394000  0.63331000  0.20730000  1.0
  C  C104  1  0.55607000  0.13331000  0.70730000  1.0
  C  C105  1  0.55607000  0.36669000  0.79271000  1.0
  C  C106  1  0.49634000  0.81795000  0.33512000  1.0
  C  C107  1  0.49634000  0.68204000  0.16488000  1.0
  C  C108  1  0.50366000  0.18205000  0.66488000  1.0
  C  C109  1  0.50366000  0.31795000  0.83512000  1.0
  C  C110  1  0.62853000  0.81696000  0.34244000  1.0
  C  C111  1  0.62853000  0.68303000  0.15756000  1.0
  C  C112  1  0.37147000  0.18303000  0.65756000  1.0
  C  C113  1  0.37147000  0.31696000  0.84244000  1.0
  C  C114  1  0.70424000  0.86935000  0.30624000  1.0
  C  C115  1  0.70424000  0.63065000  0.19376000  1.0
  C  C116  1  0.29576000  0.13065000  0.69376000  1.0
  C  C117  1  0.29576000  0.36935000  0.80624000  1.0
  C  C118  1  0.65178000  0.91792000  0.26391000  1.0
  C  C119  1  0.65178000  0.58208000  0.23609000  1.0
  C  C120  1  0.34823000  0.08207000  0.73608000  1.0
  C  C121  1  0.34823000  0.41793000  0.76392000  1.0
  C  C122  1  0.71633000  0.65735000  0.46156000  1.0
  C  C123  1  0.71634000  0.84265000  0.03844000  1.0
  C  C124  1  0.28366000  0.34265000  0.53844000  1.0
  C  C125  1  0.28366000  0.15734000  0.96156000  1.0
  C  C126  1  0.63693000  0.70535000  0.42126000  1.0
  C  C127  1  0.63693000  0.79465000  0.07874000  1.0
  C  C128  1  0.36307000  0.29465000  0.57874000  1.0
  C  C129  1  0.36307000  0.20535000  0.92126000  1.0
  C  C130  1  0.69098000  0.76306000  0.38418000  1.0
  C  C131  1  0.69098000  0.73694000  0.11582000  1.0
  C  C132  1  0.30902000  0.23694000  0.61582000  1.0
  C  C133  1  0.30902000  0.26306000  0.88418000  1.0
  C  C134  1  0.73173000  0.35482000  0.52461000  1.0
  C  C135  1  0.73173000  0.14519000  0.97539000  1.0
  C  C136  1  0.26827000  0.64519000  0.47538000  1.0
  C  C137  1  0.26827000  0.85482000  0.02462000  1.0
  C  C138  1  0.77208000  0.24094000  0.51696000  1.0
  C  C139  1  0.77209000  0.25906000  0.98304000  1.0
  C  C140  1  0.22791000  0.75906000  0.48304000  1.0
  C  C141  1  0.22791000  0.74094000  0.01696000  1.0
  C  C142  1  0.89460000  0.21136000  0.51934000  1.0
  C  C143  1  0.89460000  0.28864000  0.98066000  1.0
  C  C144  1  0.10540000  0.78864000  0.48066000  1.0
  C  C145  1  0.10540000  0.71136000  0.01934000  1.0
  C  C146  1  0.94488000  0.10326000  0.50934000  1.0
  C  C147  1  0.94489000  0.39674000  0.99066000  1.0
  C  C148  1  0.05511000  0.89674000  0.49066000  1.0
  C  C149  1  0.05511000  0.60326000  0.00934000  1.0
  C  C150  1  0.07526000  0.08654000  0.51789000  1.0
  C  C151  1  0.07527000  0.41346000  0.98211000  1.0
  C  C152  1  0.92473000  0.91346000  0.48211000  1.0
  C  C153  1  0.92473000  0.58654000  0.01789000  1.0
  C  C154  1  0.87083000  0.01443000  0.49107000  1.0
  C  C155  1  0.87084000  0.48557000  0.00893000  1.0
  C  C156  1  0.12916000  0.98557000  0.50893000  1.0
  C  C157  1  0.12916000  0.51443000  0.99107000  1.0
  C  C158  1  0.64493000  0.81615000  0.58217000  1.0
  C  C159  1  0.64492000  0.68386000  0.91783000  1.0
  C  C160  1  0.35507000  0.18386000  0.41783000  1.0
  C  C161  1  0.35508000  0.31614000  0.08217000  1.0
  C  C162  1  0.64733000  0.92614000  0.59921000  1.0
  C  C163  1  0.64732000  0.57386000  0.90079000  1.0
  C  C164  1  0.35267000  0.07386000  0.40079000  1.0
  C  C165  1  0.35267000  0.42614000  0.09921000  1.0
  C  C166  1  0.75937000  0.97119000  0.61820000  1.0
  C  C167  1  0.75937000  0.52881000  0.88180000  1.0
  C  C168  1  0.24063000  0.02881000  0.38180000  1.0
  C  C169  1  0.24063000  0.47119000  0.11820000  1.0
  C  C170  1  0.86891000  0.90668000  0.62045000  1.0
  C  C171  1  0.86890000  0.59332000  0.87954000  1.0
  C  C172  1  0.13109000  0.09332000  0.37955000  1.0
  C  C173  1  0.13110000  0.40668000  0.12045000  1.0
  C  C174  1  0.85702000  0.79680000  0.60230000  1.0
  C  C175  1  0.85701000  0.70320000  0.89770000  1.0
  C  C176  1  0.14298000  0.20320000  0.39770000  1.0
  C  C177  1  0.14299000  0.29680000  0.10230000  1.0
  C  C178  1  0.96602000  0.72716000  0.60185000  1.0
  C  C179  1  0.96601000  0.77284000  0.89815000  1.0
  C  C180  1  0.03398000  0.27284000  0.39815000  1.0
  C  C181  1  0.03399000  0.22715000  0.10185000  1.0
  C  C182  1  0.08416000  0.76896000  0.61987000  1.0
  C  C183  1  0.08415000  0.73104000  0.88012000  1.0
  C  C184  1  0.91584000  0.23104000  0.38012000  1.0
  C  C185  1  0.91584000  0.26896000  0.11988000  1.0
  C  C186  1  0.18894000  0.69816000  0.61629000  1.0
  C  C187  1  0.18893000  0.80184000  0.88371000  1.0
  C  C188  1  0.81106000  0.30184000  0.38371000  1.0
  C  C189  1  0.81106000  0.19816000  0.11629000  1.0
  C  C190  1  0.17275000  0.59358000  0.59576000  1.0
  C  C191  1  0.17275000  0.90642000  0.90424000  1.0
  C  C192  1  0.82725000  0.40642000  0.40424000  1.0
  C  C193  1  0.82725000  0.09357000  0.09576000  1.0
  C  C194  1  0.05163000  0.55847000  0.57938000  1.0
  C  C195  1  0.05163000  0.94153000  0.92062000  1.0
  C  C196  1  0.94837000  0.44153000  0.42062000  1.0
  C  C197  1  0.94837000  0.05847000  0.07938000  1.0
  C  C198  1  0.98925000  0.94598000  0.63894000  1.0
  C  C199  1  0.98924000  0.55402000  0.86105000  1.0
  C  C200  1  0.01075000  0.05401000  0.36106000  1.0
  C  C201  1  0.01075000  0.44598000  0.13895000  1.0
  C  C202  1  0.09248000  0.87969000  0.63886000  1.0
  C  C203  1  0.09247000  0.62031000  0.86114000  1.0
  C  C204  1  0.90752000  0.12030000  0.36114000  1.0
  C  C205  1  0.90752000  0.37969000  0.13886000  1.0
  N  N206  1  0.74689000  0.75398000  0.58386000  1.0
  N  N207  1  0.74688000  0.74602000  0.91613000  1.0
  N  N208  1  0.25311000  0.24602000  0.41614000  1.0
  N  N209  1  0.25311000  0.25398000  0.08386000  1.0
  N  N210  1  0.95132000  0.62346000  0.58273000  1.0
  N  N211  1  0.95132000  0.87654000  0.91727000  1.0
  N  N212  1  0.04867000  0.37654000  0.41727000  1.0
  N  N213  1  0.04868000  0.12345000  0.08273000  1.0
  O  O214  1  0.61337000  0.37152000  0.51905000  1.0
  O  O215  1  0.61337000  0.12848000  0.98095000  1.0
  O  O216  1  0.38663000  0.62848000  0.48095000  1.0
  O  O217  1  0.38663000  0.87152000  0.01905000  1.0
  O  O218  1  0.81617000  0.42631000  0.53546000  1.0
  O  O219  1  0.81617000  0.07369000  0.96454000  1.0
  O  O220  1  0.18383000  0.57370000  0.46454000  1.0
  O  O221  1  0.18383000  0.92630000  0.03546000  1.0
  O  O222  1  0.65568000  0.60674000  0.49748000  1.0
  O  O223  1  0.65568000  0.89326000  0.00252000  1.0
  O  O224  1  0.34432000  0.39327000  0.50252000  1.0
  O  O225  1  0.34433000  0.10673000  0.99748000  1.0
  O  O226  1  0.83394000  0.66796000  0.46250000  1.0
  O  O227  1  0.83393000  0.83204000  0.03750000  1.0
  O  O228  1  0.16606000  0.33204000  0.53750000  1.0
  O  O229  1  0.16607000  0.16795000  0.96250000  1.0
  O  O230  1  0.52545000  0.04855000  0.08130000  1.0
  O  O231  1  0.52545000  0.45145000  0.41870000  1.0
  O  O232  1  0.47456000  0.95146000  0.91870000  1.0
  O  O233  1  0.47456000  0.54854000  0.58130000  1.0
  O  O234  1  0.33495000  0.03652000  0.12222000  1.0
  O  O235  1  0.33495000  0.46348000  0.37778000  1.0
  O  O236  1  0.66506000  0.96349000  0.87778000  1.0
  O  O237  1  0.66506000  0.53651000  0.62222000  1.0
