# generated using pymatgen
data_GdH27C36N7O8
_symmetry_space_group_name_H-M   'P 1'
_cell_length_a   8.18944000
_cell_length_b   14.90310000
_cell_length_c   36.87780000
_cell_angle_alpha   90.00000000
_cell_angle_beta   90.40070000
_cell_angle_gamma   89.99990000
_symmetry_Int_Tables_number   1
_chemical_formula_structural   GdH27C36N7O8
_chemical_formula_sum   'Gd4 H108 C144 N28 O32'
_cell_volume   4500.75326279
_cell_formula_units_Z   4
loop_
 _symmetry_equiv_pos_site_id
 _symmetry_equiv_pos_as_xyz
  1  'x, y, z'
loop_
 _atom_site_type_symbol
 _atom_site_label
 _atom_site_symmetry_multiplicity
 _atom_site_fract_x
 _atom_site_fract_y
 _atom_site_fract_z
 _atom_site_occupancy
  Gd  Gd0  1  0.16644000  0.09636000  0.48744000  1.0
  Gd  Gd1  1  0.83355000  0.90364000  0.51257000  1.0
  Gd  Gd2  1  0.66644000  0.90364000  0.98743000  1.0
  Gd  Gd3  1  0.33356000  0.09636000  0.01257000  1.0
  H  H4  1  0.54484000  0.96322000  0.26230000  1.0
  H  H5  1  0.43773000  0.30395000  0.37774000  1.0
  H  H6  1  0.65252000  0.28654000  0.37469000  1.0
  H  H7  1  0.56255000  0.37332000  0.07432000  1.0
  H  H8  1  0.06714000  0.32408000  0.77499000  1.0
  H  H9  1  0.41215000  0.34562000  0.56195000  1.0
  H  H10  1  0.75893000  0.08129000  0.65628000  1.0
  H  H11  1  0.92729000  0.41010000  0.88764000  1.0
  H  H12  1  0.41553000  0.94242000  0.47542000  1.0
  H  H13  1  0.40533000  0.29954000  0.88964000  1.0
  H  H14  1  0.63053000  0.07328000  0.38292000  1.0
  H  H15  1  0.91216000  0.65438000  0.06195000  1.0
  H  H16  1  0.06255000  0.62668000  0.57432000  1.0
  H  H17  1  0.93774000  0.69605000  0.87774000  1.0
  H  H18  1  0.67424000  0.68512000  0.49156000  1.0
  H  H19  1  0.86946000  0.07328000  0.11708000  1.0
  H  H20  1  0.58447000  0.05758000  0.52458000  1.0
  H  H21  1  0.63342000  0.08121000  0.43132000  1.0
  H  H22  1  0.93285000  0.67592000  0.22501000  1.0
  H  H23  1  0.38680000  0.36093000  0.97268000  1.0
  H  H24  1  0.90534000  0.70045000  0.38964000  1.0
  H  H25  1  0.84406000  0.41655000  0.54687000  1.0
  H  H26  1  0.04971000  0.92481000  0.09199000  1.0
  H  H27  1  0.58784000  0.65438000  0.43805000  1.0
  H  H28  1  0.42728000  0.58990000  0.38764000  1.0
  H  H29  1  0.82576000  0.68512000  0.00844000  1.0
  H  H30  1  0.14369000  0.76308000  0.00492000  1.0
  H  H31  1  0.09701000  0.65721000  0.28097000  1.0
  H  H32  1  0.04483000  0.03678000  0.76230000  1.0
  H  H33  1  0.31773000  0.24892000  0.42519000  1.0
  H  H34  1  0.98436000  0.21786000  0.15142000  1.0
  H  H35  1  0.61469000  0.03341000  0.13450000  1.0
  H  H36  1  0.98027000  0.18972000  0.56587000  1.0
  H  H37  1  0.13055000  0.92672000  0.88292000  1.0
  H  H38  1  0.91554000  0.05758000  0.97542000  1.0
  H  H39  1  0.40298000  0.65721000  0.21903000  1.0
  H  H40  1  0.21773000  0.51272000  0.91462000  1.0
  H  H41  1  0.35631000  0.76308000  0.49508000  1.0
  H  H42  1  0.24107000  0.91871000  0.34372000  1.0
  H  H43  1  0.54971000  0.07519000  0.59199000  1.0
  H  H44  1  0.11470000  0.96659000  0.63450000  1.0
  H  H45  1  0.15253000  0.71345000  0.87468000  1.0
  H  H46  1  0.62181000  0.05552000  0.79314000  1.0
  H  H47  1  0.19837000  0.29697000  0.82469000  1.0
  H  H48  1  0.84747000  0.28655000  0.12532000  1.0
  H  H49  1  0.17425000  0.31489000  0.99156000  1.0
  H  H50  1  0.86657000  0.08122000  0.06868000  1.0
  H  H51  1  0.25789000  0.90143000  0.01086000  1.0
  H  H52  1  0.36657000  0.91879000  0.56868000  1.0
  H  H53  1  0.37819000  0.94448000  0.20686000  1.0
  H  H54  1  0.07271000  0.58990000  0.11236000  1.0
  H  H55  1  0.34406000  0.58345000  0.04688000  1.0
  H  H56  1  0.01973000  0.81028000  0.43413000  1.0
  H  H57  1  0.45029000  0.92481000  0.40801000  1.0
  H  H58  1  0.27011000  0.85166000  0.90499000  1.0
  H  H59  1  0.08446000  0.94242000  0.02458000  1.0
  H  H60  1  0.93745000  0.37332000  0.42568000  1.0
  H  H61  1  0.71773000  0.48728000  0.41462000  1.0
  H  H62  1  0.38530000  0.96659000  0.86550000  1.0
  H  H63  1  0.68227000  0.75108000  0.57481000  1.0
  H  H64  1  0.18227000  0.24892000  0.07481000  1.0
  H  H65  1  0.75789000  0.09857000  0.51086000  1.0
  H  H66  1  0.59702000  0.34279000  0.78097000  1.0
  H  H67  1  0.90299000  0.34279000  0.71903000  1.0
  H  H68  1  0.56714000  0.67592000  0.27499000  1.0
  H  H69  1  0.81774000  0.75108000  0.92519000  1.0
  H  H70  1  0.11321000  0.36093000  0.52732000  1.0
  H  H71  1  0.28227000  0.51272000  0.58538000  1.0
  H  H72  1  0.78226000  0.48728000  0.08538000  1.0
  H  H73  1  0.57272000  0.41011000  0.61236000  1.0
  H  H74  1  0.87818000  0.05552000  0.70686000  1.0
  H  H75  1  0.01564000  0.78214000  0.84858000  1.0
  H  H76  1  0.24210000  0.90143000  0.48914000  1.0
  H  H77  1  0.13343000  0.91878000  0.93132000  1.0
  H  H78  1  0.36946000  0.92671000  0.61708000  1.0
  H  H79  1  0.48027000  0.81028000  0.06587000  1.0
  H  H80  1  0.12182000  0.94448000  0.29314000  1.0
  H  H81  1  0.51974000  0.18972000  0.93413000  1.0
  H  H82  1  0.48437000  0.78214000  0.65142000  1.0
  H  H83  1  0.85631000  0.23692000  0.99508000  1.0
  H  H84  1  0.74211000  0.09857000  0.98914000  1.0
  H  H85  1  0.61321000  0.63908000  0.02732000  1.0
  H  H86  1  0.45516000  0.03678000  0.73770000  1.0
  H  H87  1  0.69838000  0.70302000  0.32469000  1.0
  H  H88  1  0.08784000  0.34561000  0.93805000  1.0
  H  H89  1  0.74107000  0.08129000  0.84372000  1.0
  H  H90  1  0.09467000  0.29955000  0.61036000  1.0
  H  H91  1  0.43286000  0.32408000  0.72501000  1.0
  H  H92  1  0.25893000  0.91871000  0.15628000  1.0
  H  H93  1  0.34747000  0.71345000  0.62532000  1.0
  H  H94  1  0.95029000  0.07519000  0.90801000  1.0
  H  H95  1  0.56227000  0.69605000  0.62226000  1.0
  H  H96  1  0.51563000  0.21786000  0.34858000  1.0
  H  H97  1  0.88530000  0.03341000  0.36550000  1.0
  H  H98  1  0.88679000  0.63907000  0.47268000  1.0
  H  H99  1  0.64369000  0.23692000  0.50492000  1.0
  H  H100  1  0.30162000  0.29698000  0.67531000  1.0
  H  H101  1  0.22990000  0.85166000  0.59502000  1.0
  H  H102  1  0.72990000  0.14834000  0.09501000  1.0
  H  H103  1  0.43745000  0.62668000  0.92568000  1.0
  H  H104  1  0.59467000  0.70045000  0.11036000  1.0
  H  H105  1  0.06227000  0.30395000  0.12226000  1.0
  H  H106  1  0.65594000  0.41655000  0.95313000  1.0
  H  H107  1  0.32575000  0.31488000  0.50844000  1.0
  H  H108  1  0.95516000  0.96322000  0.23770000  1.0
  H  H109  1  0.80163000  0.70302000  0.17531000  1.0
  H  H110  1  0.77009000  0.14834000  0.40499000  1.0
  H  H111  1  0.15594000  0.58345000  0.45313000  1.0
  C  C112  1  0.12037000  0.79864000  0.29115000  1.0
  C  C113  1  0.53307000  0.25295000  0.37460000  1.0
  C  C114  1  0.03308000  0.74704000  0.87460000  1.0
  C  C115  1  0.98902000  0.00830000  0.56908000  1.0
  C  C116  1  0.68407000  0.80752000  0.14557000  1.0
  C  C117  1  0.43221000  0.17815000  0.72739000  1.0
  C  C118  1  0.21692000  0.78423000  0.32390000  1.0
  C  C119  1  0.15720000  0.71021000  0.98488000  1.0
  C  C120  1  0.30132000  0.70199000  0.96506000  1.0
  C  C121  1  0.38555000  0.03844000  0.87077000  1.0
  C  C122  1  0.61445000  0.96155000  0.12923000  1.0
  C  C123  1  0.94628000  0.14707000  0.90283000  1.0
  C  C124  1  0.44628000  0.85292000  0.40283000  1.0
  C  C125  1  0.28307000  0.78424000  0.17610000  1.0
  C  C126  1  0.41381000  0.54684000  0.02660000  1.0
  C  C127  1  0.02720000  0.26465000  0.76014000  1.0
  C  C128  1  0.53096000  0.79318000  0.42553000  1.0
  C  C129  1  0.34650000  0.46849000  0.01154000  1.0
  C  C130  1  0.93606000  0.33757000  0.89087000  1.0
  C  C131  1  0.84650000  0.53151000  0.51154000  1.0
  C  C132  1  0.39732000  0.22763000  0.88464000  1.0
  C  C133  1  0.19154000  0.09869000  0.65283000  1.0
  C  C134  1  0.88555000  0.96155000  0.37077000  1.0
  C  C135  1  0.96904000  0.79319000  0.07447000  1.0
  C  C136  1  0.43503000  0.42233000  0.98472000  1.0
  C  C137  1  0.09263000  0.19459000  0.07086000  1.0
  C  C138  1  0.93450000  0.23294000  0.47240000  1.0
  C  C139  1  0.18608000  0.43731000  0.02282000  1.0
  C  C140  1  0.64456000  0.27857000  0.63296000  1.0
  C  C141  1  0.69915000  0.43192000  0.43350000  1.0
  C  C142  1  0.54509000  0.92729000  0.09741000  1.0
  C  C143  1  0.34280000  0.71021000  0.51513000  1.0
  C  C144  1  0.40737000  0.19459000  0.42914000  1.0
  C  C145  1  0.13849000  0.81565000  0.12625000  1.0
  C  C146  1  0.97554000  0.69930000  0.08055000  1.0
  C  C147  1  0.58093000  0.11502000  0.77847000  1.0
  C  C148  1  0.43450000  0.76706000  0.97240000  1.0
  C  C149  1  0.46248000  0.16615000  0.90915000  1.0
  C  C150  1  0.03552000  0.64762000  0.97815000  1.0
  C  C151  1  0.56506000  0.27605000  0.77120000  1.0
  C  C152  1  0.56395000  0.33757000  0.60913000  1.0
  C  C153  1  0.45491000  0.07270000  0.90259000  1.0
  C  C154  1  0.78308000  0.21577000  0.67610000  1.0
  C  C155  1  0.31392000  0.43731000  0.47718000  1.0
  C  C156  1  0.56779000  0.82185000  0.27261000  1.0
  C  C157  1  0.11446000  0.03845000  0.62923000  1.0
  C  C158  1  0.46448000  0.64762000  0.52185000  1.0
  C  C159  1  0.53752000  0.83385000  0.09085000  1.0
  C  C160  1  0.16791000  0.16281000  0.80476000  1.0
  C  C161  1  0.02446000  0.30069000  0.91945000  1.0
  C  C162  1  0.14718000  0.88104000  0.90606000  1.0
  C  C163  1  0.17902000  0.63149000  0.56034000  1.0
  C  C164  1  0.44741000  0.57561000  0.54700000  1.0
  C  C165  1  0.68608000  0.56269000  0.52282000  1.0
  C  C166  1  0.48826000  0.10356000  0.74722000  1.0
  C  C167  1  0.64716000  0.11896000  0.40606000  1.0
  C  C168  1  0.31593000  0.19248000  0.85443000  1.0
  C  C169  1  0.13177000  0.16946000  0.95551000  1.0
  C  C170  1  0.06506000  0.72394000  0.27120000  1.0
  C  C171  1  0.03753000  0.16615000  0.59085000  1.0
  C  C172  1  0.66791000  0.83719000  0.30476000  1.0
  C  C173  1  0.05372000  0.85293000  0.09717000  1.0
  C  C174  1  0.93503000  0.57767000  0.48471000  1.0
  C  C175  1  0.80084000  0.43192000  0.06650000  1.0
  C  C176  1  0.63177000  0.83053000  0.45551000  1.0
  C  C177  1  0.93221000  0.82185000  0.22739000  1.0
  C  C178  1  0.35283000  0.88104000  0.59394000  1.0
  C  C179  1  0.47280000  0.26465000  0.73986000  1.0
  C  C180  1  0.33210000  0.16281000  0.69524000  1.0
  C  C181  1  0.30846000  0.09869000  0.84717000  1.0
  C  C182  1  0.63850000  0.18435000  0.62625000  1.0
  C  C183  1  0.81593000  0.80752000  0.35443000  1.0
  C  C184  1  0.47555000  0.30070000  0.58055000  1.0
  C  C185  1  0.51174000  0.89644000  0.25278000  1.0
  C  C186  1  0.30085000  0.56808000  0.56650000  1.0
  C  C187  1  0.01174000  0.10356000  0.75278000  1.0
  C  C188  1  0.62038000  0.20135000  0.79115000  1.0
  C  C189  1  0.05259000  0.57561000  0.95300000  1.0
  C  C190  1  0.96448000  0.35238000  0.02185000  1.0
  C  C191  1  0.98826000  0.89644000  0.24722000  1.0
  C  C192  1  0.18408000  0.19248000  0.64557000  1.0
  C  C193  1  0.36151000  0.81565000  0.37375000  1.0
  C  C194  1  0.82098000  0.36851000  0.43966000  1.0
  C  C195  1  0.36823000  0.16947000  0.54449000  1.0
  C  C196  1  0.69154000  0.90131000  0.15283000  1.0
  C  C197  1  0.94741000  0.42439000  0.04700000  1.0
  C  C198  1  0.69868000  0.29801000  0.03493000  1.0
  C  C199  1  0.65719000  0.28979000  0.48488000  1.0
  C  C200  1  0.41907000  0.88498000  0.22153000  1.0
  C  C201  1  0.06779000  0.17815000  0.77261000  1.0
  C  C202  1  0.06497000  0.42233000  0.51529000  1.0
  C  C203  1  0.96248000  0.83385000  0.40915000  1.0
  C  C204  1  0.35545000  0.72143000  0.36704000  1.0
  C  C205  1  0.19915000  0.56808000  0.93350000  1.0
  C  C206  1  0.52720000  0.73535000  0.26014000  1.0
  C  C207  1  0.90738000  0.80541000  0.92914000  1.0
  C  C208  1  0.52445000  0.69930000  0.41945000  1.0
  C  C209  1  0.85545000  0.27856000  0.86704000  1.0
  C  C210  1  0.85283000  0.11896000  0.09394000  1.0
  C  C211  1  0.67902000  0.36851000  0.06034000  1.0
  C  C212  1  0.06394000  0.66243000  0.10913000  1.0
  C  C213  1  0.91907000  0.11502000  0.72153000  1.0
  C  C214  1  0.80132000  0.29801000  0.46506000  1.0
  C  C215  1  0.51098000  0.00830000  0.93092000  1.0
  C  C216  1  0.19868000  0.70199000  0.53494000  1.0
  C  C217  1  0.46904000  0.20682000  0.57447000  1.0
  C  C218  1  0.56497000  0.57767000  0.01529000  1.0
  C  C219  1  0.14455000  0.72144000  0.13296000  1.0
  C  C220  1  0.03096000  0.20681000  0.92553000  1.0
  C  C221  1  0.32098000  0.63149000  0.93966000  1.0
  C  C222  1  0.55259000  0.42439000  0.45300000  1.0
  C  C223  1  0.83209000  0.83719000  0.19524000  1.0
  C  C224  1  0.56550000  0.23294000  0.02760000  1.0
  C  C225  1  0.71693000  0.21576000  0.82390000  1.0
  C  C226  1  0.43494000  0.72395000  0.22880000  1.0
  C  C227  1  0.08618000  0.54684000  0.47340000  1.0
  C  C228  1  0.86151000  0.18435000  0.87375000  1.0
  C  C229  1  0.81392000  0.56269000  0.97718000  1.0
  C  C230  1  0.96693000  0.25296000  0.12540000  1.0
  C  C231  1  0.95491000  0.92730000  0.40259000  1.0
  C  C232  1  0.43605000  0.66243000  0.39087000  1.0
  C  C233  1  0.89732000  0.77237000  0.38464000  1.0
  C  C234  1  0.93494000  0.27606000  0.72880000  1.0
  C  C235  1  0.04509000  0.07270000  0.59741000  1.0
  C  C236  1  0.58619000  0.45317000  0.97340000  1.0
  C  C237  1  0.37962000  0.79865000  0.20885000  1.0
  C  C238  1  0.48902000  0.99170000  0.06908000  1.0
  C  C239  1  0.97280000  0.73535000  0.23986000  1.0
  C  C240  1  0.84281000  0.28979000  0.01512000  1.0
  C  C241  1  0.55372000  0.14708000  0.59717000  1.0
  C  C242  1  0.87962000  0.20136000  0.70885000  1.0
  C  C243  1  0.53551000  0.35238000  0.47815000  1.0
  C  C244  1  0.10268000  0.22763000  0.61536000  1.0
  C  C245  1  0.46693000  0.74705000  0.62540000  1.0
  C  C246  1  0.86823000  0.83053000  0.04449000  1.0
  C  C247  1  0.60268000  0.77237000  0.11535000  1.0
  C  C248  1  0.06550000  0.76706000  0.52760000  1.0
  C  C249  1  0.01097000  0.99170000  0.43092000  1.0
  C  C250  1  0.08093000  0.88498000  0.27847000  1.0
  C  C251  1  0.15350000  0.46849000  0.48846000  1.0
  C  C252  1  0.65350000  0.53151000  0.98846000  1.0
  C  C253  1  0.59263000  0.80540000  0.57086000  1.0
  C  C254  1  0.91381000  0.45317000  0.52660000  1.0
  C  C255  1  0.80846000  0.90131000  0.34717000  1.0
  N  N256  1  0.61713000  0.63756000  0.50748000  1.0
  N  N257  1  0.72764000  0.14684000  0.65426000  1.0
  N  N258  1  0.22764000  0.85316000  0.15426000  1.0
  N  N259  1  0.77236000  0.14684000  0.84574000  1.0
  N  N260  1  0.88287000  0.63756000  0.99252000  1.0
  N  N261  1  0.73422000  0.29581000  0.66396000  1.0
  N  N262  1  0.26578000  0.70419000  0.33604000  1.0
  N  N263  1  0.78405000  0.91749000  0.18359000  1.0
  N  N264  1  0.58696000  0.52340000  0.54693000  1.0
  N  N265  1  0.21595000  0.08251000  0.81641000  1.0
  N  N266  1  0.02512000  0.81025000  0.90447000  1.0
  N  N267  1  0.38287000  0.36244000  0.49252000  1.0
  N  N268  1  0.47489000  0.81025000  0.59553000  1.0
  N  N269  1  0.11714000  0.36244000  0.00748000  1.0
  N  N270  1  0.77304000  0.76891000  0.17327000  1.0
  N  N271  1  0.22696000  0.23109000  0.82673000  1.0
  N  N272  1  0.72696000  0.76891000  0.32673000  1.0
  N  N273  1  0.23421000  0.70419000  0.16396000  1.0
  N  N274  1  0.41303000  0.47660000  0.45307000  1.0
  N  N275  1  0.91303000  0.52340000  0.95307000  1.0
  N  N276  1  0.27236000  0.85316000  0.34574000  1.0
  N  N277  1  0.28406000  0.08251000  0.68359000  1.0
  N  N278  1  0.27304000  0.23109000  0.67327000  1.0
  N  N279  1  0.08696000  0.47660000  0.04693000  1.0
  N  N280  1  0.71595000  0.91749000  0.31641000  1.0
  N  N281  1  0.76579000  0.29581000  0.83604000  1.0
  N  N282  1  0.97489000  0.18974000  0.09553000  1.0
  N  N283  1  0.52510000  0.18974000  0.40447000  1.0
  O  O284  1  0.70197000  0.04467000  0.52066000  1.0
  O  O285  1  0.11297000  0.08789000  0.96569000  1.0
  O  O286  1  0.59650000  0.94054000  0.92300000  1.0
  O  O287  1  0.29803000  0.95533000  0.47934000  1.0
  O  O288  1  0.38703000  0.08789000  0.53431000  1.0
  O  O289  1  0.10300000  0.14114000  0.04464000  1.0
  O  O290  1  0.96760000  0.97766000  0.46409000  1.0
  O  O291  1  0.90745000  0.16765000  0.49491000  1.0
  O  O292  1  0.92636000  0.76065000  0.54241000  1.0
  O  O293  1  0.88703000  0.91211000  0.03431000  1.0
  O  O294  1  0.09254000  0.83235000  0.50509000  1.0
  O  O295  1  0.09650000  0.05946000  0.42300000  1.0
  O  O296  1  0.24059000  0.21801000  0.97142000  1.0
  O  O297  1  0.07364000  0.23935000  0.45759000  1.0
  O  O298  1  0.59255000  0.16765000  0.00509000  1.0
  O  O299  1  0.61296000  0.91211000  0.46569000  1.0
  O  O300  1  0.25940000  0.21801000  0.52858000  1.0
  O  O301  1  0.57364000  0.76065000  0.95759000  1.0
  O  O302  1  0.39700000  0.14115000  0.45536000  1.0
  O  O303  1  0.03239000  0.02234000  0.53591000  1.0
  O  O304  1  0.74058000  0.78199000  0.47142000  1.0
  O  O305  1  0.40745000  0.83235000  0.99491000  1.0
  O  O306  1  0.60301000  0.85885000  0.54464000  1.0
  O  O307  1  0.90350000  0.94054000  0.57700000  1.0
  O  O308  1  0.20196000  0.95533000  0.02066000  1.0
  O  O309  1  0.79804000  0.04467000  0.97934000  1.0
  O  O310  1  0.75941000  0.78199000  0.02858000  1.0
  O  O311  1  0.89700000  0.85885000  0.95536000  1.0
  O  O312  1  0.53238000  0.97766000  0.03591000  1.0
  O  O313  1  0.42636000  0.23934000  0.04240000  1.0
  O  O314  1  0.46761000  0.02234000  0.96409000  1.0
  O  O315  1  0.40350000  0.05946000  0.07700000  1.0
