# generated using pymatgen
data_Al2H10C24S2Cl2O11
_symmetry_space_group_name_H-M   'P 1'
_cell_length_a   6.61241000
_cell_length_b   12.47214732
_cell_length_c   17.66630000
_cell_angle_alpha   92.70181794
_cell_angle_beta   100.19630000
_cell_angle_gamma   101.87727339
_symmetry_Int_Tables_number   1
_chemical_formula_structural   Al2H10C24S2Cl2O11
_chemical_formula_sum   'Al2 H10 C24 S2 Cl2 O11'
_cell_volume   1397.95450988
_cell_formula_units_Z   1
loop_
 _symmetry_equiv_pos_site_id
 _symmetry_equiv_pos_as_xyz
  1  'x, y, z'
loop_
 _atom_site_type_symbol
 _atom_site_label
 _atom_site_symmetry_multiplicity
 _atom_site_fract_x
 _atom_site_fract_y
 _atom_site_fract_z
 _atom_site_occupancy
  Al  Al0  1  0.01126000  0.50715000  0.50109000  1.0
  Al  Al1  1  0.50752000  0.50245000  0.49787000  1.0
  H  H2  1  0.33111000  0.54430000  0.59768000  1.0
  H  H3  1  0.69518000  0.37994000  0.44454000  1.0
  H  H4  1  0.82352000  0.47124000  0.27759000  1.0
  H  H5  1  0.72668000  0.44602000  0.13367000  1.0
  H  H6  1  0.36965000  0.59556000  0.12167000  1.0
  H  H7  1  0.59285000  0.39115000  0.86994000  1.0
  H  H8  1  0.17736000  0.53142000  0.73453000  1.0
  H  H9  1  0.24711000  0.54168000  0.87811000  1.0
  H  H10  1  0.23365000  0.84628000  0.53915000  1.0
  H  H11  1  0.59936000  0.11910000  0.45708000  1.0
  C  C12  1  0.83285000  0.70040000  0.51108000  1.0
  C  C13  1  0.81818000  0.47398000  0.63622000  1.0
  C  C14  1  0.17564000  0.30695000  0.48509000  1.0
  C  C15  1  0.19535000  0.53664000  0.36601000  1.0
  C  C16  1  0.14949000  0.54077000  0.28046000  1.0
  C  C17  1  0.94168000  0.49637000  0.24223000  1.0
  C  C18  1  0.88782000  0.48280000  0.16229000  1.0
  C  C19  1  0.04342000  0.51566000  0.11770000  1.0
  C  C20  1  0.24999000  0.56612000  0.15544000  1.0
  C  C21  1  0.30208000  0.57837000  0.23574000  1.0
  C  C22  1  0.99590000  0.49837000  0.03620000  1.0
  C  C23  1  0.95915000  0.48256000  0.96589000  1.0
  C  C24  1  0.92315000  0.47054000  0.88431000  1.0
  C  C25  1  0.72124000  0.42384000  0.84073000  1.0
  C  C26  1  0.68418000  0.41984000  0.76039000  1.0
  C  C27  1  0.84743000  0.46174000  0.72104000  1.0
  C  C28  1  0.05027000  0.50212000  0.76518000  1.0
  C  C29  1  0.08945000  0.50756000  0.84510000  1.0
  C  C30  1  0.90018000  0.12643000  0.47541000  1.0
  C  C31  1  0.09756000  0.88226000  0.52246000  1.0
  C  C32  1  0.10647000  0.18902000  0.48898000  1.0
  C  C33  1  0.89392000  0.81992000  0.50779000  1.0
  C  C34  1  0.09942000  0.99362000  0.51143000  1.0
  C  C35  1  0.89724000  0.01426000  0.48816000  1.0
  S  S36  1  0.29351000  0.11163000  0.51923000  1.0
  S  S37  1  0.70383000  0.89578000  0.48002000  1.0
  Cl  Cl38  1  0.55589000  0.64501000  0.27788000  1.0
  Cl  Cl39  1  0.43301000  0.35799000  0.71168000  1.0
  O  O40  1  0.98325000  0.65129000  0.52925000  1.0
  O  O41  1  0.64779000  0.49887000  0.60425000  1.0
  O  O42  1  0.37430000  0.34735000  0.49708000  1.0
  O  O43  1  0.05478000  0.55482000  0.40252000  1.0
  O  O44  1  0.03193000  0.36138000  0.46997000  1.0
  O  O45  1  0.36440000  0.50828000  0.39515000  1.0
  O  O46  1  0.63757000  0.65551000  0.49590000  1.0
  O  O47  1  0.97169000  0.46475000  0.60354000  1.0
  O  O48  1  0.29789000  0.54551000  0.54200000  1.0
  O  O49  1  0.72461000  0.45799000  0.46108000  1.0
  O  O50  1  0.73037000  0.16948000  0.45184000  1.0
