# generated using pymatgen
data_SnH6Au2(C3N2)2
_symmetry_space_group_name_H-M   'P 1'
_cell_length_a   6.45175000
_cell_length_b   10.62455767
_cell_length_c   10.64285510
_cell_angle_alpha   60.05729693
_cell_angle_beta   73.09850647
_cell_angle_gamma   89.99973529
_symmetry_Int_Tables_number   1
_chemical_formula_structural   SnH6Au2(C3N2)2
_chemical_formula_sum   'Sn2 H12 Au4 C12 N8'
_cell_volume   595.51949658
_cell_formula_units_Z   2
loop_
 _symmetry_equiv_pos_site_id
 _symmetry_equiv_pos_as_xyz
  1  'x, y, z'
loop_
 _atom_site_type_symbol
 _atom_site_label
 _atom_site_symmetry_multiplicity
 _atom_site_fract_x
 _atom_site_fract_y
 _atom_site_fract_z
 _atom_site_occupancy
  Sn  Sn0  1  0.99999000  0.00000000  0.49999000  1.0
  Sn  Sn1  1  0.49998000  0.50001000  0.50002000  1.0
  H  H2  1  0.81814000  0.71817000  0.71334000  1.0
  H  H3  1  0.68189000  0.43152000  0.28665000  1.0
  H  H4  1  0.18196000  0.28185000  0.28661000  1.0
  H  H5  1  0.31804000  0.56848000  0.71338000  1.0
  H  H6  1  0.83193000  0.75406000  0.52666000  1.0
  H  H7  1  0.66811000  0.28071000  0.47332000  1.0
  H  H8  1  0.16818000  0.24598000  0.47330000  1.0
  H  H9  1  0.33183000  0.71926000  0.52669000  1.0
  H  H10  1  0.62145000  0.81449000  0.62685000  1.0
  H  H11  1  0.87860000  0.44134000  0.37316000  1.0
  H  H12  1  0.37862000  0.18550000  0.37313000  1.0
  H  H13  1  0.12140000  0.55862000  0.62688000  1.0
  Au  Au14  1  0.50003000  0.00003000  0.99993000  1.0
  Au  Au15  1  0.99998000  0.00002000  0.99998000  1.0
  Au  Au16  1  0.24998000  0.72991000  0.99997000  1.0
  Au  Au17  1  0.74998000  0.27014000  0.99997000  1.0
  C  C18  1  0.66081000  0.03134000  0.79519000  1.0
  C  C19  1  0.83913000  0.82651000  0.20482000  1.0
  C  C20  1  0.33920000  0.96871000  0.20475000  1.0
  C  C21  1  0.16075000  0.17343000  0.79527000  1.0
  C  C22  1  0.20977000  0.82783000  0.79732000  1.0
  C  C23  1  0.29021000  0.62513000  0.20272000  1.0
  C  C24  1  0.79027000  0.17217000  0.20270000  1.0
  C  C25  1  0.70971000  0.37486000  0.79735000  1.0
  C  C26  1  0.79121000  0.79501000  0.60533000  1.0
  C  C27  1  0.70878000  0.40033000  0.39468000  1.0
  C  C28  1  0.20889000  0.20499000  0.39464000  1.0
  C  C29  1  0.29112000  0.59963000  0.60536000  1.0
  N  N30  1  0.75711000  0.04654000  0.67554000  1.0
  N  N31  1  0.74287000  0.72205000  0.32447000  1.0
  N  N32  1  0.24292000  0.95351000  0.32439000  1.0
  N  N33  1  0.25706000  0.27788000  0.67564000  1.0
  N  N34  1  0.18417000  0.88822000  0.67754000  1.0
  N  N35  1  0.31584000  0.56576000  0.32249000  1.0
  N  N36  1  0.81591000  0.11177000  0.32246000  1.0
  N  N37  1  0.68410000  0.43424000  0.67758000  1.0
