# generated using pymatgen
data_Zn4H24C48O13
_symmetry_space_group_name_H-M   'P 1'
_cell_length_a   18.26870000
_cell_length_b   18.35611737
_cell_length_c   18.37020000
_cell_angle_alpha   60.56875882
_cell_angle_beta   60.59300000
_cell_angle_gamma   60.50448494
_symmetry_Int_Tables_number   1
_chemical_formula_structural   Zn4H24C48O13
_chemical_formula_sum   'Zn8 H48 C96 O26'
_cell_volume   4410.64728261
_cell_formula_units_Z   2
loop_
 _symmetry_equiv_pos_site_id
 _symmetry_equiv_pos_as_xyz
  1  'x, y, z'
loop_
 _atom_site_type_symbol
 _atom_site_label
 _atom_site_symmetry_multiplicity
 _atom_site_fract_x
 _atom_site_fract_y
 _atom_site_fract_z
 _atom_site_occupancy
  Zn  Zn0  1  0.94078000  0.15025000  0.95374000  1.0
  Zn  Zn1  1  0.94093000  0.97932000  0.94412000  1.0
  Zn  Zn2  1  0.93874000  0.97482000  0.12218000  1.0
  Zn  Zn3  1  0.11516000  0.97701000  0.94989000  1.0
  Zn  Zn4  1  0.52814000  0.39000000  0.53787000  1.0
  Zn  Zn5  1  0.52915000  0.56808000  0.53192000  1.0
  Zn  Zn6  1  0.35332000  0.56361000  0.53727000  1.0
  Zn  Zn7  1  0.52552000  0.55968000  0.36252000  1.0
  H  H8  1  0.69002000  0.19104000  0.97529000  1.0
  H  H9  1  0.52698000  0.24733000  0.03950000  1.0
  H  H10  1  0.43250000  0.34376000  0.94155000  1.0
  H  H11  1  0.50157000  0.38396000  0.77976000  1.0
  H  H12  1  0.77490000  0.36953000  0.51380000  1.0
  H  H13  1  0.93811000  0.31432000  0.44954000  1.0
  H  H14  1  0.03223000  0.21483000  0.54760000  1.0
  H  H15  1  0.96302000  0.17173000  0.70942000  1.0
  H  H16  1  0.96468000  0.17861000  0.14497000  1.0
  H  H17  1  0.03172000  0.23440000  0.18684000  1.0
  H  H18  1  0.93515000  0.32964000  0.28345000  1.0
  H  H19  1  0.77195000  0.36843000  0.33811000  1.0
  H  H20  1  0.50221000  0.35138000  0.35041000  1.0
  H  H21  1  0.43502000  0.29492000  0.30943000  1.0
  H  H22  1  0.53163000  0.19638000  0.21606000  1.0
  H  H23  1  0.69489000  0.15528000  0.16359000  1.0
  H  H24  1  0.12632000  0.18180000  0.70986000  1.0
  H  H25  1  0.16270000  0.23707000  0.54824000  1.0
  H  H26  1  0.25802000  0.33394000  0.45087000  1.0
  H  H27  1  0.31672000  0.37490000  0.51563000  1.0
  H  H28  1  0.34047000  0.36051000  0.78185000  1.0
  H  H29  1  0.29942000  0.30988000  0.94374000  1.0
  H  H30  1  0.20135000  0.21579000  0.04121000  1.0
  H  H31  1  0.14596000  0.17148000  0.97629000  1.0
  H  H32  1  0.69919000  0.99662000  0.12159000  1.0
  H  H33  1  0.53650000  0.06384000  0.15888000  1.0
  H  H34  1  0.43927000  0.96877000  0.25619000  1.0
  H  H35  1  0.50530000  0.80699000  0.31603000  1.0
  H  H36  1  0.77424000  0.53773000  0.34261000  1.0
  H  H37  1  0.93720000  0.47028000  0.30367000  1.0
  H  H38  1  0.03434000  0.56512000  0.20539000  1.0
  H  H39  1  0.96832000  0.72716000  0.14643000  1.0
  H  H40  1  0.12291000  0.73919000  0.96647000  1.0
  H  H41  1  0.15656000  0.57732000  0.03402000  1.0
  H  H42  1  0.25310000  0.48000000  0.93944000  1.0
  H  H43  1  0.31529000  0.54489000  0.77791000  1.0
  H  H44  1  0.34971000  0.81113000  0.50936000  1.0
  H  H45  1  0.31344000  0.97314000  0.44189000  1.0
  H  H46  1  0.21566000  0.07039000  0.53652000  1.0
  H  H47  1  0.15433000  0.00504000  0.69833000  1.0
  H  H48  1  0.13427000  0.99939000  0.15356000  1.0
  H  H49  1  0.17954000  0.06484000  0.20735000  1.0
  H  H50  1  0.27344000  0.96760000  0.30578000  1.0
  H  H51  1  0.32234000  0.80541000  0.34937000  1.0
  H  H52  1  0.32447000  0.53749000  0.33941000  1.0
  H  H53  1  0.27591000  0.47214000  0.28866000  1.0
  H  H54  1  0.18127000  0.56950000  0.19101000  1.0
  H  H55  1  0.13505000  0.73177000  0.14487000  1.0
  C  C56  1  0.84207000  0.16330000  0.85796000  1.0
  C  C57  1  0.78520000  0.22304000  0.79963000  1.0
  C  C58  1  0.69222000  0.25435000  0.83847000  1.0
  C  C59  1  0.64938000  0.23250000  0.93204000  1.0
  C  C60  1  0.55838000  0.26386000  0.96788000  1.0
  C  C61  1  0.50470000  0.31877000  0.91224000  1.0
  C  C62  1  0.54325000  0.34126000  0.82197000  1.0
  C  C63  1  0.63772000  0.31043000  0.78189000  1.0
  C  C64  1  0.67935000  0.33278000  0.68962000  1.0
  C  C65  1  0.62258000  0.38888000  0.63106000  1.0
  C  C66  1  0.77245000  0.30275000  0.65075000  1.0
  C  C67  1  0.81545000  0.32628000  0.55709000  1.0
  C  C68  1  0.90649000  0.29559000  0.52123000  1.0
  C  C69  1  0.95999000  0.23921000  0.57697000  1.0
  C  C70  1  0.92131000  0.21518000  0.66728000  1.0
  C  C71  1  0.82685000  0.24590000  0.70736000  1.0
  C  C72  1  0.84529000  0.15336000  0.13664000  1.0
  C  C73  1  0.78765000  0.20940000  0.19552000  1.0
  C  C74  1  0.82799000  0.24077000  0.21760000  1.0
  C  C75  1  0.92226000  0.21973000  0.18752000  1.0
  C  C76  1  0.95955000  0.25092000  0.21078000  1.0
  C  C77  1  0.90463000  0.30509000  0.26570000  1.0
  C  C78  1  0.81377000  0.32679000  0.29603000  1.0
  C  C79  1  0.77225000  0.29582000  0.27333000  1.0
  C  C80  1  0.67930000  0.31758000  0.30271000  1.0
  C  C81  1  0.62145000  0.37650000  0.35878000  1.0
  C  C82  1  0.63901000  0.28654000  0.28027000  1.0
  C  C83  1  0.54465000  0.30885000  0.30924000  1.0
  C  C84  1  0.50723000  0.27748000  0.28634000  1.0
  C  C85  1  0.56213000  0.22166000  0.23307000  1.0
  C  C86  1  0.65310000  0.19880000  0.20374000  1.0
  C  C87  1  0.69475000  0.23021000  0.22584000  1.0
  C  C88  1  0.12263000  0.15900000  0.85839000  1.0
  C  C89  1  0.17990000  0.21688000  0.80040000  1.0
  C  C90  1  0.20047000  0.24636000  0.70820000  1.0
  C  C91  1  0.16836000  0.22361000  0.66785000  1.0
  C  C92  1  0.18875000  0.25432000  0.57770000  1.0
  C  C93  1  0.24291000  0.30935000  0.52239000  1.0
  C  C94  1  0.27555000  0.33229000  0.55853000  1.0
  C  C95  1  0.25571000  0.30201000  0.65203000  1.0
  C  C96  1  0.28783000  0.32455000  0.69115000  1.0
  C  C97  1  0.34566000  0.38189000  0.63273000  1.0
  C  C98  1  0.26661000  0.29573000  0.78338000  1.0
  C  C99  1  0.29770000  0.31947000  0.82382000  1.0
  C  C100  1  0.27465000  0.29138000  0.91412000  1.0
  C  C101  1  0.21916000  0.23765000  0.96951000  1.0
  C  C102  1  0.18831000  0.21291000  0.93329000  1.0
  C  C103  1  0.21071000  0.24067000  0.83962000  1.0
  C  C104  1  0.84896000  0.87803000  0.12208000  1.0
  C  C105  1  0.79129000  0.82048000  0.17772000  1.0
  C  C106  1  0.69848000  0.86097000  0.19777000  1.0
  C  C107  1  0.65733000  0.95469000  0.16474000  1.0
  C  C108  1  0.56653000  0.99222000  0.18558000  1.0
  C  C109  1  0.51130000  0.93822000  0.24087000  1.0
  C  C110  1  0.54816000  0.84792000  0.27418000  1.0
  C  C111  1  0.64235000  0.80615000  0.25413000  1.0
  C  C112  1  0.68218000  0.71389000  0.28751000  1.0
  C  C113  1  0.62386000  0.65709000  0.34751000  1.0
  C  C114  1  0.77505000  0.67333000  0.26679000  1.0
  C  C115  1  0.81616000  0.57961000  0.29952000  1.0
  C  C116  1  0.90702000  0.54197000  0.27774000  1.0
  C  C117  1  0.96224000  0.59591000  0.22190000  1.0
  C  C118  1  0.92540000  0.68626000  0.18918000  1.0
  C  C119  1  0.83118000  0.72812000  0.21018000  1.0
  C  C120  1  0.12374000  0.88747000  0.84817000  1.0
  C  C121  1  0.18167000  0.82953000  0.79108000  1.0
  C  C122  1  0.20007000  0.73732000  0.83155000  1.0
  C  C123  1  0.16543000  0.69700000  0.92497000  1.0
  C  C124  1  0.18427000  0.60685000  0.96259000  1.0
  C  C125  1  0.23918000  0.55152000  0.90885000  1.0
  C  C126  1  0.27390000  0.58766000  0.81881000  1.0
  C  C127  1  0.25580000  0.68119000  0.77689000  1.0
  C  C128  1  0.29073000  0.72030000  0.68484000  1.0
  C  C129  1  0.34801000  0.66210000  0.62806000  1.0
  C  C130  1  0.27237000  0.81254000  0.64442000  1.0
  C  C131  1  0.30638000  0.85316000  0.55096000  1.0
  C  C132  1  0.28621000  0.94347000  0.51338000  1.0
  C  C133  1  0.23069000  0.99873000  0.56720000  1.0
  C  C134  1  0.19666000  0.96235000  0.65731000  1.0
  C  C135  1  0.21592000  0.86870000  0.69902000  1.0
  C  C136  1  0.12047000  0.88131000  0.13235000  1.0
  C  C137  1  0.17701000  0.82305000  0.19102000  1.0
  C  C138  1  0.20226000  0.86253000  0.22011000  1.0
  C  C139  1  0.17566000  0.95644000  0.19607000  1.0
  C  C140  1  0.20095000  0.99298000  0.22599000  1.0
  C  C141  1  0.25455000  0.93771000  0.28172000  1.0
  C  C142  1  0.28181000  0.84719000  0.30606000  1.0
  C  C143  1  0.25684000  0.80638000  0.27657000  1.0
  C  C144  1  0.28344000  0.71387000  0.30043000  1.0
  C  C145  1  0.34181000  0.65578000  0.35733000  1.0
  C  C146  1  0.25756000  0.67437000  0.27192000  1.0
  C  C147  1  0.28295000  0.58048000  0.29706000  1.0
  C  C148  1  0.25587000  0.54402000  0.26875000  1.0
  C  C149  1  0.20204000  0.59934000  0.21330000  1.0
  C  C150  1  0.17631000  0.68987000  0.18753000  1.0
  C  C151  1  0.20268000  0.73054000  0.21576000  1.0
  O  O152  1  0.98414000  0.02003000  0.99214000  1.0
  O  O153  1  0.86509000  0.08041000  0.87510000  1.0
  O  O154  1  0.86235000  0.20097000  0.88466000  1.0
  O  O155  1  0.60146000  0.47253000  0.60719000  1.0
  O  O156  1  0.60067000  0.34710000  0.61069000  1.0
  O  O157  1  0.85956000  0.07025000  0.17376000  1.0
  O  O158  1  0.87471000  0.19424000  0.05435000  1.0
  O  O159  1  0.59637000  0.45938000  0.31758000  1.0
  O  O160  1  0.60277000  0.33853000  0.44215000  1.0
  O  O161  1  0.16279000  0.07567000  0.88075000  1.0
  O  O162  1  0.03890000  0.19867000  0.87961000  1.0
  O  O163  1  0.30557000  0.46518000  0.60965000  1.0
  O  O164  1  0.42942000  0.34212000  0.61147000  1.0
  O  O165  1  0.86997000  0.89876000  0.16427000  1.0
  O  O166  1  0.87135000  0.90119000  0.03844000  1.0
  O  O167  1  0.59989000  0.63335000  0.31038000  1.0
  O  O168  1  0.60364000  0.63788000  0.43021000  1.0
  O  O169  1  0.16356000  0.90593000  0.87432000  1.0
  O  O170  1  0.04012000  0.91248000  0.86559000  1.0
  O  O171  1  0.30749000  0.63368000  0.61297000  1.0
  O  O172  1  0.43164000  0.64630000  0.60007000  1.0
  O  O173  1  0.16144000  0.90182000  0.04937000  1.0
  O  O174  1  0.03663000  0.90482000  0.17113000  1.0
  O  O175  1  0.30299000  0.63829000  0.44057000  1.0
  O  O176  1  0.42512000  0.62950000  0.31694000  1.0
  O  O177  1  0.48427000  0.52036000  0.49253000  1.0
