# generated using pymatgen
data_Mg3H54(C22O5)4
_symmetry_space_group_name_H-M   'P 1'
_cell_length_a   11.22150000
_cell_length_b   14.03260000
_cell_length_c   16.22220000
_cell_angle_alpha   80.43450000
_cell_angle_beta   75.61540000
_cell_angle_gamma   77.61080000
_symmetry_Int_Tables_number   1
_chemical_formula_structural   Mg3H54(C22O5)4
_chemical_formula_sum   'Mg3 H54 C88 O20'
_cell_volume   2399.49300491
_cell_formula_units_Z   1
loop_
 _symmetry_equiv_pos_site_id
 _symmetry_equiv_pos_as_xyz
  1  'x, y, z'
loop_
 _atom_site_type_symbol
 _atom_site_label
 _atom_site_symmetry_multiplicity
 _atom_site_fract_x
 _atom_site_fract_y
 _atom_site_fract_z
 _atom_site_occupancy
  Mg  Mg0  1  0.34024000  0.42369000  0.79071000  1.0
  Mg  Mg1  1  0.67416000  0.39377000  0.72617000  1.0
  Mg  Mg2  1  0.00779000  0.44981000  0.86135000  1.0
  H  H3  1  0.49661000  0.35290000  0.62250000  1.0
  H  H4  1  0.08839000  0.72805000  0.65020000  1.0
  H  H5  1  0.05244000  0.97002000  0.44211000  1.0
  H  H6  1  0.47651000  0.62300000  0.23113000  1.0
  H  H7  1  0.80209000  0.12559000  0.23659000  1.0
  H  H8  1  0.58591000  0.69043000  0.34406000  1.0
  H  H9  1  0.10743000  0.96429000  0.01502000  1.0
  H  H10  1  0.23507000  0.83855000  0.43937000  1.0
  H  H11  1  0.05940000  0.14277000  0.00244000  1.0
  H  H12  1  0.62307000  0.10666000  0.01888000  1.0
  H  H13  1  0.72670000  0.03010000  0.13897000  1.0
  H  H14  1  0.28550000  0.82780000  0.01460000  1.0
  H  H15  1  0.95596000  0.21827000  0.88395000  1.0
  H  H16  1  0.60286000  0.70831000  0.04137000  1.0
  H  H17  1  0.20458000  0.65339000  0.44674000  1.0
  H  H18  1  0.23754000  0.63157000  0.09327000  1.0
  H  H19  1  0.92185000  0.38698000  0.70700000  1.0
  H  H20  1  0.85410000  0.49348000  0.69976000  1.0
  H  H21  1  0.54473000  0.26774000  0.82975000  1.0
  H  H22  1  0.49917000  0.27603000  0.74070000  1.0
  H  H23  1  0.64506000  0.59719000  0.47643000  1.0
  H  H24  1  0.66898000  0.61880000  0.91360000  1.0
  H  H25  1  0.26502000  0.55897000  0.57896000  1.0
  H  H26  1  0.30097000  0.54718000  0.96237000  1.0
  H  H27  1  0.60112000  0.87266000  0.13619000  1.0
  H  H28  1  0.18130000  0.21949000  0.35106000  1.0
  H  H29  1  0.87090000  0.73050000  0.32999000  1.0
  H  H30  1  0.07281000  0.17821000  0.23883000  1.0
  H  H31  1  0.57970000  0.89748000  0.55595000  1.0
  H  H32  1  0.41611000  0.00385000  0.14188000  1.0
  H  H33  1  0.61579000  0.72374000  0.57213000  1.0
  H  H34  1  0.06300000  0.74493000  0.53589000  1.0
  H  H35  1  0.95544000  0.81456000  0.42008000  1.0
  H  H36  1  0.39177000  0.02456000  0.56201000  1.0
  H  H37  1  0.72378000  0.65009000  0.68930000  1.0
  H  H38  1  0.09595000  0.08720000  0.57448000  1.0
  H  H39  1  0.46667000  0.17156000  0.13498000  1.0
  H  H40  1  0.37382000  0.26453000  0.44924000  1.0
  H  H41  1  0.75934000  0.46377000  0.87333000  1.0
  H  H42  1  0.82486000  0.35786000  0.86344000  1.0
  H  H43  1  0.15523000  0.57119000  0.75841000  1.0
  H  H44  1  0.14967000  0.56878000  0.85998000  1.0
  H  H45  1  0.02629000  0.27697000  0.10369000  1.0
  H  H46  1  0.03671000  0.18331000  0.69922000  1.0
  H  H47  1  0.41900000  0.27015000  0.00088000  1.0
  H  H48  1  0.95285000  0.83747000  0.15571000  1.0
  H  H49  1  0.06683000  0.75297000  0.02747000  1.0
  H  H50  1  0.32111000  0.35490000  0.57684000  1.0
  H  H51  1  0.68415000  0.06848000  0.37937000  1.0
  H  H52  1  0.56602000  0.16946000  0.49533000  1.0
  H  H53  1  0.91068000  0.23064000  0.52760000  1.0
  H  H54  1  0.02894000  0.13223000  0.40951000  1.0
  H  H55  1  0.77678000  0.58391000  0.06837000  1.0
  H  H56  1  0.65944000  0.67073000  0.19504000  1.0
  C  C57  1  0.11159000  0.93580000  0.22949000  1.0
  C  C58  1  0.35376000  0.73236000  0.30635000  1.0
  C  C59  1  0.25732000  0.81644000  0.30653000  1.0
  C  C60  1  0.21611000  0.85649000  0.22901000  1.0
  C  C61  1  0.27589000  0.81424000  0.15145000  1.0
  C  C62  1  0.04723000  0.97467000  0.30818000  1.0
  C  C63  1  0.95502000  0.04167000  0.15553000  1.0
  C  C64  1  0.09761000  0.93843000  0.38270000  1.0
  C  C65  1  0.39022000  0.68125000  0.38670000  1.0
  C  C66  1  0.90036000  0.08125000  0.07964000  1.0
  C  C67  1  0.37049000  0.72933000  0.15311000  1.0
  C  C68  1  0.93438000  0.04422000  0.30969000  1.0
  C  C69  1  0.40820000  0.69115000  0.22967000  1.0
  C  C70  1  0.06880000  0.97312000  0.15197000  1.0
  C  C71  1  0.88888000  0.07224000  0.23459000  1.0
  C  C72  1  0.71044000  0.22145000  0.87797000  1.0
  C  C73  1  0.78133000  0.16865000  0.94421000  1.0
  C  C74  1  0.51457000  0.66303000  0.39583000  1.0
  C  C75  1  0.41615000  0.67558000  0.07644000  1.0
  C  C76  1  0.86518000  0.09373000  0.38568000  1.0
  C  C77  1  0.13789000  0.93435000  0.07431000  1.0
  C  C78  1  0.19836000  0.86366000  0.38172000  1.0
  C  C79  1  0.96451000  0.13280000  0.00601000  1.0
  C  C80  1  0.71869000  0.11400000  0.01620000  1.0
  C  C81  1  0.77690000  0.07166000  0.08313000  1.0
  C  C82  1  0.23651000  0.85799000  0.07416000  1.0
  C  C83  1  0.90550000  0.17638000  0.93934000  1.0
  C  C84  1  0.53739000  0.67118000  0.02519000  1.0
  C  C85  1  0.30037000  0.64406000  0.45449000  1.0
  C  C86  1  0.33203000  0.62889000  0.05374000  1.0
  C  C87  1  0.45806000  0.57492000  0.53776000  1.0
  C  C88  1  0.48827000  0.57767000  0.92908000  1.0
  C  C89  1  0.49257000  0.51106000  0.61538000  1.0
  C  C90  1  0.66414000  0.27267000  0.58356000  1.0
  C  C91  1  0.54801000  0.61136000  0.47042000  1.0
  C  C92  1  0.51793000  0.52743000  0.85006000  1.0
  C  C93  1  0.57409000  0.62149000  0.95257000  1.0
  C  C94  1  0.33380000  0.59123000  0.52833000  1.0
  C  C95  1  0.73118000  0.20683000  0.51826000  1.0
  C  C96  1  0.36730000  0.58123000  0.98070000  1.0
  C  C97  1  0.55423000  0.91343000  0.34644000  1.0
  C  C98  1  0.30490000  0.11180000  0.27493000  1.0
  C  C99  1  0.40072000  0.02735000  0.27362000  1.0
  C  C100  1  0.44533000  0.98886000  0.34993000  1.0
  C  C101  1  0.38650000  0.03038000  0.42820000  1.0
  C  C102  1  0.61555000  0.87450000  0.26713000  1.0
  C  C103  1  0.71967000  0.81340000  0.41418000  1.0
  C  C104  1  0.55913000  0.90654000  0.19492000  1.0
  C  C105  1  0.27301000  0.16643000  0.19519000  1.0
  C  C106  1  0.77791000  0.77498000  0.48787000  1.0
  C  C107  1  0.28733000  0.11222000  0.42842000  1.0
  C  C108  1  0.73092000  0.80776000  0.26214000  1.0
  C  C109  1  0.24993000  0.15148000  0.35215000  1.0
  C  C110  1  0.60431000  0.88020000  0.42138000  1.0
  C  C111  1  0.78221000  0.78193000  0.33457000  1.0
  C  C112  1  0.96269000  0.64469000  0.69108000  1.0
  C  C113  1  0.89977000  0.69355000  0.62200000  1.0
  C  C114  1  0.14876000  0.19835000  0.18669000  1.0
  C  C115  1  0.24088000  0.16803000  0.50410000  1.0
  C  C116  1  0.79765000  0.76066000  0.18365000  1.0
  C  C117  1  0.54084000  0.92124000  0.49915000  1.0
  C  C118  1  0.45662000  0.97990000  0.19799000  1.0
  C  C119  1  0.71310000  0.72963000  0.56507000  1.0
  C  C120  1  0.96413000  0.74084000  0.54595000  1.0
  C  C121  1  0.90440000  0.77940000  0.47933000  1.0
  C  C122  1  0.43637000  0.99271000  0.50252000  1.0
  C  C123  1  0.77360000  0.68783000  0.63084000  1.0
  C  C124  1  0.14493000  0.14651000  0.57443000  1.0
  C  C125  1  0.37022000  0.19308000  0.12754000  1.0
  C  C126  1  0.30084000  0.24605000  0.50449000  1.0
  C  C127  1  0.21993000  0.27880000  0.04422000  1.0
  C  C128  1  0.17876000  0.27281000  0.64689000  1.0
  C  C129  1  0.19628000  0.33918000  0.96272000  1.0
  C  C130  1  0.99437000  0.61241000  0.96267000  1.0
  C  C131  1  0.12239000  0.25323000  0.11142000  1.0
  C  C132  1  0.16171000  0.32438000  0.72406000  1.0
  C  C133  1  0.11200000  0.19995000  0.64487000  1.0
  C  C134  1  0.34406000  0.24897000  0.05317000  1.0
  C  C135  1  0.92777000  0.66413000  0.03958000  1.0
  C  C136  1  0.91359000  0.78235000  0.13647000  1.0
  C  C137  1  0.97763000  0.73513000  0.06479000  1.0
  C  C138  1  0.27151000  0.29676000  0.57548000  1.0
  C  C139  1  0.73404000  0.10462000  0.41116000  1.0
  C  C140  1  0.66754000  0.16087000  0.47638000  1.0
  C  C141  1  0.86212000  0.19407000  0.49523000  1.0
  C  C142  1  0.92781000  0.13844000  0.42964000  1.0
  C  C143  1  0.81347000  0.64059000  0.08762000  1.0
  C  C144  1  0.74869000  0.68896000  0.15831000  1.0
  O  O145  1  0.75957000  0.28282000  0.81802000  1.0
  O  O146  1  0.60030000  0.20450000  0.88683000  1.0
  O  O147  1  0.85128000  0.42944000  0.68412000  1.0
  O  O148  1  0.51225000  0.31961000  0.77728000  1.0
  O  O149  1  0.54158000  0.29789000  0.58657000  1.0
  O  O150  1  0.92664000  0.57824000  0.74508000  1.0
  O  O151  1  0.07007000  0.67340000  0.69430000  1.0
  O  O152  1  0.83361000  0.41677000  0.88643000  1.0
  O  O153  1  0.16866000  0.52270000  0.80747000  1.0
  O  O154  1  0.08631000  0.35531000  0.94876000  1.0
  O  O155  1  0.05062000  0.36191000  0.76154000  1.0
  O  O156  1  0.93575000  0.55885000  0.93719000  1.0
  O  O157  1  0.26049000  0.32879000  0.74600000  1.0
  O  O158  1  0.29007000  0.37043000  0.91304000  1.0
  O  O159  1  0.10640000  0.62463000  0.92729000  1.0
  O  O160  1  0.59806000  0.50471000  0.63245000  1.0
  O  O161  1  0.63258000  0.49174000  0.81736000  1.0
  O  O162  1  0.71858000  0.30175000  0.62989000  1.0
  O  O163  1  0.42750000  0.52143000  0.81912000  1.0
  O  O164  1  0.41049000  0.45854000  0.65824000  1.0
