# generated using pymatgen
data_Cu2H2C8N12O
_symmetry_space_group_name_H-M   'P 1'
_cell_length_a   6.93669000
_cell_length_b   8.79981000
_cell_length_c   11.36107426
_cell_angle_alpha   99.65077322
_cell_angle_beta   107.67954517
_cell_angle_gamma   90.09660000
_symmetry_Int_Tables_number   1
_chemical_formula_structural   Cu2H2C8N12O
_chemical_formula_sum   'Cu4 H4 C16 N24 O2'
_cell_volume   650.37067545
_cell_formula_units_Z   2
loop_
 _symmetry_equiv_pos_site_id
 _symmetry_equiv_pos_as_xyz
  1  'x, y, z'
loop_
 _atom_site_type_symbol
 _atom_site_label
 _atom_site_symmetry_multiplicity
 _atom_site_fract_x
 _atom_site_fract_y
 _atom_site_fract_z
 _atom_site_occupancy
  Cu  Cu0  1  1.00000000  0.50000000  1.00000000  1.0
  Cu  Cu1  1  0.00001000  0.00000000  1.00000000  1.0
  Cu  Cu2  1  0.50000000  0.00000000  0.50000000  1.0
  Cu  Cu3  1  0.00000000  0.49999000  0.50000000  1.0
  H  H4  1  0.20635000  0.75715000  0.93093000  1.0
  H  H5  1  0.27564000  0.74436000  0.06929000  1.0
  H  H6  1  0.79366000  0.24284000  0.06908000  1.0
  H  H7  1  0.72435000  0.25563000  0.93071000  1.0
  C  C8  1  0.69624000  0.66884000  0.12260000  1.0
  C  C9  1  0.57344000  0.83106000  0.87733000  1.0
  C  C10  1  0.30376000  0.33116000  0.87740000  1.0
  C  C11  1  0.42656000  0.16894000  0.12267000  1.0
  C  C12  1  0.58432000  0.84256000  0.26347000  1.0
  C  C13  1  0.31947000  0.65826000  0.73642000  1.0
  C  C14  1  0.41568000  0.15744000  0.73653000  1.0
  C  C15  1  0.68055000  0.34175000  0.26359000  1.0
  C  C16  1  0.77552000  0.54207000  0.73444000  1.0
  C  C17  1  0.04238000  0.95751000  0.26568000  1.0
  C  C18  1  0.22448000  0.45793000  0.26556000  1.0
  C  C19  1  0.95762000  0.04249000  0.73433000  1.0
  C  C20  1  0.64163000  0.69766000  0.58749000  1.0
  C  C21  1  0.05480000  0.80216000  0.41285000  1.0
  C  C22  1  0.35838000  0.30233000  0.41251000  1.0
  C  C23  1  0.94520000  0.19786000  0.58714000  1.0
  N  N24  1  0.80043000  0.59294000  0.07519000  1.0
  N  N25  1  0.72626000  0.90529000  0.92553000  1.0
  N  N26  1  0.19959000  0.40706000  0.92481000  1.0
  N  N27  1  0.27373000  0.09471000  0.07447000  1.0
  N  N28  1  0.56264000  0.74631000  0.16131000  1.0
  N  N29  1  0.39965000  0.75549000  0.83792000  1.0
  N  N30  1  0.43736000  0.25369000  0.83869000  1.0
  N  N31  1  0.60037000  0.24451000  0.16209000  1.0
  N  N32  1  0.58156000  0.93876000  0.34866000  1.0
  N  N33  1  0.23120000  0.56152000  0.65183000  1.0
  N  N34  1  0.41845000  0.06125000  0.65134000  1.0
  N  N35  1  0.76882000  0.43848000  0.34819000  1.0
  N  N36  1  0.80693000  0.48714000  0.82599000  1.0
  N  N37  1  0.98192000  0.01298000  0.17448000  1.0
  N  N38  1  0.19307000  0.51286000  0.17401000  1.0
  N  N39  1  0.01808000  0.98702000  0.82554000  1.0
  N  N40  1  0.74900000  0.58698000  0.62856000  1.0
  N  N41  1  0.12241000  0.91193000  0.37114000  1.0
  N  N42  1  0.25099000  0.41303000  0.37145000  1.0
  N  N43  1  0.87755000  0.08805000  0.62884000  1.0
  N  N44  1  0.54390000  0.79139000  0.53775000  1.0
  N  N45  1  0.00596000  0.70926000  0.46328000  1.0
  N  N46  1  0.45610000  0.20860000  0.46224000  1.0
  N  N47  1  0.99407000  0.29076000  0.53672000  1.0
  O  O48  1  0.15097000  0.75065000  0.00022000  1.0
  O  O49  1  0.84903000  0.24935000  0.99978000  1.0
