# generated using pymatgen
data_CuH9C5SN3O7
_symmetry_space_group_name_H-M   'P 1'
_cell_length_a   7.30846000
_cell_length_b   11.26500000
_cell_length_c   11.80550000
_cell_angle_alpha   94.25940000
_cell_angle_beta   89.99410000
_cell_angle_gamma   89.99540000
_symmetry_Int_Tables_number   1
_chemical_formula_structural   CuH9C5SN3O7
_chemical_formula_sum   'Cu4 H36 C20 S4 N12 O28'
_cell_volume   969.25996977
_cell_formula_units_Z   4
loop_
 _symmetry_equiv_pos_site_id
 _symmetry_equiv_pos_as_xyz
  1  'x, y, z'
loop_
 _atom_site_type_symbol
 _atom_site_label
 _atom_site_symmetry_multiplicity
 _atom_site_fract_x
 _atom_site_fract_y
 _atom_site_fract_z
 _atom_site_occupancy
  Cu  Cu0  1  0.50001000  0.00000000  0.50000000  1.0
  Cu  Cu1  1  0.00000000  0.00000000  0.00000000  1.0
  Cu  Cu2  1  0.00000000  0.50000000  0.50000000  1.0
  Cu  Cu3  1  0.50000000  0.50000000  0.00000000  1.0
  H  H4  1  0.49170000  0.78149000  0.64684000  1.0
  H  H5  1  0.99175000  0.21853000  0.85316000  1.0
  H  H6  1  0.50831000  0.21851000  0.35316000  1.0
  H  H7  1  0.00824000  0.78147000  0.14684000  1.0
  H  H8  1  0.68961000  0.59628000  0.64014000  1.0
  H  H9  1  0.18963000  0.40372000  0.85986000  1.0
  H  H10  1  0.31039000  0.40372000  0.35986000  1.0
  H  H11  1  0.81037000  0.59628000  0.14014000  1.0
  H  H12  1  0.01842000  0.73334000  0.39332000  1.0
  H  H13  1  0.51837000  0.26663000  0.10667000  1.0
  H  H14  1  0.98157000  0.26666000  0.60667000  1.0
  H  H15  1  0.48164000  0.73337000  0.89333000  1.0
  H  H16  1  0.99841000  0.04907000  0.29785000  1.0
  H  H17  1  0.49843000  0.95095000  0.20215000  1.0
  H  H18  1  0.00160000  0.95094000  0.70215000  1.0
  H  H19  1  0.50157000  0.04905000  0.79785000  1.0
  H  H20  1  0.09489000  0.91602000  0.34602000  1.0
  H  H21  1  0.59485000  0.08397000  0.15397000  1.0
  H  H22  1  0.90512000  0.08398000  0.65398000  1.0
  H  H23  1  0.40515000  0.91603000  0.84603000  1.0
  H  H24  1  0.98347000  0.54179000  0.76515000  1.0
  H  H25  1  0.48348000  0.45820000  0.73488000  1.0
  H  H26  1  0.01653000  0.45821000  0.23485000  1.0
  H  H27  1  0.51652000  0.54180000  0.26512000  1.0
  H  H28  1  0.88233000  0.41922000  0.73326000  1.0
  H  H29  1  0.38235000  0.58080000  0.76677000  1.0
  H  H30  1  0.11767000  0.58078000  0.26674000  1.0
  H  H31  1  0.61765000  0.41920000  0.23323000  1.0
  H  H32  1  0.76140000  0.36129000  0.40104000  1.0
  H  H33  1  0.26140000  0.63875000  0.09897000  1.0
  H  H34  1  0.23860000  0.63871000  0.59896000  1.0
  H  H35  1  0.73859000  0.36125000  0.90103000  1.0
  H  H36  1  0.68898000  0.38373000  0.53327000  1.0
  H  H37  1  0.18899000  0.61630000  0.96672000  1.0
  H  H38  1  0.31102000  0.61626000  0.46674000  1.0
  H  H39  1  0.81100000  0.38370000  0.03328000  1.0
  C  C40  1  0.61169000  0.77168000  0.59196000  1.0
  C  C41  1  0.11172000  0.22834000  0.90805000  1.0
  C  C42  1  0.38832000  0.22833000  0.40804000  1.0
  C  C43  1  0.88828000  0.77166000  0.09196000  1.0
  C  C44  1  0.71889000  0.66855000  0.58647000  1.0
  C  C45  1  0.21891000  0.33146000  0.91353000  1.0
  C  C46  1  0.28111000  0.33145000  0.41352000  1.0
  C  C47  1  0.78109000  0.66854000  0.08647000  1.0
  C  C48  1  0.90258000  0.74518000  0.45080000  1.0
  C  C49  1  0.40256000  0.25482000  0.04920000  1.0
  C  C50  1  0.09742000  0.25482000  0.54919000  1.0
  C  C51  1  0.59744000  0.74518000  0.95080000  1.0
  C  C52  1  0.79859000  0.84883000  0.45752000  1.0
  C  C53  1  0.29858000  0.15118000  0.04248000  1.0
  C  C54  1  0.20141000  0.15117000  0.54247000  1.0
  C  C55  1  0.70142000  0.84881000  0.95753000  1.0
  C  C56  1  0.82578000  0.95399000  0.38985000  1.0
  C  C57  1  0.32577000  0.04601000  0.11017000  1.0
  C  C58  1  0.17423000  0.04601000  0.61015000  1.0
  C  C59  1  0.67423000  0.95399000  0.88983000  1.0
  S  S60  1  0.38211000  0.75811000  0.30203000  1.0
  S  S61  1  0.88207000  0.24189000  0.19796000  1.0
  S  S62  1  0.61789000  0.24189000  0.69797000  1.0
  S  S63  1  0.11792000  0.75811000  0.80204000  1.0
  N  N64  1  0.65202000  0.85984000  0.52713000  1.0
  N  N65  1  0.15201000  0.14016000  0.97288000  1.0
  N  N66  1  0.34799000  0.14016000  0.47287000  1.0
  N  N67  1  0.84799000  0.85984000  0.02713000  1.0
  N  N68  1  0.86042000  0.65551000  0.51489000  1.0
  N  N69  1  0.36040000  0.34447000  0.98511000  1.0
  N  N70  1  0.13958000  0.34449000  0.48510000  1.0
  N  N71  1  0.63961000  0.65553000  0.01489000  1.0
  N  N72  1  0.98083000  0.96956000  0.33636000  1.0
  N  N73  1  0.48082000  0.03044000  0.16365000  1.0
  N  N74  1  0.01918000  0.03044000  0.66364000  1.0
  N  N75  1  0.51918000  0.96956000  0.83635000  1.0
  O  O76  1  0.69326000  0.02757000  0.38806000  1.0
  O  O77  1  0.19325000  0.97243000  0.11196000  1.0
  O  O78  1  0.30675000  0.97243000  0.61194000  1.0
  O  O79  1  0.80675000  0.02757000  0.88805000  1.0
  O  O80  1  0.96600000  0.47833000  0.70340000  1.0
  O  O81  1  0.46598000  0.52166000  0.79664000  1.0
  O  O82  1  0.03401000  0.52167000  0.29660000  1.0
  O  O83  1  0.53402000  0.47834000  0.20336000  1.0
  O  O84  1  0.76138000  0.41797000  0.47068000  1.0
  O  O85  1  0.26141000  0.58205000  0.02932000  1.0
  O  O86  1  0.23863000  0.58203000  0.52932000  1.0
  O  O87  1  0.73858000  0.41795000  0.97068000  1.0
  O  O88  1  0.44996000  0.65845000  0.36860000  1.0
  O  O89  1  0.94991000  0.34155000  0.13138000  1.0
  O  O90  1  0.55004000  0.34155000  0.63140000  1.0
  O  O91  1  0.05008000  0.65845000  0.86861000  1.0
  O  O92  1  0.53469000  0.80517000  0.23690000  1.0
  O  O93  1  0.03465000  0.19484000  0.26308000  1.0
  O  O94  1  0.46530000  0.19484000  0.76309000  1.0
  O  O95  1  0.96534000  0.80516000  0.73691000  1.0
  O  O96  1  0.30130000  0.85348000  0.38128000  1.0
  O  O97  1  0.80129000  0.14654000  0.11873000  1.0
  O  O98  1  0.69870000  0.14653000  0.61872000  1.0
  O  O99  1  0.19869000  0.85346000  0.88128000  1.0
  O  O100  1  0.23238000  0.70968000  0.22406000  1.0
  O  O101  1  0.73233000  0.29034000  0.27594000  1.0
  O  O102  1  0.76762000  0.29031000  0.77594000  1.0
  O  O103  1  0.26767000  0.70967000  0.72406000  1.0
