# generated using pymatgen
data_CuH12C10S(NO3)2
_symmetry_space_group_name_H-M   'P 1'
_cell_length_a   7.10385000
_cell_length_b   9.70972000
_cell_length_c   9.72119000
_cell_angle_alpha   79.12310000
_cell_angle_beta   75.94590000
_cell_angle_gamma   76.06720000
_symmetry_Int_Tables_number   1
_chemical_formula_structural   CuH12C10S(NO3)2
_chemical_formula_sum   'Cu2 H24 C20 S2 N4 O12'
_cell_volume   625.25594505
_cell_formula_units_Z   2
loop_
 _symmetry_equiv_pos_site_id
 _symmetry_equiv_pos_as_xyz
  1  'x, y, z'
loop_
 _atom_site_type_symbol
 _atom_site_label
 _atom_site_symmetry_multiplicity
 _atom_site_fract_x
 _atom_site_fract_y
 _atom_site_fract_z
 _atom_site_occupancy
  Cu  Cu0  1  0.24970000  0.27548000  0.22377000  1.0
  Cu  Cu1  1  0.75030000  0.72452000  0.77623000  1.0
  H  H2  1  0.30431000  0.03938000  0.04543000  1.0
  H  H3  1  0.69569000  0.96062000  0.95457000  1.0
  H  H4  1  0.32977000  0.77361000  0.09783000  1.0
  H  H5  1  0.67023000  0.22638000  0.90218000  1.0
  H  H6  1  0.31299000  0.65608000  0.35414000  1.0
  H  H7  1  0.68701000  0.34392000  0.64586000  1.0
  H  H8  1  0.26178000  0.80746000  0.54532000  1.0
  H  H9  1  0.73822000  0.19254000  0.45468000  1.0
  H  H10  1  0.23898000  0.95430000  0.69160000  1.0
  H  H11  1  0.76101000  0.04570000  0.30840000  1.0
  H  H12  1  0.18750000  0.14602000  0.84247000  1.0
  H  H13  1  0.81251000  0.85398000  0.15753000  1.0
  H  H14  1  0.16910000  0.40262000  0.72474000  1.0
  H  H15  1  0.83091000  0.59738000  0.27526000  1.0
  H  H16  1  0.19422000  0.45453000  0.45921000  1.0
  H  H17  1  0.80579000  0.54547000  0.54079000  1.0
  H  H18  1  0.10524000  0.31175000  0.01102000  1.0
  H  H19  1  0.89477000  0.68825000  0.98898000  1.0
  H  H20  1  0.30579000  0.37234000  0.95423000  1.0
  H  H21  1  0.69421000  0.62766000  0.04576000  1.0
  H  H22  1  0.39447000  0.48880000  0.18744000  1.0
  H  H23  1  0.60552000  0.51120000  0.81256000  1.0
  H  H24  1  0.19435000  0.54514000  0.12651000  1.0
  H  H25  1  0.80564000  0.45486000  0.87349000  1.0
  C  C26  1  0.29669000  0.98266000  0.15388000  1.0
  C  C27  1  0.70331000  0.01734000  0.84612000  1.0
  C  C28  1  0.31215000  0.83490000  0.18465000  1.0
  C  C29  1  0.68785000  0.16510000  0.81535000  1.0
  C  C30  1  0.30146000  0.77137000  0.32678000  1.0
  C  C31  1  0.69854000  0.22863000  0.67322000  1.0
  C  C32  1  0.27529000  0.85596000  0.43353000  1.0
  C  C33  1  0.72471000  0.14404000  0.56647000  1.0
  C  C34  1  0.26243000  0.00350000  0.39460000  1.0
  C  C35  1  0.73757000  0.99650000  0.60540000  1.0
  C  C36  1  0.23744000  0.10487000  0.49562000  1.0
  C  C37  1  0.76255000  0.89513000  0.50438000  1.0
  C  C38  1  0.22502000  0.06617000  0.64299000  1.0
  C  C39  1  0.77497000  0.93384000  0.35701000  1.0
  C  C40  1  0.19864000  0.17322000  0.72730000  1.0
  C  C41  1  0.80137000  0.82677000  0.27269000  1.0
  C  C42  1  0.18716000  0.31550000  0.66368000  1.0
  C  C43  1  0.81285000  0.68450000  0.33631000  1.0
  C  C44  1  0.20232000  0.34603000  0.51607000  1.0
  C  C45  1  0.79769000  0.65397000  0.48393000  1.0
  S  S46  1  0.74975000  0.34613000  0.15450000  1.0
  S  S47  1  0.25025000  0.65387000  0.84550000  1.0
  N  N48  1  0.27260000  0.06425000  0.25614000  1.0
  N  N49  1  0.72740000  0.93575000  0.74386000  1.0
  N  N50  1  0.22672000  0.24345000  0.43478000  1.0
  N  N51  1  0.77328000  0.75655000  0.56522000  1.0
  O  O52  1  0.87561000  0.32063000  0.26085000  1.0
  O  O53  1  0.12439000  0.67937000  0.73915000  1.0
  O  O54  1  0.61845000  0.49464000  0.15682000  1.0
  O  O55  1  0.38155000  0.50536000  0.84318000  1.0
  O  O56  1  0.88112000  0.34366000  0.00595000  1.0
  O  O57  1  0.11888000  0.65634000  0.99405000  1.0
  O  O58  1  0.62390000  0.23937000  0.18048000  1.0
  O  O59  1  0.37610000  0.76063000  0.81952000  1.0
  O  O60  1  0.25110000  0.28957000  0.01657000  1.0
  O  O61  1  0.74890000  0.71042000  0.98343000  1.0
  O  O62  1  0.24874000  0.48284000  0.20922000  1.0
  O  O63  1  0.75126000  0.51716000  0.79078000  1.0
