# generated using pymatgen
data_ZnSiH20C24N4(O2F3)2
_symmetry_space_group_name_H-M   'P 1'
_cell_length_a   7.74480000
_cell_length_b   13.85690000
_cell_length_c   13.85690000
_cell_angle_alpha   89.77320000
_cell_angle_beta   86.24400000
_cell_angle_gamma   86.24460000
_symmetry_Int_Tables_number   1
_chemical_formula_structural   ZnSiH20C24N4(O2F3)2
_chemical_formula_sum   'Zn1 Si1 H20 C24 N4 O4 F6'
_cell_volume   1480.72691735
_cell_formula_units_Z   1
loop_
 _symmetry_equiv_pos_site_id
 _symmetry_equiv_pos_as_xyz
  1  'x, y, z'
loop_
 _atom_site_type_symbol
 _atom_site_label
 _atom_site_symmetry_multiplicity
 _atom_site_fract_x
 _atom_site_fract_y
 _atom_site_fract_z
 _atom_site_occupancy
  Zn  Zn0  1  0.49998000  0.50000000  0.50000000  1.0
  Si  Si1  1  0.99998000  0.50000000  0.50000000  1.0
  H  H2  1  0.25314000  0.49998000  0.33466000  1.0
  H  H3  1  0.26242000  0.50002000  0.15752000  1.0
  H  H4  1  0.82417000  0.49999000  0.16189000  1.0
  H  H5  1  0.78929000  0.49996000  0.33517000  1.0
  H  H6  1  0.17581000  0.50001000  0.83811000  1.0
  H  H7  1  0.73757000  0.49998000  0.84247000  1.0
  H  H8  1  0.74685000  0.50002000  0.66534000  1.0
  H  H9  1  0.21069000  0.50005000  0.66483000  1.0
  H  H10  1  0.25314000  0.33465000  0.49998000  1.0
  H  H11  1  0.26242000  0.15752000  0.50002000  1.0
  H  H12  1  0.82417000  0.16190000  0.49999000  1.0
  H  H13  1  0.78929000  0.33517000  0.49995000  1.0
  H  H14  1  0.17581000  0.83811000  0.50001000  1.0
  H  H15  1  0.73757000  0.84248000  0.49998000  1.0
  H  H16  1  0.74685000  0.66534000  0.50002000  1.0
  H  H17  1  0.21069000  0.66483000  0.50005000  1.0
  H  H18  1  0.80934000  0.50000000  0.04515000  1.0
  H  H19  1  0.19065000  0.50001000  0.95485000  1.0
  H  H20  1  0.80933000  0.04515000  0.50000000  1.0
  H  H21  1  0.19066000  0.95484000  0.50000000  1.0
  C  C22  1  0.37721000  0.50002000  0.29292000  1.0
  C  C23  1  0.38315000  0.50008000  0.19260000  1.0
  C  C24  1  0.54362000  0.50005000  0.13798000  1.0
  C  C25  1  0.69080000  0.50004000  0.19324000  1.0
  C  C26  1  0.67472000  0.49999000  0.29359000  1.0
  C  C27  1  0.56494000  0.50000000  0.03189000  1.0
  C  C28  1  0.43505000  0.50000000  0.96811000  1.0
  C  C29  1  0.30918000  0.49997000  0.80675000  1.0
  C  C30  1  0.45636000  0.49995000  0.86202000  1.0
  C  C31  1  0.61683000  0.49992000  0.80739000  1.0
  C  C32  1  0.62277000  0.49998000  0.70707000  1.0
  C  C33  1  0.32525000  0.50001000  0.70641000  1.0
  C  C34  1  0.37721000  0.29292000  0.50001000  1.0
  C  C35  1  0.38315000  0.19260000  0.50008000  1.0
  C  C36  1  0.54362000  0.13798000  0.50005000  1.0
  C  C37  1  0.69080000  0.19325000  0.50004000  1.0
  C  C38  1  0.67473000  0.29359000  0.49999000  1.0
  C  C39  1  0.56494000  0.03189000  0.50000000  1.0
  C  C40  1  0.43505000  0.96811000  0.50001000  1.0
  C  C41  1  0.30918000  0.80675000  0.49997000  1.0
  C  C42  1  0.45636000  0.86202000  0.49995000  1.0
  C  C43  1  0.61684000  0.80739000  0.49992000  1.0
  C  C44  1  0.62278000  0.70707000  0.49998000  1.0
  C  C45  1  0.32525000  0.70641000  0.50001000  1.0
  N  N46  1  0.51987000  0.49997000  0.34369000  1.0
  N  N47  1  0.48011000  0.50003000  0.65631000  1.0
  N  N48  1  0.51987000  0.34369000  0.49997000  1.0
  N  N49  1  0.48011000  0.65631000  0.50003000  1.0
  O  O50  1  0.73276000  0.49996000  0.99218000  1.0
  O  O51  1  0.26723000  0.50004000  0.00782000  1.0
  O  O52  1  0.73276000  0.99218000  0.49996000  1.0
  O  O53  1  0.26724000  0.00782000  0.50004000  1.0
  F  F54  1  0.22679000  0.49964000  0.49965000  1.0
  F  F55  1  0.77317000  0.50035000  0.50035000  1.0
  F  F56  1  0.99999000  0.58700000  0.41298000  1.0
  F  F57  1  0.99998000  0.41300000  0.58701000  1.0
  F  F58  1  0.01953000  0.41297000  0.41298000  1.0
  F  F59  1  0.98045000  0.58703000  0.58702000  1.0
