# generated using pymatgen
data_Al2H11C24Cl(O5F)2
_symmetry_space_group_name_H-M   'P 1'
_cell_length_a   6.67739000
_cell_length_b   11.13620000
_cell_length_c   17.77555759
_cell_angle_alpha   88.95373674
_cell_angle_beta   79.34313690
_cell_angle_gamma   72.61000000
_symmetry_Int_Tables_number   1
_chemical_formula_structural   Al2H11C24Cl(O5F)2
_chemical_formula_sum   'Al2 H11 C24 Cl1 O10 F2'
_cell_volume   1238.66578128
_cell_formula_units_Z   1
loop_
 _symmetry_equiv_pos_site_id
 _symmetry_equiv_pos_as_xyz
  1  'x, y, z'
loop_
 _atom_site_type_symbol
 _atom_site_label
 _atom_site_symmetry_multiplicity
 _atom_site_fract_x
 _atom_site_fract_y
 _atom_site_fract_z
 _atom_site_occupancy
  Al  Al0  1  0.99789000  0.50742000  0.49800000  1.0
  Al  Al1  1  0.49625000  0.51177000  0.49729000  1.0
  H  H2  1  0.34787000  0.36037000  0.45585000  1.0
  H  H3  1  0.66208000  0.59482000  0.58614000  1.0
  H  H4  1  0.37502000  0.88965000  0.45589000  1.0
  H  H5  1  0.72925000  0.88877000  0.54067000  1.0
  H  H6  1  0.24882000  0.12578000  0.45902000  1.0
  H  H7  1  0.18903000  0.47987000  0.26931000  1.0
  H  H8  1  0.27324000  0.46550000  0.12554000  1.0
  H  H9  1  0.51934000  0.56183000  0.26474000  1.0
  H  H10  1  0.48404000  0.44350000  0.73015000  1.0
  H  H11  1  0.81507000  0.51061000  0.72974000  1.0
  H  H12  1  0.74191000  0.50494000  0.87284000  1.0
  C  C13  1  0.80392000  0.52095000  0.36057000  1.0
  C  C14  1  0.86120000  0.28091000  0.50036000  1.0
  C  C15  1  0.19067000  0.49440000  0.63672000  1.0
  C  C16  1  0.12890000  0.73537000  0.49534000  1.0
  C  C17  1  0.92147000  0.14051000  0.50294000  1.0
  C  C18  1  0.05825000  0.87586000  0.49670000  1.0
  C  C19  1  0.77529000  0.07247000  0.52759000  1.0
  C  C20  1  0.20699000  0.94173000  0.47472000  1.0
  C  C21  1  0.84284000  0.94116000  0.52269000  1.0
  C  C22  1  0.13696000  0.07241000  0.47697000  1.0
  C  C23  1  0.85090000  0.52052000  0.27530000  1.0
  C  C24  1  0.06275000  0.49477000  0.23602000  1.0
  C  C25  1  0.10935000  0.48622000  0.15657000  1.0
  C  C26  1  0.94464000  0.50376000  0.11387000  1.0
  C  C27  1  0.73328000  0.53303000  0.15528000  1.0
  C  C28  1  0.68389000  0.54110000  0.23438000  1.0
  C  C29  1  0.98905000  0.49128000  0.03324000  1.0
  C  C30  1  0.02982000  0.47942000  0.96348000  1.0
  C  C31  1  0.07033000  0.47346000  0.88273000  1.0
  C  C32  1  0.27850000  0.45324000  0.84006000  1.0
  C  C33  1  0.32164000  0.45742000  0.76112000  1.0
  C  C34  1  0.15178000  0.48066000  0.72135000  1.0
  C  C35  1  0.94397000  0.49502000  0.76181000  1.0
  C  C36  1  0.90320000  0.49205000  0.84109000  1.0
  Cl  Cl37  1  0.51062000  0.14485000  0.56864000  1.0
  O  O38  1  0.96194000  0.50353000  0.39449000  1.0
  O  O39  1  0.67419000  0.33851000  0.48932000  1.0
  O  O40  1  0.37881000  0.49221000  0.60398000  1.0
  O  O41  1  0.99064000  0.68017000  0.48984000  1.0
  O  O42  1  0.03049000  0.51035000  0.60386000  1.0
  O  O43  1  0.32212000  0.68215000  0.50127000  1.0
  O  O44  1  0.61133000  0.53519000  0.39323000  1.0
  O  O45  1  0.00544000  0.33170000  0.50653000  1.0
  O  O46  1  0.29317000  0.45103000  0.46494000  1.0
  O  O47  1  0.70365000  0.56212000  0.53361000  1.0
  F  F48  1  0.57226000  0.55259000  0.11500000  1.0
  F  F49  1  0.44260000  0.43109000  0.87904000  1.0
