# generated using pymatgen
data_AlH9C27(BrO)6
_symmetry_space_group_name_H-M   'P 1'
_cell_length_a   4.06875000
_cell_length_b   27.89350000
_cell_length_c   27.91468119
_cell_angle_alpha   60.03367850
_cell_angle_beta   89.72524555
_cell_angle_gamma   89.46490000
_symmetry_Int_Tables_number   1
_chemical_formula_structural   AlH9C27(BrO)6
_chemical_formula_sum   'Al3 H27 C81 Br18 O18'
_cell_volume   2744.45213968
_cell_formula_units_Z   3
loop_
 _symmetry_equiv_pos_site_id
 _symmetry_equiv_pos_as_xyz
  1  'x, y, z'
loop_
 _atom_site_type_symbol
 _atom_site_label
 _atom_site_symmetry_multiplicity
 _atom_site_fract_x
 _atom_site_fract_y
 _atom_site_fract_z
 _atom_site_occupancy
  Al  Al0  1  0.00041000  0.00002000  0.49998000  1.0
  Al  Al1  1  0.05088000  0.33352000  0.83330000  1.0
  Al  Al2  1  0.93790000  0.66726000  0.16634000  1.0
  H  H3  1  0.48652000  0.00021000  0.92232000  1.0
  H  H4  1  0.50371000  0.91140000  0.83340000  1.0
  H  H5  1  0.47506000  0.08915000  0.74476000  1.0
  H  H6  1  0.28556000  0.07251000  0.91465000  1.0
  H  H7  1  0.74586000  0.14933000  0.75341000  1.0
  H  H8  1  0.69215000  0.92846000  0.98606000  1.0
  H  H9  1  0.23755000  0.85058000  0.90272000  1.0
  H  H10  1  0.24986000  0.92102000  0.76228000  1.0
  H  H11  1  0.73193000  0.07943000  0.68318000  1.0
  H  H12  1  0.48749000  0.42263000  0.07761000  1.0
  H  H13  1  0.47465000  0.24491000  0.16620000  1.0
  H  H14  1  0.50369000  0.33357000  0.25521000  1.0
  H  H15  1  0.70148000  0.48587000  0.08580000  1.0
  H  H16  1  0.23852000  0.40364000  0.24684000  1.0
  H  H17  1  0.27599000  0.41460000  0.01383000  1.0
  H  H18  1  0.74705000  0.25352000  0.09674000  1.0
  H  H19  1  0.73953000  0.18331000  0.23739000  1.0
  H  H20  1  0.24069000  0.26243000  0.31657000  1.0
  H  H21  1  0.51601000  0.57735000  0.49972000  1.0
  H  H22  1  0.53415000  0.75501000  0.41084000  1.0
  H  H23  1  0.50751000  0.66646000  0.58840000  1.0
  H  H24  1  0.30788000  0.51412000  0.57124000  1.0
  H  H25  1  0.76417000  0.59641000  0.65005000  1.0
  H  H26  1  0.71924000  0.58529000  0.42687000  1.0
  H  H27  1  0.25196000  0.74664000  0.35131000  1.0
  H  H28  1  0.27370000  0.81667000  0.42058000  1.0
  H  H29  1  0.76509000  0.73761000  0.57869000  1.0
  C  C30  1  0.50584000  0.92626000  0.49994000  1.0
  C  C31  1  0.49779000  0.00003000  0.57367000  1.0
  C  C32  1  0.49772000  0.07374000  0.42622000  1.0
  C  C33  1  0.55363000  0.25995000  0.83333000  1.0
  C  C34  1  0.54778000  0.33351000  0.90685000  1.0
  C  C35  1  0.54888000  0.40715000  0.75994000  1.0
  C  C36  1  0.43639000  0.74051000  0.09264000  1.0
  C  C37  1  0.44354000  0.59332000  0.16695000  1.0
  C  C38  1  0.43704000  0.66757000  0.23973000  1.0
  C  C39  1  0.48073000  0.94966000  0.88403000  1.0
  C  C40  1  0.48707000  0.00025000  0.88329000  1.0
  C  C41  1  0.49499000  0.05085000  0.83357000  1.0
  C  C42  1  0.48849000  0.05016000  0.78371000  1.0
  C  C43  1  0.48887000  0.00027000  0.78300000  1.0
  C  C44  1  0.48878000  0.95036000  0.83350000  1.0
  C  C45  1  0.42284000  0.15732000  0.87950000  1.0
  C  C46  1  0.39813000  0.10770000  0.87927000  1.0
  C  C47  1  0.51062000  0.10372000  0.83378000  1.0
  C  C48  1  0.64413000  0.15102000  0.78867000  1.0
  C  C49  1  0.65401000  0.20085000  0.78875000  1.0
  C  C50  1  0.54579000  0.20548000  0.83405000  1.0
  C  C51  1  0.58246000  0.89299000  0.98614000  1.0
  C  C52  1  0.56256000  0.84328000  0.03595000  1.0
  C  C53  1  0.44307000  0.79487000  0.03886000  1.0
  C  C54  1  0.33412000  0.79924000  0.98922000  1.0
  C  C55  1  0.33935000  0.84912000  0.93941000  1.0
  C  C56  1  0.46854000  0.89675000  0.93701000  1.0
  C  C57  1  0.36132000  0.95582000  0.72641000  1.0
  C  C58  1  0.36525000  0.95569000  0.67661000  1.0
  C  C59  1  0.49503000  0.00009000  0.62739000  1.0
  C  C60  1  0.62215000  0.04458000  0.63222000  1.0
  C  C61  1  0.62199000  0.04459000  0.68207000  1.0
  C  C62  1  0.49049000  0.00024000  0.73008000  1.0
  C  C63  1  0.49450000  0.33378000  0.11571000  1.0
  C  C64  1  0.48789000  0.38358000  0.11658000  1.0
  C  C65  1  0.48269000  0.38433000  0.16640000  1.0
  C  C66  1  0.48887000  0.33372000  0.21618000  1.0
  C  C67  1  0.48825000  0.28319000  0.21675000  1.0
  C  C68  1  0.48808000  0.28389000  0.16620000  1.0
  C  C69  1  0.57253000  0.53609000  0.12116000  1.0
  C  C70  1  0.59070000  0.48623000  0.12118000  1.0
  C  C71  1  0.47328000  0.43735000  0.16645000  1.0
  C  C72  1  0.34321000  0.44007000  0.21169000  1.0
  C  C73  1  0.34019000  0.48989000  0.21185000  1.0
  C  C74  1  0.45162000  0.53932000  0.16663000  1.0
  C  C75  1  0.39061000  0.37929000  0.01362000  1.0
  C  C76  1  0.41305000  0.37943000  0.96378000  1.0
  C  C77  1  0.53875000  0.33404000  0.96069000  1.0
  C  C78  1  0.65050000  0.28874000  0.01027000  1.0
  C  C79  1  0.64240000  0.28873000  0.06012000  1.0
  C  C80  1  0.50778000  0.33391000  0.06267000  1.0
  C  C81  1  0.62588000  0.18217000  0.27331000  1.0
  C  C82  1  0.62649000  0.13230000  0.32316000  1.0
  C  C83  1  0.49446000  0.12745000  0.37241000  1.0
  C  C84  1  0.35965000  0.17669000  0.36755000  1.0
  C  C85  1  0.35555000  0.22652000  0.31766000  1.0
  C  C86  1  0.48952000  0.23020000  0.26963000  1.0
  C  C87  1  0.51101000  0.66618000  0.44917000  1.0
  C  C88  1  0.51833000  0.61638000  0.49974000  1.0
  C  C89  1  0.52630000  0.61567000  0.55028000  1.0
  C  C90  1  0.52148000  0.66630000  0.54951000  1.0
  C  C91  1  0.52196000  0.71681000  0.49965000  1.0
  C  C92  1  0.52062000  0.71607000  0.44982000  1.0
  C  C93  1  0.42891000  0.46414000  0.65690000  1.0
  C  C94  1  0.41580000  0.51385000  0.60697000  1.0
  C  C95  1  0.53339000  0.56269000  0.60333000  1.0
  C  C96  1  0.65937000  0.56003000  0.65133000  1.0
  C  C97  1  0.65748000  0.51038000  0.70140000  1.0
  C  C98  1  0.54523000  0.46102000  0.70562000  1.0
  C  C99  1  0.60376000  0.62081000  0.39190000  1.0
  C  C100  1  0.57535000  0.62091000  0.34218000  1.0
  C  C101  1  0.44841000  0.66657000  0.29430000  1.0
  C  C102  1  0.33978000  0.71172000  0.29934000  1.0
  C  C103  1  0.35384000  0.71150000  0.34925000  1.0
  C  C104  1  0.49148000  0.66618000  0.39626000  1.0
  C  C105  1  0.38498000  0.81780000  0.45536000  1.0
  C  C106  1  0.38236000  0.86770000  0.45539000  1.0
  C  C107  1  0.51090000  0.87253000  0.49983000  1.0
  C  C108  1  0.64469000  0.82332000  0.54413000  1.0
  C  C109  1  0.65092000  0.77351000  0.54396000  1.0
  C  C110  1  0.51994000  0.76980000  0.49963000  1.0
  Br  Br111  1  0.82153000  0.26389000  0.72498000  1.0
  Br  Br112  1  0.28347000  0.15863000  0.94383000  1.0
  Br  Br113  1  0.70405000  0.84225000  0.10118000  1.0
  Br  Br114  1  0.17242000  0.73579000  0.98881000  1.0
  Br  Br115  1  0.19666000  0.89009000  0.68114000  1.0
  Br  Br116  1  0.79245000  0.11016000  0.57124000  1.0
  Br  Br117  1  0.17817000  0.48979000  0.27580000  1.0
  Br  Br118  1  0.71802000  0.60100000  0.05708000  1.0
  Br  Br119  1  0.26577000  0.44359000  0.89870000  1.0
  Br  Br120  1  0.81914000  0.22487000  0.01056000  1.0
  Br  Br121  1  0.80513000  0.07131000  0.31868000  1.0
  Br  Br122  1  0.18518000  0.18128000  0.42855000  1.0
  Br  Br123  1  0.81298000  0.51071000  0.76527000  1.0
  Br  Br124  1  0.28174000  0.39924000  0.65790000  1.0
  Br  Br125  1  0.71488000  0.55672000  0.34037000  1.0
  Br  Br126  1  0.16607000  0.77567000  0.23676000  1.0
  Br  Br127  1  0.20671000  0.92866000  0.38996000  1.0
  Br  Br128  1  0.81478000  0.81878000  0.60971000  1.0
  O  O129  1  0.26080000  0.06466000  0.45944000  1.0
  O  O130  1  0.26721000  0.95930000  0.47592000  1.0
  O  O131  1  0.26306000  0.97591000  0.56458000  1.0
  O  O132  1  0.73687000  0.04068000  0.43526000  1.0
  O  O133  1  0.73442000  0.02411000  0.54061000  1.0
  O  O134  1  0.74087000  0.93540000  0.52405000  1.0
  O  O135  1  0.31205000  0.39872000  0.79288000  1.0
  O  O136  1  0.31824000  0.29342000  0.80856000  1.0
  O  O137  1  0.31456000  0.30890000  0.89819000  1.0
  O  O138  1  0.78833000  0.37440000  0.76843000  1.0
  O  O139  1  0.78625000  0.35758000  0.87444000  1.0
  O  O140  1  0.79218000  0.26818000  0.85732000  1.0
  O  O141  1  0.19830000  0.64364000  0.23157000  1.0
  O  O142  1  0.19635000  0.73236000  0.12491000  1.0
  O  O143  1  0.20349000  0.62579000  0.14278000  1.0
  O  O144  1  0.67011000  0.69234000  0.20617000  1.0
  O  O145  1  0.67770000  0.60208000  0.19138000  1.0
  O  O146  1  0.67276000  0.70712000  0.10139000  1.0
