# generated using pymatgen
data_AlH9(C3O)6
_symmetry_space_group_name_H-M   'P 1'
_cell_length_a   3.97487000
_cell_length_b   17.13220000
_cell_length_c   17.13225000
_cell_angle_alpha   119.99971037
_cell_angle_beta   90.00020000
_cell_angle_gamma   90.00010000
_symmetry_Int_Tables_number   1
_chemical_formula_structural   AlH9(C3O)6
_chemical_formula_sum   'Al2 H18 C36 O12'
_cell_volume   1010.37447795
_cell_formula_units_Z   2
loop_
 _symmetry_equiv_pos_site_id
 _symmetry_equiv_pos_as_xyz
  1  'x, y, z'
loop_
 _atom_site_type_symbol
 _atom_site_label
 _atom_site_symmetry_multiplicity
 _atom_site_fract_x
 _atom_site_fract_y
 _atom_site_fract_z
 _atom_site_occupancy
  Al  Al0  1  0.98314000  0.00000000  0.50000000  1.0
  Al  Al1  1  0.01686000  0.33334000  0.16667000  1.0
  H  H2  1  0.49685000  0.49881000  0.39670000  1.0
  H  H3  1  0.49410000  0.58258000  0.56283000  1.0
  H  H4  1  0.50329000  0.83473000  0.56468000  1.0
  H  H5  1  0.50522000  0.75093000  0.64702000  1.0
  H  H6  1  0.51413000  0.75095000  0.25190000  1.0
  H  H7  1  0.48551000  0.58251000  0.16769000  1.0
  H  H8  1  0.49685000  0.10330000  0.10211000  1.0
  H  H9  1  0.49410000  0.93717000  0.01975000  1.0
  H  H10  1  0.50329000  0.93532000  0.27005000  1.0
  H  H11  1  0.50522000  0.85299000  0.10392000  1.0
  H  H12  1  0.51413000  0.24810000  0.49905000  1.0
  H  H13  1  0.48551000  0.33231000  0.41482000  1.0
  H  H14  1  0.49685000  0.39789000  0.00119000  1.0
  H  H15  1  0.49409000  0.48024000  0.91741000  1.0
  H  H16  1  0.50328000  0.22995000  0.66527000  1.0
  H  H17  1  0.50521000  0.39609000  0.74907000  1.0
  H  H18  1  0.51413000  0.00094000  0.74905000  1.0
  H  H19  1  0.48550000  0.08518000  0.91749000  1.0
  C  C20  1  0.48819000  0.06719000  0.63847000  1.0
  C  C21  1  0.48819000  0.86154000  0.42872000  1.0
  C  C22  1  0.48819000  0.07129000  0.43282000  1.0
  C  C23  1  0.51188000  0.47190000  0.23393000  1.0
  C  C24  1  0.51188000  0.26607000  0.23797000  1.0
  C  C25  1  0.51187000  0.26203000  0.02810000  1.0
  C  C26  1  0.49817000  0.57218000  0.28724000  1.0
  C  C27  1  0.50263000  0.61836000  0.38349000  1.0
  C  C28  1  0.49326000  0.61937000  0.24118000  1.0
  C  C29  1  0.49879000  0.57216000  0.43303000  1.0
  C  C30  1  0.49767000  0.61916000  0.52587000  1.0
  C  C31  1  0.50210000  0.76127000  0.38177000  1.0
  C  C32  1  0.50673000  0.71408000  0.28853000  1.0
  C  C33  1  0.49790000  0.71513000  0.43187000  1.0
  C  C34  1  0.50147000  0.76135000  0.52763000  1.0
  C  C35  1  0.50215000  0.71436000  0.57347000  1.0
  C  C36  1  0.49818000  0.21276000  0.28494000  1.0
  C  C37  1  0.50262000  0.11652000  0.23487000  1.0
  C  C38  1  0.49326000  0.25883000  0.37819000  1.0
  C  C39  1  0.49879000  0.06696000  0.13913000  1.0
  C  C40  1  0.49766000  0.97413000  0.09329000  1.0
  C  C41  1  0.50210000  0.11823000  0.37950000  1.0
  C  C42  1  0.50673000  0.21148000  0.42555000  1.0
  C  C43  1  0.49789000  0.06813000  0.28326000  1.0
  C  C44  1  0.50146000  0.97238000  0.23373000  1.0
  C  C45  1  0.50215000  0.92653000  0.14089000  1.0
  C  C46  1  0.49817000  0.21506000  0.92782000  1.0
  C  C47  1  0.50262000  0.26513000  0.88165000  1.0
  C  C48  1  0.49326000  0.12181000  0.88063000  1.0
  C  C49  1  0.49878000  0.36087000  0.92783000  1.0
  C  C50  1  0.49766000  0.40671000  0.88084000  1.0
  C  C51  1  0.50210000  0.12049000  0.73872000  1.0
  C  C52  1  0.50672000  0.07446000  0.78593000  1.0
  C  C53  1  0.49789000  0.21674000  0.78487000  1.0
  C  C54  1  0.50146000  0.26628000  0.73865000  1.0
  C  C55  1  0.50214000  0.35911000  0.78564000  1.0
  O  O56  1  0.24550000  0.01654000  0.41621000  1.0
  O  O57  1  0.24550000  0.08379000  0.60033000  1.0
  O  O58  1  0.24550000  0.89967000  0.48346000  1.0
  O  O59  1  0.71546000  0.08940000  0.49226000  1.0
  O  O60  1  0.71546000  0.90286000  0.41060000  1.0
  O  O61  1  0.71546000  0.00774000  0.59714000  1.0
  O  O62  1  0.28450000  0.24395000  0.06943000  1.0
  O  O63  1  0.28450000  0.43058000  0.17452000  1.0
  O  O64  1  0.28450000  0.32549000  0.25606000  1.0
  O  O65  1  0.75447000  0.31680000  0.06630000  1.0
  O  O66  1  0.75447000  0.24950000  0.18320000  1.0
  O  O67  1  0.75447000  0.43370000  0.25050000  1.0
