# generated using pymatgen
data_AlH8C21NO7F
_symmetry_space_group_name_H-M   'P 1'
_cell_length_a   6.80638000
_cell_length_b   10.39230000
_cell_length_c   29.97560000
_cell_angle_alpha   89.99950000
_cell_angle_beta   87.26650000
_cell_angle_gamma   89.99980000
_symmetry_Int_Tables_number   1
_chemical_formula_structural   AlH8C21NO7F
_chemical_formula_sum   'Al4 H32 C84 N4 O28 F4'
_cell_volume   2117.87982821
_cell_formula_units_Z   4
loop_
 _symmetry_equiv_pos_site_id
 _symmetry_equiv_pos_as_xyz
  1  'x, y, z'
loop_
 _atom_site_type_symbol
 _atom_site_label
 _atom_site_symmetry_multiplicity
 _atom_site_fract_x
 _atom_site_fract_y
 _atom_site_fract_z
 _atom_site_occupancy
  Al  Al0  1  0.75687000  0.74608000  0.61976000  1.0
  Al  Al1  1  0.24314000  0.25394000  0.38023000  1.0
  Al  Al2  1  0.74314000  0.24609000  0.38024000  1.0
  Al  Al3  1  0.25687000  0.75394000  0.61976000  1.0
  H  H4  1  0.79259000  0.85007000  0.76275000  1.0
  H  H5  1  0.20735000  0.14991000  0.23724000  1.0
  H  H6  1  0.70734000  0.35009000  0.23724000  1.0
  H  H7  1  0.29259000  0.64993000  0.76276000  1.0
  H  H8  1  0.83325000  0.97716000  0.83152000  1.0
  H  H9  1  0.16660000  0.02279000  0.16848000  1.0
  H  H10  1  0.66660000  0.47720000  0.16848000  1.0
  H  H11  1  0.33326000  0.52282000  0.83151000  1.0
  H  H12  1  0.04516000  0.04937000  0.96634000  1.0
  H  H13  1  0.95449000  0.95053000  0.03369000  1.0
  H  H14  1  0.45448000  0.54946000  0.03369000  1.0
  H  H15  1  0.54519000  0.45062000  0.96633000  1.0
  H  H16  1  0.79673000  0.89759000  0.30768000  1.0
  H  H17  1  0.20327000  0.10243000  0.69234000  1.0
  H  H18  1  0.70327000  0.39758000  0.69234000  1.0
  H  H19  1  0.29672000  0.60244000  0.30768000  1.0
  H  H20  1  0.00342000  0.41662000  0.15760000  1.0
  H  H21  1  0.99659000  0.58332000  0.84244000  1.0
  H  H22  1  0.49655000  0.91667000  0.84243000  1.0
  H  H23  1  0.50337000  0.08338000  0.15760000  1.0
  H  H24  1  0.00945000  0.28001000  0.09026000  1.0
  H  H25  1  0.99047000  0.71990000  0.90979000  1.0
  H  H26  1  0.49042000  0.78009000  0.90978000  1.0
  H  H27  1  0.50940000  0.21998000  0.09025000  1.0
  H  H28  1  0.02268000  0.17702000  0.03597000  1.0
  H  H29  1  0.97692000  0.82286000  0.96407000  1.0
  H  H30  1  0.47689000  0.67713000  0.96406000  1.0
  H  H31  1  0.52271000  0.32297000  0.03596000  1.0
  H  H32  1  0.51921000  0.91065000  0.60138000  1.0
  H  H33  1  0.48080000  0.08935000  0.39860000  1.0
  H  H34  1  0.98080000  0.41067000  0.39861000  1.0
  H  H35  1  0.01922000  0.58936000  0.60139000  1.0
  C  C36  1  0.48672000  0.61022000  0.68124000  1.0
  C  C37  1  0.51329000  0.38981000  0.31876000  1.0
  C  C38  1  0.01329000  0.11022000  0.31876000  1.0
  C  C39  1  0.98671000  0.88981000  0.68124000  1.0
  C  C40  1  0.52091000  0.60376000  0.55789000  1.0
  C  C41  1  0.47908000  0.39624000  0.44212000  1.0
  C  C42  1  0.97910000  0.10377000  0.44211000  1.0
  C  C43  1  0.02092000  0.89624000  0.55788000  1.0
  C  C44  1  0.04520000  0.13061000  0.88271000  1.0
  C  C45  1  0.95457000  0.86931000  0.11732000  1.0
  C  C46  1  0.45458000  0.63069000  0.11731000  1.0
  C  C47  1  0.54522000  0.36937000  0.88271000  1.0
  C  C48  1  0.01094000  0.33025000  0.83730000  1.0
  C  C49  1  0.98893000  0.66969000  0.16274000  1.0
  C  C50  1  0.48894000  0.83030000  0.16273000  1.0
  C  C51  1  0.51095000  0.16974000  0.83729000  1.0
  C  C52  1  0.12704000  0.15063000  0.76021000  1.0
  C  C53  1  0.87289000  0.84935000  0.23982000  1.0
  C  C54  1  0.37290000  0.65066000  0.23981000  1.0
  C  C55  1  0.62705000  0.34936000  0.76020000  1.0
  C  C56  1  0.11752000  0.07476000  0.72240000  1.0
  C  C57  1  0.88245000  0.92524000  0.27762000  1.0
  C  C58  1  0.38245000  0.57478000  0.27761000  1.0
  C  C59  1  0.61753000  0.42524000  0.72240000  1.0
  C  C60  1  0.89034000  0.93308000  0.76234000  1.0
  C  C61  1  0.10959000  0.06690000  0.23767000  1.0
  C  C62  1  0.60959000  0.43311000  0.23766000  1.0
  C  C63  1  0.39035000  0.56691000  0.76233000  1.0
  C  C64  1  0.91156000  0.00547000  0.80075000  1.0
  C  C65  1  0.08833000  0.99449000  0.19925000  1.0
  C  C66  1  0.58834000  0.50551000  0.19925000  1.0
  C  C67  1  0.41156000  0.49451000  0.80075000  1.0
  C  C68  1  0.02808000  0.11685000  0.80077000  1.0
  C  C69  1  0.97181000  0.88311000  0.19925000  1.0
  C  C70  1  0.47182000  0.61689000  0.19924000  1.0
  C  C71  1  0.52809000  0.38314000  0.80077000  1.0
  C  C72  1  0.02650000  0.34795000  0.92069000  1.0
  C  C73  1  0.97321000  0.65196000  0.07935000  1.0
  C  C74  1  0.47321000  0.84804000  0.07934000  1.0
  C  C75  1  0.52649000  0.15204000  0.92069000  1.0
  C  C76  1  0.03614000  0.21232000  0.92322000  1.0
  C  C77  1  0.96354000  0.78759000  0.07681000  1.0
  C  C78  1  0.46354000  0.71241000  0.07680000  1.0
  C  C79  1  0.53616000  0.28767000  0.92322000  1.0
  C  C80  1  0.03588000  0.15380000  0.96494000  1.0
  C  C81  1  0.96376000  0.84609000  0.03510000  1.0
  C  C82  1  0.46375000  0.65390000  0.03509000  1.0
  C  C83  1  0.53590000  0.34618000  0.96493000  1.0
  C  C84  1  0.02028000  0.40704000  0.87849000  1.0
  C  C85  1  0.97954000  0.59288000  0.12156000  1.0
  C  C86  1  0.47953000  0.90711000  0.12155000  1.0
  C  C87  1  0.52027000  0.09294000  0.87848000  1.0
  C  C88  1  0.99639000  0.96675000  0.72292000  1.0
  C  C89  1  0.00358000  0.03325000  0.27709000  1.0
  C  C90  1  0.50358000  0.46677000  0.27709000  1.0
  C  C91  1  0.49639000  0.53325000  0.72292000  1.0
  C  C92  1  0.99774000  0.43891000  0.04351000  1.0
  C  C93  1  0.00197000  0.56099000  0.95654000  1.0
  C  C94  1  0.50196000  0.93900000  0.95653000  1.0
  C  C95  1  0.49773000  0.06108000  0.04350000  1.0
  C  C96  1  0.98660000  0.63840000  0.99719000  1.0
  C  C97  1  0.01305000  0.36149000  0.00285000  1.0
  C  C98  1  0.51305000  0.13850000  0.00285000  1.0
  C  C99  1  0.48659000  0.86159000  0.99718000  1.0
  C  C100  1  0.98427000  0.57567000  0.03963000  1.0
  C  C101  1  0.01540000  0.42423000  0.96041000  1.0
  C  C102  1  0.51539000  0.07576000  0.96040000  1.0
  C  C103  1  0.48427000  0.92432000  0.03962000  1.0
  C  C104  1  0.99915000  0.38391000  0.08624000  1.0
  C  C105  1  0.00069000  0.61600000  0.91381000  1.0
  C  C106  1  0.50066000  0.88399000  0.91380000  1.0
  C  C107  1  0.49912000  0.11608000  0.08623000  1.0
  C  C108  1  0.99302000  0.45968000  0.12465000  1.0
  C  C109  1  0.00688000  0.54025000  0.87539000  1.0
  C  C110  1  0.50685000  0.95974000  0.87539000  1.0
  C  C111  1  0.49299000  0.04032000  0.12464000  1.0
  C  C112  1  0.02420000  0.22698000  0.00399000  1.0
  C  C113  1  0.97541000  0.77291000  0.99604000  1.0
  C  C114  1  0.47540000  0.72708000  0.99604000  1.0
  C  C115  1  0.52421000  0.27301000  0.00399000  1.0
  C  C116  1  0.99051000  0.02982000  0.48282000  1.0
  C  C117  1  0.00952000  0.97019000  0.51717000  1.0
  C  C118  1  0.50950000  0.52981000  0.51718000  1.0
  C  C119  1  0.49049000  0.47018000  0.48283000  1.0
  N  N120  1  0.03535000  0.19373000  0.84080000  1.0
  N  N121  1  0.96449000  0.80620000  0.15923000  1.0
  N  N122  1  0.46450000  0.69379000  0.15923000  1.0
  N  N123  1  0.53536000  0.30625000  0.84079000  1.0
  O  O124  1  0.35727000  0.62153000  0.57955000  1.0
  O  O125  1  0.64272000  0.37849000  0.42045000  1.0
  O  O126  1  0.14273000  0.12153000  0.42044000  1.0
  O  O127  1  0.85727000  0.87847000  0.57954000  1.0
  O  O128  1  0.64628000  0.61702000  0.65718000  1.0
  O  O129  1  0.35373000  0.38301000  0.34283000  1.0
  O  O130  1  0.85373000  0.11703000  0.34282000  1.0
  O  O131  1  0.14628000  0.88300000  0.65718000  1.0
  O  O132  1  0.82336000  0.83891000  0.67224000  1.0
  O  O133  1  0.17664000  0.16113000  0.32775000  1.0
  O  O134  1  0.67664000  0.33892000  0.32775000  1.0
  O  O135  1  0.32337000  0.66112000  0.67225000  1.0
  O  O136  1  0.69027000  0.64310000  0.56784000  1.0
  O  O137  1  0.30973000  0.35690000  0.43216000  1.0
  O  O138  1  0.80974000  0.14312000  0.43216000  1.0
  O  O139  1  0.19028000  0.85691000  0.56784000  1.0
  O  O140  1  0.50940000  0.83036000  0.61787000  1.0
  O  O141  1  0.49060000  0.16966000  0.38212000  1.0
  O  O142  1  0.99060000  0.33037000  0.38212000  1.0
  O  O143  1  0.00940000  0.66966000  0.61787000  1.0
  O  O144  1  0.05931000  0.01258000  0.88559000  1.0
  O  O145  1  0.94046000  0.98734000  0.11443000  1.0
  O  O146  1  0.44049000  0.51265000  0.11443000  1.0
  O  O147  1  0.55934000  0.48740000  0.88559000  1.0
  O  O148  1  0.02043000  0.61814000  0.19839000  1.0
  O  O149  1  0.97950000  0.38182000  0.80165000  1.0
  O  O150  1  0.47953000  0.11816000  0.80164000  1.0
  O  O151  1  0.52045000  0.88186000  0.19838000  1.0
  F  F152  1  0.76523000  0.74116000  0.24444000  1.0
  F  F153  1  0.23470000  0.25883000  0.75560000  1.0
  F  F154  1  0.73471000  0.24117000  0.75558000  1.0
  F  F155  1  0.26525000  0.75886000  0.24443000  1.0
