# generated using pymatgen
data_ZnH2(CO)4
_symmetry_space_group_name_H-M   'P 1'
_cell_length_a   10.88470000
_cell_length_b   10.95270000
_cell_length_c   10.99220000
_cell_angle_alpha   99.85000000
_cell_angle_beta   98.40490000
_cell_angle_gamma   90.97680000
_symmetry_Int_Tables_number   1
_chemical_formula_structural   ZnH2(CO)4
_chemical_formula_sum   'Zn4 H8 C16 O16'
_cell_volume   1276.08166105
_cell_formula_units_Z   4
loop_
 _symmetry_equiv_pos_site_id
 _symmetry_equiv_pos_as_xyz
  1  'x, y, z'
loop_
 _atom_site_type_symbol
 _atom_site_label
 _atom_site_symmetry_multiplicity
 _atom_site_fract_x
 _atom_site_fract_y
 _atom_site_fract_z
 _atom_site_occupancy
  Zn  Zn0  1  0.60369000  0.39171000  0.39787000  1.0
  Zn  Zn1  1  0.37767000  0.57629000  0.39008000  1.0
  Zn  Zn2  1  0.60204000  0.62579000  0.62448000  1.0
  Zn  Zn3  1  0.41435000  0.39153000  0.58874000  1.0
  H  H4  1  0.59512000  0.98402000  0.40239000  1.0
  H  H5  1  0.39586000  0.00921000  0.57836000  1.0
  H  H6  1  0.97611000  0.73876000  0.65340000  1.0
  H  H7  1  0.92405000  0.34375000  0.31118000  1.0
  H  H8  1  0.65592000  0.71038000  0.00809000  1.0
  H  H9  1  0.36659000  0.29371000  0.03221000  1.0
  H  H10  1  0.31625000  0.37342000  0.90573000  1.0
  H  H11  1  0.44777000  0.28366000  0.90040000  1.0
  C  C12  1  0.17117000  0.46637000  0.48464000  1.0
  C  C13  1  0.52955000  0.02712000  0.46100000  1.0
  C  C14  1  0.46130000  0.96209000  0.52161000  1.0
  C  C15  1  0.97018000  0.55124000  0.54114000  1.0
  C  C16  1  0.03650000  0.66607000  0.61452000  1.0
  C  C17  1  0.97153000  0.33916000  0.40689000  1.0
  C  C18  1  0.61118000  0.64552000  0.05718000  1.0
  C  C19  1  0.39782000  0.34515000  0.96431000  1.0
  C  C20  1  0.03270000  0.45953000  0.48128000  1.0
  C  C21  1  0.53764000  0.53968000  0.97562000  1.0
  C  C22  1  0.47794000  0.45665000  0.02876000  1.0
  C  C23  1  0.83268000  0.53684000  0.53374000  1.0
  C  C24  1  0.48730000  0.47207000  0.16866000  1.0
  C  C25  1  0.53128000  0.52932000  0.83804000  1.0
  C  C26  1  0.46928000  0.82562000  0.51676000  1.0
  C  C27  1  0.51961000  0.16292000  0.47093000  1.0
  O  O28  1  0.50069000  0.49912000  0.49997000  1.0
  O  O29  1  0.39193000  0.75738000  0.43413000  1.0
  O  O30  1  0.44791000  0.21681000  0.54377000  1.0
  O  O31  1  0.55180000  0.79193000  0.59733000  1.0
  O  O32  1  0.58495000  0.21529000  0.40507000  1.0
  O  O33  1  0.15002000  0.68137000  0.63071000  1.0
  O  O34  1  0.98406000  0.24258000  0.44734000  1.0
  O  O35  1  0.62282000  0.66255000  0.17189000  1.0
  O  O36  1  0.57092000  0.41093000  0.22178000  1.0
  O  O37  1  0.46602000  0.43876000  0.76923000  1.0
  O  O38  1  0.20779000  0.51463000  0.39826000  1.0
  O  O39  1  0.77975000  0.61901000  0.60220000  1.0
  O  O40  1  0.23352000  0.41228000  0.56462000  1.0
  O  O41  1  0.78031000  0.44166000  0.45938000  1.0
  O  O42  1  0.39902000  0.52862000  0.21426000  1.0
  O  O43  1  0.59243000  0.61207000  0.79909000  1.0
