# generated using pymatgen
data_CdH8C10(BrN)2
_symmetry_space_group_name_H-M   'P 1'
_cell_length_a   7.36943000
_cell_length_b   9.61809000
_cell_length_c   9.62567000
_cell_angle_alpha   119.92900000
_cell_angle_beta   105.00800000
_cell_angle_gamma   90.01370000
_symmetry_Int_Tables_number   1
_chemical_formula_structural   CdH8C10(BrN)2
_chemical_formula_sum   'Cd2 H16 C20 Br4 N4'
_cell_volume   564.24402313
_cell_formula_units_Z   2
loop_
 _symmetry_equiv_pos_site_id
 _symmetry_equiv_pos_as_xyz
  1  'x, y, z'
loop_
 _atom_site_type_symbol
 _atom_site_label
 _atom_site_symmetry_multiplicity
 _atom_site_fract_x
 _atom_site_fract_y
 _atom_site_fract_z
 _atom_site_occupancy
  Cd  Cd0  1  0.75003000  0.08508000  0.99995000  1.0
  Cd  Cd1  1  0.24998000  0.91492000  0.00005000  1.0
  H  H2  1  0.07940000  0.34604000  0.33991000  1.0
  H  H3  1  0.42073000  0.00615000  0.65986000  1.0
  H  H4  1  0.92060000  0.65396000  0.66009000  1.0
  H  H5  1  0.57927000  0.99385000  0.34014000  1.0
  H  H6  1  0.20216000  0.64759000  0.51599000  1.0
  H  H7  1  0.29784000  0.13168000  0.48366000  1.0
  H  H8  1  0.79783000  0.35241000  0.48401000  1.0
  H  H9  1  0.70215000  0.86833000  0.51634000  1.0
  H  H10  1  0.83170000  0.69540000  0.12109000  1.0
  H  H11  1  0.66779000  0.57427000  0.87862000  1.0
  H  H12  1  0.16831000  0.30460000  0.87891000  1.0
  H  H13  1  0.33221000  0.42573000  0.12138000  1.0
  H  H14  1  0.06976000  0.82221000  0.39934000  1.0
  H  H15  1  0.42991000  0.42290000  0.60028000  1.0
  H  H16  1  0.93024000  0.17779000  0.60066000  1.0
  H  H17  1  0.57008000  0.57710000  0.39972000  1.0
  C  C18  1  0.82366000  0.45225000  0.08314000  1.0
  C  C19  1  0.67613000  0.36903000  0.91659000  1.0
  C  C20  1  0.17634000  0.54774000  0.91686000  1.0
  C  C21  1  0.32387000  0.63098000  0.08341000  1.0
  C  C22  1  0.02715000  0.42913000  0.29781000  1.0
  C  C23  1  0.47284000  0.13132000  0.70191000  1.0
  C  C24  1  0.97285000  0.57086000  0.70219000  1.0
  C  C25  1  0.52716000  0.86868000  0.29808000  1.0
  C  C26  1  0.09427000  0.59525000  0.39412000  1.0
  C  C27  1  0.40568000  0.20117000  0.60558000  1.0
  C  C28  1  0.90573000  0.40476000  0.60589000  1.0
  C  C29  1  0.59432000  0.79883000  0.39442000  1.0
  C  C30  1  0.88703000  0.61974000  0.17175000  1.0
  C  C31  1  0.61264000  0.44794000  0.82797000  1.0
  C  C32  1  0.11297000  0.38027000  0.82825000  1.0
  C  C33  1  0.38736000  0.55206000  0.17204000  1.0
  C  C34  1  0.02202000  0.69156000  0.32898000  1.0
  C  C35  1  0.47771000  0.36259000  0.67067000  1.0
  C  C36  1  0.97797000  0.30843000  0.67102000  1.0
  C  C37  1  0.52229000  0.63741000  0.32933000  1.0
  Br  Br38  1  0.50623000  0.80157000  0.79367000  1.0
  Br  Br39  1  0.99374000  0.00777000  0.20637000  1.0
  Br  Br40  1  0.49377000  0.19843000  0.20633000  1.0
  Br  Br41  1  0.00626000  0.99222000  0.79362000  1.0
  N  N42  1  0.89440000  0.36020000  0.14768000  1.0
  N  N43  1  0.60557000  0.21247000  0.85210000  1.0
  N  N44  1  0.10560000  0.63980000  0.85232000  1.0
  N  N45  1  0.39443000  0.78753000  0.14790000  1.0
