# generated using pymatgen
data_CuMo2H4C6NO7
_symmetry_space_group_name_H-M   'P 1'
_cell_length_a   5.51152000
_cell_length_b   9.93915000
_cell_length_c   10.42120000
_cell_angle_alpha   94.10870000
_cell_angle_beta   90.01460000
_cell_angle_gamma   106.08800000
_symmetry_Int_Tables_number   1
_chemical_formula_structural   CuMo2H4C6NO7
_chemical_formula_sum   'Cu2 Mo4 H8 C12 N2 O14'
_cell_volume   546.98439649
_cell_formula_units_Z   2
loop_
 _symmetry_equiv_pos_site_id
 _symmetry_equiv_pos_as_xyz
  1  'x, y, z'
loop_
 _atom_site_type_symbol
 _atom_site_label
 _atom_site_symmetry_multiplicity
 _atom_site_fract_x
 _atom_site_fract_y
 _atom_site_fract_z
 _atom_site_occupancy
  Cu  Cu0  1  0.09363000  0.49607000  0.01744000  1.0
  Cu  Cu1  1  0.59740000  0.50391000  0.98289000  1.0
  Mo  Mo2  1  0.84718000  0.64951000  0.50608000  1.0
  Mo  Mo3  1  0.19782000  0.35076000  0.49401000  1.0
  Mo  Mo4  1  0.25165000  0.68895000  0.36399000  1.0
  Mo  Mo5  1  0.56317000  0.31121000  0.63598000  1.0
  H  H6  1  0.07984000  0.86827000  0.17775000  1.0
  H  H7  1  0.21240000  0.13255000  0.82231000  1.0
  H  H8  1  0.87758000  0.08645000  0.66355000  1.0
  H  H9  1  0.79082000  0.91263000  0.33622000  1.0
  H  H10  1  0.22485000  0.10287000  0.08447000  1.0
  H  H11  1  0.12151000  0.89797000  0.91571000  1.0
  H  H12  1  0.82750000  0.86038000  0.76677000  1.0
  H  H13  1  0.96805000  0.13866000  0.23324000  1.0
  C  C14  1  0.70714000  0.27280000  0.08858000  1.0
  C  C15  1  0.43224000  0.72696000  0.91138000  1.0
  C  C16  1  0.27424000  0.93290000  0.18970000  1.0
  C  C17  1  0.34146000  0.06751000  0.81026000  1.0
  C  C18  1  0.71682000  0.04332000  0.72363000  1.0
  C  C19  1  0.67357000  0.95616000  0.27622000  1.0
  C  C20  1  0.61053000  0.13629000  0.14823000  1.0
  C  C21  1  0.47275000  0.86348000  0.85160000  1.0
  C  C22  1  0.35583000  0.06083000  0.13584000  1.0
  C  C23  1  0.29435000  0.93955000  0.86413000  1.0
  C  C24  1  0.68811000  0.91819000  0.78113000  1.0
  C  C25  1  0.77070000  0.08121000  0.21874000  1.0
  N  N26  1  0.42945000  0.88168000  0.26054000  1.0
  N  N27  1  0.54789000  0.11828000  0.73932000  1.0
  O  O28  1  0.16805000  0.59399000  0.21818000  1.0
  O  O29  1  0.57538000  0.40606000  0.78191000  1.0
  O  O30  1  0.55753000  0.71704000  0.45146000  1.0
  O  O31  1  0.84062000  0.28302000  0.54841000  1.0
  O  O32  1  0.22629000  0.19836000  0.59652000  1.0
  O  O33  1  0.02793000  0.80196000  0.40358000  1.0
  O  O34  1  0.54451000  0.33888000  0.06848000  1.0
  O  O35  1  0.20362000  0.66119000  0.93173000  1.0
  O  O36  1  0.62838000  0.68837000  0.93655000  1.0
  O  O37  1  0.94175000  0.31120000  0.06335000  1.0
  O  O38  1  0.55736000  0.47468000  0.52823000  1.0
  O  O39  1  0.08265000  0.52557000  0.47189000  1.0
  O  O40  1  0.94687000  0.71610000  0.65588000  1.0
  O  O41  1  0.23057000  0.28420000  0.34414000  1.0
