# generated using pymatgen
data_Zn4H37C46N19O2
_symmetry_space_group_name_H-M   'P 1'
_cell_length_a   14.72900000
_cell_length_b   14.84370000
_cell_length_c   15.09560000
_cell_angle_alpha   66.67200000
_cell_angle_beta   76.08900000
_cell_angle_gamma   110.13900000
_symmetry_Int_Tables_number   1
_chemical_formula_structural   Zn4H37C46N19O2
_chemical_formula_sum   'Zn4 H37 C46 N19 O2'
_cell_volume   2559.22396866
_cell_formula_units_Z   1
loop_
 _symmetry_equiv_pos_site_id
 _symmetry_equiv_pos_as_xyz
  1  'x, y, z'
loop_
 _atom_site_type_symbol
 _atom_site_label
 _atom_site_symmetry_multiplicity
 _atom_site_fract_x
 _atom_site_fract_y
 _atom_site_fract_z
 _atom_site_occupancy
  Zn  Zn0  1  0.99009000  0.88039000  0.64422000  1.0
  Zn  Zn1  1  0.98771000  0.16048000  0.37303000  1.0
  Zn  Zn2  1  0.14099000  0.15646000  0.49834000  1.0
  Zn  Zn3  1  0.85428000  0.88576000  0.50379000  1.0
  H  H4  1  0.81563000  0.85637000  0.84394000  1.0
  H  H5  1  0.81514000  0.20095000  0.51812000  1.0
  H  H6  1  0.24940000  0.42958000  0.43380000  1.0
  H  H7  1  0.63203000  0.63943000  0.67780000  1.0
  H  H8  1  0.03306000  0.42333000  0.28350000  1.0
  H  H9  1  0.80335000  0.64921000  0.87266000  1.0
  H  H10  1  0.65351000  0.83524000  0.69030000  1.0
  H  H11  1  0.02722000  0.21930000  0.65989000  1.0
  H  H12  1  0.15665000  0.23659000  0.15040000  1.0
  H  H13  1  0.35873000  0.17261000  0.55073000  1.0
  H  H14  1  0.76533000  0.84636000  0.33322000  1.0
  H  H15  1  0.94410000  0.21160000  0.15195000  1.0
  H  H16  1  0.13527000  0.81467000  0.76699000  1.0
  H  H17  1  0.99432000  0.86738000  0.31732000  1.0
  H  H18  1  0.34646000  0.20264000  0.32754000  1.0
  H  H19  1  0.47297000  0.52963000  0.83420000  1.0
  H  H20  1  0.48098000  0.59501000  0.90962000  1.0
  H  H21  1  0.31564000  0.43742000  0.04097000  1.0
  H  H22  1  0.32696000  0.35971000  0.97942000  1.0
  H  H23  1  0.54005000  0.38580000  0.86846000  1.0
  H  H24  1  0.40507000  0.22959000  0.03699000  1.0
  H  H25  1  0.64379000  0.49125000  0.02926000  1.0
  H  H26  1  0.60465000  0.59563000  0.00181000  1.0
  H  H27  1  0.43078000  0.46556000  0.14003000  1.0
  H  H28  1  0.48320000  0.37486000  0.18435000  1.0
  H  H29  1  0.62919000  0.38797000  0.92829000  1.0
  H  H30  1  0.48816000  0.25470000  0.10104000  1.0
  H  H31  1  0.44669000  0.05947000  0.63296000  1.0
  H  H32  1  0.49359000  0.83400000  0.77485000  1.0
  H  H33  1  0.59218000  0.09281000  0.64636000  1.0
  H  H34  1  0.09353000  0.62040000  0.23158000  1.0
  H  H35  1  0.21428000  0.61330000  0.37264000  1.0
  H  H36  1  0.07667000  0.76859000  0.24568000  1.0
  H  H37  1  0.18670000  0.73670000  0.39650000  1.0
  H  H38  1  0.92914000  0.19715000  0.00146000  1.0
  H  H39  1  0.95701000  0.20718000  0.83819000  1.0
  H  H40  1  0.80167000  0.95136000  0.96168000  1.0
  C  C41  1  0.87515000  0.94406000  0.78410000  1.0
  C  C42  1  0.79087000  0.11227000  0.55075000  1.0
  C  C43  1  0.19217000  0.40949000  0.40131000  1.0
  C  C44  1  0.68937000  0.65622000  0.71085000  1.0
  C  C45  1  0.08252000  0.40701000  0.32392000  1.0
  C  C46  1  0.77650000  0.66153000  0.80991000  1.0
  C  C47  1  0.70805000  0.92557000  0.63901000  1.0
  C  C48  1  0.98322000  0.12951000  0.69095000  1.0
  C  C49  1  0.90016000  0.03983000  0.79345000  1.0
  C  C50  1  0.69110000  0.01601000  0.63039000  1.0
  C  C51  1  0.15408000  0.47754000  0.34553000  1.0
  C  C52  1  0.67445000  0.60317000  0.81747000  1.0
  C  C53  1  0.11507000  0.84632000  0.47545000  1.0
  C  C54  1  0.18800000  0.21718000  0.20956000  1.0
  C  C55  1  0.29058000  0.08742000  0.59780000  1.0
  C  C56  1  0.81192000  0.93543000  0.30392000  1.0
  C  C57  1  0.90329000  0.12177000  0.21065000  1.0
  C  C58  1  0.17599000  0.90449000  0.70993000  1.0
  C  C59  1  0.02854000  0.86517000  0.37384000  1.0
  C  C60  1  0.28479000  0.20020000  0.29944000  1.0
  C  C61  1  0.10321000  0.82979000  0.39147000  1.0
  C  C62  1  0.29491000  0.25314000  0.19453000  1.0
  C  C63  1  0.28132000  0.98774000  0.67691000  1.0
  C  C64  1  0.84663000  0.02911000  0.20290000  1.0
  C  C65  1  0.47431000  0.51854000  0.91024000  1.0
  C  C66  1  0.37015000  0.41276000  0.00597000  1.0
  C  C67  1  0.55501000  0.39220000  0.93434000  1.0
  C  C68  1  0.58044000  0.51028000  0.01645000  1.0
  C  C69  1  0.57366000  0.50844000  0.91679000  1.0
  C  C70  1  0.39619000  0.34240000  0.09263000  1.0
  C  C71  1  0.45938000  0.29554000  0.04476000  1.0
  C  C72  1  0.47128000  0.42354000  0.11576000  1.0
  C  C73  1  0.38837000  0.90293000  0.76198000  1.0
  C  C74  1  0.37085000  0.98269000  0.69471000  1.0
  C  C75  1  0.49460000  0.91447000  0.74058000  1.0
  C  C76  1  0.59003000  0.01145000  0.67573000  1.0
  C  C77  1  0.13095000  0.64667000  0.27786000  1.0
  C  C78  1  0.17196000  0.58551000  0.33009000  1.0
  C  C79  1  0.11910000  0.73536000  0.28797000  1.0
  C  C80  1  0.14342000  0.76909000  0.35488000  1.0
  C  C81  1  0.88503000  0.11634000  0.00888000  1.0
  C  C82  1  0.83398000  0.02406000  0.11168000  1.0
  C  C83  1  0.89996000  0.12283000  0.90864000  1.0
  C  C84  1  0.86109000  0.03555000  0.89264000  1.0
  C  C85  1  0.77211000  0.91247000  0.13602000  1.0
  C  C86  1  0.17936000  0.82103000  0.52614000  1.0
  N  N87  1  0.93979000  0.97453000  0.68603000  1.0
  N  N88  1  0.85967000  0.08055000  0.51399000  1.0
  N  N89  1  0.14715000  0.30784000  0.41186000  1.0
  N  N90  1  0.79214000  0.73983000  0.64506000  1.0
  N  N91  1  0.07855000  0.30662000  0.36374000  1.0
  N  N92  1  0.84636000  0.74300000  0.70704000  1.0
  N  N93  1  0.80830000  0.96588000  0.56866000  1.0
  N  N94  1  0.00584000  0.08854000  0.62876000  1.0
  N  N95  1  0.04961000  0.88530000  0.50584000  1.0
  N  N96  1  0.12012000  0.15070000  0.31541000  1.0
  N  N97  1  0.20002000  0.06551000  0.58573000  1.0
  N  N98  1  0.84578000  0.96961000  0.36582000  1.0
  N  N99  1  0.90234000  0.08545000  0.30816000  1.0
  N  N100  1  0.12953000  0.95059000  0.65477000  1.0
  N  N101  1  0.99736000  0.89587000  0.44356000  1.0
  N  N102  1  0.17989000  0.14032000  0.37118000  1.0
  N  N103  1  0.30012000  0.79389000  0.85384000  1.0
  N  N104  1  0.72049000  0.81869000  0.16128000  1.0
  N  N105  1  0.23300000  0.79689000  0.56616000  1.0
  O  O106  1  0.32282000  0.72207000  0.90455000  1.0
  O  O107  1  0.20645000  0.77794000  0.87937000  1.0
