# generated using pymatgen
data_AlH6C11O5
_symmetry_space_group_name_H-M   'P 1'
_cell_length_a   6.30677000
_cell_length_b   8.70771000
_cell_length_c   15.23274672
_cell_angle_alpha   92.62149483
_cell_angle_beta   101.69979055
_cell_angle_gamma   103.08550000
_symmetry_Int_Tables_number   1
_chemical_formula_structural   AlH6C11O5
_chemical_formula_sum   'Al2 H12 C22 O10'
_cell_volume   794.20128577
_cell_formula_units_Z   2
loop_
 _symmetry_equiv_pos_site_id
 _symmetry_equiv_pos_as_xyz
  1  'x, y, z'
loop_
 _atom_site_type_symbol
 _atom_site_label
 _atom_site_symmetry_multiplicity
 _atom_site_fract_x
 _atom_site_fract_y
 _atom_site_fract_z
 _atom_site_occupancy
  Al  Al0  1  0.99999000  0.49999000  0.50000000  1.0
  Al  Al1  1  0.49999000  0.49999000  0.50000000  1.0
  H  H2  1  0.15936000  0.32268000  0.42384000  1.0
  H  H3  1  0.84064000  0.67732000  0.57616000  1.0
  H  H4  1  0.25910000  0.02105000  0.48726000  1.0
  H  H5  1  0.74091000  0.97894000  0.51274000  1.0
  H  H6  1  0.06522000  0.52492000  0.77025000  1.0
  H  H7  1  0.05267000  0.66480000  0.92235000  1.0
  H  H8  1  0.70374000  0.43471000  0.76964000  1.0
  H  H9  1  0.86031000  0.31346000  0.91827000  1.0
  H  H10  1  0.93477000  0.47508000  0.22975000  1.0
  H  H11  1  0.94733000  0.33523000  0.07765000  1.0
  H  H12  1  0.29625000  0.56528000  0.23036000  1.0
  H  H13  1  0.13971000  0.68657000  0.08174000  1.0
  C  C14  1  0.66267000  0.51671000  0.33826000  1.0
  C  C15  1  0.66797000  0.21283000  0.49700000  1.0
  C  C16  1  0.33732000  0.48328000  0.66174000  1.0
  C  C17  1  0.33203000  0.78716000  0.50300000  1.0
  C  C18  1  0.39425000  0.96025000  0.49735000  1.0
  C  C19  1  0.60574000  0.03973000  0.50264000  1.0
  C  C20  1  0.22178000  0.50624000  0.80859000  1.0
  C  C21  1  0.26305000  0.51303000  0.90235000  1.0
  C  C22  1  0.08724000  0.55516000  0.94841000  1.0
  C  C23  1  0.58435000  0.45764000  0.80827000  1.0
  C  C24  1  0.63547000  0.46451000  0.90203000  1.0
  C  C25  1  0.85741000  0.43098000  0.94709000  1.0
  C  C26  1  0.77823000  0.49377000  0.19142000  1.0
  C  C27  1  0.73697000  0.48700000  0.09766000  1.0
  C  C28  1  0.91277000  0.44487000  0.05160000  1.0
  C  C29  1  0.41567000  0.54238000  0.19174000  1.0
  C  C30  1  0.36452000  0.53550000  0.09797000  1.0
  C  C31  1  0.14261000  0.56905000  0.05292000  1.0
  C  C32  1  0.38055000  0.48011000  0.76124000  1.0
  C  C33  1  0.47409000  0.49404000  0.95036000  1.0
  C  C34  1  0.61944000  0.51990000  0.23876000  1.0
  C  C35  1  0.52593000  0.50601000  0.04965000  1.0
  O  O36  1  0.83550000  0.47268000  0.37657000  1.0
  O  O37  1  0.51323000  0.28422000  0.47332000  1.0
  O  O38  1  0.47817000  0.44686000  0.62055000  1.0
  O  O39  1  0.12465000  0.72008000  0.48383000  1.0
  O  O40  1  0.16449000  0.52731000  0.62343000  1.0
  O  O41  1  0.48677000  0.71577000  0.52669000  1.0
  O  O42  1  0.52181000  0.55312000  0.37945000  1.0
  O  O43  1  0.87534000  0.27990000  0.51617000  1.0
  O  O44  1  0.20517000  0.42860000  0.45415000  1.0
  O  O45  1  0.79482000  0.57139000  0.54585000  1.0
