# generated using pymatgen
data_NiH32C46(N2F)4
_symmetry_space_group_name_H-M   'P 1'
_cell_length_a   12.98460000
_cell_length_b   14.08810000
_cell_length_c   14.11880000
_cell_angle_alpha   90.00000000
_cell_angle_beta   90.00020000
_cell_angle_gamma   114.67300000
_symmetry_Int_Tables_number   1
_chemical_formula_structural   NiH32C46(N2F)4
_chemical_formula_sum   'Ni2 H64 C92 N16 F8'
_cell_volume   2346.93845578
_cell_formula_units_Z   2
loop_
 _symmetry_equiv_pos_site_id
 _symmetry_equiv_pos_as_xyz
  1  'x, y, z'
loop_
 _atom_site_type_symbol
 _atom_site_label
 _atom_site_symmetry_multiplicity
 _atom_site_fract_x
 _atom_site_fract_y
 _atom_site_fract_z
 _atom_site_occupancy
  Ni  Ni0  1  0.00000000  0.00000000  0.00000000  1.0
  Ni  Ni1  1  0.00000000  0.50000000  0.50000000  1.0
  H  H2  1  0.65091000  0.97320000  0.79665000  1.0
  H  H3  1  0.34909000  0.52680000  0.29665000  1.0
  H  H4  1  0.34910000  0.02680000  0.20335000  1.0
  H  H5  1  0.65091000  0.47320000  0.70335000  1.0
  H  H6  1  0.82340000  0.15281000  0.73967000  1.0
  H  H7  1  0.17660000  0.34719000  0.23967000  1.0
  H  H8  1  0.17660000  0.84719000  0.26033000  1.0
  H  H9  1  0.82340000  0.65281000  0.76033000  1.0
  H  H10  1  0.25110000  0.35704000  0.83550000  1.0
  H  H11  1  0.74891000  0.14295000  0.33551000  1.0
  H  H12  1  0.74890000  0.64296000  0.16450000  1.0
  H  H13  1  0.25109000  0.85705000  0.66450000  1.0
  H  H14  1  0.39364000  0.32116000  0.95540000  1.0
  H  H15  1  0.60637000  0.17883000  0.45540000  1.0
  H  H16  1  0.60636000  0.67884000  0.04460000  1.0
  H  H17  1  0.39363000  0.82117000  0.54459000  1.0
  H  H18  1  0.55032000  0.93493000  0.98185000  1.0
  H  H19  1  0.44968000  0.56508000  0.48185000  1.0
  H  H20  1  0.44968000  0.06507000  0.01815000  1.0
  H  H21  1  0.55032000  0.43492000  0.51815000  1.0
  H  H22  1  0.61385000  0.69170000  0.84444000  1.0
  H  H23  1  0.38615000  0.80830000  0.34444000  1.0
  H  H24  1  0.38615000  0.30830000  0.15556000  1.0
  H  H25  1  0.61385000  0.19169000  0.65556000  1.0
  H  H26  1  0.54674000  0.56967000  0.72722000  1.0
  H  H27  1  0.45325000  0.93032000  0.22721000  1.0
  H  H28  1  0.45326000  0.43033000  0.27278000  1.0
  H  H29  1  0.54675000  0.06968000  0.77279000  1.0
  H  H30  1  0.42769000  0.44846000  0.74647000  1.0
  H  H31  1  0.57230000  0.05154000  0.24647000  1.0
  H  H32  1  0.57231000  0.55154000  0.25353000  1.0
  H  H33  1  0.42770000  0.94846000  0.75353000  1.0
  H  H34  1  0.51013000  0.51877000  0.84488000  1.0
  H  H35  1  0.48986000  0.98123000  0.34487000  1.0
  H  H36  1  0.48987000  0.48124000  0.15512000  1.0
  H  H37  1  0.51014000  0.01877000  0.65513000  1.0
  H  H38  1  0.27288000  0.60436000  0.71053000  1.0
  H  H39  1  0.72711000  0.89564000  0.21053000  1.0
  H  H40  1  0.72712000  0.39564000  0.28947000  1.0
  H  H41  1  0.27289000  0.10436000  0.78947000  1.0
  H  H42  1  0.29214000  0.49151000  0.67641000  1.0
  H  H43  1  0.70785000  0.00848000  0.17640000  1.0
  H  H44  1  0.70786000  0.50849000  0.32359000  1.0
  H  H45  1  0.29215000  0.99151000  0.82360000  1.0
  H  H46  1  0.39377000  0.61816000  0.64244000  1.0
  H  H47  1  0.60622000  0.88183000  0.14244000  1.0
  H  H48  1  0.60623000  0.38184000  0.35756000  1.0
  H  H49  1  0.39378000  0.11817000  0.85756000  1.0
  H  H50  1  0.03093000  0.38801000  0.86090000  1.0
  H  H51  1  0.96906000  0.11198000  0.36090000  1.0
  H  H52  1  0.96907000  0.61199000  0.13910000  1.0
  H  H53  1  0.03093000  0.88801000  0.63910000  1.0
  H  H54  1  0.03944000  0.50939000  0.72807000  1.0
  H  H55  1  0.96054000  0.99059000  0.22807000  1.0
  H  H56  1  0.96056000  0.49061000  0.27193000  1.0
  H  H57  1  0.03945000  0.00940000  0.77192000  1.0
  H  H58  1  0.06470000  0.30734000  0.52684000  1.0
  H  H59  1  0.93530000  0.19265000  0.02684000  1.0
  H  H60  1  0.93530000  0.69266000  0.47316000  1.0
  H  H61  1  0.06470000  0.80735000  0.97316000  1.0
  H  H62  1  0.05454000  0.17586000  0.65048000  1.0
  H  H63  1  0.94547000  0.32414000  0.15047000  1.0
  H  H64  1  0.94546000  0.82414000  0.34953000  1.0
  H  H65  1  0.05453000  0.67586000  0.84953000  1.0
  C  C66  1  0.71715000  0.86969000  0.94152000  1.0
  C  C67  1  0.28284000  0.63032000  0.44152000  1.0
  C  C68  1  0.28285000  0.13032000  0.05848000  1.0
  C  C69  1  0.71716000  0.36968000  0.55848000  1.0
  C  C70  1  0.78156000  0.96413000  0.89602000  1.0
  C  C71  1  0.21843000  0.53588000  0.39602000  1.0
  C  C72  1  0.21844000  0.03587000  0.10398000  1.0
  C  C73  1  0.78157000  0.46412000  0.60398000  1.0
  C  C74  1  0.73728000  0.00818000  0.82261000  1.0
  C  C75  1  0.26272000  0.49183000  0.32261000  1.0
  C  C76  1  0.26272000  0.99182000  0.17739000  1.0
  C  C77  1  0.73728000  0.50817000  0.67739000  1.0
  C  C78  1  0.82425000  0.09815000  0.79351000  1.0
  C  C79  1  0.17575000  0.40185000  0.29351000  1.0
  C  C80  1  0.17576000  0.90185000  0.20649000  1.0
  C  C81  1  0.82425000  0.59815000  0.70649000  1.0
  C  C82  1  0.92205000  0.10884000  0.84897000  1.0
  C  C83  1  0.07795000  0.39116000  0.34897000  1.0
  C  C84  1  0.07795000  0.89116000  0.15103000  1.0
  C  C85  1  0.92205000  0.60884000  0.65103000  1.0
  C  C86  1  0.02816000  0.19254000  0.84013000  1.0
  C  C87  1  0.97184000  0.30745000  0.34013000  1.0
  C  C88  1  0.97184000  0.80746000  0.15987000  1.0
  C  C89  1  0.02816000  0.69255000  0.65987000  1.0
  C  C90  1  0.12287000  0.20494000  0.89411000  1.0
  C  C91  1  0.87713000  0.29506000  0.39411000  1.0
  C  C92  1  0.87713000  0.79506000  0.10589000  1.0
  C  C93  1  0.12287000  0.70494000  0.60589000  1.0
  C  C94  1  0.23246000  0.29162000  0.88334000  1.0
  C  C95  1  0.76754000  0.20837000  0.38335000  1.0
  C  C96  1  0.76754000  0.70838000  0.11666000  1.0
  C  C97  1  0.23246000  0.79163000  0.61665000  1.0
  C  C98  1  0.30396000  0.27390000  0.94424000  1.0
  C  C99  1  0.69604000  0.22610000  0.44424000  1.0
  C  C100  1  0.69604000  0.72610000  0.05576000  1.0
  C  C101  1  0.30396000  0.77391000  0.55576000  1.0
  C  C102  1  0.23798000  0.17672000  0.99250000  1.0
  C  C103  1  0.76202000  0.32328000  0.49249000  1.0
  C  C104  1  0.76202000  0.82328000  0.00751000  1.0
  C  C105  1  0.23798000  0.67672000  0.50751000  1.0
  C  C106  1  0.59453000  0.81631000  0.91743000  1.0
  C  C107  1  0.40547000  0.68370000  0.41743000  1.0
  C  C108  1  0.40547000  0.18369000  0.08257000  1.0
  C  C109  1  0.59454000  0.31630000  0.58257000  1.0
  C  C110  1  0.52079000  0.86157000  0.94293000  1.0
  C  C111  1  0.47921000  0.63843000  0.44293000  1.0
  C  C112  1  0.47921000  0.13842000  0.05707000  1.0
  C  C113  1  0.52079000  0.36157000  0.55707000  1.0
  C  C114  1  0.40760000  0.81027000  0.91700000  1.0
  C  C115  1  0.59240000  0.68973000  0.41700000  1.0
  C  C116  1  0.59240000  0.18972000  0.08300000  1.0
  C  C117  1  0.40760000  0.31027000  0.58300000  1.0
  C  C118  1  0.36652000  0.71680000  0.86673000  1.0
  C  C119  1  0.63347000  0.78320000  0.36673000  1.0
  C  C120  1  0.63348000  0.28320000  0.13326000  1.0
  C  C121  1  0.36653000  0.21680000  0.63327000  1.0
  C  C122  1  0.43939000  0.67063000  0.83799000  1.0
  C  C123  1  0.56060000  0.82936000  0.33799000  1.0
  C  C124  1  0.56061000  0.32937000  0.16201000  1.0
  C  C125  1  0.43940000  0.17063000  0.66201000  1.0
  C  C126  1  0.55371000  0.72294000  0.86590000  1.0
  C  C127  1  0.44629000  0.77706000  0.36590000  1.0
  C  C128  1  0.44629000  0.27706000  0.13410000  1.0
  C  C129  1  0.55371000  0.22294000  0.63410000  1.0
  C  C130  1  0.47543000  0.52684000  0.77595000  1.0
  C  C131  1  0.52457000  0.97316000  0.27594000  1.0
  C  C132  1  0.52457000  0.47316000  0.22405000  1.0
  C  C133  1  0.47544000  0.02684000  0.72406000  1.0
  C  C134  1  0.33588000  0.57296000  0.69959000  1.0
  C  C135  1  0.66411000  0.92703000  0.19959000  1.0
  C  C136  1  0.66412000  0.42704000  0.30041000  1.0
  C  C137  1  0.33589000  0.07296000  0.80041000  1.0
  C  C138  1  0.04035000  0.27116000  0.76578000  1.0
  C  C139  1  0.95965000  0.22884000  0.26578000  1.0
  C  C140  1  0.95965000  0.72884000  0.23421000  1.0
  C  C141  1  0.04035000  0.77116000  0.73422000  1.0
  C  C142  1  0.03810000  0.36714000  0.78760000  1.0
  C  C143  1  0.96189000  0.13285000  0.28761000  1.0
  C  C144  1  0.96190000  0.63286000  0.21240000  1.0
  C  C145  1  0.03810000  0.86715000  0.71239000  1.0
  C  C146  1  0.04319000  0.43472000  0.71397000  1.0
  C  C147  1  0.95680000  0.06527000  0.21397000  1.0
  C  C148  1  0.95681000  0.56528000  0.28603000  1.0
  C  C149  1  0.04320000  0.93472000  0.78603000  1.0
  C  C150  1  0.05656000  0.32191000  0.60183000  1.0
  C  C151  1  0.94344000  0.17808000  0.10183000  1.0
  C  C152  1  0.94344000  0.67809000  0.39817000  1.0
  C  C153  1  0.05656000  0.82192000  0.89817000  1.0
  C  C154  1  0.05081000  0.24906000  0.67051000  1.0
  C  C155  1  0.94919000  0.25094000  0.17051000  1.0
  C  C156  1  0.94919000  0.75094000  0.32949000  1.0
  C  C157  1  0.05081000  0.74906000  0.82949000  1.0
  N  N158  1  0.89479000  0.02635000  0.91107000  1.0
  N  N159  1  0.10521000  0.47365000  0.41107000  1.0
  N  N160  1  0.10521000  0.97365000  0.08893000  1.0
  N  N161  1  0.89479000  0.52635000  0.58894000  1.0
  N  N162  1  0.12720000  0.13591000  0.96147000  1.0
  N  N163  1  0.87280000  0.36409000  0.46147000  1.0
  N  N164  1  0.87280000  0.86409000  0.03853000  1.0
  N  N165  1  0.12720000  0.63591000  0.53853000  1.0
  N  N166  1  0.39851000  0.57710000  0.78706000  1.0
  N  N167  1  0.60148000  0.92289000  0.28706000  1.0
  N  N168  1  0.60149000  0.42290000  0.21294000  1.0
  N  N169  1  0.39852000  0.07711000  0.71294000  1.0
  N  N170  1  0.05160000  0.41275000  0.62270000  1.0
  N  N171  1  0.94839000  0.08724000  0.12270000  1.0
  N  N172  1  0.94840000  0.58725000  0.37730000  1.0
  N  N173  1  0.05161000  0.91276000  0.87730000  1.0
  F  F174  1  0.25318000  0.66904000  0.84853000  1.0
  F  F175  1  0.74681000  0.83096000  0.34853000  1.0
  F  F176  1  0.74682000  0.33096000  0.15147000  1.0
  F  F177  1  0.25319000  0.16904000  0.65148000  1.0
  F  F178  1  0.33308000  0.85126000  0.94225000  1.0
  F  F179  1  0.66692000  0.64874000  0.44226000  1.0
  F  F180  1  0.66692000  0.14873000  0.05775000  1.0
  F  F181  1  0.33308000  0.35126000  0.55775000  1.0
