# generated using pymatgen
data_NaMgH12C6NO9
_symmetry_space_group_name_H-M   'P 1'
_cell_length_a   9.71194000
_cell_length_b   14.59960000
_cell_length_c   17.28580000
_cell_angle_alpha   89.99950000
_cell_angle_beta   90.00040000
_cell_angle_gamma   89.99980000
_symmetry_Int_Tables_number   1
_chemical_formula_structural   NaMgH12C6NO9
_chemical_formula_sum   'Na8 Mg8 H96 C48 N8 O72'
_cell_volume   2450.96117417
_cell_formula_units_Z   8
loop_
 _symmetry_equiv_pos_site_id
 _symmetry_equiv_pos_as_xyz
  1  'x, y, z'
loop_
 _atom_site_type_symbol
 _atom_site_label
 _atom_site_symmetry_multiplicity
 _atom_site_fract_x
 _atom_site_fract_y
 _atom_site_fract_z
 _atom_site_occupancy
  Na  Na0  1  0.84328000  0.04602000  0.64014000  1.0
  Na  Na1  1  0.15672000  0.45399000  0.14014000  1.0
  Na  Na2  1  0.34326000  0.95400000  0.85987000  1.0
  Na  Na3  1  0.65672000  0.54601000  0.35987000  1.0
  Na  Na4  1  0.15672000  0.95399000  0.35986000  1.0
  Na  Na5  1  0.84327000  0.54601000  0.85986000  1.0
  Na  Na6  1  0.65674000  0.04600000  0.14014000  1.0
  Na  Na7  1  0.34325000  0.45399000  0.64015000  1.0
  Mg  Mg8  1  0.21188000  0.05139000  0.70313000  1.0
  Mg  Mg9  1  0.78813000  0.44861000  0.20313000  1.0
  Mg  Mg10  1  0.71184000  0.94859000  0.79687000  1.0
  Mg  Mg11  1  0.28813000  0.55140000  0.29686000  1.0
  Mg  Mg12  1  0.78814000  0.94860000  0.29687000  1.0
  Mg  Mg13  1  0.21185000  0.55141000  0.79687000  1.0
  Mg  Mg14  1  0.28815000  0.05140000  0.20313000  1.0
  Mg  Mg15  1  0.71184000  0.44861000  0.70312000  1.0
  H  H16  1  0.91608000  0.85133000  0.58122000  1.0
  H  H17  1  0.08392000  0.64867000  0.08122000  1.0
  H  H18  1  0.41608000  0.14867000  0.91879000  1.0
  H  H19  1  0.58391000  0.35133000  0.41879000  1.0
  H  H20  1  0.08392000  0.14866000  0.41879000  1.0
  H  H21  1  0.91608000  0.35133000  0.91879000  1.0
  H  H22  1  0.58391000  0.85133000  0.08122000  1.0
  H  H23  1  0.41608000  0.64867000  0.58121000  1.0
  H  H24  1  0.84965000  0.85427000  0.66687000  1.0
  H  H25  1  0.15035000  0.64573000  0.16687000  1.0
  H  H26  1  0.34965000  0.14573000  0.83314000  1.0
  H  H27  1  0.65035000  0.35426000  0.33315000  1.0
  H  H28  1  0.15035000  0.14572000  0.33314000  1.0
  H  H29  1  0.84965000  0.35427000  0.83314000  1.0
  H  H30  1  0.65034000  0.85425000  0.16687000  1.0
  H  H31  1  0.34964000  0.64575000  0.66686000  1.0
  H  H32  1  0.07854000  0.90322000  0.65234000  1.0
  H  H33  1  0.92148000  0.59678000  0.15234000  1.0
  H  H34  1  0.57851000  0.09679000  0.84766000  1.0
  H  H35  1  0.42146000  0.40322000  0.34767000  1.0
  H  H36  1  0.92148000  0.09678000  0.34766000  1.0
  H  H37  1  0.07853000  0.40322000  0.84767000  1.0
  H  H38  1  0.42146000  0.90321000  0.15233000  1.0
  H  H39  1  0.57851000  0.59680000  0.65234000  1.0
  H  H40  1  0.21477000  0.87463000  0.69938000  1.0
  H  H41  1  0.78526000  0.62537000  0.19938000  1.0
  H  H42  1  0.71474000  0.12536000  0.80062000  1.0
  H  H43  1  0.28524000  0.37463000  0.30062000  1.0
  H  H44  1  0.78527000  0.12536000  0.30061000  1.0
  H  H45  1  0.21475000  0.37464000  0.80062000  1.0
  H  H46  1  0.28522000  0.87464000  0.19936000  1.0
  H  H47  1  0.71474000  0.62537000  0.69938000  1.0
  H  H48  1  0.77209000  0.09208000  0.45216000  1.0
  H  H49  1  0.22793000  0.40793000  0.95216000  1.0
  H  H50  1  0.27205000  0.90793000  0.04781000  1.0
  H  H51  1  0.72794000  0.59208000  0.54784000  1.0
  H  H52  1  0.22793000  0.90793000  0.54781000  1.0
  H  H53  1  0.77207000  0.59207000  0.04782000  1.0
  H  H54  1  0.72792000  0.09208000  0.95216000  1.0
  H  H55  1  0.27207000  0.40793000  0.45219000  1.0
  H  H56  1  0.87727000  0.13094000  0.50969000  1.0
  H  H57  1  0.12276000  0.36906000  0.00970000  1.0
  H  H58  1  0.37725000  0.86906000  0.99028000  1.0
  H  H59  1  0.62276000  0.63093000  0.49030000  1.0
  H  H60  1  0.12273000  0.86905000  0.49029000  1.0
  H  H61  1  0.87727000  0.63094000  0.99029000  1.0
  H  H62  1  0.62275000  0.13095000  0.00970000  1.0
  H  H63  1  0.37727000  0.36906000  0.50971000  1.0
  H  H64  1  0.40089000  0.25932000  0.60140000  1.0
  H  H65  1  0.59910000  0.24069000  0.10139000  1.0
  H  H66  1  0.90090000  0.74067000  0.89861000  1.0
  H  H67  1  0.09911000  0.75934000  0.39860000  1.0
  H  H68  1  0.59908000  0.74068000  0.39861000  1.0
  H  H69  1  0.40091000  0.75931000  0.89861000  1.0
  H  H70  1  0.09911000  0.25931000  0.10139000  1.0
  H  H71  1  0.90091000  0.24068000  0.60140000  1.0
  H  H72  1  0.49104000  0.20099000  0.67479000  1.0
  H  H73  1  0.50896000  0.29900000  0.17479000  1.0
  H  H74  1  0.99103000  0.79901000  0.82521000  1.0
  H  H75  1  0.00895000  0.70101000  0.32521000  1.0
  H  H76  1  0.50896000  0.79901000  0.32522000  1.0
  H  H77  1  0.49104000  0.70099000  0.82522000  1.0
  H  H78  1  0.00898000  0.20099000  0.17479000  1.0
  H  H79  1  0.99103000  0.29901000  0.67478000  1.0
  H  H80  1  0.27997000  0.06805000  0.50505000  1.0
  H  H81  1  0.72007000  0.43195000  0.00506000  1.0
  H  H82  1  0.77994000  0.93195000  0.99495000  1.0
  H  H83  1  0.22004000  0.56806000  0.49495000  1.0
  H  H84  1  0.72007000  0.93195000  0.49495000  1.0
  H  H85  1  0.27997000  0.56804000  0.99495000  1.0
  H  H86  1  0.22006000  0.06804000  0.00506000  1.0
  H  H87  1  0.77993000  0.43195000  0.50505000  1.0
  H  H88  1  0.30228000  0.18897000  0.50691000  1.0
  H  H89  1  0.69775000  0.31103000  0.00692000  1.0
  H  H90  1  0.80224000  0.81102000  0.99309000  1.0
  H  H91  1  0.19774000  0.68899000  0.49308000  1.0
  H  H92  1  0.69774000  0.81102000  0.49309000  1.0
  H  H93  1  0.30228000  0.68897000  0.99309000  1.0
  H  H94  1  0.19773000  0.18895000  0.00691000  1.0
  H  H95  1  0.80225000  0.31103000  0.50690000  1.0
  H  H96  1  0.56226000  0.09154000  0.57843000  1.0
  H  H97  1  0.43776000  0.40846000  0.07842000  1.0
  H  H98  1  0.06223000  0.90844000  0.92157000  1.0
  H  H99  1  0.93776000  0.59156000  0.42159000  1.0
  H  H100  1  0.43776000  0.90847000  0.42158000  1.0
  H  H101  1  0.56224000  0.59153000  0.92157000  1.0
  H  H102  1  0.93777000  0.09154000  0.07844000  1.0
  H  H103  1  0.06225000  0.40846000  0.57843000  1.0
  H  H104  1  0.44368000  0.00017000  0.56489000  1.0
  H  H105  1  0.55635000  0.49982000  0.06487000  1.0
  H  H106  1  0.94363000  0.99982000  0.93512000  1.0
  H  H107  1  0.05637000  0.50019000  0.43512000  1.0
  H  H108  1  0.55636000  0.99982000  0.43512000  1.0
  H  H109  1  0.44364000  0.50016000  0.93511000  1.0
  H  H110  1  0.05635000  0.00017000  0.06489000  1.0
  H  H111  1  0.94365000  0.49982000  0.56487000  1.0
  C  C112  1  0.38979000  0.20709000  0.64648000  1.0
  C  C113  1  0.61022000  0.29291000  0.14647000  1.0
  C  C114  1  0.88976000  0.79289000  0.85352000  1.0
  C  C115  1  0.11022000  0.70712000  0.35351000  1.0
  C  C116  1  0.61021000  0.79291000  0.35353000  1.0
  C  C117  1  0.38978000  0.70710000  0.85352000  1.0
  C  C118  1  0.11024000  0.20709000  0.14648000  1.0
  C  C119  1  0.88978000  0.29291000  0.64647000  1.0
  C  C120  1  0.29241000  0.24041000  0.71028000  1.0
  C  C121  1  0.70761000  0.25957000  0.21025000  1.0
  C  C122  1  0.79239000  0.75956000  0.78973000  1.0
  C  C123  1  0.20760000  0.74044000  0.28971000  1.0
  C  C124  1  0.70759000  0.75957000  0.28975000  1.0
  C  C125  1  0.29241000  0.74044000  0.78974000  1.0
  C  C126  1  0.20761000  0.24043000  0.21026000  1.0
  C  C127  1  0.79240000  0.25958000  0.71026000  1.0
  C  C128  1  0.26987000  0.12948000  0.54164000  1.0
  C  C129  1  0.73017000  0.37052000  0.04164000  1.0
  C  C130  1  0.76981000  0.87051000  0.95837000  1.0
  C  C131  1  0.23019000  0.62950000  0.45836000  1.0
  C  C132  1  0.73015000  0.87051000  0.45836000  1.0
  C  C133  1  0.26984000  0.62948000  0.95837000  1.0
  C  C134  1  0.23016000  0.12947000  0.04164000  1.0
  C  C135  1  0.76983000  0.37052000  0.54163000  1.0
  C  C136  1  0.11627000  0.13634000  0.55955000  1.0
  C  C137  1  0.88375000  0.36367000  0.05955000  1.0
  C  C138  1  0.61621000  0.86366000  0.94046000  1.0
  C  C139  1  0.38379000  0.63634000  0.44044000  1.0
  C  C140  1  0.88375000  0.86365000  0.44046000  1.0
  C  C141  1  0.11624000  0.63635000  0.94046000  1.0
  C  C142  1  0.38376000  0.13634000  0.05954000  1.0
  C  C143  1  0.61624000  0.36366000  0.55954000  1.0
  C  C144  1  0.47146000  0.05724000  0.60355000  1.0
  C  C145  1  0.52857000  0.44276000  0.10354000  1.0
  C  C146  1  0.97143000  0.94275000  0.89645000  1.0
  C  C147  1  0.02854000  0.55724000  0.39644000  1.0
  C  C148  1  0.52856000  0.94276000  0.39646000  1.0
  C  C149  1  0.47144000  0.55723000  0.89644000  1.0
  C  C150  1  0.02858000  0.05724000  0.10356000  1.0
  C  C151  1  0.97143000  0.44276000  0.60354000  1.0
  C  C152  1  0.50745000  0.01442000  0.68179000  1.0
  C  C153  1  0.49254000  0.48557000  0.18178000  1.0
  C  C154  1  0.00743000  0.98557000  0.81819000  1.0
  C  C155  1  0.99254000  0.51443000  0.31819000  1.0
  C  C156  1  0.49256000  0.98557000  0.31822000  1.0
  C  C157  1  0.50743000  0.51443000  0.81819000  1.0
  C  C158  1  0.99257000  0.01443000  0.18180000  1.0
  C  C159  1  0.00742000  0.48557000  0.68179000  1.0
  N  N160  1  0.35178000  0.11770000  0.61213000  1.0
  N  N161  1  0.64824000  0.38230000  0.11212000  1.0
  N  N162  1  0.85174000  0.88228000  0.88787000  1.0
  N  N163  1  0.14824000  0.61772000  0.38787000  1.0
  N  N164  1  0.64823000  0.88230000  0.38788000  1.0
  N  N165  1  0.35176000  0.61771000  0.88787000  1.0
  N  N166  1  0.14825000  0.11770000  0.11213000  1.0
  N  N167  1  0.85175000  0.38229000  0.61212000  1.0
  O  O168  1  0.27786000  0.32556000  0.71876000  1.0
  O  O169  1  0.72216000  0.17443000  0.21874000  1.0
  O  O170  1  0.77789000  0.67441000  0.78125000  1.0
  O  O171  1  0.22208000  0.82559000  0.28123000  1.0
  O  O172  1  0.72214000  0.67442000  0.28126000  1.0
  O  O173  1  0.27792000  0.82559000  0.78124000  1.0
  O  O174  1  0.22212000  0.32557000  0.21876000  1.0
  O  O175  1  0.77788000  0.17443000  0.71876000  1.0
  O  O176  1  0.23704000  0.17925000  0.75333000  1.0
  O  O177  1  0.76298000  0.32073000  0.25332000  1.0
  O  O178  1  0.73699000  0.82073000  0.74668000  1.0
  O  O179  1  0.26298000  0.67926000  0.24668000  1.0
  O  O180  1  0.76298000  0.82072000  0.24669000  1.0
  O  O181  1  0.23701000  0.67928000  0.74669000  1.0
  O  O182  1  0.26301000  0.17928000  0.25332000  1.0
  O  O183  1  0.73701000  0.32073000  0.75331000  1.0
  O  O184  1  0.07225000  0.10140000  0.62251000  1.0
  O  O185  1  0.92777000  0.39861000  0.12252000  1.0
  O  O186  1  0.57223000  0.89861000  0.87749000  1.0
  O  O187  1  0.42774000  0.60137000  0.37747000  1.0
  O  O188  1  0.92777000  0.89859000  0.37749000  1.0
  O  O189  1  0.07224000  0.60139000  0.87750000  1.0
  O  O190  1  0.42778000  0.10139000  0.12250000  1.0
  O  O191  1  0.57222000  0.39862000  0.62250000  1.0
  O  O192  1  0.03942000  0.17324000  0.50916000  1.0
  O  O193  1  0.96061000  0.32675000  0.00918000  1.0
  O  O194  1  0.53939000  0.82675000  0.99086000  1.0
  O  O195  1  0.46059000  0.67325000  0.49086000  1.0
  O  O196  1  0.96060000  0.82674000  0.49084000  1.0
  O  O197  1  0.03941000  0.67325000  0.99086000  1.0
  O  O198  1  0.46060000  0.17326000  0.00916000  1.0
  O  O199  1  0.53940000  0.32674000  0.50916000  1.0
  O  O200  1  0.63105000  0.98906000  0.69248000  1.0
  O  O201  1  0.36896000  0.51096000  0.19247000  1.0
  O  O202  1  0.13103000  0.01093000  0.80752000  1.0
  O  O203  1  0.86893000  0.48907000  0.30755000  1.0
  O  O204  1  0.36898000  0.01094000  0.30753000  1.0
  O  O205  1  0.63103000  0.48906000  0.80752000  1.0
  O  O206  1  0.86899000  0.98905000  0.19249000  1.0
  O  O207  1  0.13101000  0.51095000  0.69248000  1.0
  O  O208  1  0.41140000  0.00592000  0.73096000  1.0
  O  O209  1  0.58860000  0.49410000  0.23094000  1.0
  O  O210  1  0.91133000  0.99407000  0.76905000  1.0
  O  O211  1  0.08865000  0.50594000  0.26905000  1.0
  O  O212  1  0.58862000  0.99408000  0.26905000  1.0
  O  O213  1  0.41133000  0.50593000  0.76904000  1.0
  O  O214  1  0.08865000  0.00593000  0.23096000  1.0
  O  O215  1  0.91135000  0.49408000  0.73095000  1.0
  O  O216  1  0.91139000  0.88662000  0.63060000  1.0
  O  O217  1  0.08861000  0.61338000  0.13061000  1.0
  O  O218  1  0.41139000  0.11338000  0.86941000  1.0
  O  O219  1  0.58861000  0.38662000  0.36941000  1.0
  O  O220  1  0.08861000  0.11337000  0.36940000  1.0
  O  O221  1  0.91139000  0.38662000  0.86941000  1.0
  O  O222  1  0.58860000  0.88661000  0.13061000  1.0
  O  O223  1  0.41138000  0.61339000  0.63060000  1.0
  O  O224  1  0.17885000  0.91861000  0.65923000  1.0
  O  O225  1  0.82116000  0.58140000  0.15923000  1.0
  O  O226  1  0.67883000  0.08139000  0.84076000  1.0
  O  O227  1  0.32114000  0.41861000  0.34077000  1.0
  O  O228  1  0.82116000  0.08139000  0.34076000  1.0
  O  O229  1  0.17884000  0.41861000  0.84076000  1.0
  O  O230  1  0.32114000  0.91861000  0.15922000  1.0
  O  O231  1  0.67883000  0.58140000  0.65923000  1.0
  O  O232  1  0.78668000  0.09846000  0.50825000  1.0
  O  O233  1  0.21335000  0.40154000  0.00825000  1.0
  O  O234  1  0.28665000  0.90155000  0.99173000  1.0
  O  O235  1  0.71336000  0.59846000  0.49176000  1.0
  O  O236  1  0.21333000  0.90154000  0.49173000  1.0
  O  O237  1  0.78667000  0.59846000  0.99173000  1.0
  O  O238  1  0.71334000  0.09846000  0.00825000  1.0
  O  O239  1  0.28668000  0.40155000  0.50827000  1.0
