# generated using pymatgen
data_KH6C12S(N2O)2
_symmetry_space_group_name_H-M   'P 1'
_cell_length_a   6.49561000
_cell_length_b   9.61691000
_cell_length_c   9.76964000
_cell_angle_alpha   71.73400000
_cell_angle_beta   89.99980000
_cell_angle_gamma   89.99960000
_symmetry_Int_Tables_number   1
_chemical_formula_structural   KH6C12S(N2O)2
_chemical_formula_sum   'K2 H12 C24 S2 N8 O4'
_cell_volume   579.53555091
_cell_formula_units_Z   2
loop_
 _symmetry_equiv_pos_site_id
 _symmetry_equiv_pos_as_xyz
  1  'x, y, z'
loop_
 _atom_site_type_symbol
 _atom_site_label
 _atom_site_symmetry_multiplicity
 _atom_site_fract_x
 _atom_site_fract_y
 _atom_site_fract_z
 _atom_site_occupancy
  K  K0  1  0.25000000  0.64829000  0.36860000  1.0
  K  K1  1  0.75000000  0.35170000  0.63141000  1.0
  H  H2  1  0.25000000  0.63576000  0.00816000  1.0
  H  H3  1  0.75000000  0.36424000  0.99185000  1.0
  H  H4  1  0.25000000  0.76823000  0.74611000  1.0
  H  H5  1  0.75000000  0.23176000  0.25390000  1.0
  H  H6  1  0.25000000  0.04626000  0.66444000  1.0
  H  H7  1  0.75000000  0.95374000  0.33556000  1.0
  H  H8  1  0.25000000  0.38509000  0.18159000  1.0
  H  H9  1  0.75000000  0.61491000  0.81841000  1.0
  H  H10  1  0.25000000  0.22737000  0.44004000  1.0
  H  H11  1  0.75000000  0.77263000  0.55996000  1.0
  H  H12  1  0.25000000  0.95324000  0.49338000  1.0
  H  H13  1  0.75000000  0.04676000  0.50661000  1.0
  C  C14  1  0.25000000  0.97078000  0.02987000  1.0
  C  C15  1  0.75000000  0.02922000  0.97013000  1.0
  C  C16  1  0.25000000  0.75545000  0.97107000  1.0
  C  C17  1  0.75000000  0.24456000  0.02893000  1.0
  C  C18  1  0.25000000  0.83003000  0.82228000  1.0
  C  C19  1  0.75000000  0.16997000  0.17772000  1.0
  C  C20  1  0.25000000  0.98121000  0.77777000  1.0
  C  C21  1  0.75000000  0.01879000  0.22224000  1.0
  C  C22  1  0.25000000  0.05535000  0.88124000  1.0
  C  C23  1  0.75000000  0.94466000  0.11875000  1.0
  C  C24  1  0.25000000  0.21134000  0.84094000  1.0
  C  C25  1  0.75000000  0.78866000  0.15906000  1.0
  C  C26  1  0.25000000  0.28505000  0.95015000  1.0
  C  C27  1  0.75000000  0.71495000  0.04985000  1.0
  C  C28  1  0.25000000  0.20054000  0.10021000  1.0
  C  C29  1  0.75000000  0.79946000  0.89978000  1.0
  C  C30  1  0.25000000  0.26633000  0.21022000  1.0
  C  C31  1  0.75000000  0.73367000  0.78978000  1.0
  C  C32  1  0.25000000  0.17895000  0.35292000  1.0
  C  C33  1  0.75000000  0.82105000  0.64707000  1.0
  C  C34  1  0.25000000  0.02642000  0.38224000  1.0
  C  C35  1  0.75000000  0.97358000  0.61776000  1.0
  C  C36  1  0.25000000  0.04436000  0.14069000  1.0
  C  C37  1  0.75000000  0.95564000  0.85930000  1.0
  S  S38  1  0.25000000  0.46828000  0.72064000  1.0
  S  S39  1  0.75000000  0.53171000  0.27936000  1.0
  N  N40  1  0.25000000  0.82276000  0.07212000  1.0
  N  N41  1  0.75000000  0.17724000  0.92788000  1.0
  N  N42  1  0.25000000  0.30219000  0.70479000  1.0
  N  N43  1  0.75000000  0.69781000  0.29521000  1.0
  N  N44  1  0.25000000  0.43167000  0.89692000  1.0
  N  N45  1  0.75000000  0.56833000  0.10308000  1.0
  N  N46  1  0.25000000  0.96038000  0.28064000  1.0
  N  N47  1  0.75000000  0.03962000  0.71935000  1.0
  O  O48  1  0.43684000  0.54706000  0.65530000  1.0
  O  O49  1  0.93683000  0.45293000  0.34470000  1.0
  O  O50  1  0.56317000  0.45294000  0.34470000  1.0
  O  O51  1  0.06317000  0.54706000  0.65530000  1.0
