# generated using pymatgen
data_MnH6C12(NO2)4
_symmetry_space_group_name_H-M   'P 1'
_cell_length_a   8.05478000
_cell_length_b   8.06116000
_cell_length_c   12.16062549
_cell_angle_alpha   71.03151459
_cell_angle_beta   71.00629432
_cell_angle_gamma   60.69000000
_symmetry_Int_Tables_number   1
_chemical_formula_structural   MnH6C12(NO2)4
_chemical_formula_sum   'Mn2 H12 C24 N8 O16'
_cell_volume   637.74552116
_cell_formula_units_Z   2
loop_
 _symmetry_equiv_pos_site_id
 _symmetry_equiv_pos_as_xyz
  1  'x, y, z'
loop_
 _atom_site_type_symbol
 _atom_site_label
 _atom_site_symmetry_multiplicity
 _atom_site_fract_x
 _atom_site_fract_y
 _atom_site_fract_z
 _atom_site_occupancy
  Mn  Mn0  1  0.95393000  0.05198000  0.23992000  1.0
  Mn  Mn1  1  0.05103000  0.95417000  0.73940000  1.0
  H  H2  1  0.70869000  0.51500000  0.61131000  1.0
  H  H3  1  0.48387000  0.27414000  0.90202000  1.0
  H  H4  1  0.27416000  0.48357000  0.40208000  1.0
  H  H5  1  0.51459000  0.70864000  0.11132000  1.0
  H  H6  1  0.95501000  0.47276000  0.25050000  1.0
  H  H7  1  0.56194000  0.03137000  0.25863000  1.0
  H  H8  1  0.03207000  0.56169000  0.75870000  1.0
  H  H9  1  0.47436000  0.95326000  0.75007000  1.0
  H  H10  1  0.84724000  0.65049000  0.41732000  1.0
  H  H11  1  0.36851000  0.13113000  0.10399000  1.0
  H  H12  1  0.13195000  0.36805000  0.60415000  1.0
  H  H13  1  0.65129000  0.84608000  0.91731000  1.0
  C  C14  1  0.71807000  0.03810000  0.47604000  1.0
  C  C15  1  0.98568000  0.26518000  0.00646000  1.0
  C  C16  1  0.26430000  0.98593000  0.50600000  1.0
  C  C17  1  0.03760000  0.71843000  0.97561000  1.0
  C  C18  1  0.75494000  0.20984000  0.46470000  1.0
  C  C19  1  0.80783000  0.23681000  0.02963000  1.0
  C  C20  1  0.23601000  0.80822000  0.52914000  1.0
  C  C21  1  0.20973000  0.75494000  0.96421000  1.0
  C  C22  1  0.70059000  0.29957000  0.55969000  1.0
  C  C23  1  0.70846000  0.28351000  0.94282000  1.0
  C  C24  1  0.28309000  0.70851000  0.44251000  1.0
  C  C25  1  0.29882000  0.70103000  0.05945000  1.0
  C  C26  1  0.62655000  0.22064000  0.68778000  1.0
  C  C27  1  0.78230000  0.35398000  0.81385000  1.0
  C  C28  1  0.35402000  0.78175000  0.31354000  1.0
  C  C29  1  0.21960000  0.62707000  0.18756000  1.0
  C  C30  1  0.88315000  0.42380000  0.33873000  1.0
  C  C31  1  0.60335000  0.10336000  0.16880000  1.0
  C  C32  1  0.10346000  0.60337000  0.66872000  1.0
  C  C33  1  0.42466000  0.88209000  0.83837000  1.0
  C  C34  1  0.82595000  0.52134000  0.42973000  1.0
  C  C35  1  0.49768000  0.15563000  0.08429000  1.0
  C  C36  1  0.15601000  0.49741000  0.58436000  1.0
  C  C37  1  0.52188000  0.82509000  0.92957000  1.0
  N  N38  1  0.84880000  0.26863000  0.35678000  1.0
  N  N39  1  0.75874000  0.14441000  0.14417000  1.0
  N  N40  1  0.14374000  0.75919000  0.64381000  1.0
  N  N41  1  0.26918000  0.84817000  0.85629000  1.0
  N  N42  1  0.73744000  0.45571000  0.53790000  1.0
  N  N43  1  0.55001000  0.24707000  0.97121000  1.0
  N  N44  1  0.24694000  0.54993000  0.47111000  1.0
  N  N45  1  0.45534000  0.73747000  0.03778000  1.0
  O  O46  1  0.81140000  0.95191000  0.38509000  1.0
  O  O47  1  0.07061000  0.17977000  0.09882000  1.0
  O  O48  1  0.17791000  0.07149000  0.59813000  1.0
  O  O49  1  0.95199000  0.81075000  0.88446000  1.0
  O  O50  1  0.61085000  0.98647000  0.56328000  1.0
  O  O51  1  0.05011000  0.35152000  0.91240000  1.0
  O  O52  1  0.35189000  0.04962000  0.41226000  1.0
  O  O53  1  0.98520000  0.61219000  0.06314000  1.0
  O  O54  1  0.74346000  0.05001000  0.72734000  1.0
  O  O55  1  0.93583000  0.22369000  0.76533000  1.0
  O  O56  1  0.22462000  0.93569000  0.26470000  1.0
  O  O57  1  0.04914000  0.74454000  0.22716000  1.0
  O  O58  1  0.46993000  0.32955000  0.74374000  1.0
  O  O59  1  0.69264000  0.52350000  0.76189000  1.0
  O  O60  1  0.52361000  0.69089000  0.26178000  1.0
  O  O61  1  0.32823000  0.46993000  0.24315000  1.0
