# generated using pymatgen
data_Cu3MoH41C44S4N9O
_symmetry_space_group_name_H-M   'P 1'
_cell_length_a   9.94474000
_cell_length_b   17.55750000
_cell_length_c   26.62480000
_cell_angle_alpha   90.00000000
_cell_angle_beta   89.99990000
_cell_angle_gamma   101.03100000
_symmetry_Int_Tables_number   1
_chemical_formula_structural   Cu3MoH41C44S4N9O
_chemical_formula_sum   'Cu12 Mo4 H164 C176 S16 N36 O4'
_cell_volume   4562.92468288
_cell_formula_units_Z   4
loop_
 _symmetry_equiv_pos_site_id
 _symmetry_equiv_pos_as_xyz
  1  'x, y, z'
loop_
 _atom_site_type_symbol
 _atom_site_label
 _atom_site_symmetry_multiplicity
 _atom_site_fract_x
 _atom_site_fract_y
 _atom_site_fract_z
 _atom_site_occupancy
  Cu  Cu0  1  0.75373000  0.17673000  0.58791000  1.0
  Cu  Cu1  1  0.24627000  0.32326000  0.08791000  1.0
  Cu  Cu2  1  0.24627000  0.82326000  0.41209000  1.0
  Cu  Cu3  1  0.75372000  0.67674000  0.91209000  1.0
  Cu  Cu4  1  0.11737000  0.17953000  0.54830000  1.0
  Cu  Cu5  1  0.88264000  0.32047000  0.04830000  1.0
  Cu  Cu6  1  0.88264000  0.82046000  0.45170000  1.0
  Cu  Cu7  1  0.11736000  0.67954000  0.95170000  1.0
  Cu  Cu8  1  0.05263000  0.29648000  0.65775000  1.0
  Cu  Cu9  1  0.94737000  0.20352000  0.15775000  1.0
  Cu  Cu10  1  0.94738000  0.70352000  0.34225000  1.0
  Cu  Cu11  1  0.05263000  0.79648000  0.84226000  1.0
  Mo  Mo12  1  0.97866000  0.14654000  0.63482000  1.0
  Mo  Mo13  1  0.02134000  0.35346000  0.13482000  1.0
  Mo  Mo14  1  0.02135000  0.85346000  0.36518000  1.0
  Mo  Mo15  1  0.97865000  0.64654000  0.86518000  1.0
  H  H16  1  0.13355000  0.01481000  0.55845000  1.0
  H  H17  1  0.86646000  0.48519000  0.05845000  1.0
  H  H18  1  0.86646000  0.98518000  0.44155000  1.0
  H  H19  1  0.13355000  0.51481000  0.94155000  1.0
  H  H20  1  0.30363000  0.93272000  0.54364000  1.0
  H  H21  1  0.69637000  0.56728000  0.04364000  1.0
  H  H22  1  0.69637000  0.06728000  0.45637000  1.0
  H  H23  1  0.30363000  0.43272000  0.95636000  1.0
  H  H24  1  0.55357000  0.12971000  0.46874000  1.0
  H  H25  1  0.44643000  0.37029000  0.96875000  1.0
  H  H26  1  0.44643000  0.87029000  0.53125000  1.0
  H  H27  1  0.55357000  0.62971000  0.03126000  1.0
  H  H28  1  0.37400000  0.20302000  0.48642000  1.0
  H  H29  1  0.62601000  0.29698000  0.98642000  1.0
  H  H30  1  0.62601000  0.79698000  0.51358000  1.0
  H  H31  1  0.37399000  0.70302000  0.01358000  1.0
  H  H32  1  0.32992000  0.80525000  0.80067000  1.0
  H  H33  1  0.67008000  0.69475000  0.30067000  1.0
  H  H34  1  0.67008000  0.19474000  0.19933000  1.0
  H  H35  1  0.32992000  0.30525000  0.69933000  1.0
  H  H36  1  0.48088000  0.88777000  0.73976000  1.0
  H  H37  1  0.51912000  0.61223000  0.23976000  1.0
  H  H38  1  0.51913000  0.11223000  0.26024000  1.0
  H  H39  1  0.48088000  0.38777000  0.76024000  1.0
  H  H40  1  0.12492000  0.97674000  0.69055000  1.0
  H  H41  1  0.87508000  0.52326000  0.19055000  1.0
  H  H42  1  0.87508000  0.02326000  0.30945000  1.0
  H  H43  1  0.12492000  0.47674000  0.80945000  1.0
  H  H44  1  0.99011000  0.89068000  0.75367000  1.0
  H  H45  1  0.00989000  0.60931000  0.25367000  1.0
  H  H46  1  0.00989000  0.10931000  0.24633000  1.0
  H  H47  1  0.99011000  0.39068000  0.74633000  1.0
  H  H48  1  0.29585000  0.08771000  0.67765000  1.0
  H  H49  1  0.70415000  0.41228000  0.17765000  1.0
  H  H50  1  0.70415000  0.91228000  0.32235000  1.0
  H  H51  1  0.29585000  0.58772000  0.82235000  1.0
  H  H52  1  0.46417000  0.17223000  0.62325000  1.0
  H  H53  1  0.53582000  0.32777000  0.12324000  1.0
  H  H54  1  0.53583000  0.82777000  0.37675000  1.0
  H  H55  1  0.46417000  0.67223000  0.87675000  1.0
  H  H56  1  0.69760000  0.00218000  0.60607000  1.0
  H  H57  1  0.30239000  0.49782000  0.10608000  1.0
  H  H58  1  0.30240000  0.99782000  0.39393000  1.0
  H  H59  1  0.69761000  0.50218000  0.89392000  1.0
  H  H60  1  0.53890000  0.90907000  0.65908000  1.0
  H  H61  1  0.46109000  0.59093000  0.15908000  1.0
  H  H62  1  0.46109000  0.09093000  0.34092000  1.0
  H  H63  1  0.53891000  0.40907000  0.84092000  1.0
  H  H64  1  0.29933000  0.33233000  0.51832000  1.0
  H  H65  1  0.70067000  0.16767000  0.01832000  1.0
  H  H66  1  0.70067000  0.66767000  0.48168000  1.0
  H  H67  1  0.29934000  0.83233000  0.98168000  1.0
  H  H68  1  0.26801000  0.45010000  0.47247000  1.0
  H  H69  1  0.73199000  0.04990000  0.97247000  1.0
  H  H70  1  0.73199000  0.54990000  0.52753000  1.0
  H  H71  1  0.26802000  0.95010000  0.02753000  1.0
  H  H72  1  0.84988000  0.33457000  0.44265000  1.0
  H  H73  1  0.15012000  0.16543000  0.94265000  1.0
  H  H74  1  0.15012000  0.66543000  0.55734000  1.0
  H  H75  1  0.84989000  0.83457000  0.05735000  1.0
  H  H76  1  0.90127000  0.22026000  0.48759000  1.0
  H  H77  1  0.09873000  0.27974000  0.98759000  1.0
  H  H78  1  0.09873000  0.77973000  0.51241000  1.0
  H  H79  1  0.90127000  0.72027000  0.01241000  1.0
  H  H80  1  0.18621000  0.55586000  0.46587000  1.0
  H  H81  1  0.81379000  0.94414000  0.96587000  1.0
  H  H82  1  0.81379000  0.44414000  0.53413000  1.0
  H  H83  1  0.18621000  0.05586000  0.03413000  1.0
  H  H84  1  0.13000000  0.66887000  0.42154000  1.0
  H  H85  1  0.87000000  0.83113000  0.92154000  1.0
  H  H86  1  0.87000000  0.33113000  0.57846000  1.0
  H  H87  1  0.13000000  0.16888000  0.07846000  1.0
  H  H88  1  0.81133000  0.53210000  0.34325000  1.0
  H  H89  1  0.18866000  0.96790000  0.84324000  1.0
  H  H90  1  0.18866000  0.46790000  0.65676000  1.0
  H  H91  1  0.81134000  0.03210000  0.15676000  1.0
  H  H92  1  0.85497000  0.41240000  0.38324000  1.0
  H  H93  1  0.14502000  0.08760000  0.88324000  1.0
  H  H94  1  0.14502000  0.58760000  0.61676000  1.0
  H  H95  1  0.85498000  0.91240000  0.11676000  1.0
  H  H96  1  0.13778000  0.82318000  0.21736000  1.0
  H  H97  1  0.86222000  0.67682000  0.71736000  1.0
  H  H98  1  0.86222000  0.17682000  0.78264000  1.0
  H  H99  1  0.13778000  0.32318000  0.28264000  1.0
  H  H100  1  0.07439000  0.88253000  0.25690000  1.0
  H  H101  1  0.92561000  0.61747000  0.75690000  1.0
  H  H102  1  0.92561000  0.11747000  0.74310000  1.0
  H  H103  1  0.07439000  0.38253000  0.24310000  1.0
  H  H104  1  0.00050000  0.74519000  0.15538000  1.0
  H  H105  1  0.99950000  0.75481000  0.65538000  1.0
  H  H106  1  0.99950000  0.25481000  0.84462000  1.0
  H  H107  1  0.00050000  0.24519000  0.34462000  1.0
  H  H108  1  0.76932000  0.70191000  0.11934000  1.0
  H  H109  1  0.23068000  0.79809000  0.61934000  1.0
  H  H110  1  0.23068000  0.29809000  0.88066000  1.0
  H  H111  1  0.76932000  0.20191000  0.38066000  1.0
  H  H112  1  0.57499000  0.76428000  0.14566000  1.0
  H  H113  1  0.42501000  0.73572000  0.64566000  1.0
  H  H114  1  0.42501000  0.23572000  0.85434000  1.0
  H  H115  1  0.57500000  0.26428000  0.35434000  1.0
  H  H116  1  0.61557000  0.86877000  0.21095000  1.0
  H  H117  1  0.38442000  0.63123000  0.71095000  1.0
  H  H118  1  0.38442000  0.13123000  0.78905000  1.0
  H  H119  1  0.61558000  0.36877000  0.28905000  1.0
  H  H120  1  0.84749000  0.91212000  0.24697000  1.0
  H  H121  1  0.15251000  0.58788000  0.74697000  1.0
  H  H122  1  0.15251000  0.08788000  0.75303000  1.0
  H  H123  1  0.84749000  0.41212000  0.25303000  1.0
  H  H124  1  0.90992000  0.90847000  0.55994000  1.0
  H  H125  1  0.09008000  0.59153000  0.05994000  1.0
  H  H126  1  0.09009000  0.09153000  0.44006000  1.0
  H  H127  1  0.90991000  0.40847000  0.94006000  1.0
  H  H128  1  0.93267000  0.97366000  0.60759000  1.0
  H  H129  1  0.06733000  0.52635000  0.10759000  1.0
  H  H130  1  0.06733000  0.02635000  0.39241000  1.0
  H  H131  1  0.93267000  0.47366000  0.89241000  1.0
  H  H132  1  0.80201000  0.77416000  0.57144000  1.0
  H  H133  1  0.19798000  0.72584000  0.07144000  1.0
  H  H134  1  0.19799000  0.22584000  0.42856000  1.0
  H  H135  1  0.80201000  0.27416000  0.92856000  1.0
  H  H136  1  0.66028000  0.67739000  0.62566000  1.0
  H  H137  1  0.33971000  0.82261000  0.12566000  1.0
  H  H138  1  0.33971000  0.32261000  0.37433000  1.0
  H  H139  1  0.66029000  0.17739000  0.87433000  1.0
  H  H140  1  0.61561000  0.71005000  0.71550000  1.0
  H  H141  1  0.38439000  0.78995000  0.21550000  1.0
  H  H142  1  0.38439000  0.28995000  0.28450000  1.0
  H  H143  1  0.61562000  0.21004000  0.78450000  1.0
  H  H144  1  0.71219000  0.84328000  0.74736000  1.0
  H  H145  1  0.28781000  0.65672000  0.24736000  1.0
  H  H146  1  0.28781000  0.15672000  0.25264000  1.0
  H  H147  1  0.71219000  0.34328000  0.75264000  1.0
  H  H148  1  0.84895000  0.94098000  0.69197000  1.0
  H  H149  1  0.15105000  0.55902000  0.19197000  1.0
  H  H150  1  0.15105000  0.05902000  0.30803000  1.0
  H  H151  1  0.84895000  0.44098000  0.80803000  1.0
  H  H152  1  0.84839000  0.92879000  0.81543000  1.0
  H  H153  1  0.15160000  0.57121000  0.31543000  1.0
  H  H154  1  0.15161000  0.07121000  0.18457000  1.0
  H  H155  1  0.84839000  0.42878000  0.68457000  1.0
  H  H156  1  0.83826000  0.02134000  0.79971000  1.0
  H  H157  1  0.16173000  0.47867000  0.29971000  1.0
  H  H158  1  0.16173000  0.97866000  0.20029000  1.0
  H  H159  1  0.83827000  0.52133000  0.70029000  1.0
  H  H160  1  0.66280000  0.84047000  0.85713000  1.0
  H  H161  1  0.33719000  0.65954000  0.35713000  1.0
  H  H162  1  0.33720000  0.15953000  0.14287000  1.0
  H  H163  1  0.66280000  0.34046000  0.64287000  1.0
  H  H164  1  0.45827000  0.83258000  0.91060000  1.0
  H  H165  1  0.54172000  0.66742000  0.41060000  1.0
  H  H166  1  0.54173000  0.16742000  0.08940000  1.0
  H  H167  1  0.45827000  0.33259000  0.58940000  1.0
  H  H168  1  0.34701000  0.94780000  0.92142000  1.0
  H  H169  1  0.65298000  0.55219000  0.42141000  1.0
  H  H170  1  0.65299000  0.05219000  0.07858000  1.0
  H  H171  1  0.34701000  0.44781000  0.57859000  1.0
  H  H172  1  0.44021000  0.06978000  0.87503000  1.0
  H  H173  1  0.55979000  0.43021000  0.37502000  1.0
  H  H174  1  0.55980000  0.93021000  0.12498000  1.0
  H  H175  1  0.44021000  0.56979000  0.62498000  1.0
  H  H176  1  0.64499000  0.07741000  0.82023000  1.0
  H  H177  1  0.35500000  0.42260000  0.32023000  1.0
  H  H178  1  0.35501000  0.92259000  0.17977000  1.0
  H  H179  1  0.64500000  0.57741000  0.67977000  1.0
  C  C180  1  0.63649000  0.28577000  0.51554000  1.0
  C  C181  1  0.36352000  0.21423000  0.01554000  1.0
  C  C182  1  0.36351000  0.71423000  0.48446000  1.0
  C  C183  1  0.63649000  0.78577000  0.98446000  1.0
  C  C184  1  0.22825000  0.03790000  0.53846000  1.0
  C  C185  1  0.77176000  0.46210000  0.03846000  1.0
  C  C186  1  0.77176000  0.96210000  0.46154000  1.0
  C  C187  1  0.22824000  0.53790000  0.96154000  1.0
  C  C188  1  0.32497000  0.99221000  0.53001000  1.0
  C  C189  1  0.67503000  0.50779000  0.03001000  1.0
  C  C190  1  0.67504000  0.00779000  0.46999000  1.0
  C  C191  1  0.32497000  0.49221000  0.96999000  1.0
  C  C192  1  0.44679000  0.02311000  0.50449000  1.0
  C  C193  1  0.55321000  0.47689000  0.00449000  1.0
  C  C194  1  0.55322000  0.97689000  0.49551000  1.0
  C  C195  1  0.44678000  0.52311000  0.99551000  1.0
  C  C196  1  0.46234000  0.10037000  0.48832000  1.0
  C  C197  1  0.53766000  0.39963000  0.98832000  1.0
  C  C198  1  0.53767000  0.89963000  0.51168000  1.0
  C  C199  1  0.46233000  0.60037000  0.01168000  1.0
  C  C200  1  0.36107000  0.14257000  0.49822000  1.0
  C  C201  1  0.63893000  0.35743000  0.99822000  1.0
  C  C202  1  0.63893000  0.85743000  0.50178000  1.0
  C  C203  1  0.36107000  0.64257000  0.00178000  1.0
  C  C204  1  0.28876000  0.84382000  0.77534000  1.0
  C  C205  1  0.71124000  0.65618000  0.27534000  1.0
  C  C206  1  0.71123000  0.15618000  0.22466000  1.0
  C  C207  1  0.28876000  0.34382000  0.72466000  1.0
  C  C208  1  0.37213000  0.88972000  0.74096000  1.0
  C  C209  1  0.62787000  0.61027000  0.24096000  1.0
  C  C210  1  0.62787000  0.11027000  0.25904000  1.0
  C  C211  1  0.37213000  0.38972000  0.75904000  1.0
  C  C212  1  0.31613000  0.93998000  0.70974000  1.0
  C  C213  1  0.68386000  0.56002000  0.20974000  1.0
  C  C214  1  0.68387000  0.06002000  0.29026000  1.0
  C  C215  1  0.31614000  0.43998000  0.79026000  1.0
  C  C216  1  0.17574000  0.94024000  0.71427000  1.0
  C  C217  1  0.82426000  0.55976000  0.21427000  1.0
  C  C218  1  0.82427000  0.05976000  0.28573000  1.0
  C  C219  1  0.17574000  0.44024000  0.78573000  1.0
  C  C220  1  0.09958000  0.89224000  0.74964000  1.0
  C  C221  1  0.90042000  0.60776000  0.24964000  1.0
  C  C222  1  0.90042000  0.10776000  0.25036000  1.0
  C  C223  1  0.09958000  0.39224000  0.75036000  1.0
  C  C224  1  0.40467000  0.99094000  0.67434000  1.0
  C  C225  1  0.59532000  0.50906000  0.17434000  1.0
  C  C226  1  0.59532000  0.00906000  0.32566000  1.0
  C  C227  1  0.40468000  0.49095000  0.82566000  1.0
  C  C228  1  0.38288000  0.06560000  0.66259000  1.0
  C  C229  1  0.61712000  0.43440000  0.16259000  1.0
  C  C230  1  0.61712000  0.93440000  0.33741000  1.0
  C  C231  1  0.38288000  0.56560000  0.83740000  1.0
  C  C232  1  0.47720000  0.11345000  0.63235000  1.0
  C  C233  1  0.52280000  0.38654000  0.13235000  1.0
  C  C234  1  0.52280000  0.88655000  0.36765000  1.0
  C  C235  1  0.47720000  0.61346000  0.86764000  1.0
  C  C236  1  0.60703000  0.01861000  0.62278000  1.0
  C  C237  1  0.39296000  0.48139000  0.12278000  1.0
  C  C238  1  0.39296000  0.98139000  0.37722000  1.0
  C  C239  1  0.60704000  0.51861000  0.87721000  1.0
  C  C240  1  0.51823000  0.96699000  0.65253000  1.0
  C  C241  1  0.48177000  0.53301000  0.15253000  1.0
  C  C242  1  0.48177000  0.03301000  0.34748000  1.0
  C  C243  1  0.51823000  0.46699000  0.84747000  1.0
  C  C244  1  0.20103000  0.33510000  0.50096000  1.0
  C  C245  1  0.79897000  0.16490000  0.00096000  1.0
  C  C246  1  0.79897000  0.66490000  0.49904000  1.0
  C  C247  1  0.20103000  0.83510000  0.99904000  1.0
  C  C248  1  0.18242000  0.40120000  0.47540000  1.0
  C  C249  1  0.81758000  0.09880000  0.97539000  1.0
  C  C250  1  0.81758000  0.59880000  0.52460000  1.0
  C  C251  1  0.18242000  0.90120000  0.02460000  1.0
  C  C252  1  0.05458000  0.40331000  0.45357000  1.0
  C  C253  1  0.94542000  0.09669000  0.95357000  1.0
  C  C254  1  0.94541000  0.59669000  0.54643000  1.0
  C  C255  1  0.05459000  0.90331000  0.04643000  1.0
  C  C256  1  0.95237000  0.33642000  0.45754000  1.0
  C  C257  1  0.04763000  0.16358000  0.95754000  1.0
  C  C258  1  0.04763000  0.66357000  0.54246000  1.0
  C  C259  1  0.95238000  0.83643000  0.04246000  1.0
  C  C260  1  0.97959000  0.27247000  0.48307000  1.0
  C  C261  1  0.02041000  0.22753000  0.98307000  1.0
  C  C262  1  0.02041000  0.72753000  0.51693000  1.0
  C  C263  1  0.97960000  0.77247000  0.01693000  1.0
  C  C264  1  0.02562000  0.47294000  0.42838000  1.0
  C  C265  1  0.97437000  0.02706000  0.92838000  1.0
  C  C266  1  0.97438000  0.52706000  0.57162000  1.0
  C  C267  1  0.02562000  0.97294000  0.07162000  1.0
  C  C268  1  0.10232000  0.54690000  0.43883000  1.0
  C  C269  1  0.89768000  0.95310000  0.93883000  1.0
  C  C270  1  0.89768000  0.45310000  0.56117000  1.0
  C  C271  1  0.10232000  0.04690000  0.06116000  1.0
  C  C272  1  0.07077000  0.61097000  0.41440000  1.0
  C  C273  1  0.92923000  0.88903000  0.91440000  1.0
  C  C274  1  0.92923000  0.38902000  0.58560000  1.0
  C  C275  1  0.07077000  0.11098000  0.08560000  1.0
  C  C276  1  0.89362000  0.53480000  0.37059000  1.0
  C  C277  1  0.10638000  0.96520000  0.87059000  1.0
  C  C278  1  0.10638000  0.46520000  0.62941000  1.0
  C  C279  1  0.89362000  0.03481000  0.12941000  1.0
  C  C280  1  0.91805000  0.46792000  0.39359000  1.0
  C  C281  1  0.08195000  0.03208000  0.89359000  1.0
  C  C282  1  0.08195000  0.53208000  0.60641000  1.0
  C  C283  1  0.91805000  0.96792000  0.10641000  1.0
  C  C284  1  0.94021000  0.83247000  0.20323000  1.0
  C  C285  1  0.05979000  0.66753000  0.70323000  1.0
  C  C286  1  0.05978000  0.16753000  0.79677000  1.0
  C  C287  1  0.94021000  0.33247000  0.29677000  1.0
  C  C288  1  0.91613000  0.77247000  0.16740000  1.0
  C  C289  1  0.08387000  0.72753000  0.66740000  1.0
  C  C290  1  0.08387000  0.22753000  0.83260000  1.0
  C  C291  1  0.91613000  0.27247000  0.33260000  1.0
  C  C292  1  0.78559000  0.74840000  0.14723000  1.0
  C  C293  1  0.21441000  0.75160000  0.64723000  1.0
  C  C294  1  0.21442000  0.25160000  0.85277000  1.0
  C  C295  1  0.78559000  0.24839000  0.35277000  1.0
  C  C296  1  0.67624000  0.78282000  0.16204000  1.0
  C  C297  1  0.32376000  0.71718000  0.66204000  1.0
  C  C298  1  0.32376000  0.21718000  0.83796000  1.0
  C  C299  1  0.67624000  0.28282000  0.33796000  1.0
  C  C300  1  0.69944000  0.84131000  0.19848000  1.0
  C  C301  1  0.30056000  0.65869000  0.69848000  1.0
  C  C302  1  0.30055000  0.15869000  0.80152000  1.0
  C  C303  1  0.69945000  0.34131000  0.30152000  1.0
  C  C304  1  0.82946000  0.86600000  0.21896000  1.0
  C  C305  1  0.17054000  0.63400000  0.71896000  1.0
  C  C306  1  0.17053000  0.13400000  0.78104000  1.0
  C  C307  1  0.82946000  0.36600000  0.28104000  1.0
  C  C308  1  0.83796000  0.86396000  0.62795000  1.0
  C  C309  1  0.16204000  0.63604000  0.12795000  1.0
  C  C310  1  0.16204000  0.13605000  0.37205000  1.0
  C  C311  1  0.83795000  0.36396000  0.87205000  1.0
  C  C312  1  0.78181000  0.78920000  0.60999000  1.0
  C  C313  1  0.21819000  0.71080000  0.10999000  1.0
  C  C314  1  0.21820000  0.21080000  0.39001000  1.0
  C  C315  1  0.78181000  0.28920000  0.89001000  1.0
  C  C316  1  0.70271000  0.73448000  0.64105000  1.0
  C  C317  1  0.29728000  0.76552000  0.14105000  1.0
  C  C318  1  0.29729000  0.26552000  0.35894000  1.0
  C  C319  1  0.70272000  0.23448000  0.85895000  1.0
  C  C320  1  0.67810000  0.75247000  0.69103000  1.0
  C  C321  1  0.32190000  0.74753000  0.19103000  1.0
  C  C322  1  0.32190000  0.24753000  0.30897000  1.0
  C  C323  1  0.67810000  0.25247000  0.80897000  1.0
  C  C324  1  0.73176000  0.82707000  0.70886000  1.0
  C  C325  1  0.26824000  0.67293000  0.20886000  1.0
  C  C326  1  0.26824000  0.17293000  0.29114000  1.0
  C  C327  1  0.73176000  0.32707000  0.79114000  1.0
  C  C328  1  0.80974000  0.88259000  0.67786000  1.0
  C  C329  1  0.19026000  0.61741000  0.17786000  1.0
  C  C330  1  0.19027000  0.11741000  0.32214000  1.0
  C  C331  1  0.80974000  0.38259000  0.82214000  1.0
  C  C332  1  0.66944000  0.96016000  0.83534000  1.0
  C  C333  1  0.33055000  0.53984000  0.33533000  1.0
  C  C334  1  0.33056000  0.03984000  0.16466000  1.0
  C  C335  1  0.66945000  0.46016000  0.66467000  1.0
  C  C336  1  0.61320000  0.89065000  0.86039000  1.0
  C  C337  1  0.38679000  0.60935000  0.36039000  1.0
  C  C338  1  0.38680000  0.10935000  0.13961000  1.0
  C  C339  1  0.61320000  0.39065000  0.63961000  1.0
  C  C340  1  0.49795000  0.88651000  0.89076000  1.0
  C  C341  1  0.50204000  0.61349000  0.39076000  1.0
  C  C342  1  0.50206000  0.11349000  0.10924000  1.0
  C  C343  1  0.49795000  0.38651000  0.60924000  1.0
  C  C344  1  0.43513000  0.95068000  0.89672000  1.0
  C  C345  1  0.56486000  0.54932000  0.39672000  1.0
  C  C346  1  0.56486000  0.04932000  0.10328000  1.0
  C  C347  1  0.43514000  0.45068000  0.60328000  1.0
  C  C348  1  0.48811000  0.01913000  0.87082000  1.0
  C  C349  1  0.51188000  0.48087000  0.37082000  1.0
  C  C350  1  0.51189000  0.98086000  0.12918000  1.0
  C  C351  1  0.48812000  0.51914000  0.62918000  1.0
  C  C352  1  0.60297000  0.02381000  0.84012000  1.0
  C  C353  1  0.39703000  0.47619000  0.34012000  1.0
  C  C354  1  0.39703000  0.97618000  0.15988000  1.0
  C  C355  1  0.60297000  0.52381000  0.65988000  1.0
  S  S356  1  0.83851000  0.22387000  0.66470000  1.0
  S  S357  1  0.16149000  0.27613000  0.16470000  1.0
  S  S358  1  0.16150000  0.77613000  0.33530000  1.0
  S  S359  1  0.83850000  0.72388000  0.83530000  1.0
  S  S360  1  0.19128000  0.22039000  0.62566000  1.0
  S  S361  1  0.80873000  0.27961000  0.12566000  1.0
  S  S362  1  0.80873000  0.77961000  0.37433000  1.0
  S  S363  1  0.19127000  0.72039000  0.87434000  1.0
  S  S364  1  0.90422000  0.10504000  0.55680000  1.0
  S  S365  1  0.09578000  0.39496000  0.05680000  1.0
  S  S366  1  0.09578000  0.89496000  0.44320000  1.0
  S  S367  1  0.90421000  0.60504000  0.94320000  1.0
  S  S368  1  0.58152000  0.34276000  0.47596000  1.0
  S  S369  1  0.41848000  0.15724000  0.97596000  1.0
  S  S370  1  0.41848000  0.65724000  0.52404000  1.0
  S  S371  1  0.58152000  0.84276000  0.02405000  1.0
  N  N372  1  0.24484000  0.11236000  0.52307000  1.0
  N  N373  1  0.75516000  0.38764000  0.02307000  1.0
  N  N374  1  0.75516000  0.88764000  0.47692000  1.0
  N  N375  1  0.24484000  0.61236000  0.97693000  1.0
  N  N376  1  0.15432000  0.84513000  0.78029000  1.0
  N  N377  1  0.84568000  0.65487000  0.28028000  1.0
  N  N378  1  0.84568000  0.15487000  0.21971000  1.0
  N  N379  1  0.15432000  0.34513000  0.71971000  1.0
  N  N380  1  0.58926000  0.09134000  0.61341000  1.0
  N  N381  1  0.41074000  0.40866000  0.11340000  1.0
  N  N382  1  0.41074000  0.90866000  0.38660000  1.0
  N  N383  1  0.58925000  0.59134000  0.88660000  1.0
  N  N384  1  0.10126000  0.27130000  0.50514000  1.0
  N  N385  1  0.89874000  0.22870000  0.00514000  1.0
  N  N386  1  0.89874000  0.72870000  0.49486000  1.0
  N  N387  1  0.10127000  0.77130000  0.99486000  1.0
  N  N388  1  0.96877000  0.60578000  0.38043000  1.0
  N  N389  1  0.03123000  0.89422000  0.88043000  1.0
  N  N390  1  0.03123000  0.39422000  0.61957000  1.0
  N  N391  1  0.96877000  0.10578000  0.11957000  1.0
  N  N392  1  0.67683000  0.24352000  0.54439000  1.0
  N  N393  1  0.32318000  0.25648000  0.04439000  1.0
  N  N394  1  0.32317000  0.75648000  0.45561000  1.0
  N  N395  1  0.67682000  0.74352000  0.95562000  1.0
  N  N396  1  0.07215000  0.86084000  0.22127000  1.0
  N  N397  1  0.92784000  0.63916000  0.72127000  1.0
  N  N398  1  0.92784000  0.13916000  0.77873000  1.0
  N  N399  1  0.07216000  0.36084000  0.27873000  1.0
  N  N400  1  0.92256000  0.91689000  0.59754000  1.0
  N  N401  1  0.07744000  0.58311000  0.09754000  1.0
  N  N402  1  0.07745000  0.08311000  0.40246000  1.0
  N  N403  1  0.92255000  0.41689000  0.90246000  1.0
  N  N404  1  0.78592000  0.96581000  0.80558000  1.0
  N  N405  1  0.21407000  0.53420000  0.30558000  1.0
  N  N406  1  0.21408000  0.03419000  0.19442000  1.0
  N  N407  1  0.78592000  0.46580000  0.69442000  1.0
  O  O408  1  0.98154000  0.06815000  0.67413000  1.0
  O  O409  1  0.01846000  0.43185000  0.17413000  1.0
  O  O410  1  0.01847000  0.93185000  0.32587000  1.0
  O  O411  1  0.98153000  0.56815000  0.82587000  1.0
