# generated using pymatgen
data_ZnH9C11(NO2)3
_symmetry_space_group_name_H-M   'P 1'
_cell_length_a   9.85055000
_cell_length_b   9.88133000
_cell_length_c   15.80300000
_cell_angle_alpha   103.57000000
_cell_angle_beta   90.00000000
_cell_angle_gamma   119.89700000
_symmetry_Int_Tables_number   1
_chemical_formula_structural   ZnH9C11(NO2)3
_chemical_formula_sum   'Zn4 H36 C44 N12 O24'
_cell_volume   1283.73908572
_cell_formula_units_Z   4
loop_
 _symmetry_equiv_pos_site_id
 _symmetry_equiv_pos_as_xyz
  1  'x, y, z'
loop_
 _atom_site_type_symbol
 _atom_site_label
 _atom_site_symmetry_multiplicity
 _atom_site_fract_x
 _atom_site_fract_y
 _atom_site_fract_z
 _atom_site_occupancy
  Zn  Zn0  1  0.21021000  0.27182000  0.78605000  1.0
  Zn  Zn1  1  0.93840000  0.72816000  0.71396000  1.0
  Zn  Zn2  1  0.78979000  0.72818000  0.21395000  1.0
  Zn  Zn3  1  0.06160000  0.27184000  0.28604000  1.0
  H  H4  1  0.17962000  0.30648000  0.63530000  1.0
  H  H5  1  0.87313000  0.69351000  0.86470000  1.0
  H  H6  1  0.82038000  0.69352000  0.36470000  1.0
  H  H7  1  0.12687000  0.30649000  0.13530000  1.0
  H  H8  1  0.23837000  0.48825000  0.68834000  1.0
  H  H9  1  0.75012000  0.51174000  0.81167000  1.0
  H  H10  1  0.76163000  0.51175000  0.31166000  1.0
  H  H11  1  0.24988000  0.48826000  0.18833000  1.0
  H  H12  1  0.20373000  0.04085000  0.84985000  1.0
  H  H13  1  0.16289000  0.95913000  0.65016000  1.0
  H  H14  1  0.79627000  0.95915000  0.15015000  1.0
  H  H15  1  0.83711000  0.04087000  0.34984000  1.0
  H  H16  1  0.07530000  0.06596000  0.89516000  1.0
  H  H17  1  0.00936000  0.93403000  0.60485000  1.0
  H  H18  1  0.92470000  0.93404000  0.10484000  1.0
  H  H19  1  0.99065000  0.06597000  0.39515000  1.0
  H  H20  1  0.77013000  0.28660000  0.76341000  1.0
  H  H21  1  0.48351000  0.71338000  0.73660000  1.0
  H  H22  1  0.22987000  0.71340000  0.23659000  1.0
  H  H23  1  0.51649000  0.28662000  0.26340000  1.0
  H  H24  1  0.01606000  0.52194000  0.40675000  1.0
  H  H25  1  0.49414000  0.47807000  0.09325000  1.0
  H  H26  1  0.98394000  0.47806000  0.59326000  1.0
  H  H27  1  0.50586000  0.52193000  0.90675000  1.0
  H  H28  1  0.18261000  0.77778000  0.52760000  1.0
  H  H29  1  0.40485000  0.22223000  0.97239000  1.0
  H  H30  1  0.81739000  0.22222000  0.47240000  1.0
  H  H31  1  0.59515000  0.77777000  0.02761000  1.0
  H  H32  1  0.57673000  0.70433000  0.48015000  1.0
  H  H33  1  0.87244000  0.29570000  0.01983000  1.0
  H  H34  1  0.42327000  0.29567000  0.51985000  1.0
  H  H35  1  0.12756000  0.70429000  0.98017000  1.0
  H  H36  1  0.39310000  0.45065000  0.36233000  1.0
  H  H37  1  0.94248000  0.54938000  0.13765000  1.0
  H  H38  1  0.60690000  0.54935000  0.63767000  1.0
  H  H39  1  0.05752000  0.45062000  0.86235000  1.0
  C  C40  1  0.53409000  0.13093000  0.68917000  1.0
  C  C41  1  0.40316000  0.86906000  0.81083000  1.0
  C  C42  1  0.46591000  0.86907000  0.31083000  1.0
  C  C43  1  0.59684000  0.13093000  0.18917000  1.0
  C  C44  1  0.69204000  0.17946000  0.71061000  1.0
  C  C45  1  0.51258000  0.82053000  0.78939000  1.0
  C  C46  1  0.30796000  0.82054000  0.28939000  1.0
  C  C47  1  0.48742000  0.17947000  0.21061000  1.0
  C  C48  1  0.74592000  0.08357000  0.66025000  1.0
  C  C49  1  0.66235000  0.91642000  0.83974000  1.0
  C  C50  1  0.25409000  0.91643000  0.33975000  1.0
  C  C51  1  0.33765000  0.08358000  0.16026000  1.0
  C  C52  1  0.49939000  0.91043000  0.58284000  1.0
  C  C53  1  0.58899000  0.08959000  0.91715000  1.0
  C  C54  1  0.50061000  0.08958000  0.41716000  1.0
  C  C55  1  0.41101000  0.91041000  0.08285000  1.0
  C  C56  1  0.46418000  0.22778000  0.73814000  1.0
  C  C57  1  0.23639000  0.77222000  0.76187000  1.0
  C  C58  1  0.53583000  0.77222000  0.26186000  1.0
  C  C59  1  0.76361000  0.22778000  0.23813000  1.0
  C  C60  1  0.91697000  0.13005000  0.67534000  1.0
  C  C61  1  0.78692000  0.86994000  0.82465000  1.0
  C  C62  1  0.08303000  0.86995000  0.32466000  1.0
  C  C63  1  0.21308000  0.13006000  0.17535000  1.0
  C  C64  1  0.14051000  0.56715000  0.42662000  1.0
  C  C65  1  0.57338000  0.43287000  0.07336000  1.0
  C  C66  1  0.85949000  0.43285000  0.57338000  1.0
  C  C67  1  0.42662000  0.56713000  0.92664000  1.0
  C  C68  1  0.23368000  0.70847000  0.49301000  1.0
  C  C69  1  0.52524000  0.29155000  0.00698000  1.0
  C  C70  1  0.76632000  0.29153000  0.50699000  1.0
  C  C71  1  0.47476000  0.70845000  0.99302000  1.0
  C  C72  1  0.39325000  0.75952000  0.51361000  1.0
  C  C73  1  0.63375000  0.24050000  0.98637000  1.0
  C  C74  1  0.60675000  0.24048000  0.48639000  1.0
  C  C75  1  0.36625000  0.75950000  0.01363000  1.0
  C  C76  1  0.45273000  0.66618000  0.46637000  1.0
  C  C77  1  0.78658000  0.33384000  0.03361000  1.0
  C  C78  1  0.54727000  0.33382000  0.53363000  1.0
  C  C79  1  0.21342000  0.66616000  0.96639000  1.0
  C  C80  1  0.35193000  0.52636000  0.40116000  1.0
  C  C81  1  0.82560000  0.47367000  0.09881000  1.0
  C  C82  1  0.64807000  0.47364000  0.59883000  1.0
  C  C83  1  0.17440000  0.52633000  0.90119000  1.0
  N  N84  1  0.43661000  0.99521000  0.62626000  1.0
  N  N85  1  0.44142000  0.00479000  0.87374000  1.0
  N  N86  1  0.56339000  0.00479000  0.37374000  1.0
  N  N87  1  0.55858000  0.99520000  0.12626000  1.0
  N  N88  1  0.65116000  0.95062000  0.59582000  1.0
  N  N89  1  0.70056000  0.04939000  0.90416000  1.0
  N  N90  1  0.34884000  0.04938000  0.40418000  1.0
  N  N91  1  0.29944000  0.95061000  0.09584000  1.0
  N  N92  1  0.19825000  0.47766000  0.38169000  1.0
  N  N93  1  0.72062000  0.52236000  0.11829000  1.0
  N  N94  1  0.80175000  0.52234000  0.61831000  1.0
  N  N95  1  0.27938000  0.47764000  0.88171000  1.0
  O  O96  1  0.31368000  0.16021000  0.71947000  1.0
  O  O97  1  0.15347000  0.83979000  0.78055000  1.0
  O  O98  1  0.68632000  0.83979000  0.28053000  1.0
  O  O99  1  0.84653000  0.16020000  0.21945000  1.0
  O  O100  1  0.55187000  0.36202000  0.79279000  1.0
  O  O101  1  0.18983000  0.63797000  0.70723000  1.0
  O  O102  1  0.44813000  0.63798000  0.20721000  1.0
  O  O103  1  0.81017000  0.36203000  0.29277000  1.0
  O  O104  1  0.97994000  0.19193000  0.75627000  1.0
  O  O105  1  0.78801000  0.80805000  0.74373000  1.0
  O  O106  1  0.02006000  0.80807000  0.24373000  1.0
  O  O107  1  0.21199000  0.19195000  0.25627000  1.0
  O  O108  1  0.98361000  0.10875000  0.60992000  1.0
  O  O109  1  0.87484000  0.89123000  0.89009000  1.0
  O  O110  1  0.01639000  0.89125000  0.39008000  1.0
  O  O111  1  0.12516000  0.10877000  0.10991000  1.0
  O  O112  1  0.26659000  0.40251000  0.67780000  1.0
  O  O113  1  0.86407000  0.59748000  0.82221000  1.0
  O  O114  1  0.73341000  0.59749000  0.32220000  1.0
  O  O115  1  0.13593000  0.40252000  0.17779000  1.0
  O  O116  1  0.18033000  0.12697000  0.87684000  1.0
  O  O117  1  0.05336000  0.87301000  0.62317000  1.0
  O  O118  1  0.81967000  0.87302000  0.12316000  1.0
  O  O119  1  0.94664000  0.12699000  0.37684000  1.0
