# generated using pymatgen
data_CdH6C6(N4O)2
_symmetry_space_group_name_H-M   'P 1'
_cell_length_a   7.68415000
_cell_length_b   7.79675000
_cell_length_c   18.17080000
_cell_angle_alpha   90.00000000
_cell_angle_beta   81.86610000
_cell_angle_gamma   89.99990000
_symmetry_Int_Tables_number   1
_chemical_formula_structural   CdH6C6(N4O)2
_chemical_formula_sum   'Cd4 H24 C24 N32 O8'
_cell_volume   1077.68643376
_cell_formula_units_Z   4
loop_
 _symmetry_equiv_pos_site_id
 _symmetry_equiv_pos_as_xyz
  1  'x, y, z'
loop_
 _atom_site_type_symbol
 _atom_site_label
 _atom_site_symmetry_multiplicity
 _atom_site_fract_x
 _atom_site_fract_y
 _atom_site_fract_z
 _atom_site_occupancy
  Cd  Cd0  1  0.98046000  0.82303000  0.24157000  1.0
  Cd  Cd1  1  0.01953000  0.32304000  0.25843000  1.0
  Cd  Cd2  1  0.01954000  0.17697000  0.75843000  1.0
  Cd  Cd3  1  0.98047000  0.67697000  0.74157000  1.0
  H  H4  1  0.41319000  0.20445000  0.47706000  1.0
  H  H5  1  0.58681000  0.70445000  0.02294000  1.0
  H  H6  1  0.58681000  0.79555000  0.52294000  1.0
  H  H7  1  0.41319000  0.29555000  0.97706000  1.0
  H  H8  1  0.55243000  0.21562000  0.34219000  1.0
  H  H9  1  0.44757000  0.71563000  0.15781000  1.0
  H  H10  1  0.44758000  0.78437000  0.65781000  1.0
  H  H11  1  0.55243000  0.28437000  0.84219000  1.0
  H  H12  1  0.47795000  0.98426000  0.25499000  1.0
  H  H13  1  0.52204000  0.48426000  0.24500000  1.0
  H  H14  1  0.52205000  0.01574000  0.74500000  1.0
  H  H15  1  0.47796000  0.51574000  0.75500000  1.0
  H  H16  1  0.14275000  0.74389000  0.42248000  1.0
  H  H17  1  0.85725000  0.24388000  0.07752000  1.0
  H  H18  1  0.85725000  0.25612000  0.57752000  1.0
  H  H19  1  0.14275000  0.75612000  0.92248000  1.0
  H  H20  1  0.74348000  0.05332000  0.18691000  1.0
  H  H21  1  0.25652000  0.55332000  0.31309000  1.0
  H  H22  1  0.25653000  0.94668000  0.81309000  1.0
  H  H23  1  0.74349000  0.44668000  0.68691000  1.0
  H  H24  1  0.74853000  0.89456000  0.13114000  1.0
  H  H25  1  0.25147000  0.39456000  0.36886000  1.0
  H  H26  1  0.25147000  0.10544000  0.86886000  1.0
  H  H27  1  0.74854000  0.60544000  0.63114000  1.0
  C  C28  1  0.19196000  0.95546000  0.53796000  1.0
  C  C29  1  0.80804000  0.45546000  0.96204000  1.0
  C  C30  1  0.80804000  0.04454000  0.46204000  1.0
  C  C31  1  0.19196000  0.54455000  0.03796000  1.0
  C  C32  1  0.27096000  0.97144000  0.46049000  1.0
  C  C33  1  0.72903000  0.47144000  0.03951000  1.0
  C  C34  1  0.72903000  0.02856000  0.53951000  1.0
  C  C35  1  0.27096000  0.52856000  0.96049000  1.0
  C  C36  1  0.38483000  0.10786000  0.43698000  1.0
  C  C37  1  0.61517000  0.60787000  0.06302000  1.0
  C  C38  1  0.61518000  0.89213000  0.56302000  1.0
  C  C39  1  0.38483000  0.39214000  0.93698000  1.0
  C  C40  1  0.46153000  0.11398000  0.36293000  1.0
  C  C41  1  0.53847000  0.61399000  0.13707000  1.0
  C  C42  1  0.53847000  0.88601000  0.63707000  1.0
  C  C43  1  0.46153000  0.38601000  0.86293000  1.0
  C  C44  1  0.42178000  0.99009000  0.31326000  1.0
  C  C45  1  0.57822000  0.49009000  0.18674000  1.0
  C  C46  1  0.57822000  0.00990000  0.68674000  1.0
  C  C47  1  0.42178000  0.50991000  0.81326000  1.0
  C  C48  1  0.23393000  0.84954000  0.40897000  1.0
  C  C49  1  0.76607000  0.34954000  0.09103000  1.0
  C  C50  1  0.76607000  0.15046000  0.59103000  1.0
  C  C51  1  0.23394000  0.65046000  0.90897000  1.0
  N  N52  1  0.10971000  0.01832000  0.65050000  1.0
  N  N53  1  0.89029000  0.51832000  0.84950000  1.0
  N  N54  1  0.89029000  0.98168000  0.34950000  1.0
  N  N55  1  0.10971000  0.48168000  0.15050000  1.0
  N  N56  1  0.18403000  0.08632000  0.58690000  1.0
  N  N57  1  0.81597000  0.58632000  0.91310000  1.0
  N  N58  1  0.81596000  0.91368000  0.41310000  1.0
  N  N59  1  0.18404000  0.41368000  0.08690000  1.0
  N  N60  1  0.12370000  0.80915000  0.57005000  1.0
  N  N61  1  0.87630000  0.30914000  0.92995000  1.0
  N  N62  1  0.87630000  0.19085000  0.42995000  1.0
  N  N63  1  0.12370000  0.69086000  0.07005000  1.0
  N  N64  1  0.07358000  0.85282000  0.64052000  1.0
  N  N65  1  0.92642000  0.35281000  0.85948000  1.0
  N  N66  1  0.92642000  0.14719000  0.35948000  1.0
  N  N67  1  0.07357000  0.64719000  0.14051000  1.0
  N  N68  1  0.30728000  0.86240000  0.33680000  1.0
  N  N69  1  0.69272000  0.36240000  0.16320000  1.0
  N  N70  1  0.69272000  0.13760000  0.66320000  1.0
  N  N71  1  0.30728000  0.63760000  0.83680000  1.0
  N  N72  1  0.86625000  0.57331000  0.30084000  1.0
  N  N73  1  0.13374000  0.07331000  0.19916000  1.0
  N  N74  1  0.13374000  0.42669000  0.69916000  1.0
  N  N75  1  0.86626000  0.92669000  0.80084000  1.0
  N  N76  1  0.72963000  0.56408000  0.34315000  1.0
  N  N77  1  0.27035000  0.06407000  0.15685000  1.0
  N  N78  1  0.27036000  0.43592000  0.65685000  1.0
  N  N79  1  0.72964000  0.93593000  0.84315000  1.0
  N  N80  1  0.59786000  0.55350000  0.38314000  1.0
  N  N81  1  0.40213000  0.05350000  0.11686000  1.0
  N  N82  1  0.40214000  0.44650000  0.61686000  1.0
  N  N83  1  0.59786000  0.94651000  0.88314000  1.0
  O  O84  1  0.26343000  0.75031000  0.28720000  1.0
  O  O85  1  0.73656000  0.25031000  0.21279000  1.0
  O  O86  1  0.73657000  0.24968000  0.71280000  1.0
  O  O87  1  0.26344000  0.74969000  0.78720000  1.0
  O  O88  1  0.74593000  0.92379000  0.18332000  1.0
  O  O89  1  0.25407000  0.42379000  0.31668000  1.0
  O  O90  1  0.25408000  0.07621000  0.81668000  1.0
  O  O91  1  0.74592000  0.57621000  0.68332000  1.0
