# generated using pymatgen
data_Zn2H33C50N9O14
_symmetry_space_group_name_H-M   'P 1'
_cell_length_a   15.94730000
_cell_length_b   16.05750000
_cell_length_c   17.16070000
_cell_angle_alpha   86.95570000
_cell_angle_beta   89.05800000
_cell_angle_gamma   87.58220000
_symmetry_Int_Tables_number   1
_chemical_formula_structural   Zn2H33C50N9O14
_chemical_formula_sum   'Zn2 H33 C50 N9 O14'
_cell_volume   4383.85305124
_cell_formula_units_Z   1
loop_
 _symmetry_equiv_pos_site_id
 _symmetry_equiv_pos_as_xyz
  1  'x, y, z'
loop_
 _atom_site_type_symbol
 _atom_site_label
 _atom_site_symmetry_multiplicity
 _atom_site_fract_x
 _atom_site_fract_y
 _atom_site_fract_z
 _atom_site_occupancy
  Zn  Zn0  1  0.49338000  0.59239000  0.49960000  1.0
  Zn  Zn1  1  0.51491000  0.41793000  0.49176000  1.0
  H  H2  1  0.08210000  0.53305000  0.38212000  1.0
  H  H3  1  0.93655000  0.55774000  0.38216000  1.0
  H  H4  1  0.91777000  0.37699000  0.52854000  1.0
  H  H5  1  0.92527000  0.40496000  0.42804000  1.0
  H  H6  1  0.07107000  0.38229000  0.43374000  1.0
  H  H7  1  0.06411000  0.35924000  0.53527000  1.0
  H  H8  1  0.93542000  0.59391000  0.59604000  1.0
  H  H9  1  0.92793000  0.48805000  0.62772000  1.0
  H  H10  1  0.08183000  0.57915000  0.59358000  1.0
  H  H11  1  0.94464000  0.63404000  0.45173000  1.0
  H  H12  1  0.09078000  0.61308000  0.44777000  1.0
  H  H13  1  0.07441000  0.47459000  0.62988000  1.0
  H  H14  1  0.56981000  0.59827000  0.73977000  1.0
  H  H15  1  0.57065000  0.59178000  0.88671000  1.0
  H  H16  1  0.51511000  0.66109000  0.09479000  1.0
  H  H17  1  0.50898000  0.66190000  0.24187000  1.0
  H  H18  1  0.46021000  0.35832000  0.74377000  1.0
  H  H19  1  0.49274000  0.39504000  0.10816000  1.0
  H  H20  1  0.45996000  0.35214000  0.89062000  1.0
  H  H21  1  0.49052000  0.39555000  0.25457000  1.0
  H  H22  1  0.53997000  0.72347000  0.39985000  1.0
  H  H23  1  0.53704000  0.88094000  0.38298000  1.0
  H  H24  1  0.44160000  0.30133000  0.59401000  1.0
  H  H25  1  0.48748000  0.08643000  0.31806000  1.0
  H  H26  1  0.56826000  0.99979000  0.22471000  1.0
  H  H27  1  0.71516000  0.95058000  0.25432000  1.0
  H  H28  1  0.78137000  0.98988000  0.37688000  1.0
  H  H29  1  0.70163000  0.07897000  0.46875000  1.0
  H  H30  1  0.47247000  0.76247000  0.71873000  1.0
  H  H31  1  0.39943000  0.68294000  0.82550000  1.0
  H  H32  1  0.28077000  0.59469000  0.79580000  1.0
  H  H33  1  0.23457000  0.58698000  0.65803000  1.0
  H  H34  1  0.30702000  0.66637000  0.55162000  1.0
  C  C35  1  0.50114000  0.52645000  0.34387000  1.0
  C  C36  1  0.66520000  0.51922000  0.49510000  1.0
  C  C37  1  0.50799000  0.48749000  0.64666000  1.0
  C  C38  1  0.34389000  0.47491000  0.49553000  1.0
  C  C39  1  0.96276000  0.56927000  0.43920000  1.0
  C  C40  1  0.94905000  0.41868000  0.48549000  1.0
  C  C41  1  0.04553000  0.40561000  0.48867000  1.0
  C  C42  1  0.25336000  0.47462000  0.50012000  1.0
  C  C43  1  0.92250000  0.51016000  0.50206000  1.0
  C  C44  1  0.05923000  0.55497000  0.43851000  1.0
  C  C45  1  0.08617000  0.48901000  0.50367000  1.0
  C  C46  1  0.05325000  0.51970000  0.58314000  1.0
  C  C47  1  0.95623000  0.52999000  0.58294000  1.0
  C  C48  1  0.17708000  0.47954000  0.50323000  1.0
  C  C49  1  0.83164000  0.51988000  0.50064000  1.0
  C  C50  1  0.75544000  0.52265000  0.49792000  1.0
  C  C51  1  0.50013000  0.52858000  0.25655000  1.0
  C  C52  1  0.49507000  0.45330000  0.21885000  1.0
  C  C53  1  0.49672000  0.45276000  0.13818000  1.0
  C  C54  1  0.50490000  0.52820000  0.09361000  1.0
  C  C55  1  0.50902000  0.60366000  0.13097000  1.0
  C  C56  1  0.50596000  0.60389000  0.21204000  1.0
  C  C57  1  0.54599000  0.54174000  0.85454000  1.0
  C  C58  1  0.54575000  0.54498000  0.77372000  1.0
  C  C59  1  0.51238000  0.47287000  0.89652000  1.0
  C  C60  1  0.51318000  0.47978000  0.73357000  1.0
  C  C61  1  0.48384000  0.40927000  0.77546000  1.0
  C  C62  1  0.48372000  0.40564000  0.85661000  1.0
  C  C63  1  0.46953000  0.25560000  0.55565000  1.0
  C  C64  1  0.45184000  0.17211000  0.56451000  1.0
  C  C65  1  0.48775000  0.11331000  0.51448000  1.0
  C  C66  1  0.54300000  0.14247000  0.45442000  1.0
  C  C67  1  0.55527000  0.22844000  0.45112000  1.0
  C  C68  1  0.50947000  0.84913000  0.43423000  1.0
  C  C69  1  0.51099000  0.76295000  0.44337000  1.0
  C  C70  1  0.47204000  0.89615000  0.49281000  1.0
  C  C71  1  0.43768000  0.76520000  0.56292000  1.0
  C  C72  1  0.43750000  0.85295000  0.55792000  1.0
  C  C73  1  0.58916000  0.08752000  0.39958000  1.0
  C  C74  1  0.55181000  0.06507000  0.33070000  1.0
  C  C75  1  0.59729000  0.01623000  0.27858000  1.0
  C  C76  1  0.67973000  0.98875000  0.29516000  1.0
  C  C77  1  0.71698000  0.01083000  0.36381000  1.0
  C  C78  1  0.67224000  0.06072000  0.41565000  1.0
  C  C79  1  0.39442000  0.71956000  0.62811000  1.0
  C  C80  1  0.41971000  0.72482000  0.70565000  1.0
  C  C81  1  0.37855000  0.68011000  0.76557000  1.0
  C  C82  1  0.31202000  0.63040000  0.74877000  1.0
  C  C83  1  0.28610000  0.62600000  0.67184000  1.0
  C  C84  1  0.32675000  0.67069000  0.61160000  1.0
  N  N85  1  0.51028000  0.53462000  0.01128000  1.0
  N  N86  1  0.50527000  0.46599000  0.97860000  1.0
  N  N87  1  0.52105000  0.28401000  0.49828000  1.0
  N  N88  1  0.48036000  0.02777000  0.53270000  1.0
  N  N89  1  0.46761000  0.98345000  0.47631000  1.0
  N  N90  1  0.47495000  0.72208000  0.50510000  1.0
  N  N91  1  0.61097000  0.26281000  0.38786000  1.0
  N  N92  1  0.39073000  0.14727000  0.62529000  1.0
  N  N93  1  0.39114000  0.89807000  0.61919000  1.0
  O  O94  1  0.48778000  0.59463000  0.37754000  1.0
  O  O95  1  0.51603000  0.45477000  0.37783000  1.0
  O  O96  1  0.62267000  0.58765000  0.48396000  1.0
  O  O97  1  0.63652000  0.44615000  0.50444000  1.0
  O  O98  1  0.51413000  0.56033000  0.61452000  1.0
  O  O99  1  0.49685000  0.42126000  0.61087000  1.0
  O  O100  1  0.37543000  0.54604000  0.50107000  1.0
  O  O101  1  0.38457000  0.40613000  0.48654000  1.0
  O  O102  1  0.68355000  0.27519000  0.40615000  1.0
  O  O103  1  0.57932000  0.27380000  0.32287000  1.0
  O  O104  1  0.34934000  0.08582000  0.61296000  1.0
  O  O105  1  0.38437000  0.18997000  0.68319000  1.0
  O  O106  1  0.31556000  0.91203000  0.60802000  1.0
  O  O107  1  0.43118000  0.91574000  0.67653000  1.0
