# generated using pymatgen
data_CdH12C14(NO2)2
_symmetry_space_group_name_H-M   'P 1'
_cell_length_a   4.42745000
_cell_length_b   8.95975000
_cell_length_c   15.81790000
_cell_angle_alpha   105.39400000
_cell_angle_beta   89.99990000
_cell_angle_gamma   90.00000000
_symmetry_Int_Tables_number   1
_chemical_formula_structural   CdH12C14(NO2)2
_chemical_formula_sum   'Cd2 H24 C28 N4 O8'
_cell_volume   604.96593402
_cell_formula_units_Z   2
loop_
 _symmetry_equiv_pos_site_id
 _symmetry_equiv_pos_as_xyz
  1  'x, y, z'
loop_
 _atom_site_type_symbol
 _atom_site_label
 _atom_site_symmetry_multiplicity
 _atom_site_fract_x
 _atom_site_fract_y
 _atom_site_fract_z
 _atom_site_occupancy
  Cd  Cd0  1  0.00000000  0.00000000  0.50000000  1.0
  Cd  Cd1  1  0.50000000  0.50000000  0.00000000  1.0
  H  H2  1  0.40732000  0.76626000  0.43241000  1.0
  H  H3  1  0.90732000  0.73374000  0.06759000  1.0
  H  H4  1  0.59268000  0.23374000  0.56759000  1.0
  H  H5  1  0.09268000  0.26626000  0.93241000  1.0
  H  H6  1  0.21359000  0.71953000  0.51154000  1.0
  H  H7  1  0.71359000  0.78047000  0.98846000  1.0
  H  H8  1  0.78641000  0.28047000  0.48846000  1.0
  H  H9  1  0.28641000  0.21953000  0.01154000  1.0
  H  H10  1  0.25580000  0.68523000  0.27882000  1.0
  H  H11  1  0.75580000  0.81477000  0.22119000  1.0
  H  H12  1  0.74420000  0.31477000  0.72119000  1.0
  H  H13  1  0.24420000  0.18523000  0.77881000  1.0
  H  H14  1  0.59370000  0.32222000  0.21398000  1.0
  H  H15  1  0.09370000  0.17779000  0.28602000  1.0
  H  H16  1  0.40630000  0.67778000  0.78602000  1.0
  H  H17  1  0.90630000  0.82221000  0.71398000  1.0
  H  H18  1  0.49146000  0.35498000  0.37257000  1.0
  H  H19  1  0.99146000  0.14502000  0.12743000  1.0
  H  H20  1  0.50854000  0.64502000  0.62743000  1.0
  H  H21  1  0.00854000  0.85498000  0.87257000  1.0
  H  H22  1  0.76710000  0.55927000  0.48511000  1.0
  H  H23  1  0.26711000  0.94074000  0.01489000  1.0
  H  H24  1  0.23289000  0.44073000  0.51489000  1.0
  H  H25  1  0.73290000  0.05927000  0.98511000  1.0
  C  C26  1  0.03314000  0.63298000  0.38940000  1.0
  C  C27  1  0.53315000  0.86702000  0.11060000  1.0
  C  C28  1  0.96686000  0.36701000  0.61060000  1.0
  C  C29  1  0.46686000  0.13298000  0.88940000  1.0
  C  C30  1  0.08819000  0.61405000  0.30028000  1.0
  C  C31  1  0.58820000  0.88595000  0.19972000  1.0
  C  C32  1  0.91180000  0.38595000  0.69972000  1.0
  C  C33  1  0.41180000  0.11405000  0.80028000  1.0
  C  C34  1  0.92886000  0.50274000  0.23736000  1.0
  C  C35  1  0.42886000  0.99726000  0.26264000  1.0
  C  C36  1  0.07114000  0.49726000  0.76264000  1.0
  C  C37  1  0.57114000  0.00274000  0.73736000  1.0
  C  C38  1  0.71558000  0.40862000  0.26353000  1.0
  C  C39  1  0.21558000  0.09138000  0.23647000  1.0
  C  C40  1  0.28443000  0.59138000  0.73647000  1.0
  C  C41  1  0.78443000  0.90862000  0.76353000  1.0
  C  C42  1  0.65940000  0.42788000  0.35243000  1.0
  C  C43  1  0.15940000  0.07212000  0.14757000  1.0
  C  C44  1  0.34060000  0.57211000  0.64757000  1.0
  C  C45  1  0.84060000  0.92788000  0.85243000  1.0
  C  C46  1  0.81431000  0.54094000  0.41539000  1.0
  C  C47  1  0.31431000  0.95907000  0.08461000  1.0
  C  C48  1  0.18569000  0.45906000  0.58461000  1.0
  C  C49  1  0.68569000  0.04094000  0.91539000  1.0
  C  C50  1  0.98608000  0.48549000  0.14168000  1.0
  C  C51  1  0.48607000  0.01451000  0.35832000  1.0
  C  C52  1  0.01393000  0.51451000  0.85832000  1.0
  C  C53  1  0.51393000  0.98549000  0.64168000  1.0
  N  N54  1  0.19515000  0.74646000  0.45301000  1.0
  N  N55  1  0.69515000  0.75354000  0.04699000  1.0
  N  N56  1  0.80485000  0.25354000  0.54699000  1.0
  N  N57  1  0.30486000  0.24646000  0.95301000  1.0
  O  O58  1  0.18775000  0.57279000  0.12207000  1.0
  O  O59  1  0.68775000  0.92722000  0.37793000  1.0
  O  O60  1  0.81225000  0.42722000  0.87793000  1.0
  O  O61  1  0.31225000  0.07278000  0.62207000  1.0
  O  O62  1  0.82830000  0.38716000  0.08565000  1.0
  O  O63  1  0.32830000  0.11284000  0.41435000  1.0
  O  O64  1  0.17170000  0.61284000  0.91435000  1.0
  O  O65  1  0.67170000  0.88716000  0.58565000  1.0
