# generated using pymatgen
data_AgH11C15(N3O)2
_symmetry_space_group_name_H-M   'P 1'
_cell_length_a   7.77605000
_cell_length_b   8.90051000
_cell_length_c   10.78450000
_cell_angle_alpha   104.58000000
_cell_angle_beta   93.80010000
_cell_angle_gamma   99.01490000
_symmetry_Int_Tables_number   1
_chemical_formula_structural   AgH11C15(N3O)2
_chemical_formula_sum   'Ag2 H22 C30 N12 O4'
_cell_volume   709.06737905
_cell_formula_units_Z   2
loop_
 _symmetry_equiv_pos_site_id
 _symmetry_equiv_pos_as_xyz
  1  'x, y, z'
loop_
 _atom_site_type_symbol
 _atom_site_label
 _atom_site_symmetry_multiplicity
 _atom_site_fract_x
 _atom_site_fract_y
 _atom_site_fract_z
 _atom_site_occupancy
  Ag  Ag0  1  0.41700000  0.15111000  0.28010000  1.0
  Ag  Ag1  1  0.58300000  0.84888000  0.71991000  1.0
  H  H2  1  0.69706000  0.04497000  0.06270000  1.0
  H  H3  1  0.30293000  0.95503000  0.93729000  1.0
  H  H4  1  0.03431000  0.34675000  0.96490000  1.0
  H  H5  1  0.96569000  0.65325000  0.03510000  1.0
  H  H6  1  0.92828000  0.14528000  0.91041000  1.0
  H  H7  1  0.07172000  0.85472000  0.08958000  1.0
  H  H8  1  0.49574000  0.79177000  0.09794000  1.0
  H  H9  1  0.50426000  0.20823000  0.90206000  1.0
  H  H10  1  0.41890000  0.50653000  0.09319000  1.0
  H  H11  1  0.58109000  0.49346000  0.90681000  1.0
  H  H12  1  0.26509000  0.43371000  0.27210000  1.0
  H  H13  1  0.73491000  0.56629000  0.72790000  1.0
  H  H14  1  0.13567000  0.51859000  0.47559000  1.0
  H  H15  1  0.86433000  0.48141000  0.52441000  1.0
  H  H16  1  0.05418000  0.73447000  0.64705000  1.0
  H  H17  1  0.94582000  0.26553000  0.35295000  1.0
  H  H18  1  0.06806000  0.01378000  0.74553000  1.0
  H  H19  1  0.93194000  0.98622000  0.25447000  1.0
  H  H20  1  0.16514000  0.29725000  0.73987000  1.0
  H  H21  1  0.83487000  0.70275000  0.26013000  1.0
  H  H22  1  0.31729000  0.34914000  0.55622000  1.0
  H  H23  1  0.68272000  0.65086000  0.44378000  1.0
  C  C24  1  0.71948000  0.17286000  0.10486000  1.0
  C  C25  1  0.28052000  0.82714000  0.89514000  1.0
  C  C26  1  0.98579000  0.24107000  0.99583000  1.0
  C  C27  1  0.01421000  0.75894000  0.00417000  1.0
  C  C28  1  0.14021000  0.18871000  0.06234000  1.0
  C  C29  1  0.85979000  0.81128000  0.93766000  1.0
  C  C30  1  0.42302000  0.75685000  0.17228000  1.0
  C  C31  1  0.57698000  0.24315000  0.82772000  1.0
  C  C32  1  0.38263000  0.59665000  0.17063000  1.0
  C  C33  1  0.61737000  0.40335000  0.82937000  1.0
  C  C34  1  0.29805000  0.55660000  0.26940000  1.0
  C  C35  1  0.70194000  0.44340000  0.73059000  1.0
  C  C36  1  0.25476000  0.67647000  0.36913000  1.0
  C  C37  1  0.74524000  0.32353000  0.63087000  1.0
  C  C38  1  0.16740000  0.64160000  0.47366000  1.0
  C  C39  1  0.83259000  0.35840000  0.52634000  1.0
  C  C40  1  0.12448000  0.75904000  0.56806000  1.0
  C  C41  1  0.87552000  0.24096000  0.43194000  1.0
  C  C42  1  0.17194000  0.92070000  0.56725000  1.0
  C  C43  1  0.82806000  0.07930000  0.43276000  1.0
  C  C44  1  0.13564000  0.04402000  0.66731000  1.0
  C  C45  1  0.86437000  0.95598000  0.33270000  1.0
  C  C46  1  0.18772000  0.19830000  0.66392000  1.0
  C  C47  1  0.81228000  0.80170000  0.33608000  1.0
  C  C48  1  0.27302000  0.22782000  0.55946000  1.0
  C  C49  1  0.72699000  0.77218000  0.44055000  1.0
  C  C50  1  0.25921000  0.96095000  0.46505000  1.0
  C  C51  1  0.74079000  0.03905000  0.53495000  1.0
  C  C52  1  0.29919000  0.83542000  0.36239000  1.0
  C  C53  1  0.70082000  0.16459000  0.63762000  1.0
  N  N54  1  0.84789000  0.27480000  0.07715000  1.0
  N  N55  1  0.15211000  0.72520000  0.92285000  1.0
  N  N56  1  0.84096000  0.42242000  0.14785000  1.0
  N  N57  1  0.15904000  0.57758000  0.85215000  1.0
  N  N58  1  0.71016000  0.40991000  0.21624000  1.0
  N  N59  1  0.28984000  0.59009000  0.78376000  1.0
  N  N60  1  0.63203000  0.25569000  0.19124000  1.0
  N  N61  1  0.36796000  0.74431000  0.80876000  1.0
  N  N62  1  0.38063000  0.87232000  0.26380000  1.0
  N  N63  1  0.61938000  0.12768000  0.73620000  1.0
  N  N64  1  0.30697000  0.11378000  0.46234000  1.0
  N  N65  1  0.69303000  0.88622000  0.53767000  1.0
  O  O66  1  0.12526000  0.16768000  0.17352000  1.0
  O  O67  1  0.87474000  0.83232000  0.82647000  1.0
  O  O68  1  0.26592000  0.17037000  0.99564000  1.0
  O  O69  1  0.73408000  0.82963000  0.00436000  1.0
