# generated using pymatgen
data_SrH7C7NO6
_symmetry_space_group_name_H-M   'P 1'
_cell_length_a   7.77135000
_cell_length_b   8.07467000
_cell_length_c   8.07734000
_cell_angle_alpha   88.24230000
_cell_angle_beta   71.45190000
_cell_angle_gamma   71.94870000
_symmetry_Int_Tables_number   1
_chemical_formula_structural   SrH7C7NO6
_chemical_formula_sum   'Sr2 H14 C14 N2 O12'
_cell_volume   455.58381853
_cell_formula_units_Z   2
loop_
 _symmetry_equiv_pos_site_id
 _symmetry_equiv_pos_as_xyz
  1  'x, y, z'
loop_
 _atom_site_type_symbol
 _atom_site_label
 _atom_site_symmetry_multiplicity
 _atom_site_fract_x
 _atom_site_fract_y
 _atom_site_fract_z
 _atom_site_occupancy
  Sr  Sr0  1  0.69303000  0.64892000  0.37221000  1.0
  Sr  Sr1  1  0.30697000  0.35108000  0.62779000  1.0
  H  H2  1  0.65277000  0.28893000  0.83657000  1.0
  H  H3  1  0.34723000  0.71107000  0.16343000  1.0
  H  H4  1  0.78755000  0.73384000  0.88346000  1.0
  H  H5  1  0.21245000  0.26616000  0.11654000  1.0
  H  H6  1  0.70010000  0.05697000  0.31362000  1.0
  H  H7  1  0.29991000  0.94303000  0.68638000  1.0
  H  H8  1  0.13633000  0.56166000  0.11888000  1.0
  H  H9  1  0.86367000  0.43834000  0.88112000  1.0
  H  H10  1  0.99031000  0.28084000  0.43287000  1.0
  H  H11  1  0.00968000  0.71917000  0.56713000  1.0
  H  H12  1  0.77980000  0.26545000  0.51494000  1.0
  H  H13  1  0.22020000  0.73456000  0.48507000  1.0
  H  H14  1  0.11577000  0.58574000  0.32215000  1.0
  H  H15  1  0.88423000  0.41426000  0.67785000  1.0
  C  C16  1  0.71285000  0.98716000  0.65591000  1.0
  C  C17  1  0.28715000  0.01283000  0.34409000  1.0
  C  C18  1  0.72378000  0.00868000  0.83618000  1.0
  C  C19  1  0.27622000  0.99132000  0.16382000  1.0
  C  C20  1  0.68462000  0.17548000  0.91110000  1.0
  C  C21  1  0.31538000  0.82452000  0.08890000  1.0
  C  C22  1  0.67801000  0.19476000  0.08395000  1.0
  C  C23  1  0.32198000  0.80524000  0.91605000  1.0
  C  C24  1  0.75708000  0.86582000  0.93807000  1.0
  C  C25  1  0.24292000  0.13418000  0.06193000  1.0
  C  C26  1  0.63688000  0.36956000  0.17246000  1.0
  C  C27  1  0.36311000  0.63044000  0.82754000  1.0
  C  C28  1  0.70916000  0.04489000  0.17635000  1.0
  C  C29  1  0.29085000  0.95511000  0.82365000  1.0
  N  N30  1  0.74806000  0.88322000  0.10617000  1.0
  N  N31  1  0.25194000  0.11679000  0.89383000  1.0
  O  O32  1  0.53045000  0.40343000  0.33146000  1.0
  O  O33  1  0.46954000  0.59657000  0.66853000  1.0
  O  O34  1  0.63734000  0.12524000  0.58950000  1.0
  O  O35  1  0.36266000  0.87477000  0.41051000  1.0
  O  O36  1  0.71464000  0.47769000  0.08664000  1.0
  O  O37  1  0.28536000  0.52231000  0.91336000  1.0
  O  O38  1  0.77534000  0.83459000  0.57994000  1.0
  O  O39  1  0.22466000  0.16542000  0.42006000  1.0
  O  O40  1  0.85220000  0.34953000  0.48058000  1.0
  O  O41  1  0.14779000  0.65047000  0.51942000  1.0
  O  O42  1  0.05102000  0.56415000  0.24160000  1.0
  O  O43  1  0.94898000  0.43585000  0.75840000  1.0
