# generated using pymatgen
data_CuH12C14(NO2)2
_symmetry_space_group_name_H-M   'P 1'
_cell_length_a   7.69642000
_cell_length_b   12.73030000
_cell_length_c   14.00500000
_cell_angle_alpha   108.09200000
_cell_angle_beta   90.00000000
_cell_angle_gamma   90.00000000
_symmetry_Int_Tables_number   1
_chemical_formula_structural   CuH12C14(NO2)2
_chemical_formula_sum   'Cu4 H48 C56 N8 O16'
_cell_volume   1304.33646290
_cell_formula_units_Z   4
loop_
 _symmetry_equiv_pos_site_id
 _symmetry_equiv_pos_as_xyz
  1  'x, y, z'
loop_
 _atom_site_type_symbol
 _atom_site_label
 _atom_site_symmetry_multiplicity
 _atom_site_fract_x
 _atom_site_fract_y
 _atom_site_fract_z
 _atom_site_occupancy
  Cu  Cu0  1  0.98107000  0.10229000  0.31963000  1.0
  Cu  Cu1  1  0.48107000  0.39771000  0.18037000  1.0
  Cu  Cu2  1  0.01893000  0.89771000  0.68037000  1.0
  Cu  Cu3  1  0.51893000  0.60229000  0.81963000  1.0
  H  H4  1  0.99808000  0.13274000  0.13961000  1.0
  H  H5  1  0.49808000  0.36726000  0.36039000  1.0
  H  H6  1  0.00192000  0.86726000  0.86040000  1.0
  H  H7  1  0.50192000  0.63274000  0.63961000  1.0
  H  H8  1  0.13837000  0.21947000  0.21500000  1.0
  H  H9  1  0.63837000  0.28053000  0.28500000  1.0
  H  H10  1  0.86163000  0.78052000  0.78500000  1.0
  H  H11  1  0.36163000  0.71948000  0.71500000  1.0
  H  H12  1  0.63333000  0.86555000  0.07056000  1.0
  H  H13  1  0.13334000  0.63446000  0.42944000  1.0
  H  H14  1  0.36666000  0.13445000  0.92943000  1.0
  H  H15  1  0.86666000  0.36555000  0.57057000  1.0
  H  H16  1  0.10660000  0.95275000  0.02695000  1.0
  H  H17  1  0.60660000  0.54725000  0.47305000  1.0
  H  H18  1  0.89340000  0.04725000  0.97305000  1.0
  H  H19  1  0.39340000  0.45275000  0.52695000  1.0
  H  H20  1  0.40362000  0.16057000  0.27376000  1.0
  H  H21  1  0.90362000  0.33943000  0.22624000  1.0
  H  H22  1  0.59638000  0.83942000  0.72624000  1.0
  H  H23  1  0.09638000  0.66058000  0.77376000  1.0
  H  H24  1  0.10459000  0.87676000  0.22829000  1.0
  H  H25  1  0.60458000  0.62324000  0.27171000  1.0
  H  H26  1  0.89541000  0.12324000  0.77171000  1.0
  H  H27  1  0.39541000  0.37676000  0.72829000  1.0
  H  H28  1  0.27912000  0.73762000  0.28027000  1.0
  H  H29  1  0.77912000  0.76238000  0.21973000  1.0
  H  H30  1  0.72088000  0.26237000  0.71973000  1.0
  H  H31  1  0.22088000  0.23762000  0.78027000  1.0
  H  H32  1  0.33836000  0.98207000  0.57108000  1.0
  H  H33  1  0.83836000  0.51793000  0.92892000  1.0
  H  H34  1  0.66164000  0.01793000  0.42892000  1.0
  H  H35  1  0.16164000  0.48207000  0.07108000  1.0
  H  H36  1  0.15729000  0.10991000  0.50791000  1.0
  H  H37  1  0.65729000  0.39009000  0.99209000  1.0
  H  H38  1  0.84272000  0.89009000  0.49209000  1.0
  H  H39  1  0.34271000  0.60991000  0.00790000  1.0
  H  H40  1  0.56916000  0.79401000  0.47230000  1.0
  H  H41  1  0.06916000  0.70599000  0.02770000  1.0
  H  H42  1  0.43084000  0.20599000  0.52770000  1.0
  H  H43  1  0.93084000  0.29401000  0.97230000  1.0
  H  H44  1  0.42247000  0.68498000  0.41306000  1.0
  H  H45  1  0.92248000  0.81502000  0.08694000  1.0
  H  H46  1  0.57753000  0.31502000  0.58694000  1.0
  H  H47  1  0.07753000  0.18498000  0.91306000  1.0
  H  H48  1  0.39064000  0.77024000  0.54043000  1.0
  H  H49  1  0.89064000  0.72976000  0.95956000  1.0
  H  H50  1  0.60936000  0.22976000  0.45957000  1.0
  H  H51  1  0.10936000  0.27024000  0.04043000  1.0
  C  C52  1  0.70131000  0.04632000  0.23439000  1.0
  C  C53  1  0.20131000  0.45368000  0.26561000  1.0
  C  C54  1  0.29869000  0.95368000  0.76560000  1.0
  C  C55  1  0.79869000  0.54632000  0.73440000  1.0
  C  C56  1  0.35126000  0.80129000  0.94787000  1.0
  C  C57  1  0.85126000  0.69871000  0.55213000  1.0
  C  C58  1  0.64874000  0.19871000  0.05213000  1.0
  C  C59  1  0.14874000  0.30129000  0.44787000  1.0
  C  C60  1  0.53674000  0.01635000  0.17792000  1.0
  C  C61  1  0.03674000  0.48365000  0.32207000  1.0
  C  C62  1  0.46326000  0.98365000  0.82207000  1.0
  C  C63  1  0.96326000  0.51635000  0.67793000  1.0
  C  C64  1  0.52322000  0.92086000  0.09495000  1.0
  C  C65  1  0.02322000  0.57914000  0.40505000  1.0
  C  C66  1  0.47678000  0.07914000  0.90505000  1.0
  C  C67  1  0.97678000  0.42086000  0.59495000  1.0
  C  C68  1  0.36761000  0.89937000  0.04097000  1.0
  C  C69  1  0.86761000  0.60063000  0.45902000  1.0
  C  C70  1  0.63238000  0.10063000  0.95903000  1.0
  C  C71  1  0.13239000  0.39937000  0.54098000  1.0
  C  C72  1  0.22605000  0.97146000  0.07070000  1.0
  C  C73  1  0.72605000  0.52854000  0.42929000  1.0
  C  C74  1  0.77395000  0.02854000  0.92929000  1.0
  C  C75  1  0.27395000  0.47146000  0.57071000  1.0
  C  C76  1  0.23864000  0.06612000  0.15439000  1.0
  C  C77  1  0.73864000  0.43388000  0.34561000  1.0
  C  C78  1  0.76136000  0.93388000  0.84561000  1.0
  C  C79  1  0.26136000  0.56612000  0.65439000  1.0
  C  C80  1  0.39555000  0.08799000  0.20763000  1.0
  C  C81  1  0.89555000  0.41201000  0.29237000  1.0
  C  C82  1  0.60444000  0.91201000  0.79237000  1.0
  C  C83  1  0.10445000  0.58799000  0.70764000  1.0
  C  C84  1  0.15988000  0.89645000  0.30336000  1.0
  C  C85  1  0.65987000  0.60355000  0.19664000  1.0
  C  C86  1  0.84013000  0.10355000  0.69664000  1.0
  C  C87  1  0.34012000  0.39645000  0.80336000  1.0
  C  C88  1  0.25765000  0.82007000  0.33276000  1.0
  C  C89  1  0.75765000  0.67993000  0.16724000  1.0
  C  C90  1  0.74235000  0.17993000  0.66724000  1.0
  C  C91  1  0.24235000  0.32006000  0.83276000  1.0
  C  C92  1  0.32593000  0.84845000  0.43023000  1.0
  C  C93  1  0.82593000  0.65155000  0.06978000  1.0
  C  C94  1  0.67407000  0.15155000  0.56978000  1.0
  C  C95  1  0.17407000  0.34845000  0.93022000  1.0
  C  C96  1  0.29035000  0.95536000  0.49411000  1.0
  C  C97  1  0.79035000  0.54464000  0.00589000  1.0
  C  C98  1  0.70965000  0.04464000  0.50589000  1.0
  C  C99  1  0.20965000  0.45536000  0.99411000  1.0
  C  C100  1  0.19098000  0.02718000  0.45996000  1.0
  C  C101  1  0.69098000  0.47282000  0.04004000  1.0
  C  C102  1  0.80902000  0.97282000  0.54005000  1.0
  C  C103  1  0.30902000  0.52718000  0.95995000  1.0
  C  C104  1  0.43174000  0.76919000  0.46514000  1.0
  C  C105  1  0.93174000  0.73081000  0.03486000  1.0
  C  C106  1  0.56826000  0.23081000  0.53486000  1.0
  C  C107  1  0.06826000  0.26919000  0.96514000  1.0
  N  N108  1  0.09726000  0.13851000  0.19006000  1.0
  N  N109  1  0.59726000  0.36149000  0.30994000  1.0
  N  N110  1  0.90274000  0.86149000  0.80994000  1.0
  N  N111  1  0.40274000  0.63851000  0.69006000  1.0
  N  N112  1  0.12634000  0.99859000  0.36587000  1.0
  N  N113  1  0.62633000  0.50141000  0.13413000  1.0
  N  N114  1  0.87366000  0.00141000  0.63413000  1.0
  N  N115  1  0.37366000  0.49859000  0.86587000  1.0
  O  O116  1  0.71965000  0.14182000  0.29957000  1.0
  O  O117  1  0.21965000  0.35819000  0.20043000  1.0
  O  O118  1  0.28035000  0.85818000  0.70043000  1.0
  O  O119  1  0.78035000  0.64182000  0.79957000  1.0
  O  O120  1  0.83085000  0.97909000  0.22003000  1.0
  O  O121  1  0.33085000  0.52091000  0.27997000  1.0
  O  O122  1  0.16916000  0.02091000  0.77997000  1.0
  O  O123  1  0.66915000  0.47910000  0.72003000  1.0
  O  O124  1  0.48058000  0.73250000  0.93333000  1.0
  O  O125  1  0.98058000  0.76750000  0.56667000  1.0
  O  O126  1  0.51942000  0.26750000  0.06667000  1.0
  O  O127  1  0.01942000  0.23250000  0.43333000  1.0
  O  O128  1  0.22075000  0.79134000  0.89263000  1.0
  O  O129  1  0.72075000  0.70865000  0.60737000  1.0
  O  O130  1  0.77924000  0.20865000  0.10738000  1.0
  O  O131  1  0.27924000  0.29135000  0.39262000  1.0
