# generated using pymatgen
data_ZnH8C7N6
_symmetry_space_group_name_H-M   'P 1'
_cell_length_a   10.66930000
_cell_length_b   12.30540000
_cell_length_c   17.19870000
_cell_angle_alpha   90.00000000
_cell_angle_beta   95.39920000
_cell_angle_gamma   90.00000000
_symmetry_Int_Tables_number   1
_chemical_formula_structural   ZnH8C7N6
_chemical_formula_sum   'Zn8 H64 C56 N48'
_cell_volume   2247.99920127
_cell_formula_units_Z   8
loop_
 _symmetry_equiv_pos_site_id
 _symmetry_equiv_pos_as_xyz
  1  'x, y, z'
loop_
 _atom_site_type_symbol
 _atom_site_label
 _atom_site_symmetry_multiplicity
 _atom_site_fract_x
 _atom_site_fract_y
 _atom_site_fract_z
 _atom_site_occupancy
  Zn  Zn0  1  0.72731000  0.73718000  0.60135000  1.0
  Zn  Zn1  1  0.77269000  0.23718000  0.89865000  1.0
  Zn  Zn2  1  0.27269000  0.26282000  0.39865000  1.0
  Zn  Zn3  1  0.22731000  0.76282000  0.10135000  1.0
  Zn  Zn4  1  0.20655000  0.74602000  0.45565000  1.0
  Zn  Zn5  1  0.29345000  0.24603000  0.04435000  1.0
  Zn  Zn6  1  0.79345000  0.25398000  0.54435000  1.0
  Zn  Zn7  1  0.70655000  0.75398000  0.95565000  1.0
  H  H8  1  0.06351000  0.63621000  0.20504000  1.0
  H  H9  1  0.43649000  0.13621000  0.29497000  1.0
  H  H10  1  0.93649000  0.36379000  0.79496000  1.0
  H  H11  1  0.56351000  0.86379000  0.70504000  1.0
  H  H12  1  0.99795000  0.68440000  0.28992000  1.0
  H  H13  1  0.50205000  0.18440000  0.21008000  1.0
  H  H14  1  0.00205000  0.31560000  0.71008000  1.0
  H  H15  1  0.49795000  0.81560000  0.78992000  1.0
  H  H16  1  0.11554000  0.58181000  0.29804000  1.0
  H  H17  1  0.38446000  0.08182000  0.20196000  1.0
  H  H18  1  0.88446000  0.41818000  0.70196000  1.0
  H  H19  1  0.61554000  0.91818000  0.79804000  1.0
  H  H20  1  0.48969000  0.94880000  0.35345000  1.0
  H  H21  1  0.01031000  0.44880000  0.14655000  1.0
  H  H22  1  0.51031000  0.05120000  0.64655000  1.0
  H  H23  1  0.98969000  0.55120000  0.85345000  1.0
  H  H24  1  0.35657000  0.99445000  0.39814000  1.0
  H  H25  1  0.14342000  0.49445000  0.10186000  1.0
  H  H26  1  0.64342000  0.00555000  0.60186000  1.0
  H  H27  1  0.85658000  0.50554000  0.89814000  1.0
  H  H28  1  0.48028000  0.67772000  0.66648000  1.0
  H  H29  1  0.01972000  0.17772000  0.83352000  1.0
  H  H30  1  0.51972000  0.32228000  0.33352000  1.0
  H  H31  1  0.98028000  0.82228000  0.16648000  1.0
  H  H32  1  0.35350000  0.62866000  0.60062000  1.0
  H  H33  1  0.14650000  0.12866000  0.89938000  1.0
  H  H34  1  0.64650000  0.37134000  0.39938000  1.0
  H  H35  1  0.85350000  0.87134000  0.10062000  1.0
  H  H36  1  0.33319000  0.74808000  0.65475000  1.0
  H  H37  1  0.16681000  0.24808000  0.84525000  1.0
  H  H38  1  0.66681000  0.25192000  0.34525000  1.0
  H  H39  1  0.83319000  0.75192000  0.15475000  1.0
  H  H40  1  0.02696000  0.00026000  0.67611000  1.0
  H  H41  1  0.47304000  0.50026000  0.82389000  1.0
  H  H42  1  0.97303000  0.99974000  0.32389000  1.0
  H  H43  1  0.52696000  0.49974000  0.17611000  1.0
  H  H44  1  0.92671000  0.90050000  0.71355000  1.0
  H  H45  1  0.57329000  0.40050000  0.78644000  1.0
  H  H46  1  0.07329000  0.09950000  0.28645000  1.0
  H  H47  1  0.42671000  0.59950000  0.21355000  1.0
  H  H48  1  0.86258000  0.00030000  0.64660000  1.0
  H  H49  1  0.63742000  0.50030000  0.85340000  1.0
  H  H50  1  0.13742000  0.99970000  0.35340000  1.0
  H  H51  1  0.36258000  0.49970000  0.14660000  1.0
  H  H52  1  0.96304000  0.62808000  0.42281000  1.0
  H  H53  1  0.53696000  0.12808000  0.07719000  1.0
  H  H54  1  0.03696000  0.37192000  0.57719000  1.0
  H  H55  1  0.46304000  0.87192000  0.92281000  1.0
  H  H56  1  0.81862000  0.70135000  0.41124000  1.0
  H  H57  1  0.68138000  0.20135000  0.08876000  1.0
  H  H58  1  0.18138000  0.29865000  0.58876000  1.0
  H  H59  1  0.31862000  0.79865000  0.91124000  1.0
  H  H60  1  0.61547000  0.37680000  0.63886000  1.0
  H  H61  1  0.88453000  0.87681000  0.86113000  1.0
  H  H62  1  0.38453000  0.62319000  0.36113000  1.0
  H  H63  1  0.11547000  0.12320000  0.13887000  1.0
  H  H64  1  0.52450000  0.49068000  0.60431000  1.0
  H  H65  1  0.97550000  0.99068000  0.89569000  1.0
  H  H66  1  0.47550000  0.50932000  0.39569000  1.0
  H  H67  1  0.02450000  0.00932000  0.10431000  1.0
  H  H68  1  0.64303000  0.50688000  0.68316000  1.0
  H  H69  1  0.85696000  0.00688000  0.81684000  1.0
  H  H70  1  0.35696000  0.49312000  0.31684000  1.0
  H  H71  1  0.14304000  0.99312000  0.18316000  1.0
  C  C72  1  0.08509000  0.65667000  0.26682000  1.0
  C  C73  1  0.41491000  0.15667000  0.23318000  1.0
  C  C74  1  0.91491000  0.34333000  0.73318000  1.0
  C  C75  1  0.58509000  0.84333000  0.76682000  1.0
  C  C76  1  0.18421000  0.74183000  0.27561000  1.0
  C  C77  1  0.31579000  0.24183000  0.22439000  1.0
  C  C78  1  0.81579000  0.25817000  0.72439000  1.0
  C  C79  1  0.68421000  0.75817000  0.77561000  1.0
  C  C80  1  0.32509000  0.85465000  0.32431000  1.0
  C  C81  1  0.17491000  0.35464000  0.17569000  1.0
  C  C82  1  0.67491000  0.14535000  0.67569000  1.0
  C  C83  1  0.82509000  0.64535000  0.82431000  1.0
  C  C84  1  0.40748000  0.92110000  0.38168000  1.0
  C  C85  1  0.09252000  0.42110000  0.11832000  1.0
  C  C86  1  0.59252000  0.07890000  0.61832000  1.0
  C  C87  1  0.90748000  0.57890000  0.88168000  1.0
  C  C88  1  0.45182000  0.86232000  0.45531000  1.0
  C  C89  1  0.04818000  0.36231000  0.04469000  1.0
  C  C90  1  0.54818000  0.13768000  0.54469000  1.0
  C  C91  1  0.95182000  0.63768000  0.95531000  1.0
  C  C92  1  0.44746000  0.76869000  0.56054000  1.0
  C  C93  1  0.05254000  0.26869000  0.93946000  1.0
  C  C94  1  0.55254000  0.23131000  0.43946000  1.0
  C  C95  1  0.94746000  0.73131000  0.06054000  1.0
  C  C96  1  0.40206000  0.70196000  0.62425000  1.0
  C  C97  1  0.09794000  0.20196000  0.87575000  1.0
  C  C98  1  0.59794000  0.29804000  0.37575000  1.0
  C  C99  1  0.90206000  0.79804000  0.12425000  1.0
  C  C100  1  0.94478000  0.94816000  0.66177000  1.0
  C  C101  1  0.55522000  0.44816000  0.83823000  1.0
  C  C102  1  0.05521000  0.05184000  0.33823000  1.0
  C  C103  1  0.44478000  0.55184000  0.16177000  1.0
  C  C104  1  0.96877000  0.87528000  0.59599000  1.0
  C  C105  1  0.53123000  0.37528000  0.90401000  1.0
  C  C106  1  0.03123000  0.12472000  0.40401000  1.0
  C  C107  1  0.46877000  0.62472000  0.09599000  1.0
  C  C108  1  0.94399000  0.75146000  0.50772000  1.0
  C  C109  1  0.55601000  0.25146000  0.99228000  1.0
  C  C110  1  0.05601000  0.24854000  0.49228000  1.0
  C  C111  1  0.44399000  0.74854000  0.00772000  1.0
  C  C112  1  0.88892000  0.66412000  0.45448000  1.0
  C  C113  1  0.61108000  0.16413000  0.04552000  1.0
  C  C114  1  0.11107000  0.33588000  0.54552000  1.0
  C  C115  1  0.38892000  0.83588000  0.95448000  1.0
  C  C116  1  0.82843000  0.57410000  0.49582000  1.0
  C  C117  1  0.67157000  0.07410000  0.00418000  1.0
  C  C118  1  0.17157000  0.42590000  0.50418000  1.0
  C  C119  1  0.32843000  0.92590000  0.99582000  1.0
  C  C120  1  0.71285000  0.48930000  0.57157000  1.0
  C  C121  1  0.78715000  0.98930000  0.92843000  1.0
  C  C122  1  0.28715000  0.51070000  0.42843000  1.0
  C  C123  1  0.21286000  0.01070000  0.07157000  1.0
  C  C124  1  0.61907000  0.46426000  0.62765000  1.0
  C  C125  1  0.88092000  0.96427000  0.87235000  1.0
  C  C126  1  0.38092000  0.53573000  0.37235000  1.0
  C  C127  1  0.11908000  0.03573000  0.12765000  1.0
  N  N128  1  0.88405000  0.79977000  0.56437000  1.0
  N  N129  1  0.61595000  0.29977000  0.93563000  1.0
  N  N130  1  0.11595000  0.20023000  0.43563000  1.0
  N  N131  1  0.38405000  0.70023000  0.06437000  1.0
  N  N132  1  0.07481000  0.87484000  0.56148000  1.0
  N  N133  1  0.42519000  0.37484000  0.93852000  1.0
  N  N134  1  0.92519000  0.12516000  0.43852000  1.0
  N  N135  1  0.57481000  0.62516000  0.06148000  1.0
  N  N136  1  0.05820000  0.79529000  0.50496000  1.0
  N  N137  1  0.44180000  0.29529000  0.99504000  1.0
  N  N138  1  0.94180000  0.20471000  0.49504000  1.0
  N  N139  1  0.55820000  0.70471000  0.00496000  1.0
  N  N140  1  0.74400000  0.59069000  0.54985000  1.0
  N  N141  1  0.75600000  0.09069000  0.95015000  1.0
  N  N142  1  0.25600000  0.40931000  0.45015000  1.0
  N  N143  1  0.24400000  0.90931000  0.04985000  1.0
  N  N144  1  0.84978000  0.46960000  0.48387000  1.0
  N  N145  1  0.65022000  0.96960000  0.01613000  1.0
  N  N146  1  0.15022000  0.53041000  0.51613000  1.0
  N  N147  1  0.34978000  0.03040000  0.98387000  1.0
  N  N148  1  0.77603000  0.41560000  0.53301000  1.0
  N  N149  1  0.72397000  0.91560000  0.96699000  1.0
  N  N150  1  0.22397000  0.58440000  0.46699000  1.0
  N  N151  1  0.27603000  0.08440000  0.03301000  1.0
  N  N152  1  0.56646000  0.80108000  0.55495000  1.0
  N  N153  1  0.93354000  0.30108000  0.94505000  1.0
  N  N154  1  0.43354000  0.19892000  0.44505000  1.0
  N  N155  1  0.06646000  0.69892000  0.05495000  1.0
  N  N156  1  0.56997000  0.86092000  0.48715000  1.0
  N  N157  1  0.93003000  0.36092000  0.01285000  1.0
  N  N158  1  0.43003000  0.13908000  0.51285000  1.0
  N  N159  1  0.06997000  0.63908000  0.98715000  1.0
  N  N160  1  0.37242000  0.80629000  0.49881000  1.0
  N  N161  1  0.12758000  0.30629000  0.00119000  1.0
  N  N162  1  0.62758000  0.19371000  0.50119000  1.0
  N  N163  1  0.87242000  0.69371000  0.99881000  1.0
  N  N164  1  0.23235000  0.78546000  0.34435000  1.0
  N  N165  1  0.26765000  0.28547000  0.15564000  1.0
  N  N166  1  0.76765000  0.21453000  0.65565000  1.0
  N  N167  1  0.73235000  0.71454000  0.84435000  1.0
  N  N168  1  0.33355000  0.85622000  0.24779000  1.0
  N  N169  1  0.16645000  0.35622000  0.25221000  1.0
  N  N170  1  0.66645000  0.14378000  0.75221000  1.0
  N  N171  1  0.83355000  0.64378000  0.74779000  1.0
  N  N172  1  0.24307000  0.78403000  0.21696000  1.0
  N  N173  1  0.25693000  0.28403000  0.28304000  1.0
  N  N174  1  0.75693000  0.21597000  0.78304000  1.0
  N  N175  1  0.74307000  0.71597000  0.71696000  1.0
