# generated using pymatgen
data_ZnH8C23Br2NO6
_symmetry_space_group_name_H-M   'P 1'
_cell_length_a   14.47170000
_cell_length_b   14.52630000
_cell_length_c   15.70500000
_cell_angle_alpha   89.75080000
_cell_angle_beta   80.31200000
_cell_angle_gamma   74.40980000
_symmetry_Int_Tables_number   1
_chemical_formula_structural   ZnH8C23Br2NO6
_chemical_formula_sum   'Zn2 H16 C46 Br4 N2 O12'
_cell_volume   3131.78388307
_cell_formula_units_Z   2
loop_
 _symmetry_equiv_pos_site_id
 _symmetry_equiv_pos_as_xyz
  1  'x, y, z'
loop_
 _atom_site_type_symbol
 _atom_site_label
 _atom_site_symmetry_multiplicity
 _atom_site_fract_x
 _atom_site_fract_y
 _atom_site_fract_z
 _atom_site_occupancy
  Zn  Zn0  1  0.39862000  0.53035000  0.48237000  1.0
  Zn  Zn1  1  0.59308000  0.46971000  0.51384000  1.0
  H  H2  1  0.23430000  0.57893000  0.05803000  1.0
  H  H3  1  0.74010000  0.31350000  0.94357000  1.0
  H  H4  1  0.45856000  0.50487000  0.21844000  1.0
  H  H5  1  0.53099000  0.43902000  0.77694000  1.0
  H  H6  1  0.75236000  0.36214000  0.24383000  1.0
  H  H7  1  0.23845000  0.58185000  0.75011000  1.0
  H  H8  1  0.35678000  0.52844000  0.14934000  1.0
  H  H9  1  0.61790000  0.36730000  0.85181000  1.0
  H  H10  1  0.04630000  0.27337000  0.61756000  1.0
  H  H11  1  0.99215000  0.61951000  0.28774000  1.0
  H  H12  1  0.21836000  0.48544000  0.53874000  1.0
  H  H13  1  0.76065000  0.54031000  0.48231000  1.0
  H  H14  1  0.30884000  0.64359000  0.33845000  1.0
  H  H15  1  0.69716000  0.32205000  0.62945000  1.0
  H  H16  1  0.32107000  0.32105000  0.48269000  1.0
  H  H17  1  0.75902000  0.47397000  0.33479000  1.0
  C  C18  1  0.42193000  0.50404000  0.65985000  1.0
  C  C19  1  0.57491000  0.46860000  0.33289000  1.0
  C  C20  1  0.43109000  0.48023000  0.89908000  1.0
  C  C21  1  0.55075000  0.43722000  0.09901000  1.0
  C  C22  1  0.33292000  0.52915000  0.93726000  1.0
  C  C23  1  0.64721000  0.38251000  0.06154000  1.0
  C  C24  1  0.50243000  0.44454000  0.95446000  1.0
  C  C25  1  0.47710000  0.46555000  0.04469000  1.0
  C  C26  1  0.37862000  0.51428000  0.07983000  1.0
  C  C27  1  0.59857000  0.38814000  0.92037000  1.0
  C  C28  1  0.30909000  0.54313000  0.02877000  1.0
  C  C29  1  0.66769000  0.35735000  0.97157000  1.0
  C  C30  1  0.84886000  0.32283000  0.61362000  1.0
  C  C31  1  0.16866000  0.61828000  0.33399000  1.0
  C  C32  1  0.75376000  0.35477000  0.60040000  1.0
  C  C33  1  0.25289000  0.60990000  0.36716000  1.0
  C  C34  1  0.79093000  0.47402000  0.51258000  1.0
  C  C35  1  0.20415000  0.51667000  0.47752000  1.0
  C  C36  1  0.89137000  0.43871000  0.51283000  1.0
  C  C37  1  0.12123000  0.51298000  0.44341000  1.0
  C  C38  1  0.92160000  0.36363000  0.56954000  1.0
  C  C39  1  0.09857000  0.57101000  0.37215000  1.0
  C  C40  1  0.49814000  0.31391000  0.48910000  1.0
  C  C41  1  0.50144000  0.67681000  0.49631000  1.0
  C  C42  1  0.96237000  0.47812000  0.46065000  1.0
  C  C43  1  0.05739000  0.45685000  0.48091000  1.0
  C  C44  1  0.08712000  0.37881000  0.53624000  1.0
  C  C45  1  0.94162000  0.53555000  0.38739000  1.0
  C  C46  1  0.02128000  0.33346000  0.57770000  1.0
  C  C47  1  0.00881000  0.57826000  0.34399000  1.0
  C  C48  1  0.50303000  0.21363000  0.48839000  1.0
  C  C49  1  0.50687000  0.77440000  0.49501000  1.0
  C  C50  1  0.50493000  0.12866000  0.48925000  1.0
  C  C51  1  0.50781000  0.85858000  0.49373000  1.0
  C  C52  1  0.50676000  0.03599000  0.49054000  1.0
  C  C53  1  0.50787000  0.95078000  0.49204000  1.0
  C  C54  1  0.38877000  0.50891000  0.75557000  1.0
  C  C55  1  0.60183000  0.43877000  0.23919000  1.0
  C  C56  1  0.26488000  0.56326000  0.88097000  1.0
  C  C57  1  0.71761000  0.35652000  0.11684000  1.0
  C  C58  1  0.29105000  0.55390000  0.79224000  1.0
  C  C59  1  0.69677000  0.38406000  0.20343000  1.0
  C  C60  1  0.45650000  0.47199000  0.80836000  1.0
  C  C61  1  0.53067000  0.46342000  0.18772000  1.0
  C  C62  1  0.19154000  0.33815000  0.54804000  1.0
  C  C63  1  0.84892000  0.54829000  0.35104000  1.0
  Br  Br64  1  0.13246000  0.62694000  0.92795000  1.0
  Br  Br65  1  0.84647000  0.28106000  0.07197000  1.0
  Br  Br66  1  0.87918000  0.22379000  0.69157000  1.0
  Br  Br67  1  0.14908000  0.69431000  0.23683000  1.0
  N  N68  1  0.72590000  0.43132000  0.55175000  1.0
  N  N69  1  0.26819000  0.56134000  0.43985000  1.0
  O  O70  1  0.35846000  0.53657000  0.61174000  1.0
  O  O71  1  0.64255000  0.46818000  0.37640000  1.0
  O  O72  1  0.51270000  0.46870000  0.63290000  1.0
  O  O73  1  0.48455000  0.49147000  0.36449000  1.0
  O  O74  1  0.41405000  0.37222000  0.48973000  1.0
  O  O75  1  0.57343000  0.61444000  0.51765000  1.0
  O  O76  1  0.57752000  0.33560000  0.48888000  1.0
  O  O77  1  0.42456000  0.66259000  0.47641000  1.0
  O  O78  1  0.21414000  0.32320000  0.61941000  1.0
  O  O79  1  0.25385000  0.32122000  0.47246000  1.0
  O  O80  1  0.79796000  0.62701000  0.33777000  1.0
  O  O81  1  0.83064000  0.46436000  0.33588000  1.0
