# generated using pymatgen
data_CdH8(C5N4)2
_symmetry_space_group_name_H-M   'P 1'
_cell_length_a   6.65328000
_cell_length_b   9.51957000
_cell_length_c   9.51960000
_cell_angle_alpha   101.12300000
_cell_angle_beta   91.04370000
_cell_angle_gamma   91.04350000
_symmetry_Int_Tables_number   1
_chemical_formula_structural   CdH8(C5N4)2
_chemical_formula_sum   'Cd2 H16 C20 N16'
_cell_volume   591.36766030
_cell_formula_units_Z   2
loop_
 _symmetry_equiv_pos_site_id
 _symmetry_equiv_pos_as_xyz
  1  'x, y, z'
loop_
 _atom_site_type_symbol
 _atom_site_label
 _atom_site_symmetry_multiplicity
 _atom_site_fract_x
 _atom_site_fract_y
 _atom_site_fract_z
 _atom_site_occupancy
  Cd  Cd0  1  0.75000000  0.56448000  0.43552000  1.0
  Cd  Cd1  1  0.25000000  0.43552000  0.56448000  1.0
  H  H2  1  0.88911000  0.96168000  0.11201000  1.0
  H  H3  1  0.61090000  0.88799000  0.03832000  1.0
  H  H4  1  0.11090000  0.03832000  0.88799000  1.0
  H  H5  1  0.38910000  0.11201000  0.96168000  1.0
  H  H6  1  0.13970000  0.77144000  0.52390000  1.0
  H  H7  1  0.36030000  0.47610000  0.22856000  1.0
  H  H8  1  0.86029000  0.22857000  0.47610000  1.0
  H  H9  1  0.63970000  0.52390000  0.77144000  1.0
  H  H10  1  0.34486000  0.96237000  0.43898000  1.0
  H  H11  1  0.15514000  0.56102000  0.03763000  1.0
  H  H12  1  0.65514000  0.03763000  0.56102000  1.0
  H  H13  1  0.84486000  0.43898000  0.96237000  1.0
  H  H14  1  0.21199000  0.05893000  0.22819000  1.0
  H  H15  1  0.28801000  0.77181000  0.94107000  1.0
  H  H16  1  0.78801000  0.94107000  0.77181000  1.0
  H  H17  1  0.71199000  0.22819000  0.05893000  1.0
  C  C18  1  0.84557000  0.81201000  0.25432000  1.0
  C  C19  1  0.65443000  0.74567000  0.18799000  1.0
  C  C20  1  0.15443000  0.18799000  0.74568000  1.0
  C  C21  1  0.34557000  0.25433000  0.81201000  1.0
  C  C22  1  0.94827000  0.92083000  0.20293000  1.0
  C  C23  1  0.55173000  0.79707000  0.07917000  1.0
  C  C24  1  0.05173000  0.07917000  0.79708000  1.0
  C  C25  1  0.44827000  0.20293000  0.92083000  1.0
  C  C26  1  0.09223000  0.81605000  0.43195000  1.0
  C  C27  1  0.40777000  0.56805000  0.18395000  1.0
  C  C28  1  0.90777000  0.18396000  0.56806000  1.0
  C  C29  1  0.59223000  0.43195000  0.81605000  1.0
  C  C30  1  0.20376000  0.92236000  0.38495000  1.0
  C  C31  1  0.29624000  0.61505000  0.07763000  1.0
  C  C32  1  0.79624000  0.07764000  0.61505000  1.0
  C  C33  1  0.70376000  0.38495000  0.92236000  1.0
  C  C34  1  0.12925000  0.97571000  0.26840000  1.0
  C  C35  1  0.37075000  0.73160000  0.02429000  1.0
  C  C36  1  0.87075000  0.02429000  0.73160000  1.0
  C  C37  1  0.62926000  0.26840000  0.97571000  1.0
  N  N38  1  0.04441000  0.34314000  0.24322000  1.0
  N  N39  1  0.45559000  0.75678000  0.65686000  1.0
  N  N40  1  0.95559000  0.65686000  0.75677000  1.0
  N  N41  1  0.54441000  0.24322000  0.34314000  1.0
  N  N42  1  0.91869000  0.76233000  0.36825000  1.0
  N  N43  1  0.58131000  0.63175000  0.23766000  1.0
  N  N44  1  0.08130000  0.23767000  0.63175000  1.0
  N  N45  1  0.41870000  0.36825000  0.76233000  1.0
  N  N46  1  0.01654000  0.40963000  0.36231000  1.0
  N  N47  1  0.48346000  0.63769000  0.59037000  1.0
  N  N48  1  0.98346000  0.59037000  0.63769000  1.0
  N  N49  1  0.51654000  0.36231000  0.40963000  1.0
  N  N50  1  0.07440000  0.27898000  0.12833000  1.0
  N  N51  1  0.42560000  0.87167000  0.72103000  1.0
  N  N52  1  0.92560000  0.72103000  0.87168000  1.0
  N  N53  1  0.57439000  0.12833000  0.27897000  1.0
