# generated using pymatgen
data_Zn4H11C26S4O13F
_symmetry_space_group_name_H-M   'P 1'
_cell_length_a   19.65800000
_cell_length_b   19.67230000
_cell_length_c   33.38040000
_cell_angle_alpha   79.20850000
_cell_angle_beta   79.25110000
_cell_angle_gamma   63.95130000
_symmetry_Int_Tables_number   1
_chemical_formula_structural   Zn4H11C26S4O13F
_chemical_formula_sum   'Zn16 H44 C104 S16 O52 F4'
_cell_volume   11312.62577360
_cell_formula_units_Z   4
loop_
 _symmetry_equiv_pos_site_id
 _symmetry_equiv_pos_as_xyz
  1  'x, y, z'
loop_
 _atom_site_type_symbol
 _atom_site_label
 _atom_site_symmetry_multiplicity
 _atom_site_fract_x
 _atom_site_fract_y
 _atom_site_fract_z
 _atom_site_occupancy
  Zn  Zn0  1  0.60052000  0.94355000  0.52212000  1.0
  Zn  Zn1  1  0.51637000  0.01573000  0.44032000  1.0
  Zn  Zn2  1  0.43930000  0.94098000  0.51792000  1.0
  Zn  Zn3  1  0.44444000  0.09902000  0.52069000  1.0
  Zn  Zn4  1  0.64980000  0.30667000  0.72853000  1.0
  Zn  Zn5  1  0.81052000  0.31062000  0.73325000  1.0
  Zn  Zn6  1  0.73328000  0.23144000  0.80957000  1.0
  Zn  Zn7  1  0.80517000  0.15220000  0.72795000  1.0
  Zn  Zn8  1  0.23279000  0.73293000  0.31048000  1.0
  Zn  Zn9  1  0.30412000  0.65140000  0.22856000  1.0
  Zn  Zn10  1  0.15075000  0.80748000  0.22875000  1.0
  Zn  Zn11  1  0.31124000  0.80917000  0.23310000  1.0
  Zn  Zn12  1  0.93950000  0.43991000  0.01708000  1.0
  Zn  Zn13  1  0.94435000  0.59888000  0.02153000  1.0
  Zn  Zn14  1  0.09915000  0.44426000  0.02160000  1.0
  Zn  Zn15  1  0.01676000  0.51712000  0.93971000  1.0
  H  H16  1  0.75166000  0.04581000  0.64865000  1.0
  H  H17  1  0.54523000  0.25324000  0.64933000  1.0
  H  H18  1  0.70131000  0.99989000  0.60050000  1.0
  H  H19  1  0.40283000  0.90266000  0.29994000  1.0
  H  H20  1  0.29876000  0.79877000  0.40276000  1.0
  H  H21  1  0.44995000  0.94986000  0.34909000  1.0
  H  H22  1  0.76093000  0.53645000  0.65916000  1.0
  H  H23  1  0.29727000  0.52092000  0.39866000  1.0
  H  H24  1  0.02111000  0.79702000  0.39888000  1.0
  H  H25  1  0.02946000  0.05059000  0.65208000  1.0
  H  H26  1  0.95007000  0.45002000  0.84723000  1.0
  H  H27  1  0.84716000  0.34725000  0.95122000  1.0
  H  H28  1  0.90092000  0.40081000  0.80017000  1.0
  H  H29  1  0.22848000  0.45300000  0.85141000  1.0
  H  H30  1  0.85846000  0.83742000  0.95981000  1.0
  H  H31  1  0.20426000  0.49849000  0.10137000  1.0
  H  H32  1  0.99672000  0.70480000  0.10074000  1.0
  H  H33  1  0.25039000  0.54852000  0.14954000  1.0
  H  H34  1  0.72041000  0.69946000  0.09790000  1.0
  H  H35  1  0.98930000  0.21347000  0.09086000  1.0
  H  H36  1  0.42463000  0.76864000  0.60093000  1.0
  H  H37  1  0.44891000  0.66934000  0.60303000  1.0
  H  H38  1  0.46417000  0.72398000  0.55597000  1.0
  H  H39  1  0.52306000  0.17893000  0.34655000  1.0
  H  H40  1  0.46331000  0.24275000  0.30898000  1.0
  H  H41  1  0.43579000  0.17610000  0.34400000  1.0
  H  H42  1  0.67622000  0.93566000  0.34389000  1.0
  H  H43  1  0.74285000  0.96347000  0.30906000  1.0
  H  H44  1  0.67878000  0.02291000  0.34661000  1.0
  H  H45  1  0.27799000  0.20184000  0.61018000  1.0
  H  H46  1  0.18002000  0.26810000  0.61373000  1.0
  H  H47  1  0.23306000  0.24137000  0.56525000  1.0
  H  H48  1  0.57108000  0.22708000  0.90331000  1.0
  H  H49  1  0.50728000  0.28673000  0.94083000  1.0
  H  H50  1  0.57403000  0.31415000  0.90587000  1.0
  H  H51  1  0.85177000  0.92768000  0.76011000  1.0
  H  H52  1  0.93047000  0.84207000  0.77591000  1.0
  H  H53  1  0.93898000  0.93055000  0.76275000  1.0
  H  H54  1  0.51700000  0.50860000  0.18481000  1.0
  H  H55  1  0.56981000  0.48213000  0.13624000  1.0
  H  H56  1  0.47183000  0.54836000  0.13992000  1.0
  H  H57  1  0.28591000  0.02645000  0.19403000  1.0
  H  H58  1  0.30160000  0.08060000  0.14684000  1.0
  H  H59  1  0.32557000  0.98131000  0.14920000  1.0
  C  C60  1  0.68432000  0.93853000  0.43852000  1.0
  C  C61  1  0.43087000  0.93102000  0.43085000  1.0
  C  C62  1  0.56185000  0.81561000  0.56168000  1.0
  C  C63  1  0.31536000  0.06148000  0.56153000  1.0
  C  C64  1  0.56901000  0.06928000  0.56918000  1.0
  C  C65  1  0.43816000  0.18424000  0.43835000  1.0
  C  C66  1  0.68900000  0.43454000  0.68854000  1.0
  C  C67  1  0.81909000  0.31897000  0.81908000  1.0
  C  C68  1  0.56514000  0.31141000  0.81129000  1.0
  C  C69  1  0.81117000  0.06536000  0.81129000  1.0
  C  C70  1  0.68060000  0.18073000  0.68074000  1.0
  C  C71  1  0.93438000  0.18787000  0.68853000  1.0
  C  C72  1  0.31122000  0.56583000  0.31181000  1.0
  C  C73  1  0.18100000  0.68083000  0.18096000  1.0
  C  C74  1  0.06589000  0.81133000  0.31209000  1.0
  C  C75  1  0.18864000  0.93477000  0.18869000  1.0
  C  C76  1  0.31923000  0.81924000  0.31945000  1.0
  C  C77  1  0.43434000  0.68868000  0.18860000  1.0
  C  C78  1  0.81552000  0.56210000  0.06150000  1.0
  C  C79  1  0.06916000  0.56943000  0.06931000  1.0
  C  C80  1  0.06089000  0.31576000  0.06150000  1.0
  C  C81  1  0.18402000  0.43879000  0.93828000  1.0
  C  C82  1  0.93052000  0.43070000  0.93074000  1.0
  C  C83  1  0.93812000  0.68469000  0.93875000  1.0
  C  C84  1  0.59596000  0.09958000  0.59792000  1.0
  C  C85  1  0.65169000  0.15216000  0.65205000  1.0
  C  C86  1  0.55314000  0.17106000  0.61234000  1.0
  C  C87  1  0.69586000  0.08058000  0.63825000  1.0
  C  C88  1  0.58001000  0.19752000  0.63892000  1.0
  C  C89  1  0.66797000  0.05526000  0.61161000  1.0
  C  C90  1  0.40143000  0.90133000  0.40305000  1.0
  C  C91  1  0.34787000  0.84798000  0.34821000  1.0
  C  C92  1  0.35850000  0.85831000  0.41726000  1.0
  C  C93  1  0.39062000  0.89062000  0.33301000  1.0
  C  C94  1  0.33184000  0.83183000  0.39057000  1.0
  C  C95  1  0.41667000  0.91663000  0.36024000  1.0
  C  C96  1  0.54470000  0.69626000  0.59873000  1.0
  C  C97  1  0.70403000  0.55384000  0.65113000  1.0
  C  C98  1  0.58566000  0.74087000  0.58632000  1.0
  C  C99  1  0.66380000  0.50925000  0.66357000  1.0
  C  C100  1  0.66133000  0.62199000  0.62750000  1.0
  C  C101  1  0.58903000  0.62834000  0.62232000  1.0
  C  C102  1  0.42464000  0.27282000  0.37026000  1.0
  C  C103  1  0.32636000  0.47589000  0.37887000  1.0
  C  C104  1  0.41408000  0.25830000  0.41299000  1.0
  C  C105  1  0.33651000  0.49080000  0.33649000  1.0
  C  C106  1  0.35821000  0.39680000  0.39150000  1.0
  C  C107  1  0.39221000  0.35252000  0.35850000  1.0
  C  C108  1  0.77284000  0.92458000  0.37039000  1.0
  C  C109  1  0.97601000  0.82609000  0.37909000  1.0
  C  C110  1  0.75836000  0.91414000  0.41314000  1.0
  C  C111  1  0.99085000  0.83630000  0.33671000  1.0
  C  C112  1  0.89690000  0.85801000  0.39169000  1.0
  C  C113  1  0.85258000  0.89203000  0.35865000  1.0
  C  C114  1  0.19995000  0.15672000  0.60259000  1.0
  C  C115  1  0.05017000  0.09476000  0.64748000  1.0
  C  C116  1  0.24097000  0.08733000  0.58650000  1.0
  C  C117  1  0.00910000  0.16344000  0.66357000  1.0
  C  C118  1  0.11973000  0.09160000  0.62529000  1.0
  C  C119  1  0.13062000  0.15810000  0.62476000  1.0
  C  C120  1  0.84679000  0.34693000  0.84865000  1.0
  C  C121  1  0.90180000  0.40180000  0.90209000  1.0
  C  C122  1  0.83257000  0.33282000  0.89161000  1.0
  C  C123  1  0.91698000  0.41694000  0.85940000  1.0
  C  C124  1  0.85936000  0.35945000  0.91816000  1.0
  C  C125  1  0.88971000  0.38970000  0.83340000  1.0
  C  C126  1  0.47701000  0.32554000  0.87955000  1.0
  C  C127  1  0.27364000  0.42393000  0.87117000  1.0
  C  C128  1  0.49121000  0.33609000  0.83678000  1.0
  C  C129  1  0.25898000  0.41371000  0.91357000  1.0
  C  C130  1  0.35270000  0.39212000  0.85844000  1.0
  C  C131  1  0.39727000  0.35807000  0.89137000  1.0
  C  C132  1  0.87590000  0.91895000  0.82158000  1.0
  C  C133  1  0.87485000  0.83026000  0.92740000  1.0
  C  C134  1  0.83668000  0.99031000  0.83566000  1.0
  C  C135  1  0.91353000  0.75925000  0.91362000  1.0
  C  C136  1  0.86086000  0.88882000  0.89420000  1.0
  C  C137  1  0.88919000  0.86148000  0.85555000  1.0
  C  C138  1  0.15059000  0.65386000  0.15224000  1.0
  C  C139  1  0.09780000  0.59828000  0.09804000  1.0
  C  C140  1  0.07898000  0.69665000  0.13782000  1.0
  C  C141  1  0.16950000  0.55419000  0.11181000  1.0
  C  C142  1  0.05246000  0.66989000  0.11118000  1.0
  C  C143  1  0.19494000  0.58197000  0.13847000  1.0
  C  C144  1  0.54986000  0.59344000  0.14749000  1.0
  C  C145  1  0.69967000  0.65533000  0.10252000  1.0
  C  C146  1  0.50882000  0.66279000  0.16362000  1.0
  C  C147  1  0.74070000  0.58664000  0.08642000  1.0
  C  C148  1  0.63018000  0.65841000  0.12481000  1.0
  C  C149  1  0.61924000  0.59196000  0.12534000  1.0
  C  C150  1  0.20565000  0.05396000  0.15122000  1.0
  C  C151  1  0.04619000  0.19620000  0.09886000  1.0
  C  C152  1  0.16484000  0.00925000  0.16373000  1.0
  C  C153  1  0.08628000  0.24095000  0.08639000  1.0
  C  C154  1  0.08903000  0.12805000  0.12247000  1.0
  C  C155  1  0.16131000  0.12183000  0.12761000  1.0
  C  C156  1  0.46645000  0.71526000  0.58926000  1.0
  C  C157  1  0.46374000  0.21477000  0.34070000  1.0
  C  C158  1  0.71480000  0.96369000  0.34074000  1.0
  C  C159  1  0.22374000  0.22061000  0.59779000  1.0
  C  C160  1  0.53521000  0.28636000  0.90911000  1.0
  C  C161  1  0.90077000  0.90362000  0.77777000  1.0
  C  C162  1  0.52613000  0.52951000  0.15227000  1.0
  C  C163  1  0.28387000  0.03487000  0.16074000  1.0
  S  S164  1  0.67568000  0.70054000  0.60304000  1.0
  S  S165  1  0.57410000  0.54983000  0.64671000  1.0
  S  S166  1  0.36592000  0.34001000  0.43789000  1.0
  S  S167  1  0.38467000  0.40897000  0.31185000  1.0
  S  S168  1  0.84014000  0.86583000  0.43806000  1.0
  S  S169  1  0.90900000  0.88453000  0.31202000  1.0
  S  S170  1  0.19577000  0.02582000  0.59823000  1.0
  S  S171  1  0.05466000  0.22440000  0.65180000  1.0
  S  S172  1  0.40925000  0.38446000  0.81199000  1.0
  S  S173  1  0.34108000  0.36546000  0.93808000  1.0
  S  S174  1  0.81696000  0.98683000  0.88899000  1.0
  S  S175  1  0.93314000  0.76329000  0.86039000  1.0
  S  S176  1  0.55418000  0.72416000  0.15191000  1.0
  S  S177  1  0.69516000  0.52566000  0.09826000  1.0
  S  S178  1  0.07486000  0.04938000  0.14696000  1.0
  S  S179  1  0.17606000  0.20042000  0.10318000  1.0
  O  O180  1  0.50136000  0.99923000  0.50033000  1.0
  O  O181  1  0.68539000  0.92185000  0.47747000  1.0
  O  O182  1  0.46879000  0.96951000  0.41336000  1.0
  O  O183  1  0.49523000  0.84443000  0.55022000  1.0
  O  O184  1  0.62507000  0.97440000  0.41960000  1.0
  O  O185  1  0.60976000  0.84568000  0.55381000  1.0
  O  O186  1  0.41605000  0.91593000  0.46930000  1.0
  O  O187  1  0.34246000  0.99422000  0.55090000  1.0
  O  O188  1  0.50363000  0.11130000  0.55756000  1.0
  O  O189  1  0.34691000  0.10789000  0.55239000  1.0
  O  O190  1  0.61425000  0.00345000  0.55869000  1.0
  O  O191  1  0.47449000  0.12488000  0.41966000  1.0
  O  O192  1  0.42058000  0.18545000  0.47726000  1.0
  O  O193  1  0.74958000  0.25087000  0.74941000  1.0
  O  O194  1  0.64168000  0.40384000  0.69656000  1.0
  O  O195  1  0.83684000  0.33608000  0.78091000  1.0
  O  O196  1  0.62450000  0.27502000  0.83000000  1.0
  O  O197  1  0.75548000  0.40709000  0.69996000  1.0
  O  O198  1  0.56391000  0.32839000  0.77232000  1.0
  O  O199  1  0.78044000  0.28065000  0.83414000  1.0
  O  O200  1  0.77483000  0.12324000  0.83129000  1.0
  O  O201  1  0.74629000  0.13666000  0.69176000  1.0
  O  O202  1  0.82717000  0.06695000  0.77227000  1.0
  O  O203  1  0.63721000  0.24644000  0.69173000  1.0
  O  O204  1  0.90676000  0.25437000  0.70001000  1.0
  O  O205  1  0.90379000  0.14060000  0.69655000  1.0
  O  O206  1  0.24996000  0.75007000  0.25036000  1.0
  O  O207  1  0.27549000  0.62400000  0.33139000  1.0
  O  O208  1  0.24715000  0.63559000  0.19128000  1.0
  O  O209  1  0.06594000  0.82806000  0.27313000  1.0
  O  O210  1  0.32746000  0.56589000  0.27281000  1.0
  O  O211  1  0.12414000  0.77538000  0.33170000  1.0
  O  O212  1  0.13919000  0.74595000  0.19275000  1.0
  O  O213  1  0.14053000  0.90493000  0.19669000  1.0
  O  O214  1  0.33542000  0.83580000  0.28113000  1.0
  O  O215  1  0.25509000  0.90585000  0.20040000  1.0
  O  O216  1  0.28112000  0.78064000  0.33579000  1.0
  O  O217  1  0.40220000  0.64273000  0.19720000  1.0
  O  O218  1  0.40777000  0.75553000  0.19973000  1.0
  O  O219  1  0.99999000  0.49999000  0.99999000  1.0
  O  O220  1  0.84302000  0.49548000  0.05013000  1.0
  O  O221  1  0.00341000  0.61308000  0.05827000  1.0
  O  O222  1  0.10802000  0.34669000  0.05344000  1.0
  O  O223  1  0.84625000  0.60919000  0.05343000  1.0
  O  O224  1  0.99434000  0.34318000  0.05016000  1.0
  O  O225  1  0.11288000  0.50375000  0.05834000  1.0
  O  O226  1  0.18414000  0.42268000  0.97730000  1.0
  O  O227  1  0.96880000  0.46909000  0.91435000  1.0
  O  O228  1  0.12564000  0.47431000  0.91877000  1.0
  O  O229  1  0.91421000  0.41451000  0.96911000  1.0
  O  O230  1  0.92189000  0.68487000  0.97765000  1.0
  O  O231  1  0.97371000  0.62617000  0.91925000  1.0
  F  F232  1  0.48317000  0.21782000  0.60086000  1.0
  F  F233  1  0.34109000  0.84056000  0.45794000  1.0
  F  F234  1  0.79169000  0.29227000  0.90922000  1.0
  F  F235  1  0.03225000  0.76647000  0.14933000  1.0
