# generated using pymatgen
data_CoH6(C3N2)2
_symmetry_space_group_name_H-M   'P 1'
_cell_length_a   9.82517000
_cell_length_b   14.80110000
_cell_length_c   15.06760000
_cell_angle_alpha   89.99990000
_cell_angle_beta   89.99990000
_cell_angle_gamma   98.91870000
_symmetry_Int_Tables_number   1
_chemical_formula_structural   CoH6(C3N2)2
_chemical_formula_sum   'Co8 H48 C48 N32'
_cell_volume   2164.68760855
_cell_formula_units_Z   8
loop_
 _symmetry_equiv_pos_site_id
 _symmetry_equiv_pos_as_xyz
  1  'x, y, z'
loop_
 _atom_site_type_symbol
 _atom_site_label
 _atom_site_symmetry_multiplicity
 _atom_site_fract_x
 _atom_site_fract_y
 _atom_site_fract_z
 _atom_site_occupancy
  Co  Co0  1  0.54926000  0.76485000  0.92313000  1.0
  Co  Co1  1  0.04926000  0.26485000  0.57687000  1.0
  Co  Co2  1  0.45074000  0.23515000  0.07687000  1.0
  Co  Co3  1  0.95074000  0.73515000  0.42313000  1.0
  Co  Co4  1  0.08636000  0.91886000  0.77494000  1.0
  Co  Co5  1  0.58636000  0.41886000  0.72506000  1.0
  Co  Co6  1  0.91364000  0.08114000  0.22506000  1.0
  Co  Co7  1  0.41365000  0.58114000  0.27494000  1.0
  H  H8  1  0.78926000  0.80059000  0.78355000  1.0
  H  H9  1  0.28926000  0.30059000  0.71645000  1.0
  H  H10  1  0.21074000  0.19941000  0.21644000  1.0
  H  H11  1  0.71074000  0.69941000  0.28356000  1.0
  H  H12  1  0.79228000  0.85161000  0.05908000  1.0
  H  H13  1  0.29229000  0.35161000  0.44092000  1.0
  H  H14  1  0.20771000  0.14839000  0.94092000  1.0
  H  H15  1  0.70771000  0.64839000  0.55908000  1.0
  H  H16  1  0.04813000  0.92193000  0.98792000  1.0
  H  H17  1  0.54814000  0.42192000  0.51208000  1.0
  H  H18  1  0.95187000  0.07807000  0.01208000  1.0
  H  H19  1  0.45187000  0.57807000  0.48792000  1.0
  H  H20  1  0.23820000  0.79126000  0.88990000  1.0
  H  H21  1  0.73821000  0.29126000  0.61010000  1.0
  H  H22  1  0.76179000  0.20874000  0.11010000  1.0
  H  H23  1  0.26179000  0.70874000  0.38990000  1.0
  H  H24  1  0.60899000  0.97001000  0.84431000  1.0
  H  H25  1  0.10899000  0.47001000  0.65570000  1.0
  H  H26  1  0.39101000  0.02999000  0.15570000  1.0
  H  H27  1  0.89102000  0.52999000  0.34430000  1.0
  H  H28  1  0.38987000  0.04771000  0.77723000  1.0
  H  H29  1  0.88987000  0.54771000  0.72277000  1.0
  H  H30  1  0.61014000  0.95229000  0.22277000  1.0
  H  H31  1  0.11014000  0.45229000  0.27723000  1.0
  H  H32  1  0.49212000  0.59177000  0.06416000  1.0
  H  H33  1  0.99212000  0.09178000  0.43584000  1.0
  H  H34  1  0.50788000  0.40822000  0.93584000  1.0
  H  H35  1  0.00788000  0.90823000  0.56416000  1.0
  H  H36  1  0.45595000  0.87136000  0.08149000  1.0
  H  H37  1  0.95594000  0.37136000  0.41851000  1.0
  H  H38  1  0.54405000  0.12864000  0.91851000  1.0
  H  H39  1  0.04405000  0.62864000  0.58149000  1.0
  H  H40  1  0.40008000  0.78997000  0.24623000  1.0
  H  H41  1  0.90007000  0.28997000  0.25377000  1.0
  H  H42  1  0.59993000  0.21003000  0.75376000  1.0
  H  H43  1  0.09993000  0.71003000  0.74623000  1.0
  H  H44  1  0.65753000  0.57542000  0.87846000  1.0
  H  H45  1  0.15753000  0.07543000  0.62154000  1.0
  H  H46  1  0.34247000  0.42457000  0.12155000  1.0
  H  H47  1  0.84247000  0.92458000  0.37846000  1.0
  H  H48  1  0.36634000  0.71163000  0.74996000  1.0
  H  H49  1  0.86634000  0.21163000  0.75005000  1.0
  H  H50  1  0.63365000  0.28837000  0.25004000  1.0
  H  H51  1  0.13366000  0.78837000  0.24996000  1.0
  H  H52  1  0.39041000  0.55234000  0.65795000  1.0
  H  H53  1  0.89041000  0.05234000  0.84206000  1.0
  H  H54  1  0.60959000  0.44766000  0.34205000  1.0
  H  H55  1  0.10958000  0.94766000  0.15794000  1.0
  C  C56  1  0.82498000  0.82413000  0.84902000  1.0
  C  C57  1  0.32499000  0.32413000  0.65098000  1.0
  C  C58  1  0.17502000  0.17588000  0.15098000  1.0
  C  C59  1  0.67502000  0.67587000  0.34902000  1.0
  C  C60  1  0.82929000  0.85164000  0.99128000  1.0
  C  C61  1  0.32930000  0.35164000  0.50872000  1.0
  C  C62  1  0.17071000  0.14836000  0.00872000  1.0
  C  C63  1  0.67071000  0.64836000  0.49128000  1.0
  C  C64  1  0.95615000  0.88636000  0.95617000  1.0
  C  C65  1  0.45616000  0.38636000  0.54383000  1.0
  C  C66  1  0.04385000  0.11364000  0.04383000  1.0
  C  C67  1  0.54385000  0.61364000  0.45618000  1.0
  C  C68  1  0.30972000  0.85036000  0.86775000  1.0
  C  C69  1  0.80973000  0.35036000  0.63225000  1.0
  C  C70  1  0.69028000  0.14965000  0.13225000  1.0
  C  C71  1  0.19028000  0.64964000  0.36775000  1.0
  C  C72  1  0.49945000  0.94424000  0.84339000  1.0
  C  C73  1  0.99945000  0.44424000  0.65661000  1.0
  C  C74  1  0.50056000  0.05576000  0.15661000  1.0
  C  C75  1  0.00055000  0.55575000  0.34339000  1.0
  C  C76  1  0.39092000  0.98240000  0.80959000  1.0
  C  C77  1  0.89092000  0.48240000  0.69041000  1.0
  C  C78  1  0.60908000  0.01760000  0.19041000  1.0
  C  C79  1  0.10908000  0.51760000  0.30959000  1.0
  C  C80  1  0.47411000  0.65688000  0.09123000  1.0
  C  C81  1  0.97411000  0.15688000  0.40877000  1.0
  C  C82  1  0.52589000  0.34312000  0.90877000  1.0
  C  C83  1  0.02589000  0.84312000  0.59123000  1.0
  C  C84  1  0.45424000  0.80108000  0.10228000  1.0
  C  C85  1  0.95423000  0.30108000  0.39771000  1.0
  C  C86  1  0.54576000  0.19892000  0.89771000  1.0
  C  C87  1  0.04577000  0.69892000  0.60229000  1.0
  C  C88  1  0.42692000  0.76063000  0.18390000  1.0
  C  C89  1  0.92691000  0.26063000  0.31610000  1.0
  C  C90  1  0.57308000  0.23937000  0.81610000  1.0
  C  C91  1  0.07308000  0.73937000  0.68390000  1.0
  C  C92  1  0.58039000  0.59036000  0.83127000  1.0
  C  C93  1  0.08039000  0.09036000  0.66873000  1.0
  C  C94  1  0.41961000  0.40964000  0.16873000  1.0
  C  C95  1  0.91961000  0.90964000  0.33127000  1.0
  C  C96  1  0.42946000  0.65930000  0.76366000  1.0
  C  C97  1  0.92946000  0.15930000  0.73634000  1.0
  C  C98  1  0.57054000  0.34070000  0.23634000  1.0
  C  C99  1  0.07054000  0.84070000  0.26366000  1.0
  C  C100  1  0.44176000  0.58063000  0.71772000  1.0
  C  C101  1  0.94176000  0.08063000  0.78228000  1.0
  C  C102  1  0.55824000  0.41937000  0.28228000  1.0
  C  C103  1  0.05824000  0.91937000  0.21772000  1.0
  N  N104  1  0.74656000  0.81230000  0.92287000  1.0
  N  N105  1  0.24656000  0.31230000  0.57713000  1.0
  N  N106  1  0.25344000  0.18770000  0.07713000  1.0
  N  N107  1  0.75344000  0.68770000  0.42287000  1.0
  N  N108  1  0.95252000  0.86900000  0.86592000  1.0
  N  N109  1  0.45253000  0.36900000  0.63408000  1.0
  N  N110  1  0.04747000  0.13100000  0.13408000  1.0
  N  N111  1  0.54747000  0.63100000  0.36592000  1.0
  N  N112  1  0.44712000  0.86031000  0.87991000  1.0
  N  N113  1  0.94712000  0.36031000  0.62009000  1.0
  N  N114  1  0.55288000  0.13969000  0.12009000  1.0
  N  N115  1  0.05287000  0.63968000  0.37991000  1.0
  N  N116  1  0.27090000  0.92238000  0.82507000  1.0
  N  N117  1  0.77090000  0.42238000  0.67493000  1.0
  N  N118  1  0.72910000  0.07763000  0.17493000  1.0
  N  N119  1  0.22911000  0.57762000  0.32507000  1.0
  N  N120  1  0.48437000  0.73495000  0.04377000  1.0
  N  N121  1  0.98437000  0.23496000  0.45623000  1.0
  N  N122  1  0.51563000  0.26504000  0.95623000  1.0
  N  N123  1  0.01563000  0.76504000  0.54377000  1.0
  N  N124  1  0.43932000  0.66905000  0.17649000  1.0
  N  N125  1  0.93931000  0.16905000  0.32351000  1.0
  N  N126  1  0.56068000  0.33095000  0.82351000  1.0
  N  N127  1  0.06068000  0.83095000  0.67649000  1.0
  N  N128  1  0.51750000  0.66506000  0.83590000  1.0
  N  N129  1  0.01750000  0.16506000  0.66410000  1.0
  N  N130  1  0.48250000  0.33494000  0.16410000  1.0
  N  N131  1  0.98250000  0.83494000  0.33590000  1.0
  N  N132  1  0.53769000  0.53704000  0.76084000  1.0
  N  N133  1  0.03769000  0.03704000  0.73916000  1.0
  N  N134  1  0.46231000  0.46296000  0.23916000  1.0
  N  N135  1  0.96231000  0.96296000  0.26084000  1.0
