# generated using pymatgen
data_H8Pb(C5O3)2
_symmetry_space_group_name_H-M   'P 1'
_cell_length_a   7.17025000
_cell_length_b   7.17046000
_cell_length_c   10.02670000
_cell_angle_alpha   81.39910000
_cell_angle_beta   81.40260000
_cell_angle_gamma   86.93790000
_symmetry_Int_Tables_number   1
_chemical_formula_structural   H8Pb(C5O3)2
_chemical_formula_sum   'H16 Pb2 C20 O12'
_cell_volume   503.73319270
_cell_formula_units_Z   2
loop_
 _symmetry_equiv_pos_site_id
 _symmetry_equiv_pos_as_xyz
  1  'x, y, z'
loop_
 _atom_site_type_symbol
 _atom_site_label
 _atom_site_symmetry_multiplicity
 _atom_site_fract_x
 _atom_site_fract_y
 _atom_site_fract_z
 _atom_site_occupancy
  H  H0  1  0.81732000  0.54442000  0.96342000  1.0
  H  H1  1  0.45553000  0.18268000  0.53665000  1.0
  H  H2  1  0.18272000  0.45550000  0.03657000  1.0
  H  H3  1  0.54449000  0.81725000  0.46339000  1.0
  H  H4  1  0.59206000  0.74809000  0.05511000  1.0
  H  H5  1  0.25189000  0.40792000  0.44490000  1.0
  H  H6  1  0.40793000  0.25187000  0.94489000  1.0
  H  H7  1  0.74815000  0.59208000  0.55510000  1.0
  H  H8  1  0.68091000  0.04010000  0.92848000  1.0
  H  H9  1  0.95990000  0.31909000  0.57153000  1.0
  H  H10  1  0.31905000  0.95988000  0.07150000  1.0
  H  H11  1  0.04012000  0.68098000  0.42848000  1.0
  H  H12  1  0.08009000  0.71265000  0.15550000  1.0
  H  H13  1  0.28734000  0.91995000  0.34449000  1.0
  H  H14  1  0.91986000  0.28734000  0.84450000  1.0
  H  H15  1  0.71266000  0.08012000  0.65550000  1.0
  Pb  Pb16  1  0.75193000  0.24804000  0.25007000  1.0
  Pb  Pb17  1  0.24804000  0.75197000  0.74996000  1.0
  C  C18  1  0.72196000  0.71007000  0.10107000  1.0
  C  C19  1  0.28992000  0.27804000  0.39894000  1.0
  C  C20  1  0.27800000  0.28986000  0.89893000  1.0
  C  C21  1  0.71011000  0.72200000  0.60105000  1.0
  C  C22  1  0.66881000  0.69837000  0.25586000  1.0
  C  C23  1  0.30164000  0.33118000  0.24413000  1.0
  C  C24  1  0.33116000  0.30154000  0.74416000  1.0
  C  C25  1  0.69842000  0.66887000  0.75584000  1.0
  C  C26  1  0.86454000  0.86194000  0.04896000  1.0
  C  C27  1  0.13804000  0.13545000  0.45103000  1.0
  C  C28  1  0.13540000  0.13803000  0.95106000  1.0
  C  C29  1  0.86197000  0.86461000  0.54893000  1.0
  C  C30  1  0.82037000  0.02348000  0.96083000  1.0
  C  C31  1  0.97651000  0.17963000  0.53920000  1.0
  C  C32  1  0.17960000  0.97648000  0.03916000  1.0
  C  C33  1  0.02353000  0.82042000  0.46085000  1.0
  C  C34  1  0.04520000  0.83938000  0.08784000  1.0
  C  C35  1  0.16059000  0.95483000  0.41214000  1.0
  C  C36  1  0.95472000  0.16062000  0.91217000  1.0
  C  C37  1  0.83937000  0.04527000  0.58782000  1.0
  O  O38  1  0.79631000  0.53250000  0.06701000  1.0
  O  O39  1  0.46748000  0.20372000  0.43305000  1.0
  O  O40  1  0.20367000  0.46745000  0.93297000  1.0
  O  O41  1  0.53254000  0.79631000  0.56698000  1.0
  O  O42  1  0.60015000  0.84824000  0.29948000  1.0
  O  O43  1  0.15178000  0.39982000  0.20049000  1.0
  O  O44  1  0.39983000  0.15170000  0.70052000  1.0
  O  O45  1  0.84827000  0.60021000  0.79948000  1.0
  O  O46  1  0.69543000  0.54368000  0.33257000  1.0
  O  O47  1  0.45636000  0.30461000  0.16745000  1.0
  O  O48  1  0.30461000  0.45629000  0.66747000  1.0
  O  O49  1  0.54369000  0.69546000  0.83251000  1.0
