# generated using pymatgen
data_AgH7C9INO3
_symmetry_space_group_name_H-M   'P 1'
_cell_length_a   7.67708000
_cell_length_b   10.45119906
_cell_length_c   31.29700000
_cell_angle_alpha   93.45751583
_cell_angle_beta   90.02190000
_cell_angle_gamma   111.53044327
_symmetry_Int_Tables_number   1
_chemical_formula_structural   AgH7C9INO3
_chemical_formula_sum   'Ag8 H56 C72 I8 N8 O24'
_cell_volume   2330.94962561
_cell_formula_units_Z   8
loop_
 _symmetry_equiv_pos_site_id
 _symmetry_equiv_pos_as_xyz
  1  'x, y, z'
loop_
 _atom_site_type_symbol
 _atom_site_label
 _atom_site_symmetry_multiplicity
 _atom_site_fract_x
 _atom_site_fract_y
 _atom_site_fract_z
 _atom_site_occupancy
  Ag  Ag0  1  0.12081000  0.13239000  0.98944000  1.0
  Ag  Ag1  1  0.98850000  0.86764000  0.51058000  1.0
  Ag  Ag2  1  0.87919000  0.86761000  0.01056000  1.0
  Ag  Ag3  1  0.01150000  0.13236000  0.48942000  1.0
  Ag  Ag4  1  0.88341000  0.54541000  0.97348000  1.0
  Ag  Ag5  1  0.33831000  0.45443000  0.52653000  1.0
  Ag  Ag6  1  0.11659000  0.45459000  0.02653000  1.0
  Ag  Ag7  1  0.66169000  0.54557000  0.47347000  1.0
  H  H8  1  0.24982000  0.90517000  0.86740000  1.0
  H  H9  1  0.34556000  0.09489000  0.63253000  1.0
  H  H10  1  0.75018000  0.09483000  0.13260000  1.0
  H  H11  1  0.65445000  0.90511000  0.36747000  1.0
  H  H12  1  0.30283000  0.80204000  0.90512000  1.0
  H  H13  1  0.50142000  0.19816000  0.59483000  1.0
  H  H14  1  0.69717000  0.19796000  0.09488000  1.0
  H  H15  1  0.49858000  0.80184000  0.40517000  1.0
  H  H16  1  0.09263000  0.29849000  0.86409000  1.0
  H  H17  1  0.79502000  0.70127000  0.63593000  1.0
  H  H18  1  0.90738000  0.70152000  0.13591000  1.0
  H  H19  1  0.20498000  0.29873000  0.36407000  1.0
  H  H20  1  0.28630000  0.45650000  0.87232000  1.0
  H  H21  1  0.83065000  0.54324000  0.62763000  1.0
  H  H22  1  0.71369000  0.54350000  0.12768000  1.0
  H  H23  1  0.16935000  0.45676000  0.37237000  1.0
  H  H24  1  0.34589000  0.41364000  0.78632000  1.0
  H  H25  1  0.93330000  0.58666000  0.71364000  1.0
  H  H26  1  0.65412000  0.58637000  0.21369000  1.0
  H  H27  1  0.06671000  0.41334000  0.28636000  1.0
  H  H28  1  0.68900000  0.06315000  0.99740000  1.0
  H  H29  1  0.62611000  0.93695000  0.50262000  1.0
  H  H30  1  0.31100000  0.93685000  0.00261000  1.0
  H  H31  1  0.37389000  0.06305000  0.49738000  1.0
  H  H32  1  0.77928000  0.95024000  0.93389000  1.0
  H  H33  1  0.82935000  0.04970000  0.56615000  1.0
  H  H34  1  0.22072000  0.04976000  0.06611000  1.0
  H  H35  1  0.17065000  0.95030000  0.43385000  1.0
  H  H36  1  0.47192000  0.23640000  0.76109000  1.0
  H  H37  1  0.23656000  0.76390000  0.73885000  1.0
  H  H38  1  0.52807000  0.76360000  0.23891000  1.0
  H  H39  1  0.76344000  0.23609000  0.26115000  1.0
  H  H40  1  0.75700000  0.02629000  0.86114000  1.0
  H  H41  1  0.73105000  0.97360000  0.63888000  1.0
  H  H42  1  0.24299000  0.97371000  0.13886000  1.0
  H  H43  1  0.26895000  0.02640000  0.36112000  1.0
  H  H44  1  0.81071000  0.27754000  0.77349000  1.0
  H  H45  1  0.53411000  0.72257000  0.72654000  1.0
  H  H46  1  0.18929000  0.72246000  0.22651000  1.0
  H  H47  1  0.46589000  0.27742000  0.27346000  1.0
  H  H48  1  0.62534000  0.21046000  0.85203000  1.0
  H  H49  1  0.41537000  0.78942000  0.64795000  1.0
  H  H50  1  0.37466000  0.78954000  0.14797000  1.0
  H  H51  1  0.58462000  0.21057000  0.35205000  1.0
  H  H52  1  0.01933000  0.49748000  0.81105000  1.0
  H  H53  1  0.52278000  0.50253000  0.68902000  1.0
  H  H54  1  0.98067000  0.50252000  0.18895000  1.0
  H  H55  1  0.47722000  0.49746000  0.31098000  1.0
  H  H56  1  0.26554000  0.18003000  0.89641000  1.0
  H  H57  1  0.08603000  0.81979000  0.60358000  1.0
  H  H58  1  0.73446000  0.81997000  0.10359000  1.0
  H  H59  1  0.91397000  0.18021000  0.39643000  1.0
  H  H60  1  0.03671000  0.61098000  0.88177000  1.0
  H  H61  1  0.42625000  0.38913000  0.61826000  1.0
  H  H62  1  0.96329000  0.38902000  0.11823000  1.0
  H  H63  1  0.57374000  0.61086000  0.38174000  1.0
  C  C64  1  0.10824000  0.88923000  0.92713000  1.0
  C  C65  1  0.21951000  0.11098000  0.57285000  1.0
  C  C66  1  0.89176000  0.11077000  0.07287000  1.0
  C  C67  1  0.78050000  0.88902000  0.42715000  1.0
  C  C68  1  0.11517000  0.40023000  0.92650000  1.0
  C  C69  1  0.71528000  0.59967000  0.57352000  1.0
  C  C70  1  0.88484000  0.59978000  0.07350000  1.0
  C  C71  1  0.28472000  0.40033000  0.42648000  1.0
  C  C72  1  0.18952000  0.82696000  0.89054000  1.0
  C  C73  1  0.36326000  0.17322000  0.60942000  1.0
  C  C74  1  0.81048000  0.17305000  0.10946000  1.0
  C  C75  1  0.63674000  0.82678000  0.39058000  1.0
  C  C76  1  0.20512000  0.35998000  0.88694000  1.0
  C  C77  1  0.84582000  0.63981000  0.61304000  1.0
  C  C78  1  0.79488000  0.64002000  0.11306000  1.0
  C  C79  1  0.15418000  0.36019000  0.38696000  1.0
  C  C80  1  0.49938000  0.34560000  0.91241000  1.0
  C  C81  1  0.15442000  0.65425000  0.58754000  1.0
  C  C82  1  0.50062000  0.65440000  0.08759000  1.0
  C  C83  1  0.84558000  0.34575000  0.41246000  1.0
  C  C84  1  0.93608000  0.71524000  0.83944000  1.0
  C  C85  1  0.22190000  0.28479000  0.66064000  1.0
  C  C86  1  0.06392000  0.28476000  0.16056000  1.0
  C  C87  1  0.77811000  0.71521000  0.33936000  1.0
  C  C88  1  0.80280000  0.58082000  0.81943000  1.0
  C  C89  1  0.22297000  0.41923000  0.68066000  1.0
  C  C90  1  0.19720000  0.41918000  0.18057000  1.0
  C  C91  1  0.77703000  0.58076000  0.31934000  1.0
  C  C92  1  0.58977000  0.24280000  0.91943000  1.0
  C  C93  1  0.34752000  0.75706000  0.58053000  1.0
  C  C94  1  0.41023000  0.75720000  0.08057000  1.0
  C  C95  1  0.65248000  0.24294000  0.41946000  1.0
  C  C96  1  0.61194000  0.20276000  0.96031000  1.0
  C  C97  1  0.40967000  0.79717000  0.53967000  1.0
  C  C98  1  0.38805000  0.79724000  0.03969000  1.0
  C  C99  1  0.59033000  0.20283000  0.46033000  1.0
  C  C100  1  0.61253000  0.55594000  0.81204000  1.0
  C  C101  1  0.05764000  0.44418000  0.68802000  1.0
  C  C102  1  0.38747000  0.44406000  0.18796000  1.0
  C  C103  1  0.94237000  0.55582000  0.31198000  1.0
  C  C104  1  0.49350000  0.43172000  0.79169000  1.0
  C  C105  1  0.06278000  0.56846000  0.70832000  1.0
  C  C106  1  0.50650000  0.56828000  0.20831000  1.0
  C  C107  1  0.93722000  0.43153000  0.29168000  1.0
  C  C108  1  0.67884000  0.09737000  0.96564000  1.0
  C  C109  1  0.58191000  0.90257000  0.53436000  1.0
  C  C110  1  0.32116000  0.90263000  0.03436000  1.0
  C  C111  1  0.41809000  0.09743000  0.46564000  1.0
  C  C112  1  0.72999000  0.03418000  0.92973000  1.0
  C  C113  1  0.69624000  0.96569000  0.57029000  1.0
  C  C114  1  0.27001000  0.96582000  0.07027000  1.0
  C  C115  1  0.30376000  0.03431000  0.42971000  1.0
  C  C116  1  0.56490000  0.33166000  0.77777000  1.0
  C  C117  1  0.23424000  0.66853000  0.72223000  1.0
  C  C118  1  0.43510000  0.66834000  0.22223000  1.0
  C  C119  1  0.76576000  0.33146000  0.27777000  1.0
  C  C120  1  0.71569000  0.07627000  0.88883000  1.0
  C  C121  1  0.63988000  0.92358000  0.61118000  1.0
  C  C122  1  0.28430000  0.92373000  0.11117000  1.0
  C  C123  1  0.36012000  0.07642000  0.38882000  1.0
  C  C124  1  0.75390000  0.35460000  0.78485000  1.0
  C  C125  1  0.40027000  0.64551000  0.71519000  1.0
  C  C126  1  0.24610000  0.64540000  0.21515000  1.0
  C  C127  1  0.59974000  0.35449000  0.28481000  1.0
  C  C128  1  0.64284000  0.17880000  0.88381000  1.0
  C  C129  1  0.46457000  0.82105000  0.61618000  1.0
  C  C130  1  0.35716000  0.82120000  0.11619000  1.0
  C  C131  1  0.53543000  0.17895000  0.38382000  1.0
  C  C132  1  0.87088000  0.47775000  0.80582000  1.0
  C  C133  1  0.39409000  0.52231000  0.69425000  1.0
  C  C134  1  0.12913000  0.52226000  0.19418000  1.0
  C  C135  1  0.60592000  0.47769000  0.30575000  1.0
  I  I136  1  0.53364000  0.29821000  0.01488000  1.0
  I  I137  1  0.23561000  0.70201000  0.48511000  1.0
  I  I138  1  0.46637000  0.70180000  0.98512000  1.0
  I  I139  1  0.76439000  0.29799000  0.51489000  1.0
  I  I140  1  0.49221000  0.69939000  0.83348000  1.0
  I  I141  1  0.79390000  0.30069000  0.66657000  1.0
  I  I142  1  0.50779000  0.30061000  0.16652000  1.0
  I  I143  1  0.20610000  0.69931000  0.33343000  1.0
  N  N144  1  0.32479000  0.28488000  0.89497000  1.0
  N  N145  1  0.04050000  0.71493000  0.60497000  1.0
  N  N146  1  0.67521000  0.71513000  0.10503000  1.0
  N  N147  1  0.95950000  0.28507000  0.39503000  1.0
  N  N148  1  0.05663000  0.70381000  0.86927000  1.0
  N  N149  1  0.35355000  0.29628000  0.63075000  1.0
  N  N150  1  0.94338000  0.29620000  0.13073000  1.0
  N  N151  1  0.64644000  0.70371000  0.36925000  1.0
  O  O152  1  0.17760000  0.02007000  0.93285000  1.0
  O  O153  1  0.15812000  0.98015000  0.56713000  1.0
  O  O154  1  0.82240000  0.97994000  0.06715000  1.0
  O  O155  1  0.84188000  0.01985000  0.43287000  1.0
  O  O156  1  0.02773000  0.47977000  0.91986000  1.0
  O  O157  1  0.54838000  0.52022000  0.58019000  1.0
  O  O158  1  0.97227000  0.52024000  0.08014000  1.0
  O  O159  1  0.45162000  0.47978000  0.41981000  1.0
  O  O160  1  0.98636000  0.80664000  0.94992000  1.0
  O  O161  1  0.17990000  0.19356000  0.55009000  1.0
  O  O162  1  0.01364000  0.19337000  0.05008000  1.0
  O  O163  1  0.82010000  0.80644000  0.44991000  1.0
  O  O164  1  0.13593000  0.35554000  0.96218000  1.0
  O  O165  1  0.78045000  0.64437000  0.53782000  1.0
  O  O166  1  0.86408000  0.64447000  0.03782000  1.0
  O  O167  1  0.21955000  0.35562000  0.46217000  1.0
  O  O168  1  0.57919000  0.47200000  0.92117000  1.0
  O  O169  1  0.10792000  0.52785000  0.57877000  1.0
  O  O170  1  0.42081000  0.52800000  0.07883000  1.0
  O  O171  1  0.89208000  0.47215000  0.42123000  1.0
  O  O172  1  0.93866000  0.82808000  0.82828000  1.0
  O  O173  1  0.11195000  0.17193000  0.67185000  1.0
  O  O174  1  0.06135000  0.17193000  0.17172000  1.0
  O  O175  1  0.88806000  0.82807000  0.32815000  1.0
