# generated using pymatgen
data_ZnH10C31N4Cl6O13
_symmetry_space_group_name_H-M   'P 1'
_cell_length_a   16.16420000
_cell_length_b   16.73320000
_cell_length_c   27.53670000
_cell_angle_alpha   88.48400000
_cell_angle_beta   88.57390000
_cell_angle_gamma   86.43580000
_symmetry_Int_Tables_number   1
_chemical_formula_structural   ZnH10C31N4Cl6O13
_chemical_formula_sum   'Zn2 H20 C62 N8 Cl12 O26'
_cell_volume   7429.06829369
_cell_formula_units_Z   2
loop_
 _symmetry_equiv_pos_site_id
 _symmetry_equiv_pos_as_xyz
  1  'x, y, z'
loop_
 _atom_site_type_symbol
 _atom_site_label
 _atom_site_symmetry_multiplicity
 _atom_site_fract_x
 _atom_site_fract_y
 _atom_site_fract_z
 _atom_site_occupancy
  Zn  Zn0  1  0.58956000  0.51100000  0.50198000  1.0
  Zn  Zn1  1  0.41044000  0.48900000  0.49801000  1.0
  H  H2  1  0.61868000  0.26825000  0.45402000  1.0
  H  H3  1  0.38133000  0.73173000  0.54597000  1.0
  H  H4  1  0.12704000  0.42581000  0.57026000  1.0
  H  H5  1  0.87296000  0.57424000  0.42975000  1.0
  H  H6  1  0.31747000  0.41047000  0.96985000  1.0
  H  H7  1  0.68244000  0.58976000  0.03016000  1.0
  H  H8  1  0.54244000  0.37399000  0.67713000  1.0
  H  H9  1  0.45763000  0.62610000  0.32289000  1.0
  H  H10  1  0.55130000  0.96704000  0.44080000  1.0
  H  H11  1  0.44878000  0.03292000  0.55922000  1.0
  H  H12  1  0.26506000  0.37879000  0.58815000  1.0
  H  H13  1  0.73493000  0.62122000  0.41186000  1.0
  H  H14  1  0.59570000  0.27159000  0.34175000  1.0
  H  H15  1  0.40431000  0.72848000  0.65820000  1.0
  H  H16  1  0.54741000  0.28874000  0.24033000  1.0
  H  H17  1  0.45259000  0.71137000  0.75964000  1.0
  H  H18  1  0.31284000  0.31960000  0.05697000  1.0
  H  H19  1  0.68717000  0.68051000  0.94300000  1.0
  H  H20  1  0.56411000  0.80263000  0.39082000  1.0
  H  H21  1  0.43589000  0.19737000  0.60918000  1.0
  C  C22  1  0.53545000  0.35211000  0.52180000  1.0
  C  C23  1  0.46452000  0.64788000  0.47818000  1.0
  C  C24  1  0.47076000  0.54126000  0.89948000  1.0
  C  C25  1  0.52919000  0.45891000  0.10051000  1.0
  C  C26  1  0.40572000  0.50717000  0.87436000  1.0
  C  C27  1  0.59422000  0.49302000  0.12563000  1.0
  C  C28  1  0.35013000  0.46264000  0.90178000  1.0
  C  C29  1  0.64978000  0.53760000  0.09823000  1.0
  C  C30  1  0.51984000  0.59740000  0.87395000  1.0
  C  C31  1  0.48015000  0.40272000  0.12602000  1.0
  C  C32  1  0.47022000  0.54761000  0.64418000  1.0
  C  C33  1  0.52982000  0.45245000  0.35581000  1.0
  C  C34  1  0.44679000  0.44611000  0.02615000  1.0
  C  C35  1  0.55318000  0.55406000  0.97384000  1.0
  C  C36  1  0.56876000  0.53007000  0.02451000  1.0
  C  C37  1  0.43119000  0.47012000  0.97549000  1.0
  C  C38  1  0.51420000  0.47823000  0.05030000  1.0
  C  C39  1  0.48577000  0.52193000  0.94969000  1.0
  C  C40  1  0.39932000  0.39070000  0.05250000  1.0
  C  C41  1  0.60067000  0.60944000  0.94748000  1.0
  C  C42  1  0.41760000  0.36873000  0.10133000  1.0
  C  C43  1  0.58241000  0.63138000  0.89864000  1.0
  C  C44  1  0.47330000  0.53757000  0.58984000  1.0
  C  C45  1  0.52675000  0.46247000  0.41016000  1.0
  C  C46  1  0.36282000  0.44551000  0.95107000  1.0
  C  C47  1  0.63711000  0.55470000  0.04892000  1.0
  C  C48  1  0.54325000  0.26239000  0.51964000  1.0
  C  C49  1  0.45675000  0.73760000  0.48036000  1.0
  C  C50  1  0.50058000  0.21350000  0.55217000  1.0
  C  C51  1  0.49943000  0.78649000  0.44783000  1.0
  C  C52  1  0.49496000  0.13205000  0.54216000  1.0
  C  C53  1  0.50509000  0.86792000  0.45785000  1.0
  C  C54  1  0.53211000  0.09903000  0.49917000  1.0
  C  C55  1  0.46796000  0.90094000  0.50085000  1.0
  C  C56  1  0.57920000  0.14952000  0.46832000  1.0
  C  C57  1  0.42085000  0.85046000  0.53170000  1.0
  C  C58  1  0.58516000  0.22915000  0.47868000  1.0
  C  C59  1  0.41485000  0.77083000  0.52132000  1.0
  C  C60  1  0.23466000  0.51292000  0.45669000  1.0
  C  C61  1  0.76535000  0.48709000  0.54331000  1.0
  C  C62  1  0.14796000  0.52589000  0.46152000  1.0
  C  C63  1  0.85205000  0.47414000  0.53849000  1.0
  C  C64  1  0.10965000  0.49401000  0.50368000  1.0
  C  C65  1  0.89037000  0.50602000  0.49633000  1.0
  C  C66  1  0.40109000  0.51488000  0.82100000  1.0
  C  C67  1  0.59883000  0.48531000  0.17899000  1.0
  C  C68  1  0.15714000  0.45049000  0.53787000  1.0
  C  C69  1  0.84287000  0.54954000  0.46214000  1.0
  C  C70  1  0.24234000  0.43896000  0.52910000  1.0
  C  C71  1  0.75766000  0.56106000  0.47090000  1.0
  C  C72  1  0.50434000  0.61806000  0.82242000  1.0
  C  C73  1  0.49566000  0.38205000  0.17756000  1.0
  C  C74  1  0.44072000  0.62723000  0.71607000  1.0
  C  C75  1  0.55927000  0.37286000  0.28391000  1.0
  C  C76  1  0.44236000  0.61947000  0.66521000  1.0
  C  C77  1  0.55764000  0.38060000  0.33477000  1.0
  C  C78  1  0.49925000  0.48296000  0.67396000  1.0
  C  C79  1  0.50076000  0.51712000  0.32604000  1.0
  C  C80  1  0.49713000  0.49023000  0.72446000  1.0
  C  C81  1  0.50286000  0.50986000  0.27554000  1.0
  C  C82  1  0.46603000  0.56183000  0.74574000  1.0
  C  C83  1  0.53394000  0.43827000  0.25425000  1.0
  N  N84  1  0.45946000  0.56444000  0.79772000  1.0
  N  N85  1  0.54050000  0.43569000  0.20227000  1.0
  N  N86  1  0.52253000  0.02163000  0.48568000  1.0
  N  N87  1  0.47755000  0.97834000  0.51435000  1.0
  N  N88  1  0.28069000  0.47228000  0.49030000  1.0
  N  N89  1  0.71932000  0.52772000  0.50970000  1.0
  N  N90  1  0.02445000  0.50774000  0.51629000  1.0
  N  N91  1  0.97556000  0.49231000  0.48372000  1.0
  Cl  Cl92  1  0.62718000  0.11094000  0.41623000  1.0
  Cl  Cl93  1  0.37289000  0.88902000  0.58379000  1.0
  Cl  Cl94  1  0.71535000  0.45231000  0.59389000  1.0
  Cl  Cl95  1  0.28466000  0.54767000  0.40611000  1.0
  Cl  Cl96  1  0.90651000  0.41820000  0.58136000  1.0
  Cl  Cl97  1  0.09351000  0.58184000  0.41864000  1.0
  Cl  Cl98  1  0.53524000  0.40928000  0.75967000  1.0
  Cl  Cl99  1  0.46472000  0.59082000  0.24035000  1.0
  Cl  Cl100  1  0.26302000  0.42528000  0.87865000  1.0
  Cl  Cl101  1  0.73684000  0.57501000  0.12137000  1.0
  Cl  Cl102  1  0.35425000  0.29940000  0.12780000  1.0
  Cl  Cl103  1  0.64582000  0.70064000  0.87215000  1.0
  O  O104  1  0.60120000  0.38974000  0.51819000  1.0
  O  O105  1  0.39875000  0.61027000  0.48182000  1.0
  O  O106  1  0.46136000  0.38163000  0.52356000  1.0
  O  O107  1  0.53859000  0.61833000  0.47640000  1.0
  O  O108  1  0.54446000  0.54144000  0.56970000  1.0
  O  O109  1  0.45559000  0.45863000  0.43030000  1.0
  O  O110  1  0.40567000  0.52483000  0.57010000  1.0
  O  O111  1  0.59439000  0.47516000  0.42990000  1.0
  O  O112  1  0.35303000  0.48067000  0.79627000  1.0
  O  O113  1  0.64687000  0.51954000  0.20373000  1.0
  O  O114  1  0.46923000  0.32232000  0.19905000  1.0
  O  O115  1  0.53080000  0.67777000  0.80091000  1.0
  O  O116  1  0.52939000  0.41484000  0.65193000  1.0
  O  O117  1  0.47066000  0.58524000  0.34808000  1.0
  O  O118  1  0.54971000  0.91130000  0.42583000  1.0
  O  O119  1  0.45036000  0.08866000  0.57419000  1.0
  O  O120  1  0.29337000  0.39440000  0.55809000  1.0
  O  O121  1  0.70663000  0.60561000  0.44192000  1.0
  O  O122  1  0.58254000  0.31641000  0.36341000  1.0
  O  O123  1  0.41747000  0.68365000  0.63655000  1.0
  O  O124  1  0.58660000  0.29958000  0.26624000  1.0
  O  O125  1  0.41339000  0.70052000  0.73373000  1.0
  O  O126  1  0.33576000  0.35616000  0.03199000  1.0
  O  O127  1  0.66423000  0.64398000  0.96799000  1.0
  O  O128  1  0.53785000  0.75732000  0.40675000  1.0
  O  O129  1  0.46214000  0.24267000  0.59324000  1.0
