# generated using pymatgen
data_CuH4C6(N3O)2
_symmetry_space_group_name_H-M   'P 1'
_cell_length_a   5.94206000
_cell_length_b   6.85813000
_cell_length_c   10.42490000
_cell_angle_alpha   89.99840000
_cell_angle_beta   88.26450000
_cell_angle_gamma   89.99820000
_symmetry_Int_Tables_number   1
_chemical_formula_structural   CuH4C6(N3O)2
_chemical_formula_sum   'Cu2 H8 C12 N12 O4'
_cell_volume   424.63460277
_cell_formula_units_Z   2
loop_
 _symmetry_equiv_pos_site_id
 _symmetry_equiv_pos_as_xyz
  1  'x, y, z'
loop_
 _atom_site_type_symbol
 _atom_site_label
 _atom_site_symmetry_multiplicity
 _atom_site_fract_x
 _atom_site_fract_y
 _atom_site_fract_z
 _atom_site_occupancy
  Cu  Cu0  1  0.59351000  0.24998000  0.75261000  1.0
  Cu  Cu1  1  0.40649000  0.75002000  0.24739000  1.0
  H  H2  1  0.35953000  0.56924000  0.61205000  1.0
  H  H3  1  0.64048000  0.06926000  0.38796000  1.0
  H  H4  1  0.64047000  0.43076000  0.38795000  1.0
  H  H5  1  0.35952000  0.93074000  0.61204000  1.0
  H  H6  1  0.82940000  0.56692000  0.90139000  1.0
  H  H7  1  0.17061000  0.06697000  0.09861000  1.0
  H  H8  1  0.17060000  0.43308000  0.09861000  1.0
  H  H9  1  0.82940000  0.93303000  0.90139000  1.0
  C  C10  1  0.12660000  0.24998000  0.84004000  1.0
  C  C11  1  0.87340000  0.75002000  0.15996000  1.0
  C  C12  1  0.08477000  0.24999000  0.69995000  1.0
  C  C13  1  0.91522000  0.75002000  0.30005000  1.0
  C  C14  1  0.46406000  0.64879000  0.67780000  1.0
  C  C15  1  0.53594000  0.14880000  0.32221000  1.0
  C  C16  1  0.53595000  0.35121000  0.32220000  1.0
  C  C17  1  0.46407000  0.85120000  0.67779000  1.0
  C  C18  1  0.72473000  0.64829000  0.83630000  1.0
  C  C19  1  0.27527000  0.14833000  0.16369000  1.0
  C  C20  1  0.27528000  0.35172000  0.16370000  1.0
  C  C21  1  0.72473000  0.85167000  0.83630000  1.0
  N  N22  1  0.24106000  0.24999000  0.60454000  1.0
  N  N23  1  0.75893000  0.75001000  0.39546000  1.0
  N  N24  1  0.12532000  0.24999000  0.49483000  1.0
  N  N25  1  0.87467000  0.75001000  0.50517000  1.0
  N  N26  1  0.90678000  0.24999000  0.52279000  1.0
  N  N27  1  0.09322000  0.75002000  0.47721000  1.0
  N  N28  1  0.87807000  0.24998000  0.65069000  1.0
  N  N29  1  0.12192000  0.75003000  0.34931000  1.0
  N  N30  1  0.59354000  0.54779000  0.75720000  1.0
  N  N31  1  0.40645000  0.04781000  0.24280000  1.0
  N  N32  1  0.40646000  0.45221000  0.24280000  1.0
  N  N33  1  0.59356000  0.95218000  0.75720000  1.0
  O  O34  1  0.33341000  0.24997000  0.87457000  1.0
  O  O35  1  0.66658000  0.75001000  0.12544000  1.0
  O  O36  1  0.95996000  0.24998000  0.91686000  1.0
  O  O37  1  0.04005000  0.75002000  0.08315000  1.0
