# generated using pymatgen
data_ZnH12(C3O)4
_symmetry_space_group_name_H-M   'P 1'
_cell_length_a   8.76896000
_cell_length_b   9.25812000
_cell_length_c   17.30100000
_cell_angle_alpha   83.76740000
_cell_angle_beta   76.74760000
_cell_angle_gamma   61.73290000
_symmetry_Int_Tables_number   1
_chemical_formula_structural   ZnH12(C3O)4
_chemical_formula_sum   'Zn4 H48 C48 O16'
_cell_volume   1204.12695478
_cell_formula_units_Z   4
loop_
 _symmetry_equiv_pos_site_id
 _symmetry_equiv_pos_as_xyz
  1  'x, y, z'
loop_
 _atom_site_type_symbol
 _atom_site_label
 _atom_site_symmetry_multiplicity
 _atom_site_fract_x
 _atom_site_fract_y
 _atom_site_fract_z
 _atom_site_occupancy
  Zn  Zn0  1  0.22230000  0.87549000  0.27369000  1.0
  Zn  Zn1  1  0.90234000  0.87545000  0.22634000  1.0
  Zn  Zn2  1  0.77770000  0.12451000  0.72631000  1.0
  Zn  Zn3  1  0.09765000  0.12455000  0.77366000  1.0
  H  H4  1  0.57308000  0.40402000  0.43070000  1.0
  H  H5  1  0.02283000  0.40407000  0.06926000  1.0
  H  H6  1  0.42693000  0.59598000  0.56930000  1.0
  H  H7  1  0.97718000  0.59592000  0.93074000  1.0
  H  H8  1  0.78499000  0.36610000  0.44072000  1.0
  H  H9  1  0.84874000  0.36620000  0.05929000  1.0
  H  H10  1  0.21502000  0.63388000  0.55927000  1.0
  H  H11  1  0.15126000  0.63380000  0.94071000  1.0
  H  H12  1  0.76268000  0.22020000  0.39276000  1.0
  H  H13  1  0.01704000  0.22025000  0.10720000  1.0
  H  H14  1  0.23732000  0.77980000  0.60724000  1.0
  H  H15  1  0.98295000  0.77975000  0.89280000  1.0
  H  H16  1  0.64725000  0.65244000  0.44305000  1.0
  H  H17  1  0.70037000  0.65254000  0.05696000  1.0
  H  H18  1  0.35275000  0.34755000  0.55695000  1.0
  H  H19  1  0.29964000  0.34746000  0.94304000  1.0
  H  H20  1  0.43793000  0.69193000  0.42725000  1.0
  H  H21  1  0.87020000  0.69202000  0.07279000  1.0
  H  H22  1  0.56208000  0.30806000  0.57275000  1.0
  H  H23  1  0.12980000  0.30798000  0.92721000  1.0
  H  H24  1  0.52097000  0.83379000  0.39360000  1.0
  H  H25  1  0.64532000  0.83385000  0.10645000  1.0
  H  H26  1  0.47904000  0.16621000  0.60640000  1.0
  H  H27  1  0.35469000  0.16615000  0.89355000  1.0
  H  H28  1  0.80480000  0.89461000  0.57488000  1.0
  H  H29  1  0.30064000  0.89471000  0.92525000  1.0
  H  H30  1  0.19519000  0.10540000  0.42512000  1.0
  H  H31  1  0.69936000  0.10529000  0.07475000  1.0
  H  H32  1  0.66855000  0.90497000  0.51110000  1.0
  H  H33  1  0.42688000  0.90482000  0.98891000  1.0
  H  H34  1  0.33144000  0.09505000  0.48890000  1.0
  H  H35  1  0.57313000  0.09517000  0.01109000  1.0
  H  H36  1  0.86605000  0.91884000  0.47102000  1.0
  H  H37  1  0.21550000  0.91887000  0.02913000  1.0
  H  H38  1  0.13395000  0.08117000  0.52898000  1.0
  H  H39  1  0.78450000  0.08113000  0.97087000  1.0
  H  H40  1  0.28915000  0.43627000  0.31625000  1.0
  H  H41  1  0.27455000  0.43621000  0.18372000  1.0
  H  H42  1  0.71084000  0.56374000  0.68375000  1.0
  H  H43  1  0.72546000  0.56378000  0.81628000  1.0
  H  H44  1  0.21475000  0.28608000  0.32175000  1.0
  H  H45  1  0.49909000  0.28589000  0.17818000  1.0
  H  H46  1  0.78524000  0.71392000  0.67825000  1.0
  H  H47  1  0.50091000  0.71411000  0.82182000  1.0
  H  H48  1  0.38641000  0.25194000  0.36898000  1.0
  H  H49  1  0.36143000  0.25197000  0.13095000  1.0
  H  H50  1  0.61358000  0.74807000  0.63102000  1.0
  H  H51  1  0.63857000  0.74803000  0.86906000  1.0
  C  C52  1  0.91345000  0.17321000  0.24999000  1.0
  C  C53  1  0.08655000  0.82679000  0.75001000  1.0
  C  C54  1  0.82192000  0.35622000  0.24999000  1.0
  C  C55  1  0.17809000  0.64377000  0.75001000  1.0
  C  C56  1  0.73036000  0.43951000  0.32279000  1.0
  C  C57  1  0.83016000  0.43953000  0.17720000  1.0
  C  C58  1  0.26964000  0.56049000  0.67721000  1.0
  C  C59  1  0.16984000  0.56047000  0.82280000  1.0
  C  C60  1  0.64744000  0.61199000  0.32290000  1.0
  C  C61  1  0.74064000  0.61200000  0.17711000  1.0
  C  C62  1  0.35257000  0.38801000  0.67710000  1.0
  C  C63  1  0.25936000  0.38800000  0.82289000  1.0
  C  C64  1  0.65262000  0.69486000  0.25001000  1.0
  C  C65  1  0.34738000  0.30514000  0.74999000  1.0
  C  C66  1  0.56090000  0.87832000  0.25002000  1.0
  C  C67  1  0.43911000  0.12168000  0.74998000  1.0
  C  C68  1  0.71265000  0.35180000  0.40028000  1.0
  C  C69  1  0.93548000  0.35186000  0.09970000  1.0
  C  C70  1  0.28735000  0.64820000  0.59972000  1.0
  C  C71  1  0.06452000  0.64814000  0.90030000  1.0
  C  C72  1  0.55851000  0.70296000  0.40054000  1.0
  C  C73  1  0.73860000  0.70301000  0.09949000  1.0
  C  C74  1  0.44150000  0.29704000  0.59946000  1.0
  C  C75  1  0.26140000  0.29698000  0.90051000  1.0
  C  C76  1  0.05576000  0.70424000  0.37079000  1.0
  C  C77  1  0.24012000  0.70417000  0.12925000  1.0
  C  C78  1  0.94423000  0.29577000  0.62921000  1.0
  C  C79  1  0.75987000  0.29582000  0.87075000  1.0
  C  C80  1  0.03132000  0.59718000  0.43891000  1.0
  C  C81  1  0.37159000  0.59714000  0.06111000  1.0
  C  C82  1  0.96867000  0.40283000  0.56109000  1.0
  C  C83  1  0.62842000  0.40285000  0.93889000  1.0
  C  C84  1  0.90553000  0.67320000  0.50773000  1.0
  C  C85  1  0.42140000  0.67318000  0.99232000  1.0
  C  C86  1  0.09447000  0.32680000  0.49227000  1.0
  C  C87  1  0.57860000  0.32681000  0.00768000  1.0
  C  C88  1  0.80725000  0.85709000  0.51630000  1.0
  C  C89  1  0.33590000  0.85706000  0.98378000  1.0
  C  C90  1  0.19274000  0.14292000  0.48370000  1.0
  C  C91  1  0.66410000  0.14294000  0.01622000  1.0
  C  C92  1  0.12728000  0.42592000  0.42989000  1.0
  C  C93  1  0.44674000  0.42589000  0.07009000  1.0
  C  C94  1  0.87272000  0.57409000  0.57011000  1.0
  C  C95  1  0.55326000  0.57411000  0.92991000  1.0
  C  C96  1  0.26023000  0.34739000  0.35537000  1.0
  C  C97  1  0.39227000  0.34733000  0.14458000  1.0
  C  C98  1  0.73976000  0.65261000  0.64463000  1.0
  C  C99  1  0.60773000  0.65267000  0.85542000  1.0
  O  O100  1  0.02545000  0.09997000  0.29481000  1.0
  O  O101  1  0.87477000  0.09990000  0.20517000  1.0
  O  O102  1  0.97455000  0.90003000  0.70518000  1.0
  O  O103  1  0.12524000  0.90010000  0.79483000  1.0
  O  O104  1  0.39268000  0.95745000  0.26690000  1.0
  O  O105  1  0.64996000  0.95747000  0.23315000  1.0
  O  O106  1  0.60732000  0.04254000  0.73310000  1.0
  O  O107  1  0.35004000  0.04253000  0.76685000  1.0
  O  O108  1  0.19181000  0.72756000  0.35888000  1.0
  O  O109  1  0.08076000  0.72750000  0.14115000  1.0
  O  O110  1  0.80819000  0.27244000  0.64112000  1.0
  O  O111  1  0.91924000  0.27249000  0.85885000  1.0
  O  O112  1  0.93583000  0.76532000  0.32980000  1.0
  O  O113  1  0.29899000  0.76523000  0.17025000  1.0
  O  O114  1  0.06415000  0.23471000  0.67021000  1.0
  O  O115  1  0.70101000  0.23477000  0.82975000  1.0
