# generated using pymatgen
data_Zn4H8C40Cl4O13F8
_symmetry_space_group_name_H-M   'P 1'
_cell_length_a   23.95947783
_cell_length_b   23.96000000
_cell_length_c   23.95830000
_cell_angle_alpha   66.60750000
_cell_angle_beta   72.45044033
_cell_angle_gamma   107.54591648
_symmetry_Int_Tables_number   1
_chemical_formula_structural   Zn4H8C40Cl4O13F8
_chemical_formula_sum   'Zn8 H16 C80 Cl8 O26 F16'
_cell_volume   10549.94102694
_cell_formula_units_Z   2
loop_
 _symmetry_equiv_pos_site_id
 _symmetry_equiv_pos_as_xyz
  1  'x, y, z'
loop_
 _atom_site_type_symbol
 _atom_site_label
 _atom_site_symmetry_multiplicity
 _atom_site_fract_x
 _atom_site_fract_y
 _atom_site_fract_z
 _atom_site_occupancy
  Zn  Zn0  1  0.05713000  0.09948000  0.45764000  1.0
  Zn  Zn1  1  0.05713000  0.95766000  0.48522000  1.0
  Zn  Zn2  1  0.94287000  0.95764000  0.59949000  1.0
  Zn  Zn3  1  0.94289000  0.98524000  0.45763000  1.0
  Zn  Zn4  1  0.94288000  0.40053000  0.04235000  1.0
  Zn  Zn5  1  0.05713000  0.54236000  0.90051000  1.0
  Zn  Zn6  1  0.94287000  0.54234000  0.01478000  1.0
  Zn  Zn7  1  0.05711000  0.51476000  0.04237000  1.0
  H  H8  1  0.92328000  0.20867000  0.90194000  1.0
  H  H9  1  0.07670000  0.40193000  0.70865000  1.0
  H  H10  1  0.92329000  0.09807000  0.79135000  1.0
  H  H11  1  0.07666000  0.29134000  0.59805000  1.0
  H  H12  1  0.07672000  0.67482000  0.21459000  1.0
  H  H13  1  0.92330000  0.71465000  0.17476000  1.0
  H  H14  1  0.07666000  0.78532000  0.32527000  1.0
  H  H15  1  0.92329000  0.82522000  0.28537000  1.0
  H  H16  1  0.61060000  0.20868000  0.21465000  1.0
  H  H17  1  0.61059000  0.40193000  0.17477000  1.0
  H  H18  1  0.38941000  0.09807000  0.32524000  1.0
  H  H19  1  0.38940000  0.29131000  0.28543000  1.0
  H  H20  1  0.38941000  0.71468000  0.70867000  1.0
  H  H21  1  0.38940000  0.67476000  0.90195000  1.0
  H  H22  1  0.61061000  0.82525000  0.59804000  1.0
  H  H23  1  0.61058000  0.78539000  0.79133000  1.0
  C  C24  1  0.18119000  0.09059000  0.40941000  1.0
  C  C25  1  1.00000000  0.86307000  0.63693000  1.0
  C  C26  1  0.99999000  0.09059000  0.59060000  1.0
  C  C27  1  0.81881000  0.90941000  0.59058000  1.0
  C  C28  1  0.00000000  0.13693000  0.36307000  1.0
  C  C29  1  0.99999000  0.90940000  0.40941000  1.0
  C  C30  1  1.00000000  0.40941000  0.90940000  1.0
  C  C31  1  1.00000000  0.63693000  0.86307000  1.0
  C  C32  1  0.81881000  0.40941000  0.09060000  1.0
  C  C33  1  0.99999000  0.59060000  0.09060000  1.0
  C  C34  1  0.00000000  0.36307000  0.13693000  1.0
  C  C35  1  0.18119000  0.59060000  0.90942000  1.0
  C  C36  1  0.00000000  0.19484000  0.30516000  1.0
  C  C37  1  1.00000000  0.30516000  0.19484000  1.0
  C  C38  1  0.95721000  0.18025000  0.27697000  1.0
  C  C39  1  0.04279000  0.31975000  0.22303000  1.0
  C  C40  1  0.95721000  0.23418000  0.22304000  1.0
  C  C41  1  0.04279000  0.26582000  0.27696000  1.0
  C  C42  1  0.00000000  0.80517000  0.69484000  1.0
  C  C43  1  1.00000000  0.69483000  0.80516000  1.0
  C  C44  1  0.95721000  0.77696000  0.76583000  1.0
  C  C45  1  0.04279000  0.72304000  0.73417000  1.0
  C  C46  1  0.95721000  0.72303000  0.81976000  1.0
  C  C47  1  0.04279000  0.77697000  0.68024000  1.0
  C  C48  1  0.00000000  0.37200000  0.87198000  1.0
  C  C49  1  0.95789000  0.29982000  0.90587000  1.0
  C  C50  1  0.95709000  0.26423000  0.87230000  1.0
  C  C51  1  0.99999000  0.30050000  0.80050000  1.0
  C  C52  1  0.04290000  0.37230000  0.76420000  1.0
  C  C53  1  0.04210000  0.40588000  0.79980000  1.0
  C  C54  1  0.99999000  0.26523000  0.76522000  1.0
  C  C55  1  0.99998000  0.23477000  0.73478000  1.0
  C  C56  1  0.99998000  0.19951000  0.69950000  1.0
  C  C57  1  0.95709000  0.12771000  0.73578000  1.0
  C  C58  1  0.95788000  0.09412000  0.70020000  1.0
  C  C59  1  0.99998000  0.12801000  0.62801000  1.0
  C  C60  1  0.04206000  0.20018000  0.59412000  1.0
  C  C61  1  0.04286000  0.23578000  0.62770000  1.0
  C  C62  1  0.00001000  0.62804000  0.12798000  1.0
  C  C63  1  0.04212000  0.63627000  0.15805000  1.0
  C  C64  1  0.04291000  0.67064000  0.19285000  1.0
  C  C65  1  0.00000000  0.69952000  0.19949000  1.0
  C  C66  1  0.95710000  0.69290000  0.17059000  1.0
  C  C67  1  0.95791000  0.65811000  0.13620000  1.0
  C  C68  1  0.99999000  0.73478000  0.23478000  1.0
  C  C69  1  0.99999000  0.76522000  0.26523000  1.0
  C  C70  1  0.99998000  0.80048000  0.30052000  1.0
  C  C71  1  0.04287000  0.80709000  0.32942000  1.0
  C  C72  1  0.04207000  0.84188000  0.36381000  1.0
  C  C73  1  0.99998000  0.87197000  0.37201000  1.0
  C  C74  1  0.95788000  0.86375000  0.34193000  1.0
  C  C75  1  0.95709000  0.82939000  0.30713000  1.0
  C  C76  1  0.74398000  0.37200000  0.12801000  1.0
  C  C77  1  0.70569000  0.29982000  0.15809000  1.0
  C  C78  1  0.63651000  0.26422000  0.19290000  1.0
  C  C79  1  0.60100000  0.30051000  0.19950000  1.0
  C  C80  1  0.63651000  0.37230000  0.17060000  1.0
  C  C81  1  0.70569000  0.40588000  0.13621000  1.0
  C  C82  1  0.53045000  0.26523000  0.23479000  1.0
  C  C83  1  0.46955000  0.23477000  0.26525000  1.0
  C  C84  1  0.39900000  0.19949000  0.30053000  1.0
  C  C85  1  0.36349000  0.12770000  0.32942000  1.0
  C  C86  1  0.29431000  0.09411000  0.36381000  1.0
  C  C87  1  0.25602000  0.12800000  0.37202000  1.0
  C  C88  1  0.29431000  0.20017000  0.34196000  1.0
  C  C89  1  0.36349000  0.23577000  0.30716000  1.0
  C  C90  1  0.25602000  0.62802000  0.87200000  1.0
  C  C91  1  0.29432000  0.65812000  0.79981000  1.0
  C  C92  1  0.36349000  0.69291000  0.76423000  1.0
  C  C93  1  0.39900000  0.69951000  0.80051000  1.0
  C  C94  1  0.36348000  0.67060000  0.87232000  1.0
  C  C95  1  0.29431000  0.63623000  0.90589000  1.0
  C  C96  1  0.46956000  0.73480000  0.76522000  1.0
  C  C97  1  0.53045000  0.76525000  0.73476000  1.0
  C  C98  1  0.60100000  0.80052000  0.69948000  1.0
  C  C99  1  0.63652000  0.82942000  0.62768000  1.0
  C  C100  1  0.70570000  0.86380000  0.59410000  1.0
  C  C101  1  0.74398000  0.87201000  0.62799000  1.0
  C  C102  1  0.70568000  0.84193000  0.70017000  1.0
  C  C103  1  0.63651000  0.80714000  0.73576000  1.0
  Cl  Cl104  1  0.90262000  0.09712000  0.30551000  1.0
  Cl  Cl105  1  0.09738000  0.40287000  0.19449000  1.0
  Cl  Cl106  1  0.90262000  0.20812000  0.19450000  1.0
  Cl  Cl107  1  0.09738000  0.29188000  0.30550000  1.0
  Cl  Cl108  1  0.90262000  0.80549000  0.79190000  1.0
  Cl  Cl109  1  0.09738000  0.69451000  0.70810000  1.0
  Cl  Cl110  1  0.90262000  0.69449000  0.90290000  1.0
  Cl  Cl111  1  0.09738000  0.80551000  0.59710000  1.0
  O  O112  1  0.00000000  0.00000000  0.50000000  1.0
  O  O113  1  0.15238000  0.12670000  0.41362000  1.0
  O  O114  1  0.03969000  0.88548000  0.57483000  1.0
  O  O115  1  0.95966000  0.02567000  0.62671000  1.0
  O  O116  1  0.15238000  0.02567000  0.43398000  1.0
  O  O117  1  0.04034000  0.12670000  0.52568000  1.0
  O  O118  1  0.96030000  0.88546000  0.65422000  1.0
  O  O119  1  0.84761000  0.91362000  0.62670000  1.0
  O  O120  1  0.96032000  0.07484000  0.38547000  1.0
  O  O121  1  0.84763000  0.93401000  0.52565000  1.0
  O  O122  1  0.03969000  0.15421000  0.38547000  1.0
  O  O123  1  0.04034000  0.91364000  0.43398000  1.0
  O  O124  1  0.95967000  0.93400000  0.41362000  1.0
  O  O125  1  1.00000000  0.50000000  0.00000000  1.0
  O  O126  1  0.95967000  0.37331000  0.97432000  1.0
  O  O127  1  0.03969000  0.61453000  0.84578000  1.0
  O  O128  1  0.84762000  0.47433000  0.06602000  1.0
  O  O129  1  0.04034000  0.47434000  0.87328000  1.0
  O  O130  1  0.84762000  0.37330000  0.08638000  1.0
  O  O131  1  0.96031000  0.61452000  0.92517000  1.0
  O  O132  1  0.95966000  0.58638000  0.06601000  1.0
  O  O133  1  0.03968000  0.42516000  0.11453000  1.0
  O  O134  1  0.04032000  0.56601000  0.08638000  1.0
  O  O135  1  0.96031000  0.34579000  0.11453000  1.0
  O  O136  1  0.15239000  0.58638000  0.87330000  1.0
  O  O137  1  0.15238000  0.56601000  0.97434000  1.0
  F  F138  1  0.91525000  0.26131000  0.97478000  1.0
  F  F139  1  0.08474000  0.47478000  0.76129000  1.0
  F  F140  1  0.91525000  0.02522000  0.73871000  1.0
  F  F141  1  0.08468000  0.23870000  0.52520000  1.0
  F  F142  1  0.08477000  0.61001000  0.15391000  1.0
  F  F143  1  0.91527000  0.65399000  0.10993000  1.0
  F  F144  1  0.08469000  0.84599000  0.39010000  1.0
  F  F145  1  0.91525000  0.89003000  0.34605000  1.0
  F  F146  1  0.73608000  0.26130000  0.15398000  1.0
  F  F147  1  0.73608000  0.47479000  0.10993000  1.0
  F  F148  1  0.26392000  0.02521000  0.39008000  1.0
  F  F149  1  0.26391000  0.23867000  0.34611000  1.0
  F  F150  1  0.26393000  0.65402000  0.76129000  1.0
  F  F151  1  0.26391000  0.60994000  0.97481000  1.0
  F  F152  1  0.73610000  0.89007000  0.52518000  1.0
  F  F153  1  0.73607000  0.84606000  0.73869000  1.0
