# generated using pymatgen
data_AlH10C12N2O5
_symmetry_space_group_name_H-M   'P 1'
_cell_length_a   6.66069000
_cell_length_b   10.98350000
_cell_length_c   16.85090000
_cell_angle_alpha   72.79370000
_cell_angle_beta   84.03290000
_cell_angle_gamma   74.50490000
_symmetry_Int_Tables_number   1
_chemical_formula_structural   AlH10C12N2O5
_chemical_formula_sum   'Al2 H20 C24 N4 O10'
_cell_volume   1134.38306054
_cell_formula_units_Z   2
loop_
 _symmetry_equiv_pos_site_id
 _symmetry_equiv_pos_as_xyz
  1  'x, y, z'
loop_
 _atom_site_type_symbol
 _atom_site_label
 _atom_site_symmetry_multiplicity
 _atom_site_fract_x
 _atom_site_fract_y
 _atom_site_fract_z
 _atom_site_occupancy
  Al  Al0  1  0.50335000  0.49644000  0.50013000  1.0
  Al  Al1  1  0.00267000  0.49817000  0.49896000  1.0
  H  H2  1  0.21037000  0.64930000  0.41970000  1.0
  H  H3  1  0.77547000  0.39114000  0.60162000  1.0
  H  H4  1  0.93739000  0.40836000  0.75049000  1.0
  H  H5  1  0.85678000  0.41684000  0.89778000  1.0
  H  H6  1  0.33454000  0.62128000  0.87712000  1.0
  H  H7  1  0.65807000  0.38597000  0.12031000  1.0
  H  H8  1  0.14472000  0.58283000  0.10264000  1.0
  H  H9  1  0.06772000  0.58613000  0.25112000  1.0
  H  H10  1  0.28455000  0.88686000  0.44940000  1.0
  H  H11  1  0.71722000  0.11234000  0.54715000  1.0
  H  H12  1  0.51399000  0.68854000  0.75657000  1.0
  H  H13  1  0.40633000  0.70804000  0.65971000  1.0
  H  H14  1  0.60004000  0.56613000  0.70252000  1.0
  H  H15  1  0.40204000  0.43499000  0.30023000  1.0
  H  H16  1  0.59383000  0.28856000  0.33599000  1.0
  H  H17  1  0.47383000  0.32053000  0.23974000  1.0
  H  H18  1  0.02256000  0.21382000  0.46198000  1.0
  H  H19  1  0.00206000  0.07121000  0.44166000  1.0
  H  H20  1  0.96932000  0.77693000  0.54459000  1.0
  H  H21  1  0.98214000  0.90796000  0.57920000  1.0
  C  C22  1  0.65506000  0.73194000  0.48794000  1.0
  C  C23  1  0.78352000  0.50022000  0.35543000  1.0
  C  C24  1  0.34796000  0.26580000  0.50935000  1.0
  C  C25  1  0.22119000  0.49429000  0.64524000  1.0
  C  C26  1  0.18309000  0.50767000  0.73144000  1.0
  C  C27  1  0.02413000  0.45440000  0.77938000  1.0
  C  C28  1  0.97867000  0.45863000  0.86064000  1.0
  C  C29  1  0.09466000  0.51862000  0.89573000  1.0
  C  C30  1  0.25001000  0.57410000  0.84794000  1.0
  C  C31  1  0.29830000  0.57063000  0.76565000  1.0
  C  C32  1  0.74496000  0.43064000  0.15033000  1.0
  C  C33  1  0.90178000  0.48538000  0.10315000  1.0
  C  C34  1  0.02124000  0.54201000  0.13923000  1.0
  C  C35  1  0.97795000  0.54355000  0.22103000  1.0
  C  C36  1  0.81798000  0.49064000  0.26842000  1.0
  C  C37  1  0.69882000  0.43125000  0.23319000  1.0
  C  C38  1  0.41971000  0.12941000  0.50294000  1.0
  C  C39  1  0.58398000  0.86969000  0.49242000  1.0
  C  C40  1  0.29099000  0.06766000  0.47347000  1.0
  C  C41  1  0.71354000  0.93262000  0.52044000  1.0
  C  C42  1  0.37925000  0.93790000  0.47016000  1.0
  C  C43  1  0.62470000  0.06098000  0.52531000  1.0
  C  C44  1  0.46335000  0.63680000  0.71880000  1.0
  C  C45  1  0.53291000  0.36558000  0.27948000  1.0
  N  N46  1  0.06795000  0.52852000  0.97810000  1.0
  N  N47  1  0.92794000  0.47680000  0.02056000  1.0
  N  N48  1  0.09247000  0.12985000  0.44604000  1.0
  N  N49  1  0.92112000  0.87483000  0.53942000  1.0
  O  O50  1  0.51926000  0.67695000  0.47559000  1.0
  O  O51  1  0.92947000  0.52377000  0.38759000  1.0
  O  O52  1  0.15384000  0.32366000  0.49983000  1.0
  O  O53  1  0.39755000  0.50371000  0.61006000  1.0
  O  O54  1  0.48272000  0.31925000  0.52428000  1.0
  O  O55  1  0.07382000  0.47306000  0.61233000  1.0
  O  O56  1  0.84990000  0.67479000  0.49711000  1.0
  O  O57  1  0.61098000  0.48617000  0.39237000  1.0
  O  O58  1  0.23548000  0.56237000  0.45857000  1.0
  O  O59  1  0.77080000  0.43348000  0.54240000  1.0
