# generated using pymatgen
data_Zn2H24C28N4O11
_symmetry_space_group_name_H-M   'P 1'
_cell_length_a   9.49932000
_cell_length_b   11.85600000
_cell_length_c   15.12080000
_cell_angle_alpha   98.09580000
_cell_angle_beta   106.73500000
_cell_angle_gamma   109.57500000
_symmetry_Int_Tables_number   1
_chemical_formula_structural   Zn2H24C28N4O11
_chemical_formula_sum   'Zn4 H48 C56 N8 O22'
_cell_volume   1482.48870471
_cell_formula_units_Z   2
loop_
 _symmetry_equiv_pos_site_id
 _symmetry_equiv_pos_as_xyz
  1  'x, y, z'
loop_
 _atom_site_type_symbol
 _atom_site_label
 _atom_site_symmetry_multiplicity
 _atom_site_fract_x
 _atom_site_fract_y
 _atom_site_fract_z
 _atom_site_occupancy
  Zn  Zn0  1  0.45434000  0.50561000  0.36491000  1.0
  Zn  Zn1  1  0.54565000  0.49439000  0.63509000  1.0
  Zn  Zn2  1  0.48884000  0.93455000  0.86352000  1.0
  Zn  Zn3  1  0.51116000  0.06545000  0.13648000  1.0
  H  H4  1  0.97154000  0.29282000  0.33412000  1.0
  H  H5  1  0.02846000  0.70718000  0.66588000  1.0
  H  H6  1  0.96348000  0.54793000  0.75824000  1.0
  H  H7  1  0.03652000  0.45207000  0.24176000  1.0
  H  H8  1  0.13100000  0.54941000  0.72620000  1.0
  H  H9  1  0.86901000  0.45059000  0.27380000  1.0
  H  H10  1  0.69329000  0.25925000  0.51590000  1.0
  H  H11  1  0.30672000  0.74075000  0.48411000  1.0
  H  H12  1  0.20526000  0.46931000  0.63536000  1.0
  H  H13  1  0.79475000  0.53069000  0.36464000  1.0
  H  H14  1  0.51517000  0.28943000  0.12901000  1.0
  H  H15  1  0.48483000  0.71056000  0.87099000  1.0
  H  H16  1  0.33802000  0.24487000  0.82349000  1.0
  H  H17  1  0.66198000  0.75513000  0.17651000  1.0
  H  H18  1  0.62943000  0.98358000  0.59897000  1.0
  H  H19  1  0.37057000  0.01642000  0.40103000  1.0
  H  H20  1  0.67826000  0.07276000  0.51785000  1.0
  H  H21  1  0.32174000  0.92724000  0.48215000  1.0
  H  H22  1  0.61027000  0.74589000  0.54990000  1.0
  H  H23  1  0.38972000  0.25410000  0.45010000  1.0
  H  H24  1  0.21997000  0.47622000  0.01390000  1.0
  H  H25  1  0.78003000  0.52378000  0.98610000  1.0
  H  H26  1  0.94108000  0.04259000  0.55718000  1.0
  H  H27  1  0.05892000  0.95741000  0.44282000  1.0
  H  H28  1  0.91894000  0.13096000  0.65468000  1.0
  H  H29  1  0.08106000  0.86904000  0.34532000  1.0
  H  H30  1  0.59505000  0.96269000  0.35043000  1.0
  H  H31  1  0.40496000  0.03731000  0.64957000  1.0
  H  H32  1  0.83645000  0.15372000  0.98339000  1.0
  H  H33  1  0.16354000  0.84628000  0.01661000  1.0
  H  H34  1  0.69476000  0.81305000  0.78311000  1.0
  H  H35  1  0.30524000  0.18695000  0.21689000  1.0
  H  H36  1  0.10326000  0.14175000  0.94632000  1.0
  H  H37  1  0.89674000  0.85825000  0.05368000  1.0
  H  H38  1  0.17435000  0.55223000  0.89484000  1.0
  H  H39  1  0.82565000  0.44777000  0.10516000  1.0
  H  H40  1  0.00253000  0.40907000  0.86105000  1.0
  H  H41  1  0.99748000  0.59093000  0.13896000  1.0
  H  H42  1  0.10026000  0.08502000  0.75787000  1.0
  H  H43  1  0.89974000  0.91498000  0.24214000  1.0
  H  H44  1  0.11980000  0.95375000  0.69677000  1.0
  H  H45  1  0.88020000  0.04625000  0.30323000  1.0
  H  H46  1  0.95732000  0.81958000  0.77662000  1.0
  H  H47  1  0.04269000  0.18042000  0.22338000  1.0
  H  H48  1  0.13849000  0.93948000  0.86019000  1.0
  H  H49  1  0.86151000  0.06052000  0.13981000  1.0
  H  H50  1  0.47121000  0.71230000  0.25250000  1.0
  H  H51  1  0.52879000  0.28769000  0.74750000  1.0
  C  C52  1  0.66875000  0.18747000  0.33050000  1.0
  C  C53  1  0.33125000  0.81253000  0.66950000  1.0
  C  C54  1  0.96442000  0.31129000  0.40466000  1.0
  C  C55  1  0.03558000  0.68871000  0.59534000  1.0
  C  C56  1  0.10203000  0.38567000  0.48373000  1.0
  C  C57  1  0.89797000  0.61434000  0.51626000  1.0
  C  C58  1  0.81701000  0.26436000  0.41603000  1.0
  C  C59  1  0.18299000  0.73564000  0.58397000  1.0
  C  C60  1  0.43059000  0.25437000  0.97411000  1.0
  C  C61  1  0.56940000  0.74563000  0.02589000  1.0
  C  C62  1  0.03386000  0.49371000  0.74694000  1.0
  C  C63  1  0.96614000  0.50629000  0.25306000  1.0
  C  C64  1  0.94714000  0.36387000  0.58673000  1.0
  C  C65  1  0.05286000  0.63614000  0.41327000  1.0
  C  C66  1  0.80863000  0.29100000  0.50691000  1.0
  C  C67  1  0.19137000  0.70901000  0.49309000  1.0
  C  C68  1  0.09519000  0.41146000  0.57530000  1.0
  C  C69  1  0.90481000  0.58854000  0.42470000  1.0
  C  C70  1  0.44516000  0.30857000  0.06659000  1.0
  C  C71  1  0.55484000  0.69143000  0.93340000  1.0
  C  C72  1  0.34737000  0.28554000  0.89520000  1.0
  C  C73  1  0.65263000  0.71446000  0.10480000  1.0
  C  C74  1  0.36660000  0.38658000  0.07875000  1.0
  C  C75  1  0.63339000  0.61342000  0.92125000  1.0
  C  C76  1  0.69590000  0.99922000  0.55019000  1.0
  C  C77  1  0.30410000  0.00078000  0.44981000  1.0
  C  C78  1  0.37007000  0.43907000  0.17592000  1.0
  C  C79  1  0.62993000  0.56093000  0.82408000  1.0
  C  C80  1  0.59195000  0.76885000  0.48181000  1.0
  C  C81  1  0.40805000  0.23115000  0.51819000  1.0
  C  C82  1  0.27987000  0.41574000  0.00002000  1.0
  C  C83  1  0.72014000  0.58426000  0.99998000  1.0
  C  C84  1  0.87268000  0.03758000  0.60574000  1.0
  C  C85  1  0.12732000  0.96242000  0.39426000  1.0
  C  C86  1  0.58519000  0.88037000  0.37578000  1.0
  C  C87  1  0.41481000  0.11962000  0.62422000  1.0
  C  C88  1  0.84748000  0.08173000  0.93647000  1.0
  C  C89  1  0.15251000  0.91827000  0.06353000  1.0
  C  C90  1  0.76834000  0.90338000  0.83354000  1.0
  C  C91  1  0.23165000  0.09661000  0.16646000  1.0
  C  C92  1  0.27357000  0.36795000  0.90820000  1.0
  C  C93  1  0.72643000  0.63205000  0.09180000  1.0
  C  C94  1  0.97925000  0.07687000  0.91856000  1.0
  C  C95  1  0.02074000  0.92313000  0.08144000  1.0
  C  C96  1  0.49349000  0.15604000  0.96033000  1.0
  C  C97  1  0.50651000  0.84396000  0.03967000  1.0
  C  C98  1  0.10008000  0.46362000  0.83945000  1.0
  C  C99  1  0.89992000  0.53638000  0.16055000  1.0
  C  C100  1  0.04210000  0.98345000  0.72785000  1.0
  C  C101  1  0.95790000  0.01655000  0.27216000  1.0
  C  C102  1  0.02131000  0.92036000  0.80687000  1.0
  C  C103  1  0.97869000  0.07964000  0.19313000  1.0
  C  C104  1  0.52377000  0.75732000  0.32847000  1.0
  C  C105  1  0.47623000  0.24268000  0.67153000  1.0
  C  C106  1  0.25515000  0.44371000  0.46843000  1.0
  C  C107  1  0.74486000  0.55629000  0.53157000  1.0
  N  N108  1  0.71685000  0.97256000  0.88326000  1.0
  N  N109  1  0.28315000  0.02744000  0.11674000  1.0
  N  N110  1  0.92701000  0.96329000  0.85389000  1.0
  N  N111  1  0.07300000  0.03671000  0.14611000  1.0
  N  N112  1  0.62736000  0.88601000  0.47239000  1.0
  N  N113  1  0.37264000  0.11399000  0.52761000  1.0
  N  N114  1  0.52911000  0.68880000  0.39532000  1.0
  N  N115  1  0.47089000  0.31120000  0.60467000  1.0
  O  O116  1  0.92521000  0.38259000  0.67233000  1.0
  O  O117  1  0.07480000  0.61741000  0.32767000  1.0
  O  O118  1  0.45960000  0.41433000  0.24707000  1.0
  O  O119  1  0.54040000  0.58567000  0.75293000  1.0
  O  O120  1  0.45353000  0.09282000  0.87455000  1.0
  O  O121  1  0.54647000  0.90718000  0.12544000  1.0
  O  O122  1  0.54003000  0.12910000  0.34039000  1.0
  O  O123  1  0.45997000  0.87091000  0.65961000  1.0
  O  O124  1  0.68804000  0.18466000  0.24823000  1.0
  O  O125  1  0.31196000  0.81534000  0.75177000  1.0
  O  O126  1  0.19549000  0.39446000  0.82811000  1.0
  O  O127  1  0.80451000  0.60555000  0.17189000  1.0
  O  O128  1  0.58040000  0.13590000  0.03321000  1.0
  O  O129  1  0.41959000  0.86410000  0.96679000  1.0
  O  O130  1  0.88709000  0.94902000  0.65858000  1.0
  O  O131  1  0.11291000  0.05098000  0.34142000  1.0
  O  O132  1  0.28977000  0.50187000  0.18515000  1.0
  O  O133  1  0.71023000  0.49813000  0.81486000  1.0
  O  O134  1  0.37627000  0.52559000  0.53703000  1.0
  O  O135  1  0.62373000  0.47441000  0.46297000  1.0
  O  O136  1  0.25529000  0.41062000  0.38391000  1.0
  O  O137  1  0.74471000  0.58938000  0.61609000  1.0
