# generated using pymatgen
data_CuH7C8N3O4
_symmetry_space_group_name_H-M   'P 1'
_cell_length_a   9.16585000
_cell_length_b   9.95178000
_cell_length_c   10.23990000
_cell_angle_alpha   95.45880000
_cell_angle_beta   89.99940000
_cell_angle_gamma   89.99980000
_symmetry_Int_Tables_number   1
_chemical_formula_structural   CuH7C8N3O4
_chemical_formula_sum   'Cu4 H28 C32 N12 O16'
_cell_volume   929.81203337
_cell_formula_units_Z   4
loop_
 _symmetry_equiv_pos_site_id
 _symmetry_equiv_pos_as_xyz
  1  'x, y, z'
loop_
 _atom_site_type_symbol
 _atom_site_label
 _atom_site_symmetry_multiplicity
 _atom_site_fract_x
 _atom_site_fract_y
 _atom_site_fract_z
 _atom_site_occupancy
  Cu  Cu0  1  0.82938000  0.90862000  0.77399000  1.0
  Cu  Cu1  1  0.32938000  0.09138000  0.72601000  1.0
  Cu  Cu2  1  0.17062000  0.09138000  0.22602000  1.0
  Cu  Cu3  1  0.67062000  0.90862000  0.27399000  1.0
  H  H4  1  0.39500000  0.69749000  0.76143000  1.0
  H  H5  1  0.89500000  0.30251000  0.73857000  1.0
  H  H6  1  0.60500000  0.30252000  0.23858000  1.0
  H  H7  1  0.10500000  0.69748000  0.26143000  1.0
  H  H8  1  0.17959000  0.40836000  0.71242000  1.0
  H  H9  1  0.67958000  0.59164000  0.78758000  1.0
  H  H10  1  0.82042000  0.59165000  0.28758000  1.0
  H  H11  1  0.32042000  0.40836000  0.21242000  1.0
  H  H12  1  0.16956000  0.56500000  0.53098000  1.0
  H  H13  1  0.66955000  0.43499000  0.96902000  1.0
  H  H14  1  0.83044000  0.43500000  0.46903000  1.0
  H  H15  1  0.33045000  0.56501000  0.03098000  1.0
  H  H16  1  0.00098000  0.76736000  0.56894000  1.0
  H  H17  1  0.50098000  0.23264000  0.93106000  1.0
  H  H18  1  0.99901000  0.23264000  0.43106000  1.0
  H  H19  1  0.49902000  0.76736000  0.06894000  1.0
  H  H20  1  0.83348000  0.75369000  0.98808000  1.0
  H  H21  1  0.33348000  0.24631000  0.51192000  1.0
  H  H22  1  0.16652000  0.24631000  0.01192000  1.0
  H  H23  1  0.66652000  0.75369000  0.48808000  1.0
  H  H24  1  0.91387000  0.60358000  0.03896000  1.0
  H  H25  1  0.41387000  0.39643000  0.46104000  1.0
  H  H26  1  0.08613000  0.39643000  0.96104000  1.0
  H  H27  1  0.58613000  0.60357000  0.53896000  1.0
  H  H28  1  0.19272000  0.76121000  0.89918000  1.0
  H  H29  1  0.69272000  0.23879000  0.60081000  1.0
  H  H30  1  0.80727000  0.23880000  0.10081000  1.0
  H  H31  1  0.30728000  0.76120000  0.39919000  1.0
  C  C32  1  0.24870000  0.96684000  0.96681000  1.0
  C  C33  1  0.74870000  0.03316000  0.53319000  1.0
  C  C34  1  0.75130000  0.03317000  0.03318000  1.0
  C  C35  1  0.25131000  0.96684000  0.46682000  1.0
  C  C36  1  0.38952000  0.80084000  0.80749000  1.0
  C  C37  1  0.88952000  0.19916000  0.69251000  1.0
  C  C38  1  0.61048000  0.19916000  0.19251000  1.0
  C  C39  1  0.11049000  0.80083000  0.30749000  1.0
  C  C40  1  0.52205000  0.88233000  0.78725000  1.0
  C  C41  1  0.02204000  0.11766000  0.71275000  1.0
  C  C42  1  0.47796000  0.11767000  0.21276000  1.0
  C  C43  1  0.97796000  0.88233000  0.28724000  1.0
  C  C44  1  0.95932000  0.63916000  0.85110000  1.0
  C  C45  1  0.45932000  0.36084000  0.64890000  1.0
  C  C46  1  0.04068000  0.36084000  0.14890000  1.0
  C  C47  1  0.54068000  0.63916000  0.35110000  1.0
  C  C48  1  0.11600000  0.50140000  0.72255000  1.0
  C  C49  1  0.61600000  0.49860000  0.77745000  1.0
  C  C50  1  0.88400000  0.49861000  0.27745000  1.0
  C  C51  1  0.38400000  0.50140000  0.22255000  1.0
  C  C52  1  0.10852000  0.58577000  0.62163000  1.0
  C  C53  1  0.60852000  0.41423000  0.87837000  1.0
  C  C54  1  0.89148000  0.41423000  0.37838000  1.0
  C  C55  1  0.39148000  0.58577000  0.12162000  1.0
  C  C56  1  0.01666000  0.69661000  0.64275000  1.0
  C  C57  1  0.51666000  0.30339000  0.85725000  1.0
  C  C58  1  0.98334000  0.30339000  0.35725000  1.0
  C  C59  1  0.48334000  0.69661000  0.14275000  1.0
  C  C60  1  0.27469000  0.83740000  0.88408000  1.0
  C  C61  1  0.77469000  0.16260000  0.61592000  1.0
  C  C62  1  0.72531000  0.16261000  0.11591000  1.0
  C  C63  1  0.22531000  0.83740000  0.38409000  1.0
  N  N64  1  0.94143000  0.72363000  0.75467000  1.0
  N  N65  1  0.44143000  0.27637000  0.74533000  1.0
  N  N66  1  0.05856000  0.27637000  0.24534000  1.0
  N  N67  1  0.55857000  0.72363000  0.25466000  1.0
  N  N68  1  0.89226000  0.66675000  0.96684000  1.0
  N  N69  1  0.39226000  0.33325000  0.53316000  1.0
  N  N70  1  0.10774000  0.33325000  0.03316000  1.0
  N  N71  1  0.60774000  0.66675000  0.46684000  1.0
  N  N72  1  0.04355000  0.52593000  0.83558000  1.0
  N  N73  1  0.54355000  0.47408000  0.66442000  1.0
  N  N74  1  0.95644000  0.47408000  0.16442000  1.0
  N  N75  1  0.45645000  0.52592000  0.33558000  1.0
  O  O76  1  0.27636000  0.08166000  0.92805000  1.0
  O  O77  1  0.77637000  0.91834000  0.57195000  1.0
  O  O78  1  0.72363000  0.91835000  0.07195000  1.0
  O  O79  1  0.22363000  0.08165000  0.42805000  1.0
  O  O80  1  0.19497000  0.94831000  0.07875000  1.0
  O  O81  1  0.69497000  0.05169000  0.42125000  1.0
  O  O82  1  0.80502000  0.05170000  0.92124000  1.0
  O  O83  1  0.30504000  0.94830000  0.57875000  1.0
  O  O84  1  0.51748000  0.00525000  0.76352000  1.0
  O  O85  1  0.01748000  0.99475000  0.73648000  1.0
  O  O86  1  0.48253000  0.99475000  0.23648000  1.0
  O  O87  1  0.98253000  0.00525000  0.26352000  1.0
  O  O88  1  0.64190000  0.81756000  0.79648000  1.0
  O  O89  1  0.14190000  0.18244000  0.70352000  1.0
  O  O90  1  0.35810000  0.18244000  0.20353000  1.0
  O  O91  1  0.85810000  0.81755000  0.29648000  1.0
