# generated using pymatgen
data_ZnH18C10(NO4)2
_symmetry_space_group_name_H-M   'P 1'
_cell_length_a   9.49346950
_cell_length_b   9.49351000
_cell_length_c   9.55855000
_cell_angle_alpha   82.13200000
_cell_angle_beta   82.13156083
_cell_angle_gamma   60.26157890
_symmetry_Int_Tables_number   1
_chemical_formula_structural   ZnH18C10(NO4)2
_chemical_formula_sum   'Zn2 H36 C20 N4 O16'
_cell_volume   738.59029529
_cell_formula_units_Z   2
loop_
 _symmetry_equiv_pos_site_id
 _symmetry_equiv_pos_as_xyz
  1  'x, y, z'
loop_
 _atom_site_type_symbol
 _atom_site_label
 _atom_site_symmetry_multiplicity
 _atom_site_fract_x
 _atom_site_fract_y
 _atom_site_fract_z
 _atom_site_occupancy
  Zn  Zn0  1  0.23024000  0.76976000  0.75000000  1.0
  Zn  Zn1  1  0.76975000  0.23025000  0.25000000  1.0
  H  H2  1  0.54749000  0.64214000  0.63187000  1.0
  H  H3  1  0.35787000  0.45250000  0.86813000  1.0
  H  H4  1  0.45251000  0.35786000  0.36813000  1.0
  H  H5  1  0.64213000  0.54750000  0.13186000  1.0
  H  H6  1  0.52328000  0.67728000  0.79785000  1.0
  H  H7  1  0.32272000  0.47672000  0.70216000  1.0
  H  H8  1  0.47672000  0.32272000  0.20216000  1.0
  H  H9  1  0.67729000  0.52327000  0.29784000  1.0
  H  H10  1  0.91118000  0.94166000  0.59565000  1.0
  H  H11  1  0.05834000  0.08882000  0.90435000  1.0
  H  H12  1  0.08882000  0.05834000  0.40434000  1.0
  H  H13  1  0.94166000  0.91118000  0.09565000  1.0
  H  H14  1  0.54478000  0.94774000  0.62215000  1.0
  H  H15  1  0.05226000  0.45522000  0.87785000  1.0
  H  H16  1  0.45521000  0.05227000  0.37784000  1.0
  H  H17  1  0.94774000  0.54478000  0.12215000  1.0
  H  H18  1  0.66946000  0.02711000  0.52360000  1.0
  H  H19  1  0.97289000  0.33054000  0.97640000  1.0
  H  H20  1  0.33054000  0.97289000  0.47640000  1.0
  H  H21  1  0.02711000  0.66946000  0.02360000  1.0
  H  H22  1  0.51720000  0.14127000  0.65570000  1.0
  H  H23  1  0.85873000  0.48280000  0.84430000  1.0
  H  H24  1  0.48280000  0.85873000  0.34430000  1.0
  H  H25  1  0.14127000  0.51720000  0.15570000  1.0
  H  H26  1  0.54674000  0.92206000  0.87600000  1.0
  H  H27  1  0.07794000  0.45326000  0.62399000  1.0
  H  H28  1  0.45326000  0.07793000  0.12399000  1.0
  H  H29  1  0.92206000  0.54674000  0.37601000  1.0
  H  H30  1  0.68082000  0.96827000  0.95127000  1.0
  H  H31  1  0.03174000  0.31916000  0.54873000  1.0
  H  H32  1  0.31917000  0.03173000  0.04873000  1.0
  H  H33  1  0.96827000  0.68083000  0.45127000  1.0
  H  H34  1  0.74829000  0.76714000  0.90790000  1.0
  H  H35  1  0.23286000  0.25171000  0.59211000  1.0
  H  H36  1  0.25171000  0.23286000  0.09210000  1.0
  H  H37  1  0.76715000  0.74829000  0.40790000  1.0
  C  C38  1  0.28767000  0.63341000  0.46477000  1.0
  C  C39  1  0.36659000  0.71234000  0.03524000  1.0
  C  C40  1  0.71235000  0.36659000  0.53523000  1.0
  C  C41  1  0.63341000  0.28766000  0.96476000  1.0
  C  C42  1  0.30624000  0.66862000  0.31339000  1.0
  C  C43  1  0.33138000  0.69377000  0.18662000  1.0
  C  C44  1  0.69378000  0.33138000  0.68662000  1.0
  C  C45  1  0.66862000  0.30623000  0.81338000  1.0
  C  C46  1  0.87980000  0.90509000  0.70456000  1.0
  C  C47  1  0.09490000  0.12021000  0.79544000  1.0
  C  C48  1  0.12021000  0.09490000  0.29544000  1.0
  C  C49  1  0.90509000  0.87980000  0.20455000  1.0
  C  C50  1  0.60743000  0.01775000  0.62695000  1.0
  C  C51  1  0.98224000  0.39258000  0.87305000  1.0
  C  C52  1  0.39257000  0.98225000  0.37305000  1.0
  C  C53  1  0.01776000  0.60742000  0.12696000  1.0
  C  C54  1  0.67244000  0.89638000  0.87513000  1.0
  C  C55  1  0.10364000  0.32754000  0.62487000  1.0
  C  C56  1  0.32755000  0.10362000  0.12486000  1.0
  C  C57  1  0.89637000  0.67246000  0.37513000  1.0
  N  N58  1  0.72621000  0.93592000  0.73239000  1.0
  N  N59  1  0.06408000  0.27378000  0.76761000  1.0
  N  N60  1  0.27379000  0.06407000  0.26760000  1.0
  N  N61  1  0.93592000  0.72621000  0.23239000  1.0
  O  O62  1  0.47883000  0.72104000  0.70383000  1.0
  O  O63  1  0.27896000  0.52117000  0.79617000  1.0
  O  O64  1  0.52117000  0.27896000  0.29617000  1.0
  O  O65  1  0.72104000  0.47882000  0.20382000  1.0
  O  O66  1  0.98128000  0.83842000  0.79720000  1.0
  O  O67  1  0.16157000  0.01871000  0.70281000  1.0
  O  O68  1  0.01871000  0.16157000  0.20280000  1.0
  O  O69  1  0.83842000  0.98129000  0.29719000  1.0
  O  O70  1  0.21888000  0.75684000  0.53704000  1.0
  O  O71  1  0.24316000  0.78112000  0.96298000  1.0
  O  O72  1  0.78114000  0.24316000  0.46296000  1.0
  O  O73  1  0.75684000  0.21887000  0.03703000  1.0
  O  O74  1  0.34169000  0.48471000  0.51012000  1.0
  O  O75  1  0.51528000  0.65831000  0.98989000  1.0
  O  O76  1  0.65833000  0.51529000  0.48988000  1.0
  O  O77  1  0.48472000  0.34168000  0.01010000  1.0
