# generated using pymatgen
data_CdH16C15(NO3)2
_symmetry_space_group_name_H-M   'P 1'
_cell_length_a   8.46167000
_cell_length_b   10.44030000
_cell_length_c   10.48570000
_cell_angle_alpha   65.44790000
_cell_angle_beta   79.98220000
_cell_angle_gamma   81.00180000
_symmetry_Int_Tables_number   1
_chemical_formula_structural   CdH16C15(NO3)2
_chemical_formula_sum   'Cd2 H32 C30 N4 O12'
_cell_volume   826.06283278
_cell_formula_units_Z   2
loop_
 _symmetry_equiv_pos_site_id
 _symmetry_equiv_pos_as_xyz
  1  'x, y, z'
loop_
 _atom_site_type_symbol
 _atom_site_label
 _atom_site_symmetry_multiplicity
 _atom_site_fract_x
 _atom_site_fract_y
 _atom_site_fract_z
 _atom_site_occupancy
  Cd  Cd0  1  0.24949000  0.20511000  0.36258000  1.0
  Cd  Cd1  1  0.75052000  0.79490000  0.63742000  1.0
  H  H2  1  0.19337000  0.42737000  0.50144000  1.0
  H  H3  1  0.80666000  0.57262000  0.49857000  1.0
  H  H4  1  0.03542000  0.49341000  0.69702000  1.0
  H  H5  1  0.96461000  0.50658000  0.30299000  1.0
  H  H6  1  0.85197000  0.32671000  0.87717000  1.0
  H  H7  1  0.14805000  0.67329000  0.12284000  1.0
  H  H8  1  0.99029000  0.04605000  0.65979000  1.0
  H  H9  1  0.00970000  0.95396000  0.34020000  1.0
  H  H10  1  0.53752000  0.97446000  0.34000000  1.0
  H  H11  1  0.46245000  0.02552000  0.65998000  1.0
  H  H12  1  0.74920000  0.91096000  0.17309000  1.0
  H  H13  1  0.25079000  0.08904000  0.82689000  1.0
  H  H14  1  0.57795000  0.29182000  0.83619000  1.0
  H  H15  1  0.42206000  0.70819000  0.16381000  1.0
  H  H16  1  0.35920000  0.32946000  0.01488000  1.0
  H  H17  1  0.64080000  0.67054000  0.98511000  1.0
  H  H18  1  0.73498000  0.37174000  0.19234000  1.0
  H  H19  1  0.26499000  0.62825000  0.80769000  1.0
  H  H20  1  0.80916000  0.25062000  0.11432000  1.0
  H  H21  1  0.19083000  0.74937000  0.88570000  1.0
  H  H22  1  0.86714000  0.42965000  0.03080000  1.0
  H  H23  1  0.13284000  0.57035000  0.96923000  1.0
  H  H24  1  0.66579000  0.49027000  0.37019000  1.0
  H  H25  1  0.33423000  0.50972000  0.62981000  1.0
  H  H26  1  0.74229000  0.30842000  0.45705000  1.0
  H  H27  1  0.25772000  0.69157000  0.54295000  1.0
  H  H28  1  0.60017000  0.39160000  0.55048000  1.0
  H  H29  1  0.39984000  0.60840000  0.44951000  1.0
  H  H30  1  0.16668000  0.91491000  0.55781000  1.0
  H  H31  1  0.83332000  0.08509000  0.44220000  1.0
  H  H32  1  0.35441000  0.90078000  0.50547000  1.0
  H  H33  1  0.64558000  0.09922000  0.49453000  1.0
  C  C34  1  0.11034000  0.35786000  0.58323000  1.0
  C  C35  1  0.88968000  0.64214000  0.41678000  1.0
  C  C36  1  0.02412000  0.39366000  0.69124000  1.0
  C  C37  1  0.97590000  0.60634000  0.30876000  1.0
  C  C38  1  0.91995000  0.30031000  0.79194000  1.0
  C  C39  1  0.08006000  0.69969000  0.20806000  1.0
  C  C40  1  0.90896000  0.17172000  0.78329000  1.0
  C  C41  1  0.09104000  0.82829000  0.21670000  1.0
  C  C42  1  0.99872000  0.14481000  0.66942000  1.0
  C  C43  1  0.00128000  0.85520000  0.33058000  1.0
  C  C44  1  0.81910000  0.05785000  0.89794000  1.0
  C  C45  1  0.18089000  0.94216000  0.10205000  1.0
  C  C46  1  0.54710000  0.04063000  0.22743000  1.0
  C  C47  1  0.45288000  0.95936000  0.77256000  1.0
  C  C48  1  0.66619000  0.00572000  0.13493000  1.0
  C  C49  1  0.33380000  0.99428000  0.86506000  1.0
  C  C50  1  0.68226000  0.09634000  0.99174000  1.0
  C  C51  1  0.31774000  0.90366000  0.00824000  1.0
  C  C52  1  0.57159000  0.21629000  0.94612000  1.0
  C  C53  1  0.42841000  0.78372000  0.05387000  1.0
  C  C54  1  0.45077000  0.23982000  0.04537000  1.0
  C  C55  1  0.54922000  0.76019000  0.95462000  1.0
  C  C56  1  0.98140000  0.29067000  0.21617000  1.0
  C  C57  1  0.01858000  0.70933000  0.78386000  1.0
  C  C58  1  0.84074000  0.33986000  0.13123000  1.0
  C  C59  1  0.15924000  0.66013000  0.86880000  1.0
  C  C60  1  0.49682000  0.34087000  0.40623000  1.0
  C  C61  1  0.50319000  0.65912000  0.59377000  1.0
  C  C62  1  0.63590000  0.38518000  0.44710000  1.0
  C  C63  1  0.36412000  0.61481000  0.55290000  1.0
  N  N64  1  0.09615000  0.23684000  0.57061000  1.0
  N  N65  1  0.90386000  0.76317000  0.42939000  1.0
  N  N66  1  0.44037000  0.15548000  0.18376000  1.0
  N  N67  1  0.55961000  0.84452000  0.81623000  1.0
  O  O68  1  0.86198000  0.93216000  0.92263000  1.0
  O  O69  1  0.13801000  0.06785000  0.07734000  1.0
  O  O70  1  0.97725000  0.17638000  0.32825000  1.0
  O  O71  1  0.02274000  0.82360000  0.67177000  1.0
  O  O72  1  0.39809000  0.43209000  0.33073000  1.0
  O  O73  1  0.60193000  0.56791000  0.66926000  1.0
  O  O74  1  0.48206000  0.20665000  0.45507000  1.0
  O  O75  1  0.51795000  0.79335000  0.54492000  1.0
  O  O76  1  0.10169000  0.36403000  0.17729000  1.0
  O  O77  1  0.89828000  0.63598000  0.82275000  1.0
  O  O78  1  0.25185000  0.96276000  0.48058000  1.0
  O  O79  1  0.74814000  0.03725000  0.51943000  1.0
