# generated using pymatgen
data_SmV2H24C44S4N4O13
_symmetry_space_group_name_H-M   'P 1'
_cell_length_a   9.93104000
_cell_length_b   15.31320000
_cell_length_c   15.37310000
_cell_angle_alpha   89.99880000
_cell_angle_beta   89.95210000
_cell_angle_gamma   91.96170000
_symmetry_Int_Tables_number   1
_chemical_formula_structural   SmV2H24C44S4N4O13
_chemical_formula_sum   'Sm2 V4 H48 C88 S8 N8 O26'
_cell_volume   2336.50860798
_cell_formula_units_Z   2
loop_
 _symmetry_equiv_pos_site_id
 _symmetry_equiv_pos_as_xyz
  1  'x, y, z'
loop_
 _atom_site_type_symbol
 _atom_site_label
 _atom_site_symmetry_multiplicity
 _atom_site_fract_x
 _atom_site_fract_y
 _atom_site_fract_z
 _atom_site_occupancy
  Sm  Sm0  1  0.24679000  0.49914000  0.50158000  1.0
  Sm  Sm1  1  0.74676000  0.49845000  0.49838000  1.0
  V  V2  1  0.04013000  0.99733000  0.00649000  1.0
  V  V3  1  0.36782000  0.08005000  0.04689000  1.0
  V  V4  1  0.86864000  0.08057000  0.95310000  1.0
  V  V5  1  0.54049000  0.99784000  0.99345000  1.0
  H  H6  1  0.77801000  0.57730000  0.26106000  1.0
  H  H7  1  0.77057000  0.41204000  0.74487000  1.0
  H  H8  1  0.79587000  0.73788000  0.57772000  1.0
  H  H9  1  0.78189000  0.26358000  0.41961000  1.0
  H  H10  1  0.71349000  0.57530000  0.73714000  1.0
  H  H11  1  0.70517000  0.42318000  0.26440000  1.0
  H  H12  1  0.73175000  0.73619000  0.41459000  1.0
  H  H13  1  0.71479000  0.25635000  0.56878000  1.0
  H  H14  1  0.20564000  0.42435000  0.73632000  1.0
  H  H15  1  0.21303000  0.57719000  0.26521000  1.0
  H  H16  1  0.21598000  0.25657000  0.43107000  1.0
  H  H17  1  0.23069000  0.73698000  0.58493000  1.0
  H  H18  1  0.27017000  0.41372000  0.25429000  1.0
  H  H19  1  0.27875000  0.57976000  0.73680000  1.0
  H  H20  1  0.28074000  0.26405000  0.58033000  1.0
  H  H21  1  0.29699000  0.73901000  0.42260000  1.0
  H  H22  1  0.78759000  0.71267000  0.17318000  1.0
  H  H23  1  0.77681000  0.27764000  0.83376000  1.0
  H  H24  1  0.79532000  0.82519000  0.71327000  1.0
  H  H25  1  0.78331000  0.17508000  0.28433000  1.0
  H  H26  1  0.72351000  0.71096000  0.82509000  1.0
  H  H27  1  0.71009000  0.28879000  0.17519000  1.0
  H  H28  1  0.73146000  0.82353000  0.27930000  1.0
  H  H29  1  0.71535000  0.16907000  0.70379000  1.0
  H  H30  1  0.21173000  0.28999000  0.82550000  1.0
  H  H31  1  0.22214000  0.71297000  0.17746000  1.0
  H  H32  1  0.21718000  0.16938000  0.29607000  1.0
  H  H33  1  0.22964000  0.82443000  0.72028000  1.0
  H  H34  1  0.27526000  0.27927000  0.16545000  1.0
  H  H35  1  0.28919000  0.71517000  0.82459000  1.0
  H  H36  1  0.28152000  0.17559000  0.71562000  1.0
  H  H37  1  0.29734000  0.82665000  0.28719000  1.0
  H  H38  1  0.00335000  0.83343000  0.30527000  1.0
  H  H39  1  0.99129000  0.16323000  0.70073000  1.0
  H  H40  1  0.00221000  0.69668000  0.83855000  1.0
  H  H41  1  0.99089000  0.30346000  0.16990000  1.0
  H  H42  1  0.49977000  0.83351000  0.69493000  1.0
  H  H43  1  0.48934000  0.16346000  0.29920000  1.0
  H  H44  1  0.50930000  0.69714000  0.16157000  1.0
  H  H45  1  0.48840000  0.30372000  0.83007000  1.0
  H  H46  1  0.99706000  0.00464000  0.34683000  1.0
  H  H47  1  0.99954000  0.99292000  0.65923000  1.0
  H  H48  1  0.00082000  0.65517000  0.00939000  1.0
  H  H49  1  0.98781000  0.34492000  0.00002000  1.0
  H  H50  1  0.49134000  0.00461000  0.65339000  1.0
  H  H51  1  0.49925000  0.99324000  0.34075000  1.0
  H  H52  1  0.50905000  0.65557000  0.99073000  1.0
  H  H53  1  0.48493000  0.34509000  0.99993000  1.0
  C  C54  1  0.99516000  0.56811000  0.26632000  1.0
  C  C55  1  0.98816000  0.42782000  0.73774000  1.0
  C  C56  1  0.01332000  0.73406000  0.57227000  1.0
  C  C57  1  0.99840000  0.26240000  0.43480000  1.0
  C  C58  1  0.49564000  0.56846000  0.73369000  1.0
  C  C59  1  0.48783000  0.42807000  0.26222000  1.0
  C  C60  1  0.51437000  0.73422000  0.42772000  1.0
  C  C61  1  0.49728000  0.26249000  0.56510000  1.0
  C  C62  1  0.87518000  0.60603000  0.24158000  1.0
  C  C63  1  0.86725000  0.38649000  0.76390000  1.0
  C  C64  1  0.89077000  0.75829000  0.60810000  1.0
  C  C65  1  0.87646000  0.24063000  0.39377000  1.0
  C  C66  1  0.62082000  0.60500000  0.75793000  1.0
  C  C67  1  0.61147000  0.39297000  0.24067000  1.0
  C  C68  1  0.63672000  0.75682000  0.38746000  1.0
  C  C69  1  0.61981000  0.23708000  0.59967000  1.0
  C  C70  1  0.11214000  0.39351000  0.75971000  1.0
  C  C71  1  0.12017000  0.60593000  0.24345000  1.0
  C  C72  1  0.12111000  0.23721000  0.40021000  1.0
  C  C73  1  0.13553000  0.75724000  0.61229000  1.0
  C  C74  1  0.36663000  0.38754000  0.23561000  1.0
  C  C75  1  0.37599000  0.60762000  0.75717000  1.0
  C  C76  1  0.37516000  0.24092000  0.60613000  1.0
  C  C77  1  0.39208000  0.75908000  0.39213000  1.0
  C  C78  1  0.88090000  0.68287000  0.19295000  1.0
  C  C79  1  0.87117000  0.31022000  0.81353000  1.0
  C  C80  1  0.89094000  0.80646000  0.68504000  1.0
  C  C81  1  0.87794000  0.19226000  0.31708000  1.0
  C  C82  1  0.62600000  0.68194000  0.80634000  1.0
  C  C83  1  0.61368000  0.31672000  0.19153000  1.0
  C  C84  1  0.63615000  0.80532000  0.31073000  1.0
  C  C85  1  0.61976000  0.18860000  0.67627000  1.0
  C  C86  1  0.11503000  0.31726000  0.80883000  1.0
  C  C87  1  0.12478000  0.68294000  0.19516000  1.0
  C  C88  1  0.12145000  0.18877000  0.32360000  1.0
  C  C89  1  0.13449000  0.80568000  0.68904000  1.0
  C  C90  1  0.36986000  0.31123000  0.18598000  1.0
  C  C91  1  0.38227000  0.68446000  0.80578000  1.0
  C  C92  1  0.37628000  0.19255000  0.68283000  1.0
  C  C93  1  0.39273000  0.80740000  0.31527000  1.0
  C  C94  1  0.00541000  0.72203000  0.16993000  1.0
  C  C95  1  0.99473000  0.27523000  0.83617000  1.0
  C  C96  1  0.01264000  0.83030000  0.72619000  1.0
  C  C97  1  0.00014000  0.16619000  0.28159000  1.0
  C  C98  1  0.50696000  0.72232000  0.83020000  1.0
  C  C99  1  0.49309000  0.27547000  0.16374000  1.0
  C  C100  1  0.51459000  0.83067000  0.27386000  1.0
  C  C101  1  0.49825000  0.16627000  0.71831000  1.0
  C  C102  1  0.01057000  0.80563000  0.11996000  1.0
  C  C103  1  0.00469000  0.19260000  0.88742000  1.0
  C  C104  1  0.01400000  0.88140000  0.80907000  1.0
  C  C105  1  0.00238000  0.11674000  0.19813000  1.0
  C  C106  1  0.51248000  0.80593000  0.88013000  1.0
  C  C107  1  0.50285000  0.19283000  0.11249000  1.0
  C  C108  1  0.51612000  0.88181000  0.19099000  1.0
  C  C109  1  0.50023000  0.11691000  0.80184000  1.0
  C  C110  1  0.00939000  0.88364000  0.16799000  1.0
  C  C111  1  0.00896000  0.11417000  0.83842000  1.0
  C  C112  1  0.01436000  0.83447000  0.88845000  1.0
  C  C113  1  0.00054000  0.16530000  0.12203000  1.0
  C  C114  1  0.50856000  0.88385000  0.83213000  1.0
  C  C115  1  0.50761000  0.11443000  0.16150000  1.0
  C  C116  1  0.51832000  0.83493000  0.11160000  1.0
  C  C117  1  0.49866000  0.16555000  0.87789000  1.0
  C  C118  1  0.00446000  0.88884000  0.26098000  1.0
  C  C119  1  0.99916000  0.10797000  0.74477000  1.0
  C  C120  1  0.00728000  0.74107000  0.89373000  1.0
  C  C121  1  0.99443000  0.25882000  0.11493000  1.0
  C  C122  1  0.50126000  0.88893000  0.73920000  1.0
  C  C123  1  0.49772000  0.10823000  0.25517000  1.0
  C  C124  1  0.51366000  0.74152000  0.10637000  1.0
  C  C125  1  0.49203000  0.25904000  0.88503000  1.0
  C  C126  1  0.00204000  0.97602000  0.28239000  1.0
  C  C127  1  0.00409000  0.02156000  0.72379000  1.0
  C  C128  1  0.00621000  0.71992000  0.98062000  1.0
  C  C129  1  0.99277000  0.28034000  0.02866000  1.0
  C  C130  1  0.49791000  0.97608000  0.71779000  1.0
  C  C131  1  0.50351000  0.02187000  0.27618000  1.0
  C  C132  1  0.51295000  0.72034000  0.01949000  1.0
  C  C133  1  0.49028000  0.28052000  0.97129000  1.0
  C  C134  1  0.01256000  0.79992000  0.02900000  1.0
  C  C135  1  0.00281000  0.20072000  0.97928000  1.0
  C  C136  1  0.01250000  0.97156000  0.80271000  1.0
  C  C137  1  0.00552000  0.02452000  0.20286000  1.0
  C  C138  1  0.51696000  0.80032000  0.97106000  1.0
  C  C139  1  0.50088000  0.20094000  0.02064000  1.0
  C  C140  1  0.51278000  0.97190000  0.19729000  1.0
  C  C141  1  0.50311000  0.02467000  0.79723000  1.0
  S  S142  1  0.98823000  0.46557000  0.32085000  1.0
  S  S143  1  0.98684000  0.53043000  0.68240000  1.0
  S  S144  1  0.01501000  0.67996000  0.46964000  1.0
  S  S145  1  0.99759000  0.31766000  0.53641000  1.0
  S  S146  1  0.48771000  0.46590000  0.67920000  1.0
  S  S147  1  0.48747000  0.53068000  0.31756000  1.0
  S  S148  1  0.51572000  0.68013000  0.53037000  1.0
  S  S149  1  0.49704000  0.31781000  0.46349000  1.0
  N  N150  1  0.01074000  0.96733000  0.13262000  1.0
  N  N151  1  0.01785000  0.02935000  0.87441000  1.0
  N  N152  1  0.01808000  0.87055000  0.97170000  1.0
  N  N153  1  0.00738000  0.12935000  0.03787000  1.0
  N  N154  1  0.51014000  0.96757000  0.86746000  1.0
  N  N155  1  0.51755000  0.02967000  0.12555000  1.0
  N  N156  1  0.52117000  0.87098000  0.02833000  1.0
  N  N157  1  0.50588000  0.12962000  0.96203000  1.0
  O  O158  1  0.09540000  0.46636000  0.38735000  1.0
  O  O159  1  0.09944000  0.53236000  0.61945000  1.0
  O  O160  1  0.14602000  0.63760000  0.46403000  1.0
  O  O161  1  0.13133000  0.36200000  0.54447000  1.0
  O  O162  1  0.35339000  0.45911000  0.63827000  1.0
  O  O163  1  0.35630000  0.53444000  0.36224000  1.0
  O  O164  1  0.40208000  0.61521000  0.53187000  1.0
  O  O165  1  0.38949000  0.38200000  0.46688000  1.0
  O  O166  1  0.85563000  0.53357000  0.63788000  1.0
  O  O167  1  0.85380000  0.45808000  0.36171000  1.0
  O  O168  1  0.88907000  0.38116000  0.53315000  1.0
  O  O169  1  0.90267000  0.61409000  0.46854000  1.0
  O  O170  1  0.60001000  0.53207000  0.38041000  1.0
  O  O171  1  0.59507000  0.46598000  0.61273000  1.0
  O  O172  1  0.63133000  0.36140000  0.45527000  1.0
  O  O173  1  0.64588000  0.63674000  0.53558000  1.0
  O  O174  1  0.00896000  0.40043000  0.25386000  1.0
  O  O175  1  0.00421000  0.59581000  0.75026000  1.0
  O  O176  1  0.99859000  0.74785000  0.40497000  1.0
  O  O177  1  0.97302000  0.25037000  0.60176000  1.0
  O  O178  1  0.50730000  0.40071000  0.74628000  1.0
  O  O179  1  0.50553000  0.59599000  0.24968000  1.0
  O  O180  1  0.50123000  0.74823000  0.59506000  1.0
  O  O181  1  0.47149000  0.25066000  0.39816000  1.0
  O  O182  1  0.22454000  0.03135000  0.00728000  1.0
  O  O183  1  0.72457000  0.03294000  0.99273000  1.0
