# generated using pymatgen
data_Zn4H10C28S2Br2Cl2O13
_symmetry_space_group_name_H-M   'P 1'
_cell_length_a   18.55600000
_cell_length_b   19.71210000
_cell_length_c   32.81050000
_cell_angle_alpha   86.02750000
_cell_angle_beta   73.59810000
_cell_angle_gamma   61.95540000
_symmetry_Int_Tables_number   1
_chemical_formula_structural   Zn4H10C28S2Br2Cl2O13
_chemical_formula_sum   'Zn16 H40 C112 S8 Br8 Cl8 O52'
_cell_volume   10132.51866460
_cell_formula_units_Z   4
loop_
 _symmetry_equiv_pos_site_id
 _symmetry_equiv_pos_as_xyz
  1  'x, y, z'
loop_
 _atom_site_type_symbol
 _atom_site_label
 _atom_site_symmetry_multiplicity
 _atom_site_fract_x
 _atom_site_fract_y
 _atom_site_fract_z
 _atom_site_occupancy
  Zn  Zn0  1  0.87288000  0.55436000  0.51843000  1.0
  Zn  Zn1  1  0.03773000  0.48530000  0.43907000  1.0
  Zn  Zn2  1  0.04317000  0.39834000  0.52405000  1.0
  Zn  Zn3  1  0.04624000  0.56099000  0.51799000  1.0
  Zn  Zn4  1  0.62557000  0.19279000  0.73321000  1.0
  Zn  Zn5  1  0.46397000  0.34948000  0.72512000  1.0
  Zn  Zn6  1  0.45660000  0.26538000  0.81281000  1.0
  Zn  Zn7  1  0.45495000  0.19154000  0.72898000  1.0
  Zn  Zn8  1  0.46316000  0.76210000  0.31253000  1.0
  Zn  Zn9  1  0.45268000  0.69223000  0.23196000  1.0
  Zn  Zn10  1  0.62617000  0.69376000  0.22929000  1.0
  Zn  Zn11  1  0.45677000  0.85208000  0.22645000  1.0
  Zn  Zn12  1  0.03622000  0.90045000  0.02516000  1.0
  Zn  Zn13  1  0.05124000  0.05580000  0.01831000  1.0
  Zn  Zn14  1  0.87540000  0.05915000  0.01979000  1.0
  Zn  Zn15  1  0.03823000  0.98448000  0.93732000  1.0
  H  H16  1  0.81125000  0.24280000  0.65345000  1.0
  H  H17  1  0.54412000  0.48578000  0.62043000  1.0
  H  H18  1  0.54971000  0.52602000  0.66574000  1.0
  H  H19  1  0.65029000  0.56963000  0.61738000  1.0
  H  H20  1  0.64447000  0.52959000  0.57218000  1.0
  H  H21  1  0.29337000  0.60215000  0.29609000  1.0
  H  H22  1  0.35022000  0.67368000  0.43430000  1.0
  H  H23  1  0.25963000  0.76207000  0.43165000  1.0
  H  H24  1  0.16285000  0.71223000  0.47760000  1.0
  H  H25  1  0.25330000  0.62380000  0.48007000  1.0
  H  H26  1  0.81072000  0.60142000  0.29533000  1.0
  H  H27  1  0.54744000  0.76237000  0.43001000  1.0
  H  H28  1  0.54227000  0.67413000  0.43268000  1.0
  H  H29  1  0.64197000  0.62451000  0.47907000  1.0
  H  H30  1  0.64726000  0.71269000  0.47643000  1.0
  H  H31  1  0.30746000  0.45616000  0.64630000  1.0
  H  H32  1  0.33038000  0.17802000  0.62978000  1.0
  H  H33  1  0.23973000  0.21882000  0.67520000  1.0
  H  H34  1  0.14382000  0.27135000  0.62686000  1.0
  H  H35  1  0.23442000  0.23052000  0.58154000  1.0
  H  H36  1  0.69023000  0.14790000  0.95540000  1.0
  H  H37  1  0.95539000  0.07748000  0.81688000  1.0
  H  H38  1  0.95076000  0.98899000  0.81919000  1.0
  H  H39  1  0.84936000  0.03952000  0.77366000  1.0
  H  H40  1  0.85404000  0.12793000  0.77142000  1.0
  H  H41  1  0.19346000  0.05175000  0.84469000  1.0
  H  H42  1  0.16940000  0.21622000  0.97566000  1.0
  H  H43  1  0.26046000  0.12794000  0.97784000  1.0
  H  H44  1  0.35574000  0.17465000  0.92741000  1.0
  H  H45  1  0.26484000  0.26297000  0.92527000  1.0
  H  H46  1  0.19427000  0.79372000  0.10315000  1.0
  H  H47  1  0.26033000  0.03225000  0.07478000  1.0
  H  H48  1  0.16924000  0.07260000  0.12003000  1.0
  H  H49  1  0.26475000  0.02063000  0.16854000  1.0
  H  H50  1  0.35573000  0.98017000  0.12335000  1.0
  H  H51  1  0.68867000  0.00699000  0.09665000  1.0
  H  H52  1  0.95127000  0.72391000  0.08436000  1.0
  H  H53  1  0.95544000  0.76468000  0.12992000  1.0
  H  H54  1  0.85531000  0.72029000  0.17762000  1.0
  H  H55  1  0.85111000  0.67934000  0.13221000  1.0
  C  C56  1  0.86199000  0.56826000  0.43069000  1.0
  C  C57  1  0.12405000  0.31613000  0.43869000  1.0
  C  C58  1  0.86470000  0.42786000  0.56843000  1.0
  C  C59  1  0.13921000  0.43308000  0.56839000  1.0
  C  C60  1  0.87337000  0.68374000  0.56036000  1.0
  C  C61  1  0.13742000  0.56949000  0.43079000  1.0
  C  C62  1  0.63913000  0.31831000  0.68148000  1.0
  C  C63  1  0.37688000  0.43473000  0.81023000  1.0
  C  C64  1  0.63457000  0.18238000  0.82091000  1.0
  C  C65  1  0.36098000  0.18083000  0.81762000  1.0
  C  C66  1  0.62643000  0.06574000  0.68889000  1.0
  C  C67  1  0.36346000  0.31823000  0.68041000  1.0
  C  C68  1  0.36291000  0.68061000  0.31993000  1.0
  C  C69  1  0.62255000  0.56632000  0.18871000  1.0
  C  C70  1  0.63863000  0.68051000  0.31843000  1.0
  C  C71  1  0.63534000  0.82069000  0.18039000  1.0
  C  C72  1  0.37622000  0.93253000  0.31235000  1.0
  C  C73  1  0.36070000  0.81827000  0.18155000  1.0
  C  C74  1  0.13871000  0.93120000  0.06875000  1.0
  C  C75  1  0.88059000  0.18376000  0.06110000  1.0
  C  C76  1  0.86103000  0.93214000  0.06924000  1.0
  C  C77  1  0.86225000  0.06902000  0.93128000  1.0
  C  C78  1  0.12171000  0.81529000  0.93999000  1.0
  C  C79  1  0.13886000  0.06804000  0.93072000  1.0
  C  C80  1  0.73510000  0.80400000  0.60088000  1.0
  C  C81  1  0.76448000  0.94512000  0.64875000  1.0
  C  C82  1  0.82277000  0.75846000  0.58559000  1.0
  C  C83  1  0.67680000  0.99085000  0.66393000  1.0
  C  C84  1  0.78583000  0.87712000  0.62567000  1.0
  C  C85  1  0.71366000  0.87216000  0.62385000  1.0
  C  C86  1  0.20205000  0.22663000  0.36911000  1.0
  C  C87  1  0.29794000  0.02233000  0.38190000  1.0
  C  C88  1  0.17324000  0.24205000  0.41313000  1.0
  C  C89  1  0.32697000  0.00670000  0.33792000  1.0
  C  C90  1  0.25240000  0.10243000  0.39333000  1.0
  C  C91  1  0.24760000  0.14647000  0.35771000  1.0
  C  C92  1  0.69616000  0.34612000  0.65289000  1.0
  C  C93  1  0.81054000  0.39711000  0.59727000  1.0
  C  C94  1  0.66614000  0.41811000  0.63631000  1.0
  C  C95  1  0.84070000  0.32367000  0.61448000  1.0
  C  C96  1  0.72185000  0.44196000  0.60958000  1.0
  C  C97  1  0.78499000  0.29957000  0.64124000  1.0
  C  C98  1  0.58731000  0.49221000  0.63499000  1.0
  C  C99  1  0.65021000  0.51952000  0.60473000  1.0
  C  C100  1  0.30578000  0.65265000  0.34814000  1.0
  C  C101  1  0.19418000  0.59662000  0.40118000  1.0
  C  C102  1  0.27984000  0.66431000  0.39239000  1.0
  C  C103  1  0.22081000  0.58509000  0.35586000  1.0
  C  C104  1  0.22611000  0.63699000  0.41757000  1.0
  C  C105  1  0.27477000  0.61237000  0.33057000  1.0
  C  C106  1  0.28608000  0.69907000  0.43017000  1.0
  C  C107  1  0.22540000  0.66796000  0.45885000  1.0
  C  C108  1  0.69517000  0.65241000  0.34690000  1.0
  C  C109  1  0.80839000  0.59593000  0.40073000  1.0
  C  C110  1  0.66449000  0.66419000  0.39116000  1.0
  C  C111  1  0.83935000  0.58436000  0.35543000  1.0
  C  C112  1  0.71970000  0.63667000  0.41670000  1.0
  C  C113  1  0.78403000  0.61187000  0.32978000  1.0
  C  C114  1  0.58529000  0.69937000  0.42867000  1.0
  C  C115  1  0.64768000  0.66830000  0.45774000  1.0
  C  C116  1  0.30608000  0.34727000  0.65237000  1.0
  C  C117  1  0.19579000  0.40705000  0.59698000  1.0
  C  C118  1  0.27263000  0.30488000  0.63967000  1.0
  C  C119  1  0.22995000  0.45017000  0.61032000  1.0
  C  C120  1  0.21965000  0.33422000  0.61298000  1.0
  C  C121  1  0.28309000  0.42084000  0.63701000  1.0
  C  C122  1  0.26913000  0.22945000  0.64302000  1.0
  C  C123  1  0.20911000  0.26237000  0.61280000  1.0
  C  C124  1  0.29789000  0.58410000  0.82076000  1.0
  C  C125  1  0.20160000  0.66593000  0.92951000  1.0
  C  C126  1  0.32740000  0.51008000  0.83469000  1.0
  C  C127  1  0.17178000  0.73995000  0.91558000  1.0
  C  C128  1  0.24752000  0.60905000  0.89500000  1.0
  C  C129  1  0.25190000  0.64096000  0.85529000  1.0
  C  C130  1  0.80484000  0.09733000  0.90320000  1.0
  C  C131  1  0.68918000  0.15479000  0.85048000  1.0
  C  C132  1  0.83417000  0.08625000  0.85891000  1.0
  C  C133  1  0.65969000  0.16561000  0.89579000  1.0
  C  C134  1  0.77789000  0.11426000  0.83389000  1.0
  C  C135  1  0.71601000  0.13780000  0.92091000  1.0
  C  C136  1  0.91260000  0.05199000  0.82097000  1.0
  C  C137  1  0.84914000  0.08359000  0.79250000  1.0
  C  C138  1  0.19483000  0.09696000  0.90216000  1.0
  C  C139  1  0.30402000  0.15131000  0.84476000  1.0
  C  C140  1  0.22746000  0.13795000  0.91709000  1.0
  C  C141  1  0.27014000  0.10957000  0.82976000  1.0
  C  C142  1  0.27992000  0.16382000  0.88914000  1.0
  C  C143  1  0.21756000  0.08357000  0.85773000  1.0
  C  C144  1  0.23073000  0.17085000  0.95650000  1.0
  C  C145  1  0.29040000  0.20012000  0.92494000  1.0
  C  C146  1  0.64355000  0.44662000  0.14876000  1.0
  C  C147  1  0.86064000  0.30327000  0.10092000  1.0
  C  C148  1  0.67165000  0.49156000  0.16370000  1.0
  C  C149  1  0.83225000  0.25851000  0.08606000  1.0
  C  C150  1  0.79200000  0.37194000  0.12384000  1.0
  C  C151  1  0.71245000  0.37803000  0.12595000  1.0
  C  C152  1  0.19538000  0.90268000  0.09707000  1.0
  C  C153  1  0.30456000  0.84393000  0.15285000  1.0
  C  C154  1  0.22806000  0.94562000  0.10996000  1.0
  C  C155  1  0.27110000  0.80025000  0.13940000  1.0
  C  C156  1  0.28055000  0.91672000  0.13685000  1.0
  C  C157  1  0.21838000  0.82923000  0.11249000  1.0
  C  C158  1  0.23079000  0.02141000  0.10687000  1.0
  C  C159  1  0.29051000  0.98883000  0.13724000  1.0
  C  C160  1  0.80396000  0.90371000  0.09716000  1.0
  C  C161  1  0.68958000  0.85168000  0.15187000  1.0
  C  C162  1  0.83398000  0.83146000  0.11346000  1.0
  C  C163  1  0.65941000  0.92540000  0.13494000  1.0
  C  C164  1  0.77834000  0.80709000  0.13978000  1.0
  C  C165  1  0.71509000  0.95000000  0.10860000  1.0
  C  C166  1  0.91294000  0.75770000  0.11507000  1.0
  C  C167  1  0.85021000  0.72989000  0.14495000  1.0
  S  S168  1  0.87928000  0.79899000  0.59935000  1.0
  S  S169  1  0.62022000  0.95047000  0.65004000  1.0
  S  S170  1  0.20164000  0.15860000  0.44060000  1.0
  S  S171  1  0.29850000  0.09019000  0.31047000  1.0
  S  S172  1  0.29905000  0.51002000  0.89014000  1.0
  S  S173  1  0.20006000  0.73997000  0.86012000  1.0
  S  S174  1  0.78253000  0.44993000  0.14968000  1.0
  S  S175  1  0.72140000  0.30038000  0.10015000  1.0
  Br  Br176  1  0.65039000  0.78299000  0.59369000  1.0
  Br  Br177  1  0.84929000  0.96583000  0.65595000  1.0
  Br  Br178  1  0.18650000  0.29822000  0.32738000  1.0
  Br  Br179  1  0.31325000  0.95085000  0.42380000  1.0
  Br  Br180  1  0.31317000  0.61170000  0.76419000  1.0
  Br  Br181  1  0.18669000  0.63834000  0.98606000  1.0
  Br  Br182  1  0.53059000  0.46848000  0.15583000  1.0
  Br  Br183  1  0.97408000  0.28087000  0.09327000  1.0
  Cl  Cl184  1  0.94780000  0.25778000  0.60397000  1.0
  Cl  Cl185  1  0.18910000  0.53753000  0.32805000  1.0
  Cl  Cl186  1  0.94653000  0.53579000  0.32805000  1.0
  Cl  Cl187  1  0.20937000  0.54193000  0.59492000  1.0
  Cl  Cl188  1  0.55276000  0.21390000  0.92377000  1.0
  Cl  Cl189  1  0.29007000  0.08759000  0.77618000  1.0
  Cl  Cl190  1  0.29183000  0.70855000  0.15479000  1.0
  Cl  Cl191  1  0.55227000  0.99106000  0.14523000  1.0
  O  O192  1  0.99821000  0.50054000  0.50139000  1.0
  O  O193  1  0.82194000  0.58226000  0.47049000  1.0
  O  O194  1  0.10172000  0.37670000  0.41845000  1.0
  O  O195  1  0.94505000  0.38682000  0.55894000  1.0
  O  O196  1  0.94228000  0.53323000  0.41484000  1.0
  O  O197  1  0.82419000  0.49453000  0.55559000  1.0
  O  O198  1  0.10818000  0.31263000  0.47920000  1.0
  O  O199  1  0.11705000  0.38438000  0.55990000  1.0
  O  O200  1  0.95425000  0.65752000  0.55051000  1.0
  O  O201  1  0.11760000  0.49981000  0.55476000  1.0
  O  O202  1  0.83337000  0.65248000  0.55078000  1.0
  O  O203  1  0.11297000  0.52988000  0.41485000  1.0
  O  O204  1  0.11795000  0.58846000  0.47050000  1.0
  O  O205  1  0.50050000  0.24963000  0.75023000  1.0
  O  O206  1  0.67430000  0.25228000  0.69569000  1.0
  O  O207  1  0.39944000  0.43462000  0.76981000  1.0
  O  O208  1  0.55418000  0.21808000  0.83660000  1.0
  O  O209  1  0.55927000  0.36378000  0.68925000  1.0
  O  O210  1  0.67493000  0.16705000  0.78116000  1.0
  O  O211  1  0.39248000  0.37586000  0.83234000  1.0
  O  O212  1  0.38146000  0.21963000  0.83760000  1.0
  O  O213  1  0.54551000  0.09438000  0.69678000  1.0
  O  O214  1  0.38493000  0.16562000  0.77757000  1.0
  O  O215  1  0.66643000  0.09519000  0.70030000  1.0
  O  O216  1  0.38935000  0.36311000  0.68977000  1.0
  O  O217  1  0.38193000  0.25049000  0.69255000  1.0
  O  O218  1  0.50109000  0.75056000  0.25005000  1.0
  O  O219  1  0.38873000  0.71623000  0.33843000  1.0
  O  O220  1  0.54182000  0.59524000  0.19971000  1.0
  O  O221  1  0.67398000  0.66796000  0.27833000  1.0
  O  O222  1  0.38113000  0.66674000  0.27987000  1.0
  O  O223  1  0.55882000  0.71505000  0.33722000  1.0
  O  O224  1  0.66621000  0.59534000  0.19712000  1.0
  O  O225  1  0.67559000  0.75266000  0.19184000  1.0
  O  O226  1  0.39242000  0.93648000  0.27186000  1.0
  O  O227  1  0.55507000  0.86285000  0.19111000  1.0
  O  O228  1  0.39801000  0.87175000  0.33245000  1.0
  O  O229  1  0.38271000  0.75126000  0.19478000  1.0
  O  O230  1  0.38233000  0.86702000  0.19059000  1.0
  O  O231  1  0.00023000  0.00019000  0.99983000  1.0
  O  O232  1  0.11072000  0.88729000  0.06045000  1.0
  O  O233  1  0.96144000  0.15310000  0.05065000  1.0
  O  O234  1  0.82597000  0.99946000  0.05636000  1.0
  O  O235  1  0.12294000  0.99771000  0.05528000  1.0
  O  O236  1  0.94085000  0.88604000  0.06067000  1.0
  O  O237  1  0.83586000  0.15640000  0.05221000  1.0
  O  O238  1  0.82713000  0.08468000  0.97129000  1.0
  O  O239  1  0.10313000  0.87418000  0.91780000  1.0
  O  O240  1  0.94199000  0.03141000  0.91259000  1.0
  O  O241  1  0.10149000  0.81547000  0.98043000  1.0
  O  O242  1  0.12253000  0.08219000  0.97062000  1.0
  O  O243  1  0.11222000  0.03195000  0.91318000  1.0
