# generated using pymatgen
data_NaH3CN4O
_symmetry_space_group_name_H-M   'P 1'
_cell_length_a   5.62487000
_cell_length_b   5.80223000
_cell_length_c   6.37097000
_cell_angle_alpha   90.00070000
_cell_angle_beta   89.99690000
_cell_angle_gamma   89.99830000
_symmetry_Int_Tables_number   1
_chemical_formula_structural   NaH3CN4O
_chemical_formula_sum   'Na2 H6 C2 N8 O2'
_cell_volume   207.92800614
_cell_formula_units_Z   2
loop_
 _symmetry_equiv_pos_site_id
 _symmetry_equiv_pos_as_xyz
  1  'x, y, z'
loop_
 _atom_site_type_symbol
 _atom_site_label
 _atom_site_symmetry_multiplicity
 _atom_site_fract_x
 _atom_site_fract_y
 _atom_site_fract_z
 _atom_site_occupancy
  Na  Na0  1  0.00003000  0.99996000  0.50005000  1.0
  Na  Na1  1  0.00003000  0.99998000  0.99997000  1.0
  H  H2  1  0.82437000  0.50002000  0.75000000  1.0
  H  H3  1  0.17559000  0.50000000  0.25000000  1.0
  H  H4  1  0.42213000  0.86251000  0.25000000  1.0
  H  H5  1  0.42218000  0.13757000  0.25000000  1.0
  H  H6  1  0.57781000  0.13744000  0.75000000  1.0
  H  H7  1  0.57775000  0.86238000  0.75000000  1.0
  C  C8  1  0.01747000  0.50013000  0.75001000  1.0
  C  C9  1  0.98259000  0.49998000  0.25000000  1.0
  N  N10  1  0.37810000  0.61322000  0.75004000  1.0
  N  N11  1  0.37802000  0.38675000  0.74995000  1.0
  N  N12  1  0.62196000  0.38677000  0.25005000  1.0
  N  N13  1  0.62196000  0.61323000  0.24994000  1.0
  N  N14  1  0.15159000  0.69126000  0.74997000  1.0
  N  N15  1  0.15144000  0.30890000  0.75003000  1.0
  N  N16  1  0.84851000  0.30879000  0.24996000  1.0
  N  N17  1  0.84851000  0.69117000  0.25002000  1.0
  O  O18  1  0.31638000  0.00005000  0.25000000  1.0
  O  O19  1  0.68356000  0.99990000  0.75000000  1.0
