# generated using pymatgen
data_LaH24C26Cl3O11
_symmetry_space_group_name_H-M   'P 1'
_cell_length_a   8.78883000
_cell_length_b   10.05090000
_cell_length_c   17.91030000
_cell_angle_alpha   76.78500000
_cell_angle_beta   76.42540000
_cell_angle_gamma   70.51610000
_symmetry_Int_Tables_number   1
_chemical_formula_structural   LaH24C26Cl3O11
_chemical_formula_sum   'La2 H48 C52 Cl6 O22'
_cell_volume   1430.21464561
_cell_formula_units_Z   2
loop_
 _symmetry_equiv_pos_site_id
 _symmetry_equiv_pos_as_xyz
  1  'x, y, z'
loop_
 _atom_site_type_symbol
 _atom_site_label
 _atom_site_symmetry_multiplicity
 _atom_site_fract_x
 _atom_site_fract_y
 _atom_site_fract_z
 _atom_site_occupancy
  La  La0  1  0.74733000  0.49576000  0.50605000  1.0
  La  La1  1  0.25267000  0.50425000  0.49395000  1.0
  H  H2  1  0.98636000  0.11902000  0.51826000  1.0
  H  H3  1  0.01364000  0.88097000  0.48173000  1.0
  H  H4  1  0.13991000  0.07925000  0.43449000  1.0
  H  H5  1  0.86009000  0.92075000  0.56551000  1.0
  H  H6  1  0.96769000  0.14846000  0.62995000  1.0
  H  H7  1  0.03231000  0.85154000  0.37005000  1.0
  H  H8  1  0.95719000  0.13558000  0.76912000  1.0
  H  H9  1  0.04281000  0.86443000  0.23088000  1.0
  H  H10  1  0.42513000  0.81200000  0.75911000  1.0
  H  H11  1  0.57486000  0.18799000  0.24089000  1.0
  H  H12  1  0.44028000  0.82721000  0.61617000  1.0
  H  H13  1  0.55972000  0.17279000  0.38382000  1.0
  H  H14  1  0.40861000  0.16739000  0.65011000  1.0
  H  H15  1  0.59140000  0.83261000  0.34989000  1.0
  H  H16  1  0.50904000  0.08879000  0.56604000  1.0
  H  H17  1  0.49097000  0.91121000  0.43396000  1.0
  H  H18  1  0.49737000  0.23643000  0.73647000  1.0
  H  H19  1  0.50263000  0.76357000  0.26352000  1.0
  H  H20  1  0.53208000  0.22495000  0.87070000  1.0
  H  H21  1  0.46791000  0.77506000  0.12930000  1.0
  H  H22  1  0.84917000  0.79221000  0.87246000  1.0
  H  H23  1  0.15082000  0.20780000  0.12754000  1.0
  H  H24  1  0.81164000  0.80304000  0.73743000  1.0
  H  H25  1  0.18837000  0.19697000  0.26257000  1.0
  H  H26  1  0.63590000  0.63997000  0.75947000  1.0
  H  H27  1  0.36410000  0.36002000  0.24054000  1.0
  H  H28  1  0.52315000  0.51301000  0.79150000  1.0
  H  H29  1  0.47686000  0.48698000  0.20851000  1.0
  H  H30  1  0.56547000  0.64886000  0.88153000  1.0
  H  H31  1  0.43454000  0.35113000  0.11848000  1.0
  H  H32  1  0.58157000  0.66452000  0.01389000  1.0
  H  H33  1  0.41844000  0.33548000  0.98611000  1.0
  H  H34  1  0.97869000  0.27027000  0.02325000  1.0
  H  H35  1  0.02131000  0.72972000  0.97676000  1.0
  H  H36  1  0.96568000  0.25519000  0.88860000  1.0
  H  H37  1  0.03432000  0.74480000  0.11141000  1.0
  H  H38  1  0.83941000  0.33343000  0.28077000  1.0
  H  H39  1  0.16059000  0.66657000  0.71923000  1.0
  H  H40  1  0.98475000  0.32483000  0.33810000  1.0
  H  H41  1  0.01525000  0.67517000  0.66190000  1.0
  H  H42  1  0.92858000  0.56014000  0.24651000  1.0
  H  H43  1  0.07142000  0.43986000  0.75350000  1.0
  H  H44  1  0.71585000  0.59589000  0.28765000  1.0
  H  H45  1  0.28415000  0.40411000  0.71235000  1.0
  H  H46  1  0.98107000  0.58887000  0.35409000  1.0
  H  H47  1  0.01893000  0.41113000  0.64592000  1.0
  H  H48  1  0.64002000  0.38291000  0.38339000  1.0
  H  H49  1  0.35998000  0.61709000  0.61662000  1.0
  C  C50  1  0.15763000  0.24179000  0.48750000  1.0
  C  C51  1  0.84236000  0.75821000  0.51250000  1.0
  C  C52  1  0.11650000  0.10400000  0.49360000  1.0
  C  C53  1  0.88350000  0.89600000  0.50640000  1.0
  C  C54  1  0.20483000  0.98623000  0.61400000  1.0
  C  C55  1  0.79517000  0.01378000  0.38600000  1.0
  C  C56  1  0.07005000  0.07469000  0.65658000  1.0
  C  C57  1  0.92995000  0.92532000  0.34342000  1.0
  C  C58  1  0.06272000  0.06699000  0.73613000  1.0
  C  C59  1  0.93728000  0.93301000  0.26387000  1.0
  C  C60  1  0.18965000  0.97100000  0.77257000  1.0
  C  C61  1  0.81036000  0.02900000  0.22743000  1.0
  C  C62  1  0.32505000  0.88341000  0.73003000  1.0
  C  C63  1  0.67495000  0.11659000  0.26996000  1.0
  C  C64  1  0.33327000  0.89120000  0.65074000  1.0
  C  C65  1  0.66674000  0.10880000  0.34926000  1.0
  C  C66  1  0.60067000  0.25136000  0.57769000  1.0
  C  C67  1  0.39934000  0.74864000  0.42231000  1.0
  C  C68  1  0.52930000  0.12864000  0.61394000  1.0
  C  C69  1  0.47071000  0.87136000  0.38605000  1.0
  C  C70  1  0.65057000  0.01852000  0.72857000  1.0
  C  C71  1  0.34943000  0.98148000  0.27143000  1.0
  C  C72  1  0.57334000  0.13815000  0.76571000  1.0
  C  C73  1  0.42665000  0.86185000  0.23429000  1.0
  C  C74  1  0.59359000  0.13230000  0.84156000  1.0
  C  C75  1  0.40640000  0.86771000  0.15844000  1.0
  C  C76  1  0.69176000  0.00800000  0.87991000  1.0
  C  C77  1  0.30823000  0.99201000  0.12008000  1.0
  C  C78  1  0.77131000  0.88883000  0.84275000  1.0
  C  C79  1  0.22868000  0.11117000  0.15725000  1.0
  C  C80  1  0.74998000  0.89453000  0.76752000  1.0
  C  C81  1  0.25002000  0.10547000  0.23248000  1.0
  C  C82  1  0.67676000  0.50345000  0.67827000  1.0
  C  C83  1  0.32323000  0.49655000  0.32174000  1.0
  C  C84  1  0.64308000  0.52707000  0.76196000  1.0
  C  C85  1  0.35693000  0.47293000  0.23805000  1.0
  C  C86  1  0.76661000  0.45078000  0.87584000  1.0
  C  C87  1  0.23340000  0.54922000  0.12416000  1.0
  C  C88  1  0.65778000  0.56568000  0.91107000  1.0
  C  C89  1  0.34223000  0.43431000  0.08893000  1.0
  C  C90  1  0.66590000  0.57472000  0.98672000  1.0
  C  C91  1  0.33411000  0.42527000  0.01328000  1.0
  C  C92  1  0.78066000  0.46851000  0.02654000  1.0
  C  C93  1  0.21935000  0.53149000  0.97347000  1.0
  C  C94  1  0.88948000  0.35329000  0.99174000  1.0
  C  C95  1  0.11052000  0.64670000  0.00826000  1.0
  C  C96  1  0.88236000  0.34478000  0.91637000  1.0
  C  C97  1  0.11765000  0.65521000  0.08363000  1.0
  C  C98  1  0.86073000  0.38156000  0.32535000  1.0
  C  C99  1  0.13927000  0.61843000  0.67466000  1.0
  C  C100  1  0.84073000  0.54015000  0.29958000  1.0
  C  C101  1  0.15926000  0.45985000  0.70042000  1.0
  Cl  Cl102  1  0.18037000  0.95865000  0.87178000  1.0
  Cl  Cl103  1  0.81964000  0.04134000  0.12822000  1.0
  Cl  Cl104  1  0.71499000  0.00032000  0.97444000  1.0
  Cl  Cl105  1  0.28499000  0.99968000  0.02556000  1.0
  Cl  Cl106  1  0.78797000  0.47740000  0.12160000  1.0
  Cl  Cl107  1  0.21204000  0.52259000  0.87841000  1.0
  O  O108  1  0.50788000  0.36503000  0.54233000  1.0
  O  O109  1  0.49211000  0.63497000  0.45767000  1.0
  O  O110  1  0.03956000  0.35975000  0.48493000  1.0
  O  O111  1  0.96043000  0.64025000  0.51507000  1.0
  O  O112  1  0.82237000  0.45148000  0.64443000  1.0
  O  O113  1  0.17763000  0.54852000  0.35558000  1.0
  O  O114  1  0.74499000  0.24290000  0.58093000  1.0
  O  O115  1  0.25501000  0.75710000  0.41906000  1.0
  O  O116  1  0.55584000  0.54365000  0.64234000  1.0
  O  O117  1  0.44416000  0.45635000  0.35766000  1.0
  O  O118  1  0.74969000  0.36058000  0.39707000  1.0
  O  O119  1  0.25032000  0.63942000  0.60294000  1.0
  O  O120  1  0.22191000  0.98516000  0.53573000  1.0
  O  O121  1  0.77809000  0.01484000  0.46427000  1.0
  O  O122  1  0.77144000  0.43283000  0.80126000  1.0
  O  O123  1  0.22856000  0.56717000  0.19874000  1.0
  O  O124  1  0.86163000  0.59863000  0.36147000  1.0
  O  O125  1  0.13837000  0.40137000  0.63853000  1.0
  O  O126  1  0.30300000  0.24058000  0.48381000  1.0
  O  O127  1  0.69700000  0.75943000  0.51619000  1.0
  O  O128  1  0.63673000  0.01061000  0.65524000  1.0
  O  O129  1  0.36328000  0.98939000  0.34476000  1.0
