# generated using pymatgen
data_NaH7C4N8O3
_symmetry_space_group_name_H-M   'P 1'
_cell_length_a   6.66888000
_cell_length_b   7.24979000
_cell_length_c   10.67480000
_cell_angle_alpha   108.84300000
_cell_angle_beta   98.63970000
_cell_angle_gamma   103.70200000
_symmetry_Int_Tables_number   1
_chemical_formula_structural   NaH7C4N8O3
_chemical_formula_sum   'Na2 H14 C8 N16 O6'
_cell_volume   459.89184722
_cell_formula_units_Z   2
loop_
 _symmetry_equiv_pos_site_id
 _symmetry_equiv_pos_as_xyz
  1  'x, y, z'
loop_
 _atom_site_type_symbol
 _atom_site_label
 _atom_site_symmetry_multiplicity
 _atom_site_fract_x
 _atom_site_fract_y
 _atom_site_fract_z
 _atom_site_occupancy
  Na  Na0  1  0.95137000  0.30211000  0.05896000  1.0
  Na  Na1  1  0.04862000  0.69789000  0.94104000  1.0
  H  H2  1  0.26649000  0.74487000  0.54011000  1.0
  H  H3  1  0.73351000  0.25513000  0.45989000  1.0
  H  H4  1  0.29343000  0.53013000  0.58278000  1.0
  H  H5  1  0.70657000  0.46987000  0.41721000  1.0
  H  H6  1  0.17958000  0.80345000  0.31139000  1.0
  H  H7  1  0.82042000  0.19655000  0.68861000  1.0
  H  H8  1  0.29758000  0.43064000  0.92414000  1.0
  H  H9  1  0.70242000  0.56936000  0.07586000  1.0
  H  H10  1  0.36631000  0.55017000  0.08412000  1.0
  H  H11  1  0.63369000  0.44983000  0.91588000  1.0
  H  H12  1  0.65065000  0.05316000  0.17304000  1.0
  H  H13  1  0.34935000  0.94684000  0.82696000  1.0
  H  H14  1  0.50990000  0.13581000  0.08728000  1.0
  H  H15  1  0.49009000  0.86420000  0.91273000  1.0
  C  C16  1  0.20220000  0.48040000  0.37750000  1.0
  C  C17  1  0.79780000  0.51960000  0.62251000  1.0
  C  C18  1  0.19092000  0.26057000  0.33337000  1.0
  C  C19  1  0.80908000  0.73942000  0.66666667  1.0
  C  C20  1  0.21864000  0.13181000  0.40425000  1.0
  C  C21  1  0.78136000  0.86819000  0.59575000  1.0
  C  C22  1  0.27447000  0.16293000  0.54732000  1.0
  C  C23  1  0.72553000  0.83707000  0.45268000  1.0
  N  N24  1  0.26172000  0.59261000  0.51029000  1.0
  N  N25  1  0.73828000  0.40739000  0.48971000  1.0
  N  N26  1  0.13976000  0.14457000  0.19701000  1.0
  N  N27  1  0.86024000  0.85543000  0.80299000  1.0
  N  N28  1  0.13374000  0.95578000  0.17999000  1.0
  N  N29  1  0.86626000  0.04422000  0.82001000  1.0
  N  N30  1  0.18054000  0.94599000  0.30419000  1.0
  N  N31  1  0.81946000  0.05401000  0.69581000  1.0
  N  N32  1  0.32247000  0.34320000  0.65231000  1.0
  N  N33  1  0.67753000  0.65680000  0.34769000  1.0
  N  N34  1  0.36468000  0.30147000  0.76472000  1.0
  N  N35  1  0.63532000  0.69853000  0.23528000  1.0
  N  N36  1  0.34264000  0.10304000  0.72935000  1.0
  N  N37  1  0.65736000  0.89696000  0.27065000  1.0
  N  N38  1  0.28659000  0.01239000  0.59380000  1.0
  N  N39  1  0.71342000  0.98762000  0.40620000  1.0
  O  O40  1  0.15514000  0.55220000  0.28729000  1.0
  O  O41  1  0.84486000  0.44780000  0.71271000  1.0
  O  O42  1  0.24384000  0.49197000  0.00448000  1.0
  O  O43  1  0.75616000  0.50803000  0.99552000  1.0
  O  O44  1  0.65773000  0.15252000  0.12627000  1.0
  O  O45  1  0.34227000  0.84748000  0.87373000  1.0
