# generated using pymatgen
data_CdH22C16(BrN)2
_symmetry_space_group_name_H-M   'P 1'
_cell_length_a   4.31373000
_cell_length_b   14.46050000
_cell_length_c   14.49140000
_cell_angle_alpha   111.52900000
_cell_angle_beta   90.00030000
_cell_angle_gamma   90.00010000
_symmetry_Int_Tables_number   1
_chemical_formula_structural   CdH22C16(BrN)2
_chemical_formula_sum   'Cd2 H44 C32 Br4 N4'
_cell_volume   840.88743432
_cell_formula_units_Z   2
loop_
 _symmetry_equiv_pos_site_id
 _symmetry_equiv_pos_as_xyz
  1  'x, y, z'
loop_
 _atom_site_type_symbol
 _atom_site_label
 _atom_site_symmetry_multiplicity
 _atom_site_fract_x
 _atom_site_fract_y
 _atom_site_fract_z
 _atom_site_occupancy
  Cd  Cd0  1  0.50239000  0.25000000  0.00000000  1.0
  Cd  Cd1  1  0.49761000  0.75000000  0.00000000  1.0
  H  H2  1  0.16355000  0.33696000  0.16949000  1.0
  H  H3  1  0.16355000  0.16304000  0.83051000  1.0
  H  H4  1  0.83645000  0.66304000  0.83051000  1.0
  H  H5  1  0.83645000  0.83696000  0.16949000  1.0
  H  H6  1  0.19175000  0.41658000  0.11208000  1.0
  H  H7  1  0.19175000  0.08342000  0.88792000  1.0
  H  H8  1  0.80825000  0.58342000  0.88792000  1.0
  H  H9  1  0.80824000  0.91658000  0.11208000  1.0
  H  H10  1  0.59765000  0.53639000  0.14041000  1.0
  H  H11  1  0.59765000  0.96362000  0.85959000  1.0
  H  H12  1  0.40237000  0.46361000  0.85959000  1.0
  H  H13  1  0.40234000  0.03638000  0.14041000  1.0
  H  H14  1  0.97787000  0.63999000  0.26282000  1.0
  H  H15  1  0.97788000  0.86001000  0.73718000  1.0
  H  H16  1  0.02214000  0.36001000  0.73717000  1.0
  H  H17  1  0.02212000  0.13999000  0.26283000  1.0
  H  H18  1  0.11581000  0.59807000  0.41066000  1.0
  H  H19  1  0.11581000  0.90193000  0.58934000  1.0
  H  H20  1  0.88418000  0.40193000  0.58934000  1.0
  H  H21  1  0.88419000  0.09807000  0.41066000  1.0
  H  H22  1  0.88281000  0.44983000  0.43041000  1.0
  H  H23  1  0.88280000  0.05017000  0.56959000  1.0
  H  H24  1  0.11718000  0.55017000  0.56959000  1.0
  H  H25  1  0.11720000  0.94983000  0.43041000  1.0
  H  H26  1  0.54565000  0.24925000  0.24094000  1.0
  H  H27  1  0.54564000  0.25075000  0.75906000  1.0
  H  H28  1  0.45435000  0.75075000  0.75906000  1.0
  H  H29  1  0.45436000  0.74925000  0.24094000  1.0
  H  H30  1  0.22047000  0.31776000  0.30053000  1.0
  H  H31  1  0.22046000  0.18224000  0.69946000  1.0
  H  H32  1  0.77953000  0.68224000  0.69947000  1.0
  H  H33  1  0.77953000  0.81776000  0.30054000  1.0
  H  H34  1  0.80772000  0.28894000  0.40815000  1.0
  H  H35  1  0.80771000  0.21106000  0.59185000  1.0
  H  H36  1  0.19229000  0.71106000  0.59185000  1.0
  H  H37  1  0.19229000  0.78894000  0.40815000  1.0
  H  H38  1  0.44605000  0.22893000  0.40057000  1.0
  H  H39  1  0.44604000  0.27107000  0.59943000  1.0
  H  H40  1  0.55395000  0.77107000  0.59943000  1.0
  H  H41  1  0.55396000  0.72893000  0.40057000  1.0
  H  H42  1  0.47679000  0.35897000  0.46715000  1.0
  H  H43  1  0.47678000  0.14104000  0.53285000  1.0
  H  H44  1  0.52321000  0.64104000  0.53285000  1.0
  H  H45  1  0.52322000  0.85896000  0.46715000  1.0
  C  C46  1  0.53119000  0.43400000  0.21583000  1.0
  C  C47  1  0.53119000  0.06601000  0.78417000  1.0
  C  C48  1  0.46882000  0.56601000  0.78417000  1.0
  C  C49  1  0.46881000  0.93399000  0.21583000  1.0
  C  C50  1  0.66207000  0.51755000  0.20424000  1.0
  C  C51  1  0.66207000  0.98245000  0.79576000  1.0
  C  C52  1  0.33793000  0.48244000  0.79576000  1.0
  C  C53  1  0.33792000  0.01755000  0.20424000  1.0
  C  C54  1  0.87282000  0.57639000  0.27402000  1.0
  C  C55  1  0.87282000  0.92361000  0.72598000  1.0
  C  C56  1  0.12719000  0.42361000  0.72597000  1.0
  C  C57  1  0.12717000  0.07639000  0.27402000  1.0
  C  C58  1  0.95050000  0.55247000  0.35597000  1.0
  C  C59  1  0.95050000  0.94753000  0.64403000  1.0
  C  C60  1  0.04950000  0.44753000  0.64403000  1.0
  C  C61  1  0.04950000  0.05246000  0.35597000  1.0
  C  C62  1  0.82028000  0.46849000  0.36647000  1.0
  C  C63  1  0.82028000  0.03151000  0.63353000  1.0
  C  C64  1  0.17972000  0.53151000  0.63353000  1.0
  C  C65  1  0.17972000  0.96849000  0.36647000  1.0
  C  C66  1  0.61249000  0.40670000  0.29662000  1.0
  C  C67  1  0.61249000  0.09331000  0.70338000  1.0
  C  C68  1  0.38750000  0.59330000  0.70338000  1.0
  C  C69  1  0.38751000  0.90669000  0.29662000  1.0
  C  C70  1  0.47539000  0.31450000  0.30602000  1.0
  C  C71  1  0.47538000  0.18551000  0.69398000  1.0
  C  C72  1  0.52461000  0.68550000  0.69398000  1.0
  C  C73  1  0.52462000  0.81449000  0.30602000  1.0
  C  C74  1  0.55649000  0.29731000  0.40080000  1.0
  C  C75  1  0.55648000  0.20269000  0.59920000  1.0
  C  C76  1  0.44350000  0.70269000  0.59920000  1.0
  C  C77  1  0.44351000  0.79731000  0.40080000  1.0
  Br  Br78  1  0.91432000  0.15158000  0.06684000  1.0
  Br  Br79  1  0.91432000  0.34842000  0.93316000  1.0
  Br  Br80  1  0.08568000  0.84842000  0.93316000  1.0
  Br  Br81  1  0.08568000  0.65157000  0.06684000  1.0
  N  N82  1  0.31767000  0.37512000  0.14296000  1.0
  N  N83  1  0.31767000  0.12488000  0.85704000  1.0
  N  N84  1  0.68233000  0.62488000  0.85703000  1.0
  N  N85  1  0.68233000  0.87512000  0.14296000  1.0
