# generated using pymatgen
data_SnH4C4O5
_symmetry_space_group_name_H-M   'P 1'
_cell_length_a   5.19618000
_cell_length_b   7.40935000
_cell_length_c   16.94870000
_cell_angle_alpha   89.99920000
_cell_angle_beta   90.00090000
_cell_angle_gamma   89.99930000
_symmetry_Int_Tables_number   1
_chemical_formula_structural   SnH4C4O5
_chemical_formula_sum   'Sn4 H16 C16 O20'
_cell_volume   652.53031039
_cell_formula_units_Z   4
loop_
 _symmetry_equiv_pos_site_id
 _symmetry_equiv_pos_as_xyz
  1  'x, y, z'
loop_
 _atom_site_type_symbol
 _atom_site_label
 _atom_site_symmetry_multiplicity
 _atom_site_fract_x
 _atom_site_fract_y
 _atom_site_fract_z
 _atom_site_occupancy
  Sn  Sn0  1  0.63990000  0.24368000  0.59537000  1.0
  Sn  Sn1  1  0.63988000  0.74368000  0.90463000  1.0
  Sn  Sn2  1  0.36012000  0.24365000  0.09538000  1.0
  Sn  Sn3  1  0.36012000  0.74366000  0.40462000  1.0
  H  H4  1  0.91850000  0.95939000  0.66836000  1.0
  H  H5  1  0.91852000  0.45939000  0.83165000  1.0
  H  H6  1  0.08149000  0.95939000  0.16836000  1.0
  H  H7  1  0.08149000  0.45939000  0.33165000  1.0
  H  H8  1  0.02642000  0.92791000  0.57833000  1.0
  H  H9  1  0.02643000  0.42790000  0.92167000  1.0
  H  H10  1  0.97358000  0.92791000  0.07833000  1.0
  H  H11  1  0.97358000  0.42791000  0.42167000  1.0
  H  H12  1  0.47177000  0.25223000  0.32254000  1.0
  H  H13  1  0.47177000  0.75222000  0.17746000  1.0
  H  H14  1  0.52823000  0.25223000  0.82255000  1.0
  H  H15  1  0.52822000  0.75222000  0.67745000  1.0
  H  H16  1  0.74173000  0.09936000  0.22709000  1.0
  H  H17  1  0.74172000  0.59935000  0.27291000  1.0
  H  H18  1  0.25828000  0.09938000  0.72709000  1.0
  H  H19  1  0.25829000  0.59938000  0.77291000  1.0
  C  C20  1  0.64872000  0.14932000  0.43047000  1.0
  C  C21  1  0.64871000  0.64931000  0.06952000  1.0
  C  C22  1  0.35128000  0.14932000  0.93048000  1.0
  C  C23  1  0.35126000  0.64933000  0.56952000  1.0
  C  C24  1  0.62978000  0.16632000  0.34295000  1.0
  C  C25  1  0.62977000  0.66632000  0.15705000  1.0
  C  C26  1  0.37022000  0.16633000  0.84296000  1.0
  C  C27  1  0.37022000  0.66632000  0.65704000  1.0
  C  C28  1  0.77675000  0.08050000  0.28997000  1.0
  C  C29  1  0.77675000  0.58050000  0.21003000  1.0
  C  C30  1  0.22325000  0.08052000  0.78997000  1.0
  C  C31  1  0.22324000  0.58052000  0.71003000  1.0
  C  C32  1  0.99328000  0.95953000  0.31117000  1.0
  C  C33  1  0.99328000  0.45954000  0.18883000  1.0
  C  C34  1  0.00672000  0.95955000  0.81118000  1.0
  C  C35  1  0.00672000  0.45955000  0.68883000  1.0
  O  O36  1  0.79094000  0.26096000  0.46929000  1.0
  O  O37  1  0.79094000  0.76095000  0.03071000  1.0
  O  O38  1  0.20906000  0.26096000  0.96930000  1.0
  O  O39  1  0.20904000  0.76097000  0.53071000  1.0
  O  O40  1  0.50464000  0.03772000  0.46535000  1.0
  O  O41  1  0.50465000  0.53771000  0.03465000  1.0
  O  O42  1  0.49533000  0.03770000  0.96536000  1.0
  O  O43  1  0.49534000  0.53774000  0.53464000  1.0
  O  O44  1  0.01963000  0.91956000  0.38481000  1.0
  O  O45  1  0.01962000  0.41957000  0.11518000  1.0
  O  O46  1  0.98038000  0.91958000  0.88482000  1.0
  O  O47  1  0.98040000  0.41958000  0.61518000  1.0
  O  O48  1  0.14112000  0.89953000  0.25769000  1.0
  O  O49  1  0.14111000  0.39954000  0.24231000  1.0
  O  O50  1  0.85889000  0.89955000  0.75769000  1.0
  O  O51  1  0.85889000  0.39953000  0.74231000  1.0
  O  O52  1  0.94115000  0.01555000  0.61428000  1.0
  O  O53  1  0.94117000  0.51555000  0.88572000  1.0
  O  O54  1  0.05884000  0.01555000  0.11428000  1.0
  O  O55  1  0.05885000  0.51554000  0.38572000  1.0
