# generated using pymatgen
data_CdH17C15SN3O5
_symmetry_space_group_name_H-M   'P 1'
_cell_length_a   9.46234000
_cell_length_b   12.76780000
_cell_length_c   16.66080000
_cell_angle_alpha   109.09400000
_cell_angle_beta   89.99980000
_cell_angle_gamma   90.00000000
_symmetry_Int_Tables_number   1
_chemical_formula_structural   CdH17C15SN3O5
_chemical_formula_sum   'Cd4 H68 C60 S4 N12 O20'
_cell_volume   1902.10525967
_cell_formula_units_Z   4
loop_
 _symmetry_equiv_pos_site_id
 _symmetry_equiv_pos_as_xyz
  1  'x, y, z'
loop_
 _atom_site_type_symbol
 _atom_site_label
 _atom_site_symmetry_multiplicity
 _atom_site_fract_x
 _atom_site_fract_y
 _atom_site_fract_z
 _atom_site_occupancy
  Cd  Cd0  1  0.50000000  0.50000000  0.00000000  1.0
  Cd  Cd1  1  0.00000000  0.00000000  0.50000000  1.0
  Cd  Cd2  1  0.50000000  0.00000000  0.00000000  1.0
  Cd  Cd3  1  0.00000000  0.50000000  0.50000000  1.0
  H  H4  1  0.71569000  0.70523000  0.08029000  1.0
  H  H5  1  0.21569000  0.79477000  0.41971000  1.0
  H  H6  1  0.28431000  0.29477000  0.91971000  1.0
  H  H7  1  0.78431000  0.20523000  0.58029000  1.0
  H  H8  1  0.96444000  0.76611000  0.06070000  1.0
  H  H9  1  0.46444000  0.73389000  0.43930000  1.0
  H  H10  1  0.03556000  0.23389000  0.93930000  1.0
  H  H11  1  0.53557000  0.26611000  0.56070000  1.0
  H  H12  1  0.10937000  0.64713000  0.94216000  1.0
  H  H13  1  0.60937000  0.85287000  0.55784000  1.0
  H  H14  1  0.89063000  0.35287000  0.05784000  1.0
  H  H15  1  0.39063000  0.14713000  0.44216000  1.0
  H  H16  1  0.00473000  0.46507000  0.84710000  1.0
  H  H17  1  0.50473000  0.03493000  0.65290000  1.0
  H  H18  1  0.99526000  0.53493000  0.15290000  1.0
  H  H19  1  0.49526000  0.96507000  0.34710000  1.0
  H  H20  1  0.76206000  0.41189000  0.88109000  1.0
  H  H21  1  0.26207000  0.08811000  0.61891000  1.0
  H  H22  1  0.23794000  0.58811000  0.11891000  1.0
  H  H23  1  0.73794000  0.91189000  0.38109000  1.0
  H  H24  1  0.58601000  0.99955000  0.81563000  1.0
  H  H25  1  0.08601000  0.50045000  0.68437000  1.0
  H  H26  1  0.41399000  0.00045000  0.18437000  1.0
  H  H27  1  0.91399000  0.49955000  0.31563000  1.0
  H  H28  1  0.71865000  0.88399000  0.68488000  1.0
  H  H29  1  0.21865000  0.61601000  0.81512000  1.0
  H  H30  1  0.28135000  0.11601000  0.31512000  1.0
  H  H31  1  0.78135000  0.38399000  0.18488000  1.0
  H  H32  1  0.83293000  0.70996000  0.68574000  1.0
  H  H33  1  0.33293000  0.79004000  0.81426000  1.0
  H  H34  1  0.16707000  0.29004000  0.31426000  1.0
  H  H35  1  0.66707000  0.20996000  0.18574000  1.0
  H  H36  1  0.79508000  0.64596000  0.81297000  1.0
  H  H37  1  0.29508000  0.85403000  0.68703000  1.0
  H  H38  1  0.20492000  0.35404000  0.18703000  1.0
  H  H39  1  0.70492000  0.14597000  0.31297000  1.0
  H  H40  1  0.64488000  0.76374000  0.93308000  1.0
  H  H41  1  0.14488000  0.73626000  0.56691000  1.0
  H  H42  1  0.35512000  0.23626000  0.06691000  1.0
  H  H43  1  0.85511000  0.26374000  0.43308000  1.0
  H  H44  1  0.36479000  0.09056000  0.85842000  1.0
  H  H45  1  0.86479000  0.40944000  0.64158000  1.0
  H  H46  1  0.63521000  0.90944000  0.14158000  1.0
  H  H47  1  0.13521000  0.59056000  0.35842000  1.0
  H  H48  1  0.14565000  0.08513000  0.77067000  1.0
  H  H49  1  0.64565000  0.41486000  0.72933000  1.0
  H  H50  1  0.85435000  0.91487000  0.22933000  1.0
  H  H51  1  0.35435000  0.58513000  0.27067000  1.0
  H  H52  1  0.93286000  0.98526000  0.79773000  1.0
  H  H53  1  0.43286000  0.51473000  0.70228000  1.0
  H  H54  1  0.06714000  0.01474000  0.20227000  1.0
  H  H55  1  0.56714000  0.48527000  0.29773000  1.0
  H  H56  1  0.94902000  0.88929000  0.90729000  1.0
  H  H57  1  0.44902000  0.61071000  0.59271000  1.0
  H  H58  1  0.05098000  0.11071000  0.09271000  1.0
  H  H59  1  0.55098000  0.38929000  0.40729000  1.0
  H  H60  1  0.17545000  0.89937000  0.98669000  1.0
  H  H61  1  0.67545000  0.60063000  0.51331000  1.0
  H  H62  1  0.82455000  0.10063000  0.01331000  1.0
  H  H63  1  0.32455000  0.39937000  0.48669000  1.0
  H  H64  1  0.37302000  0.46343000  0.83808000  1.0
  H  H65  1  0.87302000  0.03657000  0.66192000  1.0
  H  H66  1  0.62699000  0.53657000  0.16192000  1.0
  H  H67  1  0.12698000  0.96343000  0.33808000  1.0
  H  H68  1  0.40118000  0.59182000  0.89084000  1.0
  H  H69  1  0.90118000  0.90818000  0.60916000  1.0
  H  H70  1  0.59882000  0.40818000  0.10916000  1.0
  H  H71  1  0.09882000  0.09182000  0.39084000  1.0
  C  C72  1  0.78553000  0.65417000  0.03064000  1.0
  C  C73  1  0.28553000  0.84583000  0.46936000  1.0
  C  C74  1  0.21447000  0.34583000  0.96936000  1.0
  C  C75  1  0.71447000  0.15417000  0.53064000  1.0
  C  C76  1  0.92106000  0.68860000  0.01854000  1.0
  C  C77  1  0.42106000  0.81139000  0.48146000  1.0
  C  C78  1  0.07894000  0.31140000  0.98147000  1.0
  C  C79  1  0.57894000  0.18861000  0.51854000  1.0
  C  C80  1  0.00256000  0.62106000  0.95166000  1.0
  C  C81  1  0.50256000  0.87894000  0.54834000  1.0
  C  C82  1  0.99744000  0.37894000  0.04834000  1.0
  C  C83  1  0.49744000  0.12106000  0.45166000  1.0
  C  C84  1  0.94529000  0.52105000  0.89992000  1.0
  C  C85  1  0.44529000  0.97894000  0.60008000  1.0
  C  C86  1  0.05471000  0.47895000  0.10008000  1.0
  C  C87  1  0.55471000  0.02106000  0.39992000  1.0
  C  C88  1  0.81000000  0.49096000  0.91734000  1.0
  C  C89  1  0.31001000  0.00904000  0.58266000  1.0
  C  C90  1  0.19000000  0.50904000  0.08266000  1.0
  C  C91  1  0.68999000  0.99096000  0.41734000  1.0
  C  C92  1  0.63021000  0.91865000  0.81034000  1.0
  C  C93  1  0.13021000  0.58135000  0.68966000  1.0
  C  C94  1  0.36979000  0.08135000  0.18966000  1.0
  C  C95  1  0.86979000  0.41865000  0.31034000  1.0
  C  C96  1  0.70653000  0.85631000  0.73960000  1.0
  C  C97  1  0.20653000  0.64369000  0.76040000  1.0
  C  C98  1  0.29347000  0.14369000  0.26040000  1.0
  C  C99  1  0.79347000  0.35631000  0.23960000  1.0
  C  C100  1  0.76943000  0.75760000  0.73983000  1.0
  C  C101  1  0.26943000  0.74239000  0.76017000  1.0
  C  C102  1  0.23057000  0.24240000  0.26017000  1.0
  C  C103  1  0.73057000  0.25760000  0.23983000  1.0
  C  C104  1  0.74886000  0.72262000  0.80997000  1.0
  C  C105  1  0.24886000  0.77737000  0.69003000  1.0
  C  C106  1  0.25114000  0.27738000  0.19002000  1.0
  C  C107  1  0.75114000  0.22263000  0.30997000  1.0
  C  C108  1  0.66676000  0.78769000  0.87725000  1.0
  C  C109  1  0.16676000  0.71230000  0.62274000  1.0
  C  C110  1  0.33324000  0.21231000  0.12274000  1.0
  C  C111  1  0.83324000  0.28769000  0.37725000  1.0
  C  C112  1  0.27011000  0.04567000  0.86557000  1.0
  C  C113  1  0.77011000  0.45433000  0.63443000  1.0
  C  C114  1  0.72989000  0.95433000  0.13443000  1.0
  C  C115  1  0.22989000  0.54567000  0.36557000  1.0
  C  C116  1  0.14813000  0.04383000  0.81850000  1.0
  C  C117  1  0.64814000  0.45617000  0.68150000  1.0
  C  C118  1  0.85186000  0.95617000  0.18150000  1.0
  C  C119  1  0.35187000  0.54383000  0.31850000  1.0
  C  C120  1  0.02976000  0.98765000  0.83329000  1.0
  C  C121  1  0.52977000  0.51234000  0.66666667  1.0
  C  C122  1  0.97024000  0.01235000  0.16671000  1.0
  C  C123  1  0.47024000  0.48765000  0.33329000  1.0
  C  C124  1  0.03859000  0.93467000  0.89409000  1.0
  C  C125  1  0.53859000  0.56533000  0.60591000  1.0
  C  C126  1  0.96141000  0.06533000  0.10591000  1.0
  C  C127  1  0.46141000  0.43467000  0.39409000  1.0
  C  C128  1  0.16469000  0.93995000  0.93856000  1.0
  C  C129  1  0.66468000  0.56004000  0.56144000  1.0
  C  C130  1  0.83531000  0.06004000  0.06144000  1.0
  C  C131  1  0.33531000  0.43996000  0.43856000  1.0
  S  S132  1  0.63795000  0.24028000  0.96296000  1.0
  S  S133  1  0.13795000  0.25972000  0.53704000  1.0
  S  S134  1  0.36204000  0.75972000  0.03703000  1.0
  S  S135  1  0.86205000  0.74028000  0.46296000  1.0
  N  N136  1  0.73120000  0.55675000  0.98136000  1.0
  N  N137  1  0.23120000  0.94325000  0.51864000  1.0
  N  N138  1  0.26880000  0.44325000  0.01864000  1.0
  N  N139  1  0.76880000  0.05675000  0.48136000  1.0
  N  N140  1  0.61045000  0.88466000  0.87785000  1.0
  N  N141  1  0.11045000  0.61534000  0.62214000  1.0
  N  N142  1  0.38955000  0.11534000  0.12214000  1.0
  N  N143  1  0.88955000  0.38466000  0.37785000  1.0
  N  N144  1  0.27879000  0.99464000  0.92468000  1.0
  N  N145  1  0.77878000  0.50535000  0.57532000  1.0
  N  N146  1  0.72121000  0.00535000  0.07532000  1.0
  N  N147  1  0.22121000  0.49465000  0.42468000  1.0
  O  O148  1  0.56992000  0.32216000  0.92720000  1.0
  O  O149  1  0.06993000  0.17784000  0.57280000  1.0
  O  O150  1  0.43006000  0.67784000  0.07280000  1.0
  O  O151  1  0.93007000  0.82216000  0.42720000  1.0
  O  O152  1  0.53307000  0.14852000  0.95180000  1.0
  O  O153  1  0.03307000  0.35148000  0.54820000  1.0
  O  O154  1  0.46693000  0.85148000  0.04820000  1.0
  O  O155  1  0.96693000  0.64852000  0.45180000  1.0
  O  O156  1  0.66433000  0.29489000  0.05663000  1.0
  O  O157  1  0.16433000  0.20511000  0.44337000  1.0
  O  O158  1  0.33567000  0.70511000  0.94337000  1.0
  O  O159  1  0.83567000  0.79489000  0.55663000  1.0
  O  O160  1  0.77066000  0.19779000  0.91862000  1.0
  O  O161  1  0.27066000  0.30221000  0.58138000  1.0
  O  O162  1  0.22933000  0.80222000  0.08138000  1.0
  O  O163  1  0.72934000  0.69779000  0.41862000  1.0
  O  O164  1  0.44756000  0.51580000  0.86437000  1.0
  O  O165  1  0.94756000  0.98420000  0.63563000  1.0
  O  O166  1  0.55244000  0.48420000  0.13563000  1.0
  O  O167  1  0.05244000  0.01580000  0.36437000  1.0
