# generated using pymatgen
data_AgP2H28C33S2NO2
_symmetry_space_group_name_H-M   'P 1'
_cell_length_a   11.22210000
_cell_length_b   12.94160000
_cell_length_c   13.12920000
_cell_angle_alpha   114.01500000
_cell_angle_beta   100.25200000
_cell_angle_gamma   105.35800000
_symmetry_Int_Tables_number   1
_chemical_formula_structural   AgP2H28C33S2NO2
_chemical_formula_sum   'Ag2 P4 H56 C66 S4 N2 O4'
_cell_volume   1588.68214675
_cell_formula_units_Z   2
loop_
 _symmetry_equiv_pos_site_id
 _symmetry_equiv_pos_as_xyz
  1  'x, y, z'
loop_
 _atom_site_type_symbol
 _atom_site_label
 _atom_site_symmetry_multiplicity
 _atom_site_fract_x
 _atom_site_fract_y
 _atom_site_fract_z
 _atom_site_occupancy
  Ag  Ag0  1  0.62891000  0.81089000  0.07281000  1.0
  Ag  Ag1  1  0.37108000  0.18911000  0.92718000  1.0
  P  P2  1  0.69585000  0.00946000  0.08267000  1.0
  P  P3  1  0.30414000  0.99054000  0.91733000  1.0
  P  P4  1  0.66946000  0.62566000  0.99016000  1.0
  P  P5  1  0.33053000  0.37434000  0.00984000  1.0
  H  H6  1  0.28302000  0.84663000  0.31968000  1.0
  H  H7  1  0.71697000  0.15336000  0.68033000  1.0
  H  H8  1  0.60036000  0.86141000  0.65185000  1.0
  H  H9  1  0.39966000  0.13859000  0.34815000  1.0
  H  H10  1  0.38633000  0.87827000  0.66666667  1.0
  H  H11  1  0.61368000  0.12173000  0.33333333  1.0
  H  H12  1  0.23094000  0.87228000  0.50446000  1.0
  H  H13  1  0.76907000  0.12771000  0.49555000  1.0
  H  H14  1  0.83243000  0.79411000  0.23262000  1.0
  H  H15  1  0.16758000  0.20590000  0.76740000  1.0
  H  H16  1  0.79030000  0.44133000  0.96458000  1.0
  H  H17  1  0.20971000  0.55868000  0.03543000  1.0
  H  H18  1  0.02034000  0.79718000  0.36716000  1.0
  H  H19  1  0.97968000  0.20283000  0.63285000  1.0
  H  H20  1  0.09231000  0.62017000  0.30106000  1.0
  H  H21  1  0.90770000  0.37983000  0.69893000  1.0
  H  H22  1  0.97663000  0.44342000  0.10105000  1.0
  H  H23  1  0.02338000  0.55659000  0.89895000  1.0
  H  H24  1  0.83582000  0.53145000  0.58614000  1.0
  H  H25  1  0.16417000  0.46855000  0.41386000  1.0
  H  H26  1  0.88879000  0.75826000  0.95044000  1.0
  H  H27  1  0.11120000  0.24174000  0.04956000  1.0
  H  H28  1  0.55680000  0.41707000  0.74178000  1.0
  H  H29  1  0.44320000  0.58291000  0.25822000  1.0
  H  H30  1  0.63333000  0.37953000  0.57015000  1.0
  H  H31  1  0.36667000  0.62047000  0.42986000  1.0
  H  H32  1  0.96364000  0.72055000  0.77695000  1.0
  H  H33  1  0.03633000  0.27945000  0.22305000  1.0
  H  H34  1  0.74185000  0.27600000  0.23005000  1.0
  H  H35  1  0.25816000  0.72400000  0.76995000  1.0
  H  H36  1  0.89386000  0.42875000  0.42898000  1.0
  H  H37  1  0.10615000  0.57126000  0.57102000  1.0
  H  H38  1  0.04687000  0.37263000  0.54123000  1.0
  H  H39  1  0.95313000  0.62737000  0.45877000  1.0
  H  H40  1  0.04455000  0.16211000  0.45171000  1.0
  H  H41  1  0.95545000  0.83789000  0.54829000  1.0
  H  H42  1  0.88770000  0.00651000  0.25342000  1.0
  H  H43  1  0.11230000  0.99350000  0.74658000  1.0
  H  H44  1  0.73661000  0.84005000  0.88246000  1.0
  H  H45  1  0.26337000  0.15995000  0.11754000  1.0
  H  H46  1  0.91020000  0.24380000  0.89835000  1.0
  H  H47  1  0.08981000  0.75620000  0.10165000  1.0
  H  H48  1  0.81805000  0.22683000  0.05146000  1.0
  H  H49  1  0.18195000  0.77317000  0.94855000  1.0
  H  H50  1  0.91451000  0.05951000  0.73629000  1.0
  H  H51  1  0.08550000  0.94049000  0.26372000  1.0
  H  H52  1  0.83128000  0.85814000  0.73012000  1.0
  H  H53  1  0.16871000  0.14186000  0.26988000  1.0
  H  H54  1  0.51469000  0.05792000  0.13229000  1.0
  H  H55  1  0.48531000  0.94209000  0.86771000  1.0
  H  H56  1  0.57866000  0.13849000  0.05900000  1.0
  H  H57  1  0.42133000  0.86152000  0.94100000  1.0
  H  H58  1  0.45075000  0.48025000  0.87343000  1.0
  H  H59  1  0.54925000  0.51975000  0.12657000  1.0
  H  H60  1  0.54913000  0.40862000  0.91710000  1.0
  H  H61  1  0.45085000  0.59138000  0.08288000  1.0
  C  C62  1  0.55709000  0.84321000  0.47637000  1.0
  C  C63  1  0.44292000  0.15679000  0.52364000  1.0
  C  C64  1  0.52410000  0.82616000  0.28490000  1.0
  C  C65  1  0.47589000  0.17384000  0.71509000  1.0
  C  C66  1  0.46959000  0.83876000  0.38291000  1.0
  C  C67  1  0.53041000  0.16124000  0.61709000  1.0
  C  C68  1  0.35052000  0.84811000  0.39157000  1.0
  C  C69  1  0.64948000  0.15190000  0.60845000  1.0
  C  C70  1  0.53042000  0.85631000  0.57916000  1.0
  C  C71  1  0.46959000  0.14369000  0.42084000  1.0
  C  C72  1  0.41058000  0.86579000  0.58697000  1.0
  C  C73  1  0.58943000  0.13422000  0.41304000  1.0
  C  C74  1  0.32182000  0.86158000  0.49449000  1.0
  C  C75  1  0.67820000  0.13842000  0.50552000  1.0
  C  C76  1  0.80004000  0.61895000  0.08974000  1.0
  C  C77  1  0.19996000  0.38105000  0.91026000  1.0
  C  C78  1  0.86529000  0.71803000  0.20339000  1.0
  C  C79  1  0.13471000  0.28198000  0.79662000  1.0
  C  C80  1  0.83993000  0.51916000  0.05299000  1.0
  C  C81  1  0.16007000  0.48085000  0.94701000  1.0
  C  C82  1  0.97011000  0.71873000  0.27941000  1.0
  C  C83  1  0.02990000  0.28127000  0.72059000  1.0
  C  C84  1  0.00992000  0.61986000  0.24248000  1.0
  C  C85  1  0.99009000  0.38014000  0.75752000  1.0
  C  C86  1  0.94429000  0.51994000  0.12949000  1.0
  C  C87  1  0.05572000  0.48007000  0.87051000  1.0
  C  C88  1  0.71813000  0.59000000  0.85858000  1.0
  C  C89  1  0.28187000  0.40999000  0.14142000  1.0
  C  C90  1  0.80302000  0.54753000  0.66245000  1.0
  C  C91  1  0.19698000  0.45246000  0.33755000  1.0
  C  C92  1  0.83258000  0.67507000  0.86705000  1.0
  C  C93  1  0.16741000  0.32493000  0.13295000  1.0
  C  C94  1  0.64638000  0.48384000  0.75088000  1.0
  C  C95  1  0.35362000  0.51615000  0.24912000  1.0
  C  C96  1  0.68922000  0.46282000  0.65326000  1.0
  C  C97  1  0.31077000  0.53717000  0.34674000  1.0
  C  C98  1  0.87487000  0.65392000  0.76954000  1.0
  C  C99  1  0.12512000  0.34608000  0.23046000  1.0
  C  C100  1  0.80571000  0.13060000  0.22732000  1.0
  C  C101  1  0.19429000  0.86940000  0.77268000  1.0
  C  C102  1  0.80774000  0.25002000  0.27769000  1.0
  C  C103  1  0.19226000  0.74999000  0.72231000  1.0
  C  C104  1  0.89389000  0.33660000  0.39046000  1.0
  C  C105  1  0.10611000  0.66341000  0.60954000  1.0
  C  C106  1  0.97938000  0.30551000  0.45306000  1.0
  C  C107  1  0.02063000  0.69449000  0.54694000  1.0
  C  C108  1  0.97823000  0.18701000  0.40343000  1.0
  C  C109  1  0.02177000  0.81299000  0.59657000  1.0
  C  C110  1  0.89088000  0.09990000  0.29165000  1.0
  C  C111  1  0.10912000  0.90011000  0.70836000  1.0
  C  C112  1  0.77055000  0.03159000  0.97668000  1.0
  C  C113  1  0.22945000  0.96840000  0.02332000  1.0
  C  C114  1  0.77487000  0.92848000  0.88568000  1.0
  C  C115  1  0.22512000  0.07152000  0.11432000  1.0
  C  C116  1  0.87279000  0.15542000  0.89543000  1.0
  C  C117  1  0.12721000  0.84458000  0.10457000  1.0
  C  C118  1  0.82042000  0.14551000  0.98132000  1.0
  C  C119  1  0.17957000  0.85449000  0.01868000  1.0
  C  C120  1  0.87638000  0.05226000  0.80481000  1.0
  C  C121  1  0.12362000  0.94773000  0.19519000  1.0
  C  C122  1  0.82800000  0.93881000  0.80033000  1.0
  C  C123  1  0.17199000  0.06119000  0.19967000  1.0
  C  C124  1  0.55194000  0.04997000  0.05846000  1.0
  C  C125  1  0.44807000  0.95004000  0.94155000  1.0
  C  C126  1  0.52526000  0.49111000  0.94801000  1.0
  C  C127  1  0.47473000  0.50889000  0.05199000  1.0
  S  S128  1  0.43829000  0.81485000  0.15820000  1.0
  S  S129  1  0.56170000  0.18513000  0.84179000  1.0
  S  S130  1  0.69698000  0.82983000  0.43419000  1.0
  S  S131  1  0.30301000  0.17015000  0.56580000  1.0
  N  N132  1  0.64345000  0.82362000  0.30447000  1.0
  N  N133  1  0.35654000  0.17637000  0.69552000  1.0
  O  O134  1  0.81345000  0.93937000  0.50991000  1.0
  O  O135  1  0.18656000  0.06063000  0.49009000  1.0
  O  O136  1  0.70743000  0.71483000  0.41698000  1.0
  O  O137  1  0.29257000  0.28518000  0.58302000  1.0
