# generated using pymatgen
data_BiH10C30S3N2F15
_symmetry_space_group_name_H-M   'P 1'
_cell_length_a   8.86858000
_cell_length_b   12.75570000
_cell_length_c   18.53000000
_cell_angle_alpha   75.94630000
_cell_angle_beta   81.87370000
_cell_angle_gamma   72.19370000
_symmetry_Int_Tables_number   1
_chemical_formula_structural   BiH10C30S3N2F15
_chemical_formula_sum   'Bi2 H20 C60 S6 N4 F30'
_cell_volume   1930.93555800
_cell_formula_units_Z   2
loop_
 _symmetry_equiv_pos_site_id
 _symmetry_equiv_pos_as_xyz
  1  'x, y, z'
loop_
 _atom_site_type_symbol
 _atom_site_label
 _atom_site_symmetry_multiplicity
 _atom_site_fract_x
 _atom_site_fract_y
 _atom_site_fract_z
 _atom_site_occupancy
  Bi  Bi0  1  0.27363000  0.05058000  0.24498000  1.0
  Bi  Bi1  1  0.72638000  0.94945000  0.75501000  1.0
  H  H2  1  0.52167000  0.91083000  0.11730000  1.0
  H  H3  1  0.47831000  0.08917000  0.88269000  1.0
  H  H4  1  0.75591000  0.91299000  0.02763000  1.0
  H  H5  1  0.24408000  0.08700000  0.97236000  1.0
  H  H6  1  0.86843000  0.13123000  0.14569000  1.0
  H  H7  1  0.13158000  0.86876000  0.85431000  1.0
  H  H8  1  0.62866000  0.11976000  0.23047000  1.0
  H  H9  1  0.37134000  0.88023000  0.76953000  1.0
  H  H10  1  0.03062000  0.09170000  0.03262000  1.0
  H  H11  1  0.96938000  0.90828000  0.96738000  1.0
  H  H12  1  0.62373000  0.84408000  0.30775000  1.0
  H  H13  1  0.37627000  0.15593000  0.69226000  1.0
  H  H14  1  0.72413000  0.65618000  0.39083000  1.0
  H  H15  1  0.27587000  0.34382000  0.60918000  1.0
  H  H16  1  0.23859000  0.67699000  0.47564000  1.0
  H  H17  1  0.76139000  0.32302000  0.52436000  1.0
  H  H18  1  0.15843000  0.86464000  0.39026000  1.0
  H  H19  1  0.84156000  0.13537000  0.60974000  1.0
  H  H20  1  0.67473000  0.50272000  0.48764000  1.0
  H  H21  1  0.32524000  0.49728000  0.51236000  1.0
  C  C22  1  0.32069000  0.26803000  0.09931000  1.0
  C  C23  1  0.67930000  0.73197000  0.90069000  1.0
  C  C24  1  0.42786000  0.25139000  0.03672000  1.0
  C  C25  1  0.57216000  0.74860000  0.96328000  1.0
  C  C26  1  0.55152000  0.30113000  0.01684000  1.0
  C  C27  1  0.44850000  0.69887000  0.98316000  1.0
  C  C28  1  0.57187000  0.37109000  0.05975000  1.0
  C  C29  1  0.42812000  0.62892000  0.94025000  1.0
  C  C30  1  0.46696000  0.39079000  0.12182000  1.0
  C  C31  1  0.53304000  0.60921000  0.87818000  1.0
  C  C32  1  0.34460000  0.33954000  0.14092000  1.0
  C  C33  1  0.65540000  0.66046000  0.85908000  1.0
  C  C34  1  0.99728000  0.15759000  0.36514000  1.0
  C  C35  1  0.00271000  0.84241000  0.63486000  1.0
  C  C36  1  0.92114000  0.27298000  0.34073000  1.0
  C  C37  1  0.07885000  0.72702000  0.65927000  1.0
  C  C38  1  0.92888000  0.35403000  0.37759000  1.0
  C  C39  1  0.07111000  0.64598000  0.62241000  1.0
  C  C40  1  0.01480000  0.32173000  0.44085000  1.0
  C  C41  1  0.98519000  0.67826000  0.55915000  1.0
  C  C42  1  0.09122000  0.20812000  0.46707000  1.0
  C  C43  1  0.90878000  0.79188000  0.53292000  1.0
  C  C44  1  0.08144000  0.12833000  0.42949000  1.0
  C  C45  1  0.91856000  0.87167000  0.57051000  1.0
  C  C46  1  0.23619000  0.79324000  0.22192000  1.0
  C  C47  1  0.76383000  0.20677000  0.77809000  1.0
  C  C48  1  0.09839000  0.76795000  0.25914000  1.0
  C  C49  1  0.90163000  0.23205000  0.74085000  1.0
  C  C50  1  0.10309000  0.66336000  0.30528000  1.0
  C  C51  1  0.89693000  0.33662000  0.69471000  1.0
  C  C52  1  0.24741000  0.57988000  0.31508000  1.0
  C  C53  1  0.75262000  0.42012000  0.68491000  1.0
  C  C54  1  0.38687000  0.60186000  0.27879000  1.0
  C  C55  1  0.61315000  0.39814000  0.72121000  1.0
  C  C56  1  0.37941000  0.70688000  0.23234000  1.0
  C  C57  1  0.62061000  0.29313000  0.76767000  1.0
  C  C58  1  0.60278000  0.95769000  0.12176000  1.0
  C  C59  1  0.39721000  0.04230000  0.87823000  1.0
  C  C60  1  0.73422000  0.95954000  0.07191000  1.0
  C  C61  1  0.26577000  0.04045000  0.92809000  1.0
  C  C62  1  0.83413000  0.02333000  0.07812000  1.0
  C  C63  1  0.16587000  0.97666000  0.92188000  1.0
  C  C64  1  0.79462000  0.08169000  0.13680000  1.0
  C  C65  1  0.20538000  0.91829000  0.86320000  1.0
  C  C66  1  0.66077000  0.07502000  0.18466000  1.0
  C  C67  1  0.33923000  0.92496000  0.81534000  1.0
  C  C68  1  0.97183000  0.03092000  0.02648000  1.0
  C  C69  1  0.02816000  0.96907000  0.97352000  1.0
  C  C70  1  0.54211000  0.80432000  0.34620000  1.0
  C  C71  1  0.45789000  0.19569000  0.65381000  1.0
  C  C72  1  0.59775000  0.69919000  0.39254000  1.0
  C  C73  1  0.40225000  0.30081000  0.60747000  1.0
  C  C74  1  0.48967000  0.64744000  0.43916000  1.0
  C  C75  1  0.51032000  0.35257000  0.56084000  1.0
  C  C76  1  0.32857000  0.70962000  0.43903000  1.0
  C  C77  1  0.67142000  0.29038000  0.56096000  1.0
  C  C78  1  0.28267000  0.81443000  0.39185000  1.0
  C  C79  1  0.71733000  0.18558000  0.60815000  1.0
  C  C80  1  0.54639000  0.53368000  0.48338000  1.0
  C  C81  1  0.45359000  0.46633000  0.51662000  1.0
  S  S82  1  0.16453000  0.20577000  0.12199000  1.0
  S  S83  1  0.83547000  0.79423000  0.87800000  1.0
  S  S84  1  0.98490000  0.05860000  0.31669000  1.0
  S  S85  1  0.01511000  0.94140000  0.68330000  1.0
  S  S86  1  0.22763000  0.92559000  0.16391000  1.0
  S  S87  1  0.77238000  0.07443000  0.83611000  1.0
  N  N88  1  0.56489000  0.01481000  0.17728000  1.0
  N  N89  1  0.43510000  0.98518000  0.82272000  1.0
  N  N90  1  0.38686000  0.86095000  0.34501000  1.0
  N  N91  1  0.61314000  0.13906000  0.65499000  1.0
  F  F92  1  0.41391000  0.18379000  0.99354000  1.0
  F  F93  1  0.58610000  0.81621000  0.00645000  1.0
  F  F94  1  0.65303000  0.28129000  0.95682000  1.0
  F  F95  1  0.34698000  0.71872000  0.04318000  1.0
  F  F96  1  0.69124000  0.41968000  0.04123000  1.0
  F  F97  1  0.30875000  0.58032000  0.95878000  1.0
  F  F98  1  0.48508000  0.45972000  0.16284000  1.0
  F  F99  1  0.51490000  0.54028000  0.83716000  1.0
  F  F100  1  0.24711000  0.36039000  0.20234000  1.0
  F  F101  1  0.75288000  0.63961000  0.79765000  1.0
  F  F102  1  0.83667000  0.30828000  0.28001000  1.0
  F  F103  1  0.16333000  0.69172000  0.71999000  1.0
  F  F104  1  0.85237000  0.46362000  0.35290000  1.0
  F  F105  1  0.14761000  0.53638000  0.64710000  1.0
  F  F106  1  0.02017000  0.39952000  0.47784000  1.0
  F  F107  1  0.97983000  0.60048000  0.52215000  1.0
  F  F108  1  0.17231000  0.17664000  0.52900000  1.0
  F  F109  1  0.82768000  0.82336000  0.47100000  1.0
  F  F110  1  0.15714000  0.01917000  0.45730000  1.0
  F  F111  1  0.84286000  0.98083000  0.54271000  1.0
  F  F112  1  0.95564000  0.84621000  0.25220000  1.0
  F  F113  1  0.04437000  0.15377000  0.74781000  1.0
  F  F114  1  0.96902000  0.64310000  0.34215000  1.0
  F  F115  1  0.03099000  0.35687000  0.65782000  1.0
  F  F116  1  0.25255000  0.47890000  0.36044000  1.0
  F  F117  1  0.74747000  0.52110000  0.63954000  1.0
  F  F118  1  0.52676000  0.52248000  0.29019000  1.0
  F  F119  1  0.47326000  0.47753000  0.70981000  1.0
  F  F120  1  0.51695000  0.72503000  0.19838000  1.0
  F  F121  1  0.48307000  0.27499000  0.80163000  1.0
