# generated using pymatgen
data_CdH98C86N10(ClO4)2
_symmetry_space_group_name_H-M   'P 1'
_cell_length_a   9.36036000
_cell_length_b   13.43310000
_cell_length_c   19.13090000
_cell_angle_alpha   97.77130000
_cell_angle_beta   92.53520000
_cell_angle_gamma   100.06800000
_symmetry_Int_Tables_number   1
_chemical_formula_structural   CdH98C86N10(ClO4)2
_chemical_formula_sum   'Cd1 H98 C86 N10 Cl2 O8'
_cell_volume   2341.01248641
_cell_formula_units_Z   1
loop_
 _symmetry_equiv_pos_site_id
 _symmetry_equiv_pos_as_xyz
  1  'x, y, z'
loop_
 _atom_site_type_symbol
 _atom_site_label
 _atom_site_symmetry_multiplicity
 _atom_site_fract_x
 _atom_site_fract_y
 _atom_site_fract_z
 _atom_site_occupancy
  Cd  Cd0  1  0.50000000  0.50000000  0.50000000  1.0
  H  H1  1  0.35112000  0.45147000  0.34964000  1.0
  H  H2  1  0.64887000  0.54853000  0.65036000  1.0
  H  H3  1  0.93788000  0.54888000  0.33646000  1.0
  H  H4  1  0.06210000  0.45111000  0.66355000  1.0
  H  H5  1  0.97697000  0.61371000  0.46694000  1.0
  H  H6  1  0.02301000  0.38627000  0.53307000  1.0
  H  H7  1  0.20531000  0.59359000  0.53243000  1.0
  H  H8  1  0.79469000  0.40639000  0.46757000  1.0
  H  H9  1  0.92136000  0.37248000  0.25015000  1.0
  H  H10  1  0.07863000  0.62753000  0.74985000  1.0
  H  H11  1  0.34869000  0.54879000  0.24364000  1.0
  H  H12  1  0.65131000  0.45121000  0.75637000  1.0
  H  H13  1  0.89122000  0.28125000  0.05366000  1.0
  H  H14  1  0.10878000  0.71876000  0.94634000  1.0
  H  H15  1  0.75852000  0.14060000  0.11009000  1.0
  H  H16  1  0.24147000  0.85940000  0.88991000  1.0
  H  H17  1  0.82710000  0.20485000  0.19538000  1.0
  H  H18  1  0.17290000  0.79515000  0.80461000  1.0
  H  H19  1  0.94831000  0.15952000  0.13495000  1.0
  H  H20  1  0.05169000  0.84048000  0.86505000  1.0
  H  H21  1  0.74894000  0.41625000  0.09301000  1.0
  H  H22  1  0.25105000  0.58375000  0.90699000  1.0
  H  H23  1  0.70964000  0.36183000  0.17087000  1.0
  H  H24  1  0.29035000  0.63818000  0.82912000  1.0
  H  H25  1  0.64028000  0.29234000  0.08696000  1.0
  H  H26  1  0.35971000  0.70766000  0.91303000  1.0
  H  H27  1  0.37809000  0.46190000  0.05498000  1.0
  H  H28  1  0.62191000  0.53810000  0.94503000  1.0
  H  H29  1  0.60228000  0.57003000  0.10585000  1.0
  H  H30  1  0.39772000  0.42997000  0.89415000  1.0
  H  H31  1  0.54406000  0.48534000  0.16684000  1.0
  H  H32  1  0.45594000  0.51466000  0.83317000  1.0
  H  H33  1  0.52210000  0.61457000  0.18308000  1.0
  H  H34  1  0.47789000  0.38543000  0.81693000  1.0
  H  H35  1  0.41335000  0.64312000  0.03577000  1.0
  H  H36  1  0.58665000  0.35688000  0.96423000  1.0
  H  H37  1  0.31981000  0.67405000  0.11252000  1.0
  H  H38  1  0.68019000  0.32596000  0.88748000  1.0
  H  H39  1  0.22481000  0.59269000  0.03744000  1.0
  H  H40  1  0.77518000  0.40731000  0.96256000  1.0
  H  H41  1  0.24630000  0.25804000  0.09001000  1.0
  H  H42  1  0.75371000  0.74196000  0.90999000  1.0
  H  H43  1  0.35669000  0.25394000  0.01593000  1.0
  H  H44  1  0.64332000  0.74606000  0.98407000  1.0
  H  H45  1  0.19523000  0.16414000  0.01248000  1.0
  H  H46  1  0.80478000  0.83586000  0.98752000  1.0
  H  H47  1  0.02692000  0.42609000  0.91707000  1.0
  H  H48  1  0.97308000  0.57391000  0.08294000  1.0
  H  H49  1  0.00775000  0.40234000  0.78430000  1.0
  H  H50  1  0.99223000  0.59766000  0.21570000  1.0
  H  H51  1  0.12198000  0.26313000  0.71838000  1.0
  H  H52  1  0.87800000  0.73688000  0.28162000  1.0
  H  H53  1  0.37773000  0.00885000  0.79428000  1.0
  H  H54  1  0.62228000  0.99115000  0.20572000  1.0
  H  H55  1  0.24958000  0.03338000  0.85865000  1.0
  H  H56  1  0.75042000  0.96662000  0.14135000  1.0
  H  H57  1  0.41714000  0.11700000  0.86296000  1.0
  H  H58  1  0.58286000  0.88301000  0.13703000  1.0
  H  H59  1  0.67075000  0.03628000  0.60941000  1.0
  H  H60  1  0.32926000  0.96372000  0.39058000  1.0
  H  H61  1  0.27338000  0.81625000  0.57460000  1.0
  H  H62  1  0.72662000  0.18375000  0.42540000  1.0
  H  H63  1  0.50558000  0.22876000  0.72319000  1.0
  H  H64  1  0.49441000  0.77124000  0.27681000  1.0
  H  H65  1  0.71521000  0.31773000  0.66579000  1.0
  H  H66  1  0.28480000  0.68228000  0.33422000  1.0
  H  H67  1  0.56606000  0.26395000  0.60370000  1.0
  H  H68  1  0.43395000  0.73605000  0.39630000  1.0
  H  H69  1  0.72022000  0.20381000  0.60807000  1.0
  H  H70  1  0.27978000  0.79619000  0.39193000  1.0
  H  H71  1  0.77496000  0.12645000  0.72404000  1.0
  H  H72  1  0.22504000  0.87355000  0.27596000  1.0
  H  H73  1  0.64739000  0.12409000  0.79003000  1.0
  H  H74  1  0.35260000  0.87591000  0.20997000  1.0
  H  H75  1  0.75578000  0.24204000  0.77668000  1.0
  H  H76  1  0.24421000  0.75796000  0.22333000  1.0
  H  H77  1  0.09132000  0.94691000  0.71164000  1.0
  H  H78  1  0.90868000  0.05310000  0.28836000  1.0
  H  H79  1  0.03890000  0.06925000  0.63282000  1.0
  H  H80  1  0.96110000  0.93075000  0.36718000  1.0
  H  H81  1  0.89108000  0.96440000  0.62598000  1.0
  H  H82  1  0.10892000  0.03561000  0.37402000  1.0
  H  H83  1  0.01452000  0.97092000  0.55812000  1.0
  H  H84  1  0.98548000  0.02909000  0.44188000  1.0
  H  H85  1  0.92934000  0.79382000  0.65278000  1.0
  H  H86  1  0.07066000  0.20618000  0.34722000  1.0
  H  H87  1  0.10697000  0.76525000  0.66214000  1.0
  H  H88  1  0.89303000  0.23475000  0.33785000  1.0
  H  H89  1  0.03569000  0.78585000  0.57871000  1.0
  H  H90  1  0.96431000  0.21415000  0.42128000  1.0
  H  H91  1  0.69248000  0.96330000  0.49408000  1.0
  H  H92  1  0.30753000  0.03670000  0.50592000  1.0
  H  H93  1  0.81702000  0.83658000  0.42449000  1.0
  H  H94  1  0.18300000  0.16341000  0.57552000  1.0
  H  H95  1  0.73937000  0.65023000  0.43281000  1.0
  H  H96  1  0.26064000  0.34977000  0.56719000  1.0
  H  H97  1  0.44185000  0.71236000  0.57921000  1.0
  H  H98  1  0.55814000  0.28763000  0.42079000  1.0
  C  C99  1  0.26622000  0.48772000  0.37376000  1.0
  C  C100  1  0.73377000  0.51228000  0.62624000  1.0
  C  C101  1  0.14352000  0.49687000  0.33228000  1.0
  C  C102  1  0.85647000  0.50313000  0.66772000  1.0
  C  C103  1  0.03594000  0.54150000  0.36672000  1.0
  C  C104  1  0.96404000  0.45848000  0.63328000  1.0
  C  C105  1  0.05768000  0.57767000  0.43884000  1.0
  C  C106  1  0.94230000  0.42231000  0.56117000  1.0
  C  C107  1  0.18452000  0.56728000  0.47579000  1.0
  C  C108  1  0.81548000  0.43271000  0.52422000  1.0
  C  C109  1  0.13503000  0.46451000  0.25514000  1.0
  C  C110  1  0.86496000  0.53549000  0.74486000  1.0
  C  C111  1  0.01179000  0.40047000  0.21972000  1.0
  C  C112  1  0.98820000  0.59954000  0.78028000  1.0
  C  C113  1  0.00413000  0.37011000  0.14666000  1.0
  C  C114  1  0.99587000  0.62990000  0.85334000  1.0
  C  C115  1  0.12166000  0.40856000  0.10807000  1.0
  C  C116  1  0.87834000  0.59144000  0.89193000  1.0
  C  C117  1  0.24686000  0.47499000  0.14264000  1.0
  C  C118  1  0.75314000  0.52501000  0.85736000  1.0
  C  C119  1  0.25197000  0.49972000  0.21600000  1.0
  C  C120  1  0.74802000  0.50028000  0.78400000  1.0
  C  C121  1  0.87184000  0.29668000  0.11003000  1.0
  C  C122  1  0.12816000  0.70333000  0.88997000  1.0
  C  C123  1  0.85061000  0.19448000  0.13932000  1.0
  C  C124  1  0.14939000  0.80552000  0.86068000  1.0
  C  C125  1  0.73478000  0.34456000  0.11558000  1.0
  C  C126  1  0.26521000  0.65545000  0.88442000  1.0
  C  C127  1  0.36878000  0.52028000  0.10006000  1.0
  C  C128  1  0.63122000  0.47972000  0.89994000  1.0
  C  C129  1  0.51700000  0.54869000  0.14150000  1.0
  C  C130  1  0.48299000  0.45131000  0.85851000  1.0
  C  C131  1  0.32884000  0.61280000  0.06943000  1.0
  C  C132  1  0.67116000  0.38721000  0.93057000  1.0
  C  C133  1  0.24441000  0.24397000  0.03218000  1.0
  C  C134  1  0.75560000  0.75603000  0.96782000  1.0
  C  C135  1  0.16295000  0.31510000  0.99949000  1.0
  C  C136  1  0.83706000  0.68490000  0.00051000  1.0
  C  C137  1  0.14395000  0.30181000  0.92076000  1.0
  C  C138  1  0.85605000  0.69818000  0.07924000  1.0
  C  C139  1  0.07174000  0.36628000  0.88602000  1.0
  C  C140  1  0.92826000  0.63372000  0.11398000  1.0
  C  C141  1  0.06167000  0.35238000  0.81242000  1.0
  C  C142  1  0.93832000  0.64762000  0.18758000  1.0
  C  C143  1  0.12386000  0.27567000  0.77588000  1.0
  C  C144  1  0.87614000  0.72433000  0.22412000  1.0
  C  C145  1  0.19317000  0.21412000  0.81474000  1.0
  C  C146  1  0.80684000  0.78589000  0.18526000  1.0
  C  C147  1  0.33198000  0.06842000  0.82584000  1.0
  C  C148  1  0.66803000  0.93159000  0.17416000  1.0
  C  C149  1  0.26580000  0.13237000  0.77941000  1.0
  C  C150  1  0.73420000  0.86763000  0.22058000  1.0
  C  C151  1  0.34064000  0.05275000  0.67293000  1.0
  C  C152  1  0.65936000  0.94724000  0.32706000  1.0
  C  C153  1  0.48913000  0.08240000  0.66108000  1.0
  C  C154  1  0.51087000  0.91760000  0.33892000  1.0
  C  C155  1  0.55540000  0.01473000  0.61752000  1.0
  C  C156  1  0.44460000  0.98527000  0.38247000  1.0
  C  C157  1  0.48026000  0.91875000  0.58616000  1.0
  C  C158  1  0.51974000  0.08124000  0.41384000  1.0
  C  C159  1  0.33287000  0.89094000  0.59875000  1.0
  C  C160  1  0.66714000  0.10906000  0.40125000  1.0
  C  C161  1  0.26070000  0.95606000  0.64126000  1.0
  C  C162  1  0.73930000  0.04394000  0.35873000  1.0
  C  C163  1  0.57899000  0.18397000  0.69527000  1.0
  C  C164  1  0.42100000  0.81603000  0.30473000  1.0
  C  C165  1  0.64875000  0.24573000  0.63985000  1.0
  C  C166  1  0.35125000  0.75427000  0.36015000  1.0
  C  C167  1  0.69558000  0.16813000  0.74978000  1.0
  C  C168  1  0.30441000  0.83187000  0.25022000  1.0
  C  C169  1  0.10067000  0.92573000  0.65446000  1.0
  C  C170  1  0.89933000  0.07427000  0.34554000  1.0
  C  C171  1  0.00597000  0.98671000  0.61560000  1.0
  C  C172  1  0.99403000  0.01330000  0.38439000  1.0
  C  C173  1  0.04074000  0.81111000  0.63611000  1.0
  C  C174  1  0.95926000  0.18889000  0.36389000  1.0
  C  C175  1  0.55662000  0.84837000  0.54301000  1.0
  C  C176  1  0.44338000  0.15163000  0.45699000  1.0
  C  C177  1  0.66571000  0.88241000  0.49917000  1.0
  C  C178  1  0.33429000  0.11759000  0.50083000  1.0
  C  C179  1  0.73498000  0.81211000  0.46018000  1.0
  C  C180  1  0.26504000  0.18790000  0.53983000  1.0
  C  C181  1  0.69308000  0.70873000  0.46449000  1.0
  C  C182  1  0.30693000  0.29127000  0.53551000  1.0
  C  C183  1  0.52337000  0.74287000  0.54486000  1.0
  C  C184  1  0.47663000  0.25713000  0.45513000  1.0
  N  N185  1  0.28604000  0.52180000  0.44343000  1.0
  N  N186  1  0.71396000  0.47819000  0.55657000  1.0
  N  N187  1  0.10900000  0.38699000  0.03405000  1.0
  N  N188  1  0.89099000  0.61300000  0.96595000  1.0
  N  N189  1  0.20225000  0.22670000  0.88581000  1.0
  N  N190  1  0.79775000  0.77330000  0.11419000  1.0
  N  N191  1  0.26907000  0.12287000  0.71173000  1.0
  N  N192  1  0.73092000  0.87713000  0.28826000  1.0
  N  N193  1  0.58864000  0.67500000  0.50634000  1.0
  N  N194  1  0.41137000  0.32499000  0.49366000  1.0
  Cl  Cl195  1  0.35569000  0.57278000  0.67799000  1.0
  Cl  Cl196  1  0.64433000  0.42722000  0.32201000  1.0
  O  O197  1  0.38235000  0.51346000  0.60971000  1.0
  O  O198  1  0.61767000  0.48655000  0.39029000  1.0
  O  O199  1  0.26126000  0.64391000  0.66235000  1.0
  O  O200  1  0.73876000  0.35610000  0.33764000  1.0
  O  O201  1  0.28449000  0.50034000  0.72103000  1.0
  O  O202  1  0.71553000  0.49968000  0.27898000  1.0
  O  O203  1  0.49334000  0.62807000  0.71236000  1.0
  O  O204  1  0.50668000  0.37193000  0.28764000  1.0
