# generated using pymatgen
data_CoH10C10(NO2)2
_symmetry_space_group_name_H-M   'P 1'
_cell_length_a   6.39077000
_cell_length_b   8.04731000
_cell_length_c   25.09400000
_cell_angle_alpha   89.52450000
_cell_angle_beta   89.95320000
_cell_angle_gamma   92.20290000
_symmetry_Int_Tables_number   1
_chemical_formula_structural   CoH10C10(NO2)2
_chemical_formula_sum   'Co4 H40 C40 N8 O16'
_cell_volume   1289.54797015
_cell_formula_units_Z   4
loop_
 _symmetry_equiv_pos_site_id
 _symmetry_equiv_pos_as_xyz
  1  'x, y, z'
loop_
 _atom_site_type_symbol
 _atom_site_label
 _atom_site_symmetry_multiplicity
 _atom_site_fract_x
 _atom_site_fract_y
 _atom_site_fract_z
 _atom_site_occupancy
  Co  Co0  1  0.40720000  0.27947000  0.48407000  1.0
  Co  Co1  1  0.58579000  0.72713000  0.98127000  1.0
  Co  Co2  1  0.90239000  0.79110000  0.55877000  1.0
  Co  Co3  1  0.08884000  0.19919000  0.06223000  1.0
  H  H4  1  0.42859000  0.16996000  0.63435000  1.0
  H  H5  1  0.56335000  0.82495000  0.13271000  1.0
  H  H6  1  0.65462000  0.18701000  0.55946000  1.0
  H  H7  1  0.33931000  0.80664000  0.05869000  1.0
  H  H8  1  0.61206000  0.39181000  0.56813000  1.0
  H  H9  1  0.38972000  0.60203000  0.06562000  1.0
  H  H10  1  0.35015000  0.45901000  0.64042000  1.0
  H  H11  1  0.64085000  0.53324000  0.13800000  1.0
  H  H12  1  0.11169000  0.34304000  0.63554000  1.0
  H  H13  1  0.87805000  0.65239000  0.13652000  1.0
  H  H14  1  0.92675000  0.94412000  0.41255000  1.0
  H  H15  1  0.06986000  0.05863000  0.91477000  1.0
  H  H16  1  0.15003000  0.90816000  0.48697000  1.0
  H  H17  1  0.84549000  0.09296000  0.98766000  1.0
  H  H18  1  0.09622000  0.70691000  0.47022000  1.0
  H  H19  1  0.90646000  0.29591000  0.97361000  1.0
  H  H20  1  0.81765000  0.66076000  0.39702000  1.0
  H  H21  1  0.17186000  0.34629000  0.89972000  1.0
  H  H22  1  0.58954000  0.76996000  0.40889000  1.0
  H  H23  1  0.40167000  0.23572000  0.90831000  1.0
  H  H24  1  0.99219000  0.38368000  0.45023000  1.0
  H  H25  1  0.00738000  0.62154000  0.95060000  1.0
  H  H26  1  0.75238000  0.36441000  0.37409000  1.0
  H  H27  1  0.24966000  0.63950000  0.87454000  1.0
  H  H28  1  0.21240000  0.06925000  0.29489000  1.0
  H  H29  1  0.79156000  0.93233000  0.79243000  1.0
  H  H30  1  0.43473000  0.10348000  0.37635000  1.0
  H  H31  1  0.56656000  0.89916000  0.87360000  1.0
  H  H32  1  0.89779000  0.12466000  0.24675000  1.0
  H  H33  1  0.10648000  0.87583000  0.74517000  1.0
  H  H34  1  0.59187000  0.36171000  0.29918000  1.0
  H  H35  1  0.41284000  0.64095000  0.79955000  1.0
  H  H36  1  0.04975000  0.36595000  0.17014000  1.0
  H  H37  1  0.95079000  0.63042000  0.66873000  1.0
  H  H38  1  0.27113000  0.40714000  0.25123000  1.0
  H  H39  1  0.73364000  0.59410000  0.75124000  1.0
  H  H40  1  0.74747000  0.13118000  0.17079000  1.0
  H  H41  1  0.25422000  0.86748000  0.66960000  1.0
  H  H42  1  0.51244000  0.11319000  0.09416000  1.0
  H  H43  1  0.48493000  0.88089000  0.59205000  1.0
  C  C44  1  0.22447000  0.09780000  0.57039000  1.0
  C  C45  1  0.77228000  0.89836000  0.06917000  1.0
  C  C46  1  0.37235000  0.22868000  0.59745000  1.0
  C  C47  1  0.62238000  0.76774000  0.09617000  1.0
  C  C48  1  0.25368000  0.38191000  0.61311000  1.0
  C  C49  1  0.74112000  0.61443000  0.11232000  1.0
  C  C50  1  0.18570000  0.49751000  0.56813000  1.0
  C  C51  1  0.81971000  0.50588000  0.06726000  1.0
  C  C52  1  0.73074000  0.99494000  0.47884000  1.0
  C  C53  1  0.27120000  0.00853000  0.98036000  1.0
  C  C54  1  0.86662000  0.87441000  0.44771000  1.0
  C  C55  1  0.13105000  0.12760000  0.94954000  1.0
  C  C56  1  0.73216000  0.72617000  0.42812000  1.0
  C  C57  1  0.26245000  0.27761000  0.92937000  1.0
  C  C58  1  0.66379000  0.59447000  0.46963000  1.0
  C  C59  1  0.33790000  0.40408000  0.97116000  1.0
  C  C60  1  0.03660000  0.31841000  0.41434000  1.0
  C  C61  1  0.96449000  0.68607000  0.91415000  1.0
  C  C62  1  0.90360000  0.30725000  0.37088000  1.0
  C  C63  1  0.09853000  0.69673000  0.87081000  1.0
  C  C64  1  0.96282000  0.21865000  0.32547000  1.0
  C  C65  1  0.04058000  0.78427000  0.82457000  1.0
  C  C66  1  0.15745000  0.14149000  0.32835000  1.0
  C  C67  1  0.84554000  0.86081000  0.82650000  1.0
  C  C68  1  0.28279000  0.16005000  0.37321000  1.0
  C  C69  1  0.71880000  0.84265000  0.87127000  1.0
  C  C70  1  0.83633000  0.20465000  0.27761000  1.0
  C  C71  1  0.16795000  0.79710000  0.77675000  1.0
  C  C72  1  0.65476000  0.28264000  0.26827000  1.0
  C  C73  1  0.34966000  0.71906000  0.76804000  1.0
  C  C74  1  0.20548000  0.31583000  0.17281000  1.0
  C  C75  1  0.79504000  0.68047000  0.67152000  1.0
  C  C76  1  0.33040000  0.33816000  0.21756000  1.0
  C  C77  1  0.67269000  0.66124000  0.71703000  1.0
  C  C78  1  0.52945000  0.26792000  0.22024000  1.0
  C  C79  1  0.47396000  0.73197000  0.71964000  1.0
  C  C80  1  0.59435000  0.18488000  0.17421000  1.0
  C  C81  1  0.40729000  0.81351000  0.67310000  1.0
  C  C82  1  0.46275000  0.17207000  0.13059000  1.0
  C  C83  1  0.53640000  0.82327000  0.62884000  1.0
  N  N84  1  0.54456000  0.27677000  0.56099000  1.0
  N  N85  1  0.45243000  0.71966000  0.05930000  1.0
  N  N86  1  0.03509000  0.81632000  0.48195000  1.0
  N  N87  1  0.96303000  0.18318000  0.98425000  1.0
  N  N88  1  0.22572000  0.24865000  0.41598000  1.0
  N  N89  1  0.77473000  0.75500000  0.91483000  1.0
  N  N90  1  0.26787000  0.23169000  0.12950000  1.0
  N  N91  1  0.73034000  0.76203000  0.62756000  1.0
  O  O92  1  0.23556000  0.09310000  0.51939000  1.0
  O  O93  1  0.77027000  0.90038000  0.01835000  1.0
  O  O94  1  0.10549000  0.00463000  0.59853000  1.0
  O  O95  1  0.88817000  0.99321000  0.09753000  1.0
  O  O96  1  0.20479000  0.46258000  0.51934000  1.0
  O  O97  1  0.80297000  0.54317000  0.01845000  1.0
  O  O98  1  0.10923000  0.63080000  0.58588000  1.0
  O  O99  1  0.90431000  0.37543000  0.08500000  1.0
  O  O100  1  0.73961000  0.98641000  0.52978000  1.0
  O  O101  1  0.27142000  0.01895000  0.03104000  1.0
  O  O102  1  0.61866000  0.09159000  0.45248000  1.0
  O  O103  1  0.38127000  0.91166000  0.95354000  1.0
  O  O104  1  0.69658000  0.61200000  0.51909000  1.0
  O  O105  1  0.30854000  0.38264000  0.02062000  1.0
  O  O106  1  0.57323000  0.46660000  0.44857000  1.0
  O  O107  1  0.43247000  0.53108000  0.94987000  1.0
