# generated using pymatgen
data_CuH7C9SIN3
_symmetry_space_group_name_H-M   'P 1'
_cell_length_a   4.07523000
_cell_length_b   9.85539000
_cell_length_c   26.11370000
_cell_angle_alpha   90.00260000
_cell_angle_beta   90.00100000
_cell_angle_gamma   87.87700000
_symmetry_Int_Tables_number   1
_chemical_formula_structural   CuH7C9SIN3
_chemical_formula_sum   'Cu4 H28 C36 S4 I4 N12'
_cell_volume   1048.08414008
_cell_formula_units_Z   4
loop_
 _symmetry_equiv_pos_site_id
 _symmetry_equiv_pos_as_xyz
  1  'x, y, z'
loop_
 _atom_site_type_symbol
 _atom_site_label
 _atom_site_symmetry_multiplicity
 _atom_site_fract_x
 _atom_site_fract_y
 _atom_site_fract_z
 _atom_site_occupancy
  Cu  Cu0  1  0.27581000  0.90113000  0.49371000  1.0
  Cu  Cu1  1  0.72423000  0.59890000  0.99371000  1.0
  Cu  Cu2  1  0.72425000  0.09887000  0.50629000  1.0
  Cu  Cu3  1  0.27581000  0.40112000  0.00629000  1.0
  H  H4  1  0.05384000  0.85349000  0.38827000  1.0
  H  H5  1  0.94615000  0.64650000  0.88827000  1.0
  H  H6  1  0.94616000  0.14650000  0.61173000  1.0
  H  H7  1  0.05383000  0.35350000  0.11173000  1.0
  H  H8  1  0.20241000  0.70014000  0.31658000  1.0
  H  H9  1  0.79759000  0.79984000  0.81659000  1.0
  H  H10  1  0.79758000  0.29985000  0.68342000  1.0
  H  H11  1  0.20237000  0.20016000  0.18341000  1.0
  H  H12  1  0.77848000  0.45647000  0.42468000  1.0
  H  H13  1  0.22153000  0.04353000  0.92468000  1.0
  H  H14  1  0.22155000  0.54352000  0.57532000  1.0
  H  H15  1  0.77843000  0.95648000  0.07532000  1.0
  H  H16  1  0.61578000  0.62493000  0.49107000  1.0
  H  H17  1  0.38423000  0.87508000  0.99107000  1.0
  H  H18  1  0.38426000  0.37507000  0.50893000  1.0
  H  H19  1  0.61577000  0.12492000  0.00893000  1.0
  H  H20  1  0.87856000  0.31836000  0.36541000  1.0
  H  H21  1  0.12144000  0.18162000  0.86542000  1.0
  H  H22  1  0.12143000  0.68163000  0.63459000  1.0
  H  H23  1  0.87854000  0.81839000  0.13457000  1.0
  H  H24  1  0.07992000  0.19662000  0.28641000  1.0
  H  H25  1  0.92006000  0.30336000  0.78643000  1.0
  H  H26  1  0.92009000  0.80337000  0.71359000  1.0
  H  H27  1  0.07995000  0.69665000  0.21357000  1.0
  H  H28  1  0.44525000  0.61887000  0.18211000  1.0
  H  H29  1  0.55474000  0.88114000  0.68211000  1.0
  H  H30  1  0.55473000  0.38114000  0.81789000  1.0
  H  H31  1  0.44524000  0.11885000  0.31789000  1.0
  C  C32  1  0.21473000  0.76432000  0.39466000  1.0
  C  C33  1  0.78528000  0.73567000  0.89467000  1.0
  C  C34  1  0.78529000  0.23567000  0.60534000  1.0
  C  C35  1  0.21469000  0.26434000  0.10534000  1.0
  C  C36  1  0.51136000  0.56484000  0.36350000  1.0
  C  C37  1  0.48865000  0.93515000  0.86350000  1.0
  C  C38  1  0.48866000  0.43515000  0.63650000  1.0
  C  C39  1  0.51129000  0.06486000  0.13650000  1.0
  C  C40  1  0.29915000  0.67737000  0.35458000  1.0
  C  C41  1  0.70085000  0.82263000  0.85458000  1.0
  C  C42  1  0.70084000  0.32263000  0.64542000  1.0
  C  C43  1  0.29914000  0.17736000  0.14542000  1.0
  C  C44  1  0.61585000  0.54248000  0.41427000  1.0
  C  C45  1  0.38416000  0.95753000  0.91427000  1.0
  C  C46  1  0.38416000  0.45752000  0.58573000  1.0
  C  C47  1  0.61583000  0.04246000  0.08573000  1.0
  C  C48  1  0.52441000  0.63583000  0.45195000  1.0
  C  C49  1  0.47561000  0.86417000  0.95196000  1.0
  C  C50  1  0.47563000  0.36416000  0.54805000  1.0
  C  C51  1  0.52437000  0.13584000  0.04805000  1.0
  C  C52  1  0.82025000  0.35920000  0.32763000  1.0
  C  C53  1  0.17975000  0.14079000  0.82764000  1.0
  C  C54  1  0.17974000  0.64080000  0.67237000  1.0
  C  C55  1  0.82022000  0.85922000  0.17236000  1.0
  C  C56  1  0.63099000  0.47932000  0.32030000  1.0
  C  C57  1  0.36902000  0.02067000  0.82030000  1.0
  C  C58  1  0.36899000  0.52068000  0.67970000  1.0
  C  C59  1  0.63097000  0.97932000  0.17969000  1.0
  C  C60  1  0.68172000  0.45096000  0.23354000  1.0
  C  C61  1  0.31828000  0.04903000  0.73354000  1.0
  C  C62  1  0.31827000  0.54904000  0.76647000  1.0
  C  C63  1  0.68171000  0.95096000  0.26646000  1.0
  C  C64  1  0.93358000  0.29147000  0.28388000  1.0
  C  C65  1  0.06642000  0.20852000  0.78389000  1.0
  C  C66  1  0.06642000  0.70853000  0.71612000  1.0
  C  C67  1  0.93358000  0.79148000  0.21611000  1.0
  S  S68  1  0.60287000  0.50083000  0.17013000  1.0
  S  S69  1  0.39712000  0.99917000  0.67014000  1.0
  S  S70  1  0.39713000  0.49917000  0.82987000  1.0
  S  S71  1  0.60287000  0.00083000  0.32986000  1.0
  I  I72  1  0.21970000  0.13376000  0.44270000  1.0
  I  I73  1  0.78033000  0.36625000  0.94270000  1.0
  I  I74  1  0.78036000  0.86623000  0.55730000  1.0
  I  I75  1  0.21971000  0.63377000  0.05730000  1.0
  N  N76  1  0.33193000  0.74795000  0.44267000  1.0
  N  N77  1  0.66810000  0.75205000  0.94267000  1.0
  N  N78  1  0.66810000  0.25205000  0.55733000  1.0
  N  N79  1  0.33192000  0.24794000  0.05733000  1.0
  N  N80  1  0.55667000  0.52403000  0.27257000  1.0
  N  N81  1  0.44334000  0.97596000  0.77257000  1.0
  N  N82  1  0.44332000  0.47596000  0.72744000  1.0
  N  N83  1  0.55663000  0.02404000  0.22743000  1.0
  N  N84  1  0.87148000  0.33632000  0.23655000  1.0
  N  N85  1  0.12850000  0.16368000  0.73656000  1.0
  N  N86  1  0.12852000  0.66368000  0.76346000  1.0
  N  N87  1  0.87149000  0.83633000  0.26344000  1.0
