# generated using pymatgen
data_Zn2H22C42S(N4O5)2
_symmetry_space_group_name_H-M   'P 1'
_cell_length_a   7.69425000
_cell_length_b   16.17730000
_cell_length_c   17.95960000
_cell_angle_alpha   108.79900000
_cell_angle_beta   101.36300000
_cell_angle_gamma   97.16560000
_symmetry_Int_Tables_number   1
_chemical_formula_structural   Zn2H22C42S(N4O5)2
_chemical_formula_sum   'Zn4 H44 C84 S2 N16 O20'
_cell_volume   2031.62116942
_cell_formula_units_Z   2
loop_
 _symmetry_equiv_pos_site_id
 _symmetry_equiv_pos_as_xyz
  1  'x, y, z'
loop_
 _atom_site_type_symbol
 _atom_site_label
 _atom_site_symmetry_multiplicity
 _atom_site_fract_x
 _atom_site_fract_y
 _atom_site_fract_z
 _atom_site_occupancy
  Zn  Zn0  1  0.57050000  0.54084000  0.41478000  1.0
  Zn  Zn1  1  0.42950000  0.45916000  0.58522000  1.0
  Zn  Zn2  1  0.82494000  0.19164000  0.85637000  1.0
  Zn  Zn3  1  0.17506000  0.80836000  0.14363000  1.0
  H  H4  1  0.67807000  0.86718000  0.22210000  1.0
  H  H5  1  0.32193000  0.13282000  0.77790000  1.0
  H  H6  1  0.00207000  0.37877000  0.56355000  1.0
  H  H7  1  0.99793000  0.62123000  0.43645000  1.0
  H  H8  1  0.27339000  0.26641000  0.29969000  1.0
  H  H9  1  0.72660000  0.73359000  0.70031000  1.0
  H  H10  1  0.03276000  0.12996000  0.21575000  1.0
  H  H11  1  0.96724000  0.87004000  0.78425000  1.0
  H  H12  1  0.62458000  0.27802000  0.28372000  1.0
  H  H13  1  0.37541000  0.72198000  0.71629000  1.0
  H  H14  1  0.73639000  0.13376000  0.05683000  1.0
  H  H15  1  0.26360000  0.86623000  0.94316000  1.0
  H  H16  1  0.08706000  0.13956000  0.04323000  1.0
  H  H17  1  0.91294000  0.86044000  0.95677000  1.0
  H  H18  1  0.27480000  0.10097000  0.15455000  1.0
  H  H19  1  0.72520000  0.89903000  0.84545000  1.0
  H  H20  1  0.44571000  0.66431000  0.56255000  1.0
  H  H21  1  0.55430000  0.33569000  0.43745000  1.0
  H  H22  1  0.42135000  0.82515000  0.61409000  1.0
  H  H23  1  0.57865000  0.17485000  0.38591000  1.0
  H  H24  1  0.48108000  0.92039000  0.53194000  1.0
  H  H25  1  0.51892000  0.07962000  0.46806000  1.0
  H  H26  1  0.65340000  0.47460000  0.24077000  1.0
  H  H27  1  0.34659000  0.52540000  0.75923000  1.0
  H  H28  1  0.69478000  0.54313000  0.13659000  1.0
  H  H29  1  0.30520000  0.45686000  0.86341000  1.0
  H  H30  1  0.68274000  0.70516000  0.16739000  1.0
  H  H31  1  0.31725000  0.29484000  0.83261000  1.0
  H  H32  1  0.63703000  0.01604000  0.31712000  1.0
  H  H33  1  0.36298000  0.98396000  0.68288000  1.0
  H  H34  1  0.78362000  0.39045000  0.89515000  1.0
  H  H35  1  0.21637000  0.60955000  0.10485000  1.0
  H  H36  1  0.81808000  0.49977000  0.82230000  1.0
  H  H37  1  0.18191000  0.50023000  0.17769000  1.0
  H  H38  1  0.88789000  0.44839000  0.68674000  1.0
  H  H39  1  0.11211000  0.55161000  0.31326000  1.0
  H  H40  1  0.91976000  0.99816000  0.53123000  1.0
  H  H41  1  0.08026000  0.00185000  0.46877000  1.0
  H  H42  1  0.87531000  0.91273000  0.61939000  1.0
  H  H43  1  0.12471000  0.08727000  0.38061000  1.0
  H  H44  1  0.81675000  0.99098000  0.75632000  1.0
  H  H45  1  0.18327000  0.00902000  0.24369000  1.0
  H  H46  1  0.04587000  0.25479000  0.44140000  1.0
  H  H47  1  0.95413000  0.74521000  0.55859000  1.0
  C  C48  1  0.84414000  0.43748000  0.37410000  1.0
  C  C49  1  0.15586000  0.56252000  0.62590000  1.0
  C  C50  1  0.89892000  0.35115000  0.33342000  1.0
  C  C51  1  0.10108000  0.64885000  0.66658000  1.0
  C  C52  1  0.08237000  0.34718000  0.33900000  1.0
  C  C53  1  0.91763000  0.65281000  0.66100000  1.0
  C  C54  1  0.13077000  0.26827000  0.29583000  1.0
  C  C55  1  0.86923000  0.73172000  0.70417000  1.0
  C  C56  1  0.99829000  0.19233000  0.24901000  1.0
  C  C57  1  0.00171000  0.80766000  0.75099000  1.0
  C  C58  1  0.81685000  0.19602000  0.24616000  1.0
  C  C59  1  0.18314000  0.80398000  0.75384000  1.0
  C  C60  1  0.76632000  0.27467000  0.28703000  1.0
  C  C61  1  0.23368000  0.72533000  0.71297000  1.0
  C  C62  1  0.23423000  0.42271000  0.39525000  1.0
  C  C63  1  0.76577000  0.57729000  0.60475000  1.0
  C  C64  1  0.51510000  0.11684000  0.11212000  1.0
  C  C65  1  0.48490000  0.88316000  0.88788000  1.0
  C  C66  1  0.59439000  0.13602000  0.05462000  1.0
  C  C67  1  0.40560000  0.86398000  0.94538000  1.0
  C  C68  1  0.49138000  0.15976000  0.99416000  1.0
  C  C69  1  0.50861000  0.84024000  0.00584000  1.0
  C  C70  1  0.30774000  0.16130000  0.99084000  1.0
  C  C71  1  0.69226000  0.83870000  0.00916000  1.0
  C  C72  1  0.23006000  0.13882000  0.04790000  1.0
  C  C73  1  0.76993000  0.86119000  0.95211000  1.0
  C  C74  1  0.33264000  0.11737000  0.10925000  1.0
  C  C75  1  0.66735000  0.88264000  0.89075000  1.0
  C  C76  1  0.18810000  0.18335000  0.92576000  1.0
  C  C77  1  0.81190000  0.81665000  0.07424000  1.0
  C  C78  1  0.59156000  0.18606000  0.93872000  1.0
  C  C79  1  0.40843000  0.81394000  0.06128000  1.0
  C  C80  1  0.47410000  0.70795000  0.52910000  1.0
  C  C81  1  0.52591000  0.29205000  0.47091000  1.0
  C  C82  1  0.45934000  0.79776000  0.55714000  1.0
  C  C83  1  0.54067000  0.20224000  0.44286000  1.0
  C  C84  1  0.49366000  0.85045000  0.51210000  1.0
  C  C85  1  0.50634000  0.14955000  0.48790000  1.0
  C  C86  1  0.54313000  0.81217000  0.43888000  1.0
  C  C87  1  0.45687000  0.18783000  0.56112000  1.0
  C  C88  1  0.55447000  0.72078000  0.41451000  1.0
  C  C89  1  0.44553000  0.27922000  0.58549000  1.0
  C  C90  1  0.59972000  0.67619000  0.33875000  1.0
  C  C91  1  0.40027000  0.32381000  0.66125000  1.0
  C  C92  1  0.64531000  0.54411000  0.25109000  1.0
  C  C93  1  0.35468000  0.45589000  0.74891000  1.0
  C  C94  1  0.66852000  0.58307000  0.19336000  1.0
  C  C95  1  0.33147000  0.41693000  0.80664000  1.0
  C  C96  1  0.66160000  0.67222000  0.21015000  1.0
  C  C97  1  0.33840000  0.32778000  0.78985000  1.0
  C  C98  1  0.62803000  0.72155000  0.28471000  1.0
  C  C99  1  0.37196000  0.27845000  0.71529000  1.0
  C  C100  1  0.61953000  0.81358000  0.31186000  1.0
  C  C101  1  0.38047000  0.18642000  0.68814000  1.0
  C  C102  1  0.58148000  0.85827000  0.38629000  1.0
  C  C103  1  0.41852000  0.14173000  0.61372000  1.0
  C  C104  1  0.62555000  0.95522000  0.33050000  1.0
  C  C105  1  0.37445000  0.04478000  0.66950000  1.0
  C  C106  1  0.81520000  0.37167000  0.83606000  1.0
  C  C107  1  0.18480000  0.62833000  0.16394000  1.0
  C  C108  1  0.83481000  0.43155000  0.79506000  1.0
  C  C109  1  0.16519000  0.56845000  0.20493000  1.0
  C  C110  1  0.87365000  0.40300000  0.71980000  1.0
  C  C111  1  0.12635000  0.59700000  0.28020000  1.0
  C  C112  1  0.89120000  0.31372000  0.68532000  1.0
  C  C113  1  0.10880000  0.68628000  0.31468000  1.0
  C  C114  1  0.86490000  0.25647000  0.72962000  1.0
  C  C115  1  0.13510000  0.74353000  0.27038000  1.0
  C  C116  1  0.87101000  0.16257000  0.69661000  1.0
  C  C117  1  0.12900000  0.83743000  0.30339000  1.0
  C  C118  1  0.90297000  0.12410000  0.61877000  1.0
  C  C119  1  0.09704000  0.87590000  0.38123000  1.0
  C  C120  1  0.90110000  0.03192000  0.59109000  1.0
  C  C121  1  0.09891000  0.96808000  0.40891000  1.0
  C  C122  1  0.87345000  0.98353000  0.64018000  1.0
  C  C123  1  0.12656000  0.01647000  0.35983000  1.0
  C  C124  1  0.84310000  0.02664000  0.71626000  1.0
  C  C125  1  0.15692000  0.97336000  0.28375000  1.0
  C  C126  1  0.93287000  0.27415000  0.60935000  1.0
  C  C127  1  0.06714000  0.72585000  0.39065000  1.0
  C  C128  1  0.93745000  0.18311000  0.57606000  1.0
  C  C129  1  0.06256000  0.81690000  0.42394000  1.0
  C  C130  1  0.00540000  0.24302000  0.49232000  1.0
  C  C131  1  0.99461000  0.75698000  0.50767000  1.0
  S  S132  1  0.64927000  0.09638000  0.19420000  1.0
  S  S133  1  0.35073000  0.90362000  0.80580000  1.0
  N  N134  1  0.52088000  0.67100000  0.45996000  1.0
  N  N135  1  0.47912000  0.32900000  0.54004000  1.0
  N  N136  1  0.61225000  0.58962000  0.32144000  1.0
  N  N137  1  0.38774000  0.41038000  0.67856000  1.0
  N  N138  1  0.58610000  0.94676000  0.39689000  1.0
  N  N139  1  0.41390000  0.05324000  0.60312000  1.0
  N  N140  1  0.64578000  0.87708000  0.27729000  1.0
  N  N141  1  0.35422000  0.12292000  0.72272000  1.0
  N  N142  1  0.83051000  0.28699000  0.80393000  1.0
  N  N143  1  0.16948000  0.71301000  0.19606000  1.0
  N  N144  1  0.84188000  0.11340000  0.74307000  1.0
  N  N145  1  0.15812000  0.88660000  0.25693000  1.0
  N  N146  1  0.97633000  0.31080000  0.55445000  1.0
  N  N147  1  0.02366000  0.68920000  0.44554000  1.0
  N  N148  1  0.98250000  0.16490000  0.50266000  1.0
  N  N149  1  0.01751000  0.83509000  0.49734000  1.0
  O  O150  1  0.96203000  0.50817000  0.39958000  1.0
  O  O151  1  0.03797000  0.49183000  0.60041000  1.0
  O  O152  1  0.67710000  0.43077000  0.37595000  1.0
  O  O153  1  0.32289000  0.56923000  0.62405000  1.0
  O  O154  1  0.27056000  0.42881000  0.46863000  1.0
  O  O155  1  0.72944000  0.57119000  0.53137000  1.0
  O  O156  1  0.32083000  0.46701000  0.36237000  1.0
  O  O157  1  0.67916000  0.53299000  0.63763000  1.0
  O  O158  1  0.53401000  0.09140000  0.24869000  1.0
  O  O159  1  0.46599000  0.90859000  0.75131000  1.0
  O  O160  1  0.74390000  0.02524000  0.16508000  1.0
  O  O161  1  0.25610000  0.97476000  0.83492000  1.0
  O  O162  1  0.03800000  0.20235000  0.94166000  1.0
  O  O163  1  0.96200000  0.79765000  0.05834000  1.0
  O  O164  1  0.23498000  0.18152000  0.86237000  1.0
  O  O165  1  0.76502000  0.81848000  0.13763000  1.0
  O  O166  1  0.63980000  0.26670000  0.94846000  1.0
  O  O167  1  0.36020000  0.73330000  0.05154000  1.0
  O  O168  1  0.63928000  0.12166000  0.88779000  1.0
  O  O169  1  0.36071000  0.87834000  0.11221000  1.0
