# generated using pymatgen
data_CuH18C23(N5O2)2
_symmetry_space_group_name_H-M   'P 1'
_cell_length_a   8.73624000
_cell_length_b   10.26360000
_cell_length_c   13.62290000
_cell_angle_alpha   72.61660000
_cell_angle_beta   78.42600000
_cell_angle_gamma   81.82690000
_symmetry_Int_Tables_number   1
_chemical_formula_structural   CuH18C23(N5O2)2
_chemical_formula_sum   'Cu2 H36 C46 N20 O8'
_cell_volume   1137.58327925
_cell_formula_units_Z   2
loop_
 _symmetry_equiv_pos_site_id
 _symmetry_equiv_pos_as_xyz
  1  'x, y, z'
loop_
 _atom_site_type_symbol
 _atom_site_label
 _atom_site_symmetry_multiplicity
 _atom_site_fract_x
 _atom_site_fract_y
 _atom_site_fract_z
 _atom_site_occupancy
  Cu  Cu0  1  0.82128000  0.36505000  0.55205000  1.0
  Cu  Cu1  1  0.17872000  0.63495000  0.44795000  1.0
  H  H2  1  0.71808000  0.41355000  0.76039000  1.0
  H  H3  1  0.28192000  0.58646000  0.23961000  1.0
  H  H4  1  0.80809000  0.33406000  0.93427000  1.0
  H  H5  1  0.19191000  0.66594000  0.06573000  1.0
  H  H6  1  0.17573000  0.07531000  0.80386000  1.0
  H  H7  1  0.82426000  0.92468000  0.19614000  1.0
  H  H8  1  0.06857000  0.16411000  0.63586000  1.0
  H  H9  1  0.93143000  0.83590000  0.36414000  1.0
  H  H10  1  0.05402000  0.70878000  0.63996000  1.0
  H  H11  1  0.94597000  0.29122000  0.36004000  1.0
  H  H12  1  0.10039000  0.63737000  0.82543000  1.0
  H  H13  1  0.89962000  0.36263000  0.17457000  1.0
  H  H14  1  0.44897000  0.32570000  0.74238000  1.0
  H  H15  1  0.55102000  0.67429000  0.25761000  1.0
  H  H16  1  0.38924000  0.40884000  0.56484000  1.0
  H  H17  1  0.61075000  0.59116000  0.43516000  1.0
  H  H18  1  0.38796000  0.07528000  0.64780000  1.0
  H  H19  1  0.61204000  0.92471000  0.35221000  1.0
  H  H20  1  0.28004000  0.85187000  0.67085000  1.0
  H  H21  1  0.71996000  0.14812000  0.32914000  1.0
  H  H22  1  0.46471000  0.65469000  0.63533000  1.0
  H  H23  1  0.53530000  0.34530000  0.36467000  1.0
  H  H24  1  0.85147000  0.90440000  0.55022000  1.0
  H  H25  1  0.14854000  0.09560000  0.44979000  1.0
  H  H26  1  0.34053000  0.90471000  0.15242000  1.0
  H  H27  1  0.65947000  0.09530000  0.84758000  1.0
  H  H28  1  0.28154000  0.01623000  0.23361000  1.0
  H  H29  1  0.71845000  0.98377000  0.76639000  1.0
  H  H30  1  0.56614000  0.00927000  0.15704000  1.0
  H  H31  1  0.43386000  0.99074000  0.84297000  1.0
  H  H32  1  0.52339000  0.07225000  0.03028000  1.0
  H  H33  1  0.47661000  0.92775000  0.96972000  1.0
  H  H34  1  0.60863000  0.24610000  0.10111000  1.0
  H  H35  1  0.39137000  0.75390000  0.89889000  1.0
  H  H36  1  0.43108000  0.23573000  0.19264000  1.0
  H  H37  1  0.56891000  0.76427000  0.80736000  1.0
  C  C38  1  0.81740000  0.33736000  0.77430000  1.0
  C  C39  1  0.18260000  0.66265000  0.22570000  1.0
  C  C40  1  0.86707000  0.29250000  0.87045000  1.0
  C  C41  1  0.13293000  0.70750000  0.12955000  1.0
  C  C42  1  0.99937000  0.19820000  0.88292000  1.0
  C  C43  1  0.00063000  0.80180000  0.11708000  1.0
  C  C44  1  0.07371000  0.14987000  0.79773000  1.0
  C  C45  1  0.92629000  0.85013000  0.20227000  1.0
  C  C46  1  0.01528000  0.19808000  0.70445000  1.0
  C  C47  1  0.98471000  0.80192000  0.29555000  1.0
  C  C48  1  0.05741000  0.15701000  0.98201000  1.0
  C  C49  1  0.94259000  0.84299000  0.01799000  1.0
  C  C50  1  0.13912000  0.62396000  0.66747000  1.0
  C  C51  1  0.86088000  0.37605000  0.33253000  1.0
  C  C52  1  0.16554000  0.58382000  0.76989000  1.0
  C  C53  1  0.83446000  0.41618000  0.23011000  1.0
  C  C54  1  0.27948000  0.47542000  0.79971000  1.0
  C  C55  1  0.72052000  0.52458000  0.20029000  1.0
  C  C56  1  0.35917000  0.41015000  0.72518000  1.0
  C  C57  1  0.64082000  0.58985000  0.27482000  1.0
  C  C58  1  0.32586000  0.45643000  0.62431000  1.0
  C  C59  1  0.67413000  0.54357000  0.37569000  1.0
  C  C60  1  0.67849000  0.13996000  0.58909000  1.0
  C  C61  1  0.32151000  0.86004000  0.41092000  1.0
  C  C62  1  0.62481000  0.00232000  0.60023000  1.0
  C  C63  1  0.37520000  0.99768000  0.39978000  1.0
  C  C64  1  0.46411000  0.98663000  0.63384000  1.0
  C  C65  1  0.53589000  0.01336000  0.36617000  1.0
  C  C66  1  0.40528000  0.86262000  0.64639000  1.0
  C  C67  1  0.59473000  0.13737000  0.35362000  1.0
  C  C68  1  0.50726000  0.75272000  0.62615000  1.0
  C  C69  1  0.49275000  0.24727000  0.37386000  1.0
  C  C70  1  0.66799000  0.76669000  0.59174000  1.0
  C  C71  1  0.33202000  0.23331000  0.40827000  1.0
  C  C72  1  0.72681000  0.89233000  0.57842000  1.0
  C  C73  1  0.27320000  0.10767000  0.42159000  1.0
  C  C74  1  0.32520000  0.01244000  0.15330000  1.0
  C  C75  1  0.67480000  0.98756000  0.84670000  1.0
  C  C76  1  0.48117000  0.07598000  0.11072000  1.0
  C  C77  1  0.51883000  0.92402000  0.88928000  1.0
  C  C78  1  0.48610000  0.22122000  0.11648000  1.0
  C  C79  1  0.51390000  0.77879000  0.88352000  1.0
  C  C80  1  0.77556000  0.64873000  0.56497000  1.0
  C  C81  1  0.22445000  0.35126000  0.43504000  1.0
  C  C82  1  0.31498000  0.43260000  0.90554000  1.0
  C  C83  1  0.68502000  0.56741000  0.09446000  1.0
  N  N84  1  0.89073000  0.29201000  0.69221000  1.0
  N  N85  1  0.10927000  0.70800000  0.30779000  1.0
  N  N86  1  0.21849000  0.56197000  0.59532000  1.0
  N  N87  1  0.78150000  0.43803000  0.40468000  1.0
  N  N88  1  0.19544000  0.08500000  0.99825000  1.0
  N  N89  1  0.80456000  0.91500000  0.00175000  1.0
  N  N90  1  0.19803000  0.08062000  0.09625000  1.0
  N  N91  1  0.80197000  0.91938000  0.90375000  1.0
  N  N92  1  0.06984000  0.14387000  0.14067000  1.0
  N  N93  1  0.93015000  0.85613000  0.85932000  1.0
  N  N94  1  0.97963000  0.19244000  0.06911000  1.0
  N  N95  1  0.02037000  0.80756000  0.93088000  1.0
  N  N96  1  0.40290000  0.32350000  0.04046000  1.0
  N  N97  1  0.59710000  0.67650000  0.95953000  1.0
  N  N98  1  0.30578000  0.42583000  0.06590000  1.0
  N  N99  1  0.69422000  0.57418000  0.93409000  1.0
  N  N100  1  0.41394000  0.32349000  0.94191000  1.0
  N  N101  1  0.58606000  0.67651000  0.05809000  1.0
  N  N102  1  0.24947000  0.49600000  0.98082000  1.0
  N  N103  1  0.75054000  0.50401000  0.01917000  1.0
  O  O104  1  0.82043000  0.16431000  0.54452000  1.0
  O  O105  1  0.17957000  0.83568000  0.45549000  1.0
  O  O106  1  0.58268000  0.22513000  0.62503000  1.0
  O  O107  1  0.41731000  0.77488000  0.37496000  1.0
  O  O108  1  0.91285000  0.66996000  0.51953000  1.0
  O  O109  1  0.08716000  0.33003000  0.48049000  1.0
  O  O110  1  0.71403000  0.53343000  0.59016000  1.0
  O  O111  1  0.28597000  0.46657000  0.40983000  1.0
