# generated using pymatgen
data_SnH14C14(NO2)2
_symmetry_space_group_name_H-M   'P 1'
_cell_length_a   8.89308000
_cell_length_b   12.34560000
_cell_length_c   13.73300000
_cell_angle_alpha   109.94500000
_cell_angle_beta   90.00000000
_cell_angle_gamma   89.99990000
_symmetry_Int_Tables_number   1
_chemical_formula_structural   SnH14C14(NO2)2
_chemical_formula_sum   'Sn4 H56 C56 N8 O16'
_cell_volume   1417.31749273
_cell_formula_units_Z   4
loop_
 _symmetry_equiv_pos_site_id
 _symmetry_equiv_pos_as_xyz
  1  'x, y, z'
loop_
 _atom_site_type_symbol
 _atom_site_label
 _atom_site_symmetry_multiplicity
 _atom_site_fract_x
 _atom_site_fract_y
 _atom_site_fract_z
 _atom_site_occupancy
  Sn  Sn0  1  0.36347000  0.17595000  0.25293000  1.0
  Sn  Sn1  1  0.86348000  0.82404000  0.24706000  1.0
  Sn  Sn2  1  0.63652000  0.82404000  0.74706000  1.0
  Sn  Sn3  1  0.13653000  0.17595000  0.75293000  1.0
  H  H4  1  0.21510000  0.24382000  0.43330000  1.0
  H  H5  1  0.71510000  0.75618000  0.06669000  1.0
  H  H6  1  0.78490000  0.75618000  0.56669000  1.0
  H  H7  1  0.28489000  0.24382000  0.93330000  1.0
  H  H8  1  0.21619000  0.08929000  0.38200000  1.0
  H  H9  1  0.71619000  0.91071000  0.11801000  1.0
  H  H10  1  0.78381000  0.91071000  0.61801000  1.0
  H  H11  1  0.28381000  0.08929000  0.88200000  1.0
  H  H12  1  0.38077000  0.16725000  0.44574000  1.0
  H  H13  1  0.88077000  0.83275000  0.05425000  1.0
  H  H14  1  0.61924000  0.83275000  0.55425000  1.0
  H  H15  1  0.11923000  0.16725000  0.94574000  1.0
  H  H16  1  0.41928000  0.24713000  0.09232000  1.0
  H  H17  1  0.91928000  0.75288000  0.40768000  1.0
  H  H18  1  0.58072000  0.75288000  0.90768000  1.0
  H  H19  1  0.08072000  0.24713000  0.59232000  1.0
  H  H20  1  0.57662000  0.16638000  0.11285000  1.0
  H  H21  1  0.07663000  0.83362000  0.38716000  1.0
  H  H22  1  0.42337000  0.83362000  0.88716000  1.0
  H  H23  1  0.92338000  0.16638000  0.61285000  1.0
  H  H24  1  0.41214000  0.09180000  0.04811000  1.0
  H  H25  1  0.91213000  0.90821000  0.45188000  1.0
  H  H26  1  0.58787000  0.90821000  0.95188000  1.0
  H  H27  1  0.08786000  0.09180000  0.54811000  1.0
  H  H28  1  0.52127000  0.44179000  0.37370000  1.0
  H  H29  1  0.02129000  0.55821000  0.12630000  1.0
  H  H30  1  0.47871000  0.55821000  0.62630000  1.0
  H  H31  1  0.97873000  0.44179000  0.87370000  1.0
  H  H32  1  0.76048000  0.53286000  0.46066000  1.0
  H  H33  1  0.26049000  0.46714000  0.03934000  1.0
  H  H34  1  0.23951000  0.46714000  0.53934000  1.0
  H  H35  1  0.73952000  0.53286000  0.96067000  1.0
  H  H36  1  0.97406000  0.40404000  0.47205000  1.0
  H  H37  1  0.47407000  0.59596000  0.02795000  1.0
  H  H38  1  0.02593000  0.59597000  0.52795000  1.0
  H  H39  1  0.52594000  0.40404000  0.97206000  1.0
  H  H40  1  0.93501000  0.18776000  0.39678000  1.0
  H  H41  1  0.43501000  0.81224000  0.10322000  1.0
  H  H42  1  0.06498000  0.81225000  0.60321000  1.0
  H  H43  1  0.56499000  0.18776000  0.89678000  1.0
  H  H44  1  0.05719000  0.04106000  0.10286000  1.0
  H  H45  1  0.55719000  0.95893000  0.39714000  1.0
  H  H46  1  0.94280000  0.95893000  0.89714000  1.0
  H  H47  1  0.44281000  0.04106000  0.60286000  1.0
  H  H48  1  0.81349000  0.09365000  0.03911000  1.0
  H  H49  1  0.31349000  0.90636000  0.46090000  1.0
  H  H50  1  0.18650000  0.90636000  0.96089000  1.0
  H  H51  1  0.68651000  0.09365000  0.53911000  1.0
  H  H52  1  0.74089000  0.30574000  0.09730000  1.0
  H  H53  1  0.24089000  0.69426000  0.40270000  1.0
  H  H54  1  0.25911000  0.69426000  0.90270000  1.0
  H  H55  1  0.75912000  0.30574000  0.59730000  1.0
  H  H56  1  0.91479000  0.44929000  0.21402000  1.0
  H  H57  1  0.41479000  0.55071000  0.28599000  1.0
  H  H58  1  0.08521000  0.55071000  0.78599000  1.0
  H  H59  1  0.58522000  0.44929000  0.71402000  1.0
  C  C60  1  0.28387000  0.16718000  0.39662000  1.0
  C  C61  1  0.78387000  0.83282000  0.10338000  1.0
  C  C62  1  0.71613000  0.83282000  0.60338000  1.0
  C  C63  1  0.21613000  0.16718000  0.89662000  1.0
  C  C64  1  0.45428000  0.16955000  0.10773000  1.0
  C  C65  1  0.95429000  0.83045000  0.39226000  1.0
  C  C66  1  0.54571000  0.83045000  0.89226000  1.0
  C  C67  1  0.04572000  0.16955000  0.60773000  1.0
  C  C68  1  0.68012000  0.07860000  0.30814000  1.0
  C  C69  1  0.18012000  0.92140000  0.19186000  1.0
  C  C70  1  0.31988000  0.92140000  0.69186000  1.0
  C  C71  1  0.81988000  0.07860000  0.80813000  1.0
  C  C72  1  0.71015000  0.20633000  0.34926000  1.0
  C  C73  1  0.21016000  0.79367000  0.15075000  1.0
  C  C74  1  0.28984000  0.79367000  0.65074000  1.0
  C  C75  1  0.78985000  0.20633000  0.84925000  1.0
  C  C76  1  0.61703000  0.39020000  0.38093000  1.0
  C  C77  1  0.11704000  0.60979000  0.11907000  1.0
  C  C78  1  0.38295000  0.60979000  0.61907000  1.0
  C  C79  1  0.88297000  0.39020000  0.88093000  1.0
  C  C80  1  0.75085000  0.43945000  0.42841000  1.0
  C  C81  1  0.25086000  0.56055000  0.07159000  1.0
  C  C82  1  0.24914000  0.56055000  0.57160000  1.0
  C  C83  1  0.74915000  0.43945000  0.92841000  1.0
  C  C84  1  0.86879000  0.36781000  0.43463000  1.0
  C  C85  1  0.36880000  0.63219000  0.06538000  1.0
  C  C86  1  0.13120000  0.63219000  0.56537000  1.0
  C  C87  1  0.63121000  0.36781000  0.93463000  1.0
  C  C88  1  0.84837000  0.24899000  0.39414000  1.0
  C  C89  1  0.34838000  0.75101000  0.10587000  1.0
  C  C90  1  0.15162000  0.75101000  0.60586000  1.0
  C  C91  1  0.65163000  0.24899000  0.89414000  1.0
  C  C92  1  0.18063000  0.40642000  0.29113000  1.0
  C  C93  1  0.68063000  0.59358000  0.20887000  1.0
  C  C94  1  0.81938000  0.59358000  0.70887000  1.0
  C  C95  1  0.31937000  0.40641000  0.79113000  1.0
  C  C96  1  0.07496000  0.32073000  0.21834000  1.0
  C  C97  1  0.57496000  0.67927000  0.28166000  1.0
  C  C98  1  0.92504000  0.67927000  0.78166000  1.0
  C  C99  1  0.42504000  0.32073000  0.71834000  1.0
  C  C100  1  0.02106000  0.13018000  0.12496000  1.0
  C  C101  1  0.52106000  0.86982000  0.37504000  1.0
  C  C102  1  0.97894000  0.86982000  0.87504000  1.0
  C  C103  1  0.47895000  0.13018000  0.62496000  1.0
  C  C104  1  0.88570000  0.16042000  0.08999000  1.0
  C  C105  1  0.38570000  0.83958000  0.41001000  1.0
  C  C106  1  0.11429000  0.83958000  0.91000000  1.0
  C  C107  1  0.61430000  0.16042000  0.58999000  1.0
  C  C108  1  0.84537000  0.27649000  0.12123000  1.0
  C  C109  1  0.34537000  0.72351000  0.37877000  1.0
  C  C110  1  0.15463000  0.72351000  0.87877000  1.0
  C  C111  1  0.65464000  0.27649000  0.62123000  1.0
  C  C112  1  0.94182000  0.35789000  0.18639000  1.0
  C  C113  1  0.44182000  0.64211000  0.31361000  1.0
  C  C114  1  0.05818000  0.64211000  0.81361000  1.0
  C  C115  1  0.55818000  0.35789000  0.68639000  1.0
  N  N116  1  0.59690000  0.27551000  0.34183000  1.0
  N  N117  1  0.09691000  0.72449000  0.15817000  1.0
  N  N118  1  0.40309000  0.72449000  0.65817000  1.0
  N  N119  1  0.90310000  0.27551000  0.84183000  1.0
  N  N120  1  0.11407000  0.20871000  0.18806000  1.0
  N  N121  1  0.61407000  0.79129000  0.31194000  1.0
  N  N122  1  0.88593000  0.79129000  0.81194000  1.0
  N  N123  1  0.38593000  0.20871000  0.68806000  1.0
  O  O124  1  0.56034000  0.04364000  0.25669000  1.0
  O  O125  1  0.06034000  0.95637000  0.24331000  1.0
  O  O126  1  0.43966000  0.95637000  0.74331000  1.0
  O  O127  1  0.93966000  0.04363000  0.75669000  1.0
  O  O128  1  0.77710000  0.01535000  0.33098000  1.0
  O  O129  1  0.27710000  0.98465000  0.16902000  1.0
  O  O130  1  0.22290000  0.98465000  0.66901000  1.0
  O  O131  1  0.72290000  0.01535000  0.83098000  1.0
  O  O132  1  0.30780000  0.36546000  0.30919000  1.0
  O  O133  1  0.80780000  0.63453000  0.19081000  1.0
  O  O134  1  0.69220000  0.63453000  0.69081000  1.0
  O  O135  1  0.19221000  0.36547000  0.80919000  1.0
  O  O136  1  0.14002000  0.50873000  0.32892000  1.0
  O  O137  1  0.64001000  0.49127000  0.17108000  1.0
  O  O138  1  0.86000000  0.49127000  0.67107000  1.0
  O  O139  1  0.35999000  0.50873000  0.82893000  1.0
