# generated using pymatgen
data_ZnH11C23N3O5
_symmetry_space_group_name_H-M   'P 1'
_cell_length_a   12.03690000
_cell_length_b   13.13550000
_cell_length_c   14.66690000
_cell_angle_alpha   90.75740000
_cell_angle_beta   108.31900000
_cell_angle_gamma   96.40510000
_symmetry_Int_Tables_number   1
_chemical_formula_structural   ZnH11C23N3O5
_chemical_formula_sum   'Zn2 H22 C46 N6 O10'
_cell_volume   2184.86161846
_cell_formula_units_Z   2
loop_
 _symmetry_equiv_pos_site_id
 _symmetry_equiv_pos_as_xyz
  1  'x, y, z'
loop_
 _atom_site_type_symbol
 _atom_site_label
 _atom_site_symmetry_multiplicity
 _atom_site_fract_x
 _atom_site_fract_y
 _atom_site_fract_z
 _atom_site_occupancy
  Zn  Zn0  1  0.88475000  0.49840000  0.51583000  1.0
  Zn  Zn1  1  0.11525000  0.50161000  0.48417000  1.0
  H  H2  1  0.79127000  0.60550000  0.63850000  1.0
  H  H3  1  0.20872000  0.39449000  0.36150000  1.0
  H  H4  1  0.40033000  0.36980000  0.33588000  1.0
  H  H5  1  0.59967000  0.63018000  0.66412000  1.0
  H  H6  1  0.99169000  0.44866000  0.16340000  1.0
  H  H7  1  0.00832000  0.55134000  0.83661000  1.0
  H  H8  1  0.12711000  0.56343000  0.01223000  1.0
  H  H9  1  0.87288000  0.43655000  0.98777000  1.0
  H  H10  1  0.51522000  0.51291000  0.19347000  1.0
  H  H11  1  0.48476000  0.48705000  0.80653000  1.0
  H  H12  1  0.10700000  0.17530000  0.44107000  1.0
  H  H13  1  0.89299000  0.82469000  0.55892000  1.0
  H  H14  1  0.84047000  0.18207000  0.57755000  1.0
  H  H15  1  0.15953000  0.81793000  0.42245000  1.0
  H  H16  1  0.17204000  0.00795000  0.40912000  1.0
  H  H17  1  0.82795000  0.99205000  0.59088000  1.0
  H  H18  1  0.70804000  0.27829000  0.44598000  1.0
  H  H19  1  0.62764000  0.26298000  0.31982000  1.0
  H  H20  1  0.54820000  0.25996000  0.40540000  1.0
  H  H21  1  0.37237000  0.73701000  0.68018000  1.0
  H  H22  1  0.29195000  0.72170000  0.55404000  1.0
  H  H23  1  0.45179000  0.74003000  0.59459000  1.0
  C  C24  1  0.01956000  0.69761000  0.50112000  1.0
  C  C25  1  0.98044000  0.30239000  0.49887000  1.0
  C  C26  1  0.47066000  0.51473000  0.11686000  1.0
  C  C27  1  0.52933000  0.48524000  0.88314000  1.0
  C  C28  1  0.35323000  0.52884000  0.08688000  1.0
  C  C29  1  0.64675000  0.47114000  0.91312000  1.0
  C  C30  1  0.97381000  0.18860000  0.50682000  1.0
  C  C31  1  0.02618000  0.81140000  0.49317000  1.0
  C  C32  1  0.11195000  0.96791000  0.44284000  1.0
  C  C33  1  0.88805000  0.03209000  0.55716000  1.0
  C  C34  1  0.10560000  0.86323000  0.45026000  1.0
  C  C35  1  0.89439000  0.13677000  0.54974000  1.0
  C  C36  1  0.95445000  0.86610000  0.52739000  1.0
  C  C37  1  0.04556000  0.13391000  0.47261000  1.0
  C  C38  1  0.95971000  0.97382000  0.52162000  1.0
  C  C39  1  0.04029000  0.02618000  0.47838000  1.0
  C  C40  1  0.39820000  0.41729000  0.39645000  1.0
  C  C41  1  0.60181000  0.58270000  0.60355000  1.0
  C  C42  1  0.29274000  0.43074000  0.40965000  1.0
  C  C43  1  0.70726000  0.56925000  0.59035000  1.0
  C  C44  1  0.38227000  0.54096000  0.54516000  1.0
  C  C45  1  0.61773000  0.45904000  0.45484000  1.0
  C  C46  1  0.07614000  0.50089000  0.68740000  1.0
  C  C47  1  0.92387000  0.49912000  0.31260000  1.0
  C  C48  1  0.49664000  0.53186000  0.53840000  1.0
  C  C49  1  0.50336000  0.46814000  0.46161000  1.0
  C  C50  1  0.14873000  0.50382000  0.79219000  1.0
  C  C51  1  0.85128000  0.49619000  0.20782000  1.0
  C  C52  1  0.16577000  0.54294000  0.95747000  1.0
  C  C53  1  0.83423000  0.45706000  0.04253000  1.0
  C  C54  1  0.09986000  0.53574000  0.86148000  1.0
  C  C55  1  0.90014000  0.46426000  0.13853000  1.0
  C  C56  1  0.26488000  0.47871000  0.82026000  1.0
  C  C57  1  0.73511000  0.52130000  0.17973000  1.0
  C  C58  1  0.34033000  0.49867000  0.91794000  1.0
  C  C59  1  0.65966000  0.50132000  0.08206000  1.0
  C  C60  1  0.28533000  0.52537000  0.98668000  1.0
  C  C61  1  0.71466000  0.47461000  0.01331000  1.0
  C  C62  1  0.46711000  0.49502000  0.94995000  1.0
  C  C63  1  0.53287000  0.50497000  0.05005000  1.0
  C  C64  1  0.29674000  0.54447000  0.15714000  1.0
  C  C65  1  0.70325000  0.45548000  0.84287000  1.0
  C  C66  1  0.69950000  0.57880000  0.24724000  1.0
  C  C67  1  0.30049000  0.42119000  0.75275000  1.0
  C  C68  1  0.62766000  0.29364000  0.38964000  1.0
  C  C69  1  0.37233000  0.70635000  0.61036000  1.0
  N  N70  1  0.71483000  0.50770000  0.51716000  1.0
  N  N71  1  0.28518000  0.49229000  0.48284000  1.0
  N  N72  1  0.24893000  0.55714000  0.21376000  1.0
  N  N73  1  0.75104000  0.44279000  0.78624000  1.0
  N  N74  1  0.66829000  0.63512000  0.29402000  1.0
  N  N75  1  0.33168000  0.36488000  0.70598000  1.0
  O  O76  1  0.93493000  0.65304000  0.52582000  1.0
  O  O77  1  0.06508000  0.34697000  0.47418000  1.0
  O  O78  1  0.10026000  0.65406000  0.48234000  1.0
  O  O79  1  0.89974000  0.34592000  0.51766000  1.0
  O  O80  1  0.96617000  0.50324000  0.66691000  1.0
  O  O81  1  0.03384000  0.49678000  0.33309000  1.0
  O  O82  1  0.13473000  0.50008000  0.62910000  1.0
  O  O83  1  0.86527000  0.49994000  0.37089000  1.0
  O  O84  1  0.62777000  0.40344000  0.38009000  1.0
  O  O85  1  0.37224000  0.59655000  0.61992000  1.0
