# generated using pymatgen
data_ZnH6C9(N2O)2
_symmetry_space_group_name_H-M   'P 1'
_cell_length_a   4.82159000
_cell_length_b   10.98560000
_cell_length_c   18.51630000
_cell_angle_alpha   90.00000000
_cell_angle_beta   90.00000000
_cell_angle_gamma   90.00000000
_symmetry_Int_Tables_number   1
_chemical_formula_structural   ZnH6C9(N2O)2
_chemical_formula_sum   'Zn4 H24 C36 N16 O8'
_cell_volume   980.77247279
_cell_formula_units_Z   4
loop_
 _symmetry_equiv_pos_site_id
 _symmetry_equiv_pos_as_xyz
  1  'x, y, z'
loop_
 _atom_site_type_symbol
 _atom_site_label
 _atom_site_symmetry_multiplicity
 _atom_site_fract_x
 _atom_site_fract_y
 _atom_site_fract_z
 _atom_site_occupancy
  Zn  Zn0  1  0.00647000  0.00403000  0.17838000  1.0
  Zn  Zn1  1  0.99353000  0.50403000  0.82162000  1.0
  Zn  Zn2  1  0.00647000  0.50403000  0.32162000  1.0
  Zn  Zn3  1  0.99353000  0.00403000  0.67838000  1.0
  H  H4  1  0.41421000  0.45549000  0.21476000  1.0
  H  H5  1  0.58579000  0.95549000  0.78524000  1.0
  H  H6  1  0.41421000  0.95549000  0.28524000  1.0
  H  H7  1  0.58579000  0.45549000  0.71476000  1.0
  H  H8  1  0.65941000  0.52383000  0.10684000  1.0
  H  H9  1  0.34059000  0.02383000  0.89316000  1.0
  H  H10  1  0.65940000  0.02383000  0.39316000  1.0
  H  H11  1  0.34059000  0.52383000  0.60684000  1.0
  H  H12  1  0.22823000  0.25738000  0.97793000  1.0
  H  H13  1  0.77177000  0.75738000  0.02207000  1.0
  H  H14  1  0.22823000  0.75738000  0.52207000  1.0
  H  H15  1  0.77177000  0.25738000  0.47793000  1.0
  H  H16  1  0.96472000  0.19260000  0.08571000  1.0
  H  H17  1  0.03528000  0.69260000  0.91429000  1.0
  H  H18  1  0.96472000  0.69260000  0.41429000  1.0
  H  H19  1  0.03528000  0.19260000  0.58571000  1.0
  H  H20  1  0.75230000  0.35463000  0.94944000  1.0
  H  H21  1  0.24770000  0.85463000  0.05056000  1.0
  H  H22  1  0.75230000  0.85463000  0.55056000  1.0
  H  H23  1  0.24770000  0.35463000  0.44944000  1.0
  H  H24  1  0.78794000  0.50044000  0.98517000  1.0
  H  H25  1  0.21206000  0.00044000  0.01483000  1.0
  H  H26  1  0.78794000  0.00044000  0.51483000  1.0
  H  H27  1  0.21206000  0.50044000  0.48517000  1.0
  C  C28  1  0.02695000  0.27289000  0.22242000  1.0
  C  C29  1  0.97305000  0.77289000  0.77758000  1.0
  C  C30  1  0.02695000  0.77289000  0.27758000  1.0
  C  C31  1  0.97305000  0.27289000  0.72242000  1.0
  C  C32  1  0.17288000  0.31751000  0.15857000  1.0
  C  C33  1  0.82711000  0.81751000  0.84143000  1.0
  C  C34  1  0.17289000  0.81751000  0.34143000  1.0
  C  C35  1  0.82711000  0.31751000  0.65857000  1.0
  C  C36  1  0.36606000  0.41267000  0.16311000  1.0
  C  C37  1  0.63394000  0.91267000  0.83689000  1.0
  C  C38  1  0.36606000  0.91267000  0.33689000  1.0
  C  C39  1  0.63394000  0.41267000  0.66311000  1.0
  C  C40  1  0.50777000  0.45079000  0.10150000  1.0
  C  C41  1  0.49223000  0.95079000  0.89850000  1.0
  C  C42  1  0.50777000  0.95079000  0.39850000  1.0
  C  C43  1  0.49223000  0.45079000  0.60150000  1.0
  C  C44  1  0.46395000  0.39468000  0.03469000  1.0
  C  C45  1  0.53605000  0.89468000  0.96531000  1.0
  C  C46  1  0.46395000  0.89468000  0.46531000  1.0
  C  C47  1  0.53605000  0.39468000  0.53469000  1.0
  C  C48  1  0.26804000  0.30055000  0.03006000  1.0
  C  C49  1  0.73197000  0.80055000  0.96994000  1.0
  C  C50  1  0.26804000  0.80055000  0.46993000  1.0
  C  C51  1  0.73196000  0.30055000  0.53007000  1.0
  C  C52  1  0.12247000  0.26313000  0.09096000  1.0
  C  C53  1  0.87753000  0.76313000  0.90904000  1.0
  C  C54  1  0.12247000  0.76313000  0.40904000  1.0
  C  C55  1  0.87753000  0.26313000  0.59096000  1.0
  C  C56  1  0.63140000  0.43238000  0.97010000  1.0
  C  C57  1  0.36860000  0.93238000  0.02990000  1.0
  C  C58  1  0.63140000  0.93238000  0.52990000  1.0
  C  C59  1  0.36860000  0.43238000  0.47010000  1.0
  C  C60  1  0.46878000  0.48147000  0.90644000  1.0
  C  C61  1  0.53122000  0.98147000  0.09356000  1.0
  C  C62  1  0.46878000  0.98147000  0.59356000  1.0
  C  C63  1  0.53122000  0.48147000  0.40644000  1.0
  N  N64  1  0.81250000  0.15162000  0.29711000  1.0
  N  N65  1  0.18750000  0.65162000  0.70289000  1.0
  N  N66  1  0.81250000  0.65162000  0.20289000  1.0
  N  N67  1  0.18751000  0.15162000  0.79711000  1.0
  N  N68  1  0.81397000  0.25912000  0.32603000  1.0
  N  N69  1  0.18603000  0.75912000  0.67397000  1.0
  N  N70  1  0.81398000  0.75912000  0.17397000  1.0
  N  N71  1  0.18603000  0.25912000  0.82603000  1.0
  N  N72  1  0.94680000  0.33749000  0.28071000  1.0
  N  N73  1  0.05320000  0.83749000  0.71929000  1.0
  N  N74  1  0.94680000  0.83749000  0.21929000  1.0
  N  N75  1  0.05320000  0.33749000  0.78071000  1.0
  N  N76  1  0.94440000  0.15674000  0.23263000  1.0
  N  N77  1  0.05560000  0.65674000  0.76737000  1.0
  N  N78  1  0.94440000  0.65674000  0.26737000  1.0
  N  N79  1  0.05560000  0.15674000  0.73263000  1.0
  O  O80  1  0.20811000  0.49610000  0.91344000  1.0
  O  O81  1  0.79189000  0.99610000  0.08656000  1.0
  O  O82  1  0.20811000  0.99610000  0.58656000  1.0
  O  O83  1  0.79189000  0.49610000  0.41344000  1.0
  O  O84  1  0.59235000  0.50602000  0.84728000  1.0
  O  O85  1  0.40765000  0.00602000  0.15272000  1.0
  O  O86  1  0.59235000  0.00602000  0.65272000  1.0
  O  O87  1  0.40765000  0.50602000  0.34728000  1.0
