# generated using pymatgen
data_RbH5(C2O3)2
_symmetry_space_group_name_H-M   'P 1'
_cell_length_a   7.65228000
_cell_length_b   7.88641000
_cell_length_c   11.55250000
_cell_angle_alpha   89.99990000
_cell_angle_beta   102.90400000
_cell_angle_gamma   89.99980000
_symmetry_Int_Tables_number   1
_chemical_formula_structural   RbH5(C2O3)2
_chemical_formula_sum   'Rb4 H20 C16 O24'
_cell_volume   679.57511530
_cell_formula_units_Z   4
loop_
 _symmetry_equiv_pos_site_id
 _symmetry_equiv_pos_as_xyz
  1  'x, y, z'
loop_
 _atom_site_type_symbol
 _atom_site_label
 _atom_site_symmetry_multiplicity
 _atom_site_fract_x
 _atom_site_fract_y
 _atom_site_fract_z
 _atom_site_occupancy
  Rb  Rb0  1  0.22773000  0.07674000  0.47139000  1.0
  Rb  Rb1  1  0.22773000  0.42326000  0.97139000  1.0
  Rb  Rb2  1  0.77227000  0.92326000  0.52861000  1.0
  Rb  Rb3  1  0.77227000  0.57674000  0.02861000  1.0
  H  H4  1  0.86732000  0.64062000  0.75351000  1.0
  H  H5  1  0.86731000  0.85938000  0.25350000  1.0
  H  H6  1  0.13268000  0.35938000  0.24650000  1.0
  H  H7  1  0.13269000  0.14062000  0.74650000  1.0
  H  H8  1  0.87775000  0.20988000  0.85443000  1.0
  H  H9  1  0.87775000  0.29012000  0.35443000  1.0
  H  H10  1  0.12225000  0.79012000  0.14557000  1.0
  H  H11  1  0.12225000  0.70988000  0.64557000  1.0
  H  H12  1  0.28235000  0.42189000  0.64503000  1.0
  H  H13  1  0.28235000  0.07811000  0.14503000  1.0
  H  H14  1  0.71764000  0.57811000  0.35497000  1.0
  H  H15  1  0.71765000  0.92188000  0.85497000  1.0
  H  H16  1  0.69905000  0.43783000  0.55357000  1.0
  H  H17  1  0.69905000  0.06218000  0.05357000  1.0
  H  H18  1  0.30095000  0.56217000  0.44643000  1.0
  H  H19  1  0.30096000  0.93782000  0.94643000  1.0
  H  H20  1  0.69782000  0.20480000  0.69026000  1.0
  H  H21  1  0.69781000  0.29521000  0.19026000  1.0
  H  H22  1  0.30218000  0.79520000  0.30974000  1.0
  H  H23  1  0.30219000  0.70479000  0.80974000  1.0
  C  C24  1  0.97447000  0.38482000  0.63339000  1.0
  C  C25  1  0.97447000  0.11518000  0.13339000  1.0
  C  C26  1  0.02553000  0.61518000  0.36661000  1.0
  C  C27  1  0.02553000  0.88482000  0.86661000  1.0
  C  C28  1  0.78796000  0.44958000  0.64239000  1.0
  C  C29  1  0.78796000  0.05042000  0.14238000  1.0
  C  C30  1  0.21204000  0.55042000  0.35762000  1.0
  C  C31  1  0.21204000  0.94958000  0.85762000  1.0
  C  C32  1  0.71541000  0.33301000  0.72843000  1.0
  C  C33  1  0.71540000  0.16700000  0.22843000  1.0
  C  C34  1  0.28459000  0.66699000  0.27157000  1.0
  C  C35  1  0.28460000  0.83300000  0.77157000  1.0
  C  C36  1  0.52980000  0.39385000  0.73842000  1.0
  C  C37  1  0.52979000  0.10615000  0.23842000  1.0
  C  C38  1  0.47020000  0.60615000  0.26158000  1.0
  C  C39  1  0.47021000  0.89385000  0.76158000  1.0
  O  O40  1  0.10309000  0.49234000  0.64656000  1.0
  O  O41  1  0.10308000  0.00766000  0.14656000  1.0
  O  O42  1  0.89691000  0.50766000  0.35344000  1.0
  O  O43  1  0.89692000  0.99234000  0.85344000  1.0
  O  O44  1  0.99110000  0.22824000  0.61551000  1.0
  O  O45  1  0.99109000  0.27176000  0.11551000  1.0
  O  O46  1  0.00890000  0.77176000  0.38449000  1.0
  O  O47  1  0.00891000  0.72824000  0.88449000  1.0
  O  O48  1  0.78525000  0.62244000  0.67487000  1.0
  O  O49  1  0.78524000  0.87756000  0.17487000  1.0
  O  O50  1  0.21475000  0.37756000  0.32513000  1.0
  O  O51  1  0.21476000  0.12244000  0.82513000  1.0
  O  O52  1  0.83640000  0.32956000  0.84128000  1.0
  O  O53  1  0.83640000  0.17044000  0.34128000  1.0
  O  O54  1  0.16360000  0.67045000  0.15872000  1.0
  O  O55  1  0.16360000  0.82956000  0.65872000  1.0
  O  O56  1  0.49752000  0.45253000  0.83042000  1.0
  O  O57  1  0.49752000  0.04747000  0.33042000  1.0
  O  O58  1  0.50248000  0.54747000  0.16958000  1.0
  O  O59  1  0.50249000  0.95253000  0.66958000  1.0
  O  O60  1  0.40925000  0.37747000  0.63701000  1.0
  O  O61  1  0.40925000  0.12253000  0.13701000  1.0
  O  O62  1  0.59075000  0.62253000  0.36299000  1.0
  O  O63  1  0.59075000  0.87746000  0.86299000  1.0
