# generated using pymatgen
data_AlH4C8NO7
_symmetry_space_group_name_H-M   'P 1'
_cell_length_a   6.88336000
_cell_length_b   12.67750000
_cell_length_c   16.93110000
_cell_angle_alpha   89.99210000
_cell_angle_beta   89.35830000
_cell_angle_gamma   89.46910000
_symmetry_Int_Tables_number   1
_chemical_formula_structural   AlH4C8NO7
_chemical_formula_sum   'Al4 H16 C32 N4 O28'
_cell_volume   1477.31597808
_cell_formula_units_Z   4
loop_
 _symmetry_equiv_pos_site_id
 _symmetry_equiv_pos_as_xyz
  1  'x, y, z'
loop_
 _atom_site_type_symbol
 _atom_site_label
 _atom_site_symmetry_multiplicity
 _atom_site_fract_x
 _atom_site_fract_y
 _atom_site_fract_z
 _atom_site_occupancy
  Al  Al0  1  0.00708000  0.99933000  0.50172000  1.0
  Al  Al1  1  0.50675000  0.00398000  0.49839000  1.0
  Al  Al2  1  0.98990000  0.50059000  0.99828000  1.0
  Al  Al3  1  0.48972000  0.50211000  0.99905000  1.0
  H  H4  1  0.26102000  0.86571000  0.47872000  1.0
  H  H5  1  0.76047000  0.14003000  0.48513000  1.0
  H  H6  1  0.23515000  0.64013000  0.01146000  1.0
  H  H7  1  0.73992000  0.36272000  0.01142000  1.0
  H  H8  1  0.05068000  0.71335000  0.82011000  1.0
  H  H9  1  0.42934000  0.68834000  0.80676000  1.0
  H  H10  1  0.04782000  0.82785000  0.69791000  1.0
  H  H11  1  0.54755000  0.28126000  0.17147000  1.0
  H  H12  1  0.92838000  0.31776000  0.19695000  1.0
  H  H13  1  0.55044000  0.16797000  0.29402000  1.0
  H  H14  1  0.94458000  0.27982000  0.82553000  1.0
  H  H15  1  0.56138000  0.32303000  0.80159000  1.0
  H  H16  1  0.95219000  0.16534000  0.70357000  1.0
  H  H17  1  0.05044000  0.66906000  0.19498000  1.0
  H  H18  1  0.43122000  0.71307000  0.18613000  1.0
  H  H19  1  0.05776000  0.77968000  0.31883000  1.0
  C  C20  1  0.76278000  0.87789000  0.39278000  1.0
  C  C21  1  0.75055000  0.88478000  0.60981000  1.0
  C  C22  1  0.25036000  0.11883000  0.60931000  1.0
  C  C23  1  0.25672000  0.11913000  0.38956000  1.0
  C  C24  1  0.73634000  0.62154000  0.10833000  1.0
  C  C25  1  0.74118000  0.62338000  0.89125000  1.0
  C  C26  1  0.24817000  0.37998000  0.89081000  1.0
  C  C27  1  0.23694000  0.37775000  0.10643000  1.0
  C  C28  1  0.74360000  0.82031000  0.68388000  1.0
  C  C29  1  0.74116000  0.69285000  0.82012000  1.0
  C  C30  1  0.57056000  0.78236000  0.71669000  1.0
  C  C31  1  0.91597000  0.73262000  0.78997000  1.0
  C  C32  1  0.56587000  0.71854000  0.78324000  1.0
  C  C33  1  0.91572000  0.79512000  0.72264000  1.0
  C  C34  1  0.24700000  0.18180000  0.31459000  1.0
  C  C35  1  0.23922000  0.30836000  0.17779000  1.0
  C  C36  1  0.07297000  0.22199000  0.28459000  1.0
  C  C37  1  0.41450000  0.26513000  0.20453000  1.0
  C  C38  1  0.06571000  0.28573000  0.21803000  1.0
  C  C39  1  0.41727000  0.20323000  0.27215000  1.0
  C  C40  1  0.25504000  0.18203000  0.68396000  1.0
  C  C41  1  0.25111000  0.31009000  0.81988000  1.0
  C  C42  1  0.42574000  0.22464000  0.71409000  1.0
  C  C43  1  0.07943000  0.26468000  0.79301000  1.0
  C  C44  1  0.42696000  0.28919000  0.78022000  1.0
  C  C45  1  0.08257000  0.20196000  0.72575000  1.0
  C  C46  1  0.75424000  0.80895000  0.32088000  1.0
  C  C47  1  0.74151000  0.68621000  0.18207000  1.0
  C  C48  1  0.57911000  0.78712000  0.28317000  1.0
  C  C49  1  0.91831000  0.70412000  0.21987000  1.0
  C  C50  1  0.56958000  0.72787000  0.21447000  1.0
  C  C51  1  0.92342000  0.76504000  0.28801000  1.0
  N  N52  1  0.38344000  0.81233000  0.68207000  1.0
  N  N53  1  0.88669000  0.19158000  0.32087000  1.0
  N  N54  1  0.61526000  0.19632000  0.67886000  1.0
  N  N55  1  0.39262000  0.82364000  0.31680000  1.0
  O  O56  1  0.92879000  0.90192000  0.41880000  1.0
  O  O57  1  0.58813000  0.91249000  0.58122000  1.0
  O  O58  1  0.41237000  0.10269000  0.57411000  1.0
  O  O59  1  0.09544000  0.09952000  0.42376000  1.0
  O  O60  1  0.08514000  0.08908000  0.58640000  1.0
  O  O61  1  0.42507000  0.09344000  0.41296000  1.0
  O  O62  1  0.59867000  0.90603000  0.42115000  1.0
  O  O63  1  0.91753000  0.90426000  0.58118000  1.0
  O  O64  1  0.25882000  0.93761000  0.49878000  1.0
  O  O65  1  0.75772000  0.06551000  0.49848000  1.0
  O  O66  1  0.90091000  0.59772000  0.07776000  1.0
  O  O67  1  0.57614000  0.59930000  0.92063000  1.0
  O  O68  1  0.41207000  0.40982000  0.91638000  1.0
  O  O69  1  0.07078000  0.40591000  0.08091000  1.0
  O  O70  1  0.08193000  0.40359000  0.92010000  1.0
  O  O71  1  0.40193000  0.40251000  0.07718000  1.0
  O  O72  1  0.56982000  0.59621000  0.08236000  1.0
  O  O73  1  0.90651000  0.59427000  0.91695000  1.0
  O  O74  1  0.23847000  0.56530000  0.99994000  1.0
  O  O75  1  0.74031000  0.43743000  0.99946000  1.0
  O  O76  1  0.31079000  0.89619000  0.70636000  1.0
  O  O77  1  0.30980000  0.75062000  0.63488000  1.0
  O  O78  1  0.82101000  0.10629000  0.29821000  1.0
  O  O79  1  0.80633000  0.25360000  0.36743000  1.0
  O  O80  1  0.68231000  0.10976000  0.69969000  1.0
  O  O81  1  0.69633000  0.26103000  0.63548000  1.0
  O  O82  1  0.32126000  0.76690000  0.36918000  1.0
  O  O83  1  0.31585000  0.90274000  0.28781000  1.0
