# generated using pymatgen
data_CuH6C8S2N4Cl
_symmetry_space_group_name_H-M   'P 1'
_cell_length_a   6.56997000
_cell_length_b   10.25350000
_cell_length_c   10.25360000
_cell_angle_alpha   107.24700000
_cell_angle_beta   106.12600000
_cell_angle_gamma   106.12700000
_symmetry_Int_Tables_number   1
_chemical_formula_structural   CuH6C8S2N4Cl
_chemical_formula_sum   'Cu2 H12 C16 S4 N8 Cl2'
_cell_volume   582.86139626
_cell_formula_units_Z   2
loop_
 _symmetry_equiv_pos_site_id
 _symmetry_equiv_pos_as_xyz
  1  'x, y, z'
loop_
 _atom_site_type_symbol
 _atom_site_label
 _atom_site_symmetry_multiplicity
 _atom_site_fract_x
 _atom_site_fract_y
 _atom_site_fract_z
 _atom_site_occupancy
  Cu  Cu0  1  0.00001000  0.89744000  0.10257000  1.0
  Cu  Cu1  1  0.00000000  0.10257000  0.89742000  1.0
  H  H2  1  0.47930000  0.81690000  0.95524000  1.0
  H  H3  1  0.52071000  0.04478000  0.18311000  1.0
  H  H4  1  0.52069000  0.18304000  0.04475000  1.0
  H  H5  1  0.47932000  0.95523000  0.81696000  1.0
  H  H6  1  0.16030000  0.57781000  0.75769000  1.0
  H  H7  1  0.83973000  0.24232000  0.42219000  1.0
  H  H8  1  0.83957000  0.42218000  0.24229000  1.0
  H  H9  1  0.16041000  0.75772000  0.57781000  1.0
  H  H10  1  0.26076000  0.34933000  0.68606000  1.0
  H  H11  1  0.73925000  0.31393000  0.65067000  1.0
  H  H12  1  0.73925000  0.65071000  0.31396000  1.0
  H  H13  1  0.26073000  0.68605000  0.34927000  1.0
  C  C14  1  0.50660000  0.71425000  0.91898000  1.0
  C  C15  1  0.49341000  0.08104000  0.28576000  1.0
  C  C16  1  0.49340000  0.28572000  0.08101000  1.0
  C  C17  1  0.50659000  0.91897000  0.71427000  1.0
  C  C18  1  0.33185000  0.58169000  0.80943000  1.0
  C  C19  1  0.66818000  0.19058000  0.41831000  1.0
  C  C20  1  0.66806000  0.41830000  0.19054000  1.0
  C  C21  1  0.33192000  0.80946000  0.58170000  1.0
  C  C22  1  0.38610000  0.45729000  0.77209000  1.0
  C  C23  1  0.61391000  0.22791000  0.54272000  1.0
  C  C24  1  0.61393000  0.54276000  0.22794000  1.0
  C  C25  1  0.38605000  0.77207000  0.45723000  1.0
  C  C26  1  0.75322000  0.59277000  0.94478000  1.0
  C  C27  1  0.24679000  0.05523000  0.40723000  1.0
  C  C28  1  0.24685000  0.40723000  0.05525000  1.0
  C  C29  1  0.75314000  0.94475000  0.59277000  1.0
  S  S30  1  0.03303000  0.61810000  0.04590000  1.0
  S  S31  1  0.96695000  0.95410000  0.38190000  1.0
  S  S32  1  0.96707000  0.38190000  0.95412000  1.0
  S  S33  1  0.03293000  0.04587000  0.61810000  1.0
  N  N34  1  0.71905000  0.72120000  0.98479000  1.0
  N  N35  1  0.28096000  0.01524000  0.27880000  1.0
  N  N36  1  0.28096000  0.27877000  0.01521000  1.0
  N  N37  1  0.71902000  0.98477000  0.72123000  1.0
  N  N38  1  0.59638000  0.46178000  0.84061000  1.0
  N  N39  1  0.40363000  0.15938000  0.53821000  1.0
  N  N40  1  0.40363000  0.53824000  0.15940000  1.0
  N  N41  1  0.59635000  0.84061000  0.46175000  1.0
  Cl  Cl42  1  0.13582000  0.90323000  0.90323000  1.0
  Cl  Cl43  1  0.86418000  0.09678000  0.09677000  1.0
