# generated using pymatgen
data_ZnH6C7N5Cl
_symmetry_space_group_name_H-M   'P 1'
_cell_length_a   7.04063000
_cell_length_b   8.58435000
_cell_length_c   8.70158000
_cell_angle_alpha   85.69190000
_cell_angle_beta   66.14990000
_cell_angle_gamma   79.33290000
_symmetry_Int_Tables_number   1
_chemical_formula_structural   ZnH6C7N5Cl
_chemical_formula_sum   'Zn2 H12 C14 N10 Cl2'
_cell_volume   472.69472826
_cell_formula_units_Z   2
loop_
 _symmetry_equiv_pos_site_id
 _symmetry_equiv_pos_as_xyz
  1  'x, y, z'
loop_
 _atom_site_type_symbol
 _atom_site_label
 _atom_site_symmetry_multiplicity
 _atom_site_fract_x
 _atom_site_fract_y
 _atom_site_fract_z
 _atom_site_occupancy
  Zn  Zn0  1  0.86273000  0.65273000  0.71751000  1.0
  Zn  Zn1  1  0.58001000  0.15284000  0.28253000  1.0
  H  H2  1  0.49807000  0.55498000  0.37352000  1.0
  H  H3  1  0.87170000  0.05468000  0.62671000  1.0
  H  H4  1  0.24987000  0.67465000  0.41900000  1.0
  H  H5  1  0.66904000  0.17446000  0.58107000  1.0
  H  H6  1  0.67167000  0.64367000  0.08996000  1.0
  H  H7  1  0.76140000  0.14358000  0.91019000  1.0
  H  H8  1  0.50857000  0.52173000  0.71184000  1.0
  H  H9  1  0.21999000  0.02175000  0.28809000  1.0
  H  H10  1  0.17962000  0.43146000  0.92284000  1.0
  H  H11  1  0.10253000  0.93103000  0.07698000  1.0
  H  H12  1  0.09862000  0.45147000  0.22654000  1.0
  H  H13  1  0.32557000  0.95074000  0.77332000  1.0
  C  C14  1  0.23960000  0.43132000  0.47355000  1.0
  C  C15  1  0.71325000  0.93121000  0.52646000  1.0
  C  C16  1  0.34490000  0.55945000  0.36613000  1.0
  C  C17  1  0.71119000  0.05920000  0.63395000  1.0
  C  C18  1  0.38029000  0.54766000  0.18361000  1.0
  C  C19  1  0.56396000  0.04728000  0.81643000  1.0
  C  C20  1  0.55907000  0.59522000  0.05850000  1.0
  C  C21  1  0.61737000  0.09508000  0.94160000  1.0
  C  C22  1  0.46701000  0.52667000  0.84668000  1.0
  C  C23  1  0.31346000  0.02654000  0.15330000  1.0
  C  C24  1  0.28578000  0.47765000  0.96343000  1.0
  C  C25  1  0.24923000  0.97730000  0.03649000  1.0
  C  C26  1  0.24159000  0.48880000  0.13392000  1.0
  C  C27  1  0.37566000  0.98831000  0.86602000  1.0
  N  N28  1  0.05341000  0.45186000  0.60584000  1.0
  N  N29  1  0.65918000  0.95187000  0.39420000  1.0
  N  N30  1  0.01504000  0.30600000  0.66885000  1.0
  N  N31  1  0.68379000  0.80606000  0.33114000  1.0
  N  N32  1  0.17119000  0.20007000  0.57804000  1.0
  N  N33  1  0.74928000  0.70004000  0.42188000  1.0
  N  N34  1  0.31475000  0.27513000  0.45477000  1.0
  N  N35  1  0.76974000  0.77499000  0.54513000  1.0
  N  N36  1  0.60021000  0.58526000  0.89415000  1.0
  N  N37  1  0.49406000  0.08522000  0.10591000  1.0
  Cl  Cl38  1  0.03075000  0.79168000  0.80840000  1.0
  Cl  Cl39  1  0.83907000  0.29165000  0.19154000  1.0
