# generated using pymatgen
data_ZnH21C31N7O6
_symmetry_space_group_name_H-M   'P 1'
_cell_length_a   17.67900000
_cell_length_b   17.96670000
_cell_length_c   18.48126126
_cell_angle_alpha   86.80621555
_cell_angle_beta   61.42491281
_cell_angle_gamma   60.52650000
_symmetry_Int_Tables_number   1
_chemical_formula_structural   ZnH21C31N7O6
_chemical_formula_sum   'Zn4 H84 C124 N28 O24'
_cell_volume   4362.41510393
_cell_formula_units_Z   4
loop_
 _symmetry_equiv_pos_site_id
 _symmetry_equiv_pos_as_xyz
  1  'x, y, z'
loop_
 _atom_site_type_symbol
 _atom_site_label
 _atom_site_symmetry_multiplicity
 _atom_site_fract_x
 _atom_site_fract_y
 _atom_site_fract_z
 _atom_site_occupancy
  Zn  Zn0  1  0.00449000  0.16271000  0.42111000  1.0
  Zn  Zn1  1  0.08830000  0.33731000  0.07890000  1.0
  Zn  Zn2  1  0.99551000  0.83728000  0.57889000  1.0
  Zn  Zn3  1  0.91169000  0.66269000  0.92110000  1.0
  H  H4  1  0.16981000  0.03951000  0.55561000  1.0
  H  H5  1  0.28761000  0.01323000  0.60776000  1.0
  H  H6  1  0.49516000  0.02667000  0.36713000  1.0
  H  H7  1  0.37821000  0.05201000  0.31507000  1.0
  H  H8  1  0.95261000  0.18636000  0.20491000  1.0
  H  H9  1  0.94881000  0.14084000  0.08118000  1.0
  H  H10  1  0.05773000  0.87763000  0.11898000  1.0
  H  H11  1  0.05860000  0.92398000  0.24401000  1.0
  H  H12  1  0.07359000  0.24786000  0.49088000  1.0
  H  H13  1  0.11731000  0.36357000  0.46201000  1.0
  H  H14  1  0.00754000  0.41842000  0.28865000  1.0
  H  H15  1  0.96724000  0.30223000  0.32562000  1.0
  H  H16  1  0.21022000  0.57414000  0.40895000  1.0
  H  H17  1  0.23876000  0.69043000  0.33853000  1.0
  H  H18  1  0.17371000  0.74812000  0.23938000  1.0
  H  H19  1  0.97462000  0.76687000  0.97416000  1.0
  H  H20  1  0.03394000  0.76380000  0.07297000  1.0
  H  H21  1  0.95160000  0.57281000  0.17059000  1.0
  H  H22  1  0.89537000  0.58494000  0.06983000  1.0
  H  H23  1  0.03775000  0.60567000  0.21543000  1.0
  H  H24  1  0.07700000  0.49234000  0.30348000  1.0
  H  H25  1  0.26493000  0.46049000  0.94438000  1.0
  H  H26  1  0.40861000  0.48676000  0.89223000  1.0
  H  H27  1  0.38891000  0.47336000  0.13288000  1.0
  H  H28  1  0.24525000  0.44802000  0.18493000  1.0
  H  H29  1  0.84388000  0.31367000  0.29508000  1.0
  H  H30  1  0.67084000  0.35916000  0.41881000  1.0
  H  H31  1  0.55424000  0.62236000  0.38095000  1.0
  H  H32  1  0.72649000  0.57601000  0.25590000  1.0
  H  H33  1  0.31234000  0.25216000  0.00913000  1.0
  H  H34  1  0.44291000  0.13644000  0.03800000  1.0
  H  H35  1  0.21463000  0.08158000  0.21134000  1.0
  H  H36  1  0.09510000  0.19777000  0.17437000  1.0
  H  H37  1  0.69334000  0.92585000  0.09106000  1.0
  H  H38  1  0.76774000  0.80955000  0.16148000  1.0
  H  H39  1  0.66122000  0.75189000  0.26062000  1.0
  H  H40  1  0.21567000  0.73312000  0.52583000  1.0
  H  H41  1  0.37072000  0.73621000  0.42704000  1.0
  H  H42  1  0.19500000  0.92721000  0.32942000  1.0
  H  H43  1  0.05015000  0.91506000  0.43017000  1.0
  H  H44  1  0.35887000  0.89433000  0.28457000  1.0
  H  H45  1  0.37285000  0.00765000  0.19652000  1.0
  H  H46  1  0.83020000  0.96050000  0.44439000  1.0
  H  H47  1  0.71240000  0.98676000  0.39224000  1.0
  H  H48  1  0.50485000  0.97333000  0.63287000  1.0
  H  H49  1  0.62179000  0.94799000  0.68493000  1.0
  H  H50  1  0.04740000  0.81363000  0.79508000  1.0
  H  H51  1  0.05121000  0.85915000  0.91880000  1.0
  H  H52  1  0.94226000  0.12237000  0.88104000  1.0
  H  H53  1  0.94138000  0.07602000  0.75601000  1.0
  H  H54  1  0.92640000  0.75215000  0.50913000  1.0
  H  H55  1  0.88267000  0.63645000  0.53800000  1.0
  H  H56  1  0.99245000  0.58158000  0.71135000  1.0
  H  H57  1  0.03277000  0.69776000  0.67438000  1.0
  H  H58  1  0.78976000  0.42586000  0.59106000  1.0
  H  H59  1  0.76123000  0.30957000  0.66147000  1.0
  H  H60  1  0.82630000  0.25188000  0.76061000  1.0
  H  H61  1  0.02540000  0.23311000  0.02582000  1.0
  H  H62  1  0.96608000  0.23618000  0.92701000  1.0
  H  H63  1  0.04838000  0.42720000  0.82942000  1.0
  H  H64  1  0.10461000  0.41506000  0.93017000  1.0
  H  H65  1  0.96224000  0.39432000  0.78457000  1.0
  H  H66  1  0.92299000  0.50766000  0.69651000  1.0
  H  H67  1  0.73505000  0.53953000  0.05564000  1.0
  H  H68  1  0.59139000  0.51324000  0.10777000  1.0
  H  H69  1  0.61109000  0.52664000  0.86712000  1.0
  H  H70  1  0.75474000  0.55198000  0.81508000  1.0
  H  H71  1  0.15612000  0.68632000  0.70493000  1.0
  H  H72  1  0.32916000  0.64082000  0.58120000  1.0
  H  H73  1  0.44577000  0.37763000  0.61905000  1.0
  H  H74  1  0.27352000  0.42397000  0.74410000  1.0
  H  H75  1  0.68767000  0.74785000  0.99086000  1.0
  H  H76  1  0.55708000  0.86357000  0.96201000  1.0
  H  H77  1  0.78538000  0.91842000  0.78865000  1.0
  H  H78  1  0.90491000  0.80222000  0.82562000  1.0
  H  H79  1  0.30667000  0.07416000  0.90894000  1.0
  H  H80  1  0.23227000  0.19044000  0.83851000  1.0
  H  H81  1  0.33878000  0.24811000  0.73938000  1.0
  H  H82  1  0.78433000  0.26689000  0.47417000  1.0
  H  H83  1  0.62928000  0.26380000  0.57296000  1.0
  H  H84  1  0.80500000  0.07280000  0.67057000  1.0
  H  H85  1  0.94985000  0.08494000  0.56983000  1.0
  H  H86  1  0.64113000  0.10569000  0.71543000  1.0
  H  H87  1  0.62716000  0.99235000  0.80348000  1.0
  C  C88  1  0.20098000  0.06083000  0.39819000  1.0
  C  C89  1  0.26837000  0.04576000  0.43175000  1.0
  C  C90  1  0.24141000  0.03599000  0.51480000  1.0
  C  C91  1  0.30612000  0.02164000  0.54368000  1.0
  C  C92  1  0.39785000  0.01772000  0.49011000  1.0
  C  C93  1  0.42426000  0.02890000  0.40716000  1.0
  C  C94  1  0.35975000  0.04267000  0.37878000  1.0
  C  C95  1  0.00942000  0.08286000  0.30456000  1.0
  C  C96  1  0.00650000  0.05726000  0.23112000  1.0
  C  C97  1  0.97555000  0.11892000  0.18541000  1.0
  C  C98  1  0.97403000  0.09411000  0.11675000  1.0
  C  C99  1  0.00486000  0.00635000  0.09255000  1.0
  C  C100  1  0.03480000  0.94495000  0.13838000  1.0
  C  C101  1  0.03557000  0.97049000  0.20742000  1.0
  C  C102  1  0.12162000  0.49926000  0.38518000  1.0
  C  C103  1  0.05880000  0.28842000  0.44751000  1.0
  C  C104  1  0.08374000  0.35199000  0.43119000  1.0
  C  C105  1  0.06459000  0.40135000  0.37353000  1.0
  C  C106  1  0.02112000  0.38349000  0.33537000  1.0
  C  C107  1  0.99884000  0.31877000  0.35557000  1.0
  C  C108  1  0.07777000  0.69661000  0.19686000  1.0
  C  C109  1  0.13422000  0.57182000  0.34723000  1.0
  C  C110  1  0.18409000  0.60196000  0.36560000  1.0
  C  C111  1  0.19899000  0.66625000  0.32682000  1.0
  C  C112  1  0.16325000  0.69860000  0.27211000  1.0
  C  C113  1  0.11349000  0.66493000  0.25825000  1.0
  C  C114  1  0.96988000  0.72555000  0.01970000  1.0
  C  C115  1  0.00329000  0.72378000  0.07449000  1.0
  C  C116  1  0.99863000  0.66738000  0.13051000  1.0
  C  C117  1  0.95666000  0.61835000  0.12971000  1.0
  C  C118  1  0.92543000  0.62433000  0.07268000  1.0
  C  C119  1  0.15999000  0.43918000  0.10181000  1.0
  C  C120  1  0.24587000  0.45425000  0.06825000  1.0
  C  C121  1  0.29219000  0.46402000  0.98519000  1.0
  C  C122  1  0.37145000  0.47835000  0.95631000  1.0
  C  C123  1  0.40568000  0.48228000  0.00989000  1.0
  C  C124  1  0.36029000  0.47111000  0.09285000  1.0
  C  C125  1  0.28117000  0.45735000  0.12123000  1.0
  C  C126  1  0.89682000  0.41717000  0.19541000  1.0
  C  C127  1  0.79484000  0.44275000  0.26882000  1.0
  C  C128  1  0.77986000  0.38109000  0.31456000  1.0
  C  C129  1  0.68487000  0.40591000  0.38323000  1.0
  C  C130  1  0.60371000  0.49365000  0.40740000  1.0
  C  C131  1  0.61805000  0.55504000  0.36155000  1.0
  C  C132  1  0.71340000  0.52950000  0.29248000  1.0
  C  C133  1  0.50609000  0.00073000  0.11481000  1.0
  C  C134  1  0.29473000  0.21160000  0.05251000  1.0
  C  C135  1  0.36693000  0.14801000  0.06882000  1.0
  C  C136  1  0.33948000  0.09866000  0.12648000  1.0
  C  C137  1  0.23998000  0.11652000  0.16463000  1.0
  C  C138  1  0.17319000  0.18124000  0.14443000  1.0
  C  C139  1  0.47123000  0.80342000  0.30317000  1.0
  C  C140  1  0.55329000  0.92817000  0.15276000  1.0
  C  C141  1  0.65168000  0.89802000  0.13439000  1.0
  C  C142  1  0.69207000  0.83374000  0.17319000  1.0
  C  C143  1  0.63397000  0.80140000  0.22790000  1.0
  C  C144  1  0.53668000  0.83508000  0.24177000  1.0
  C  C145  1  0.21514000  0.77445000  0.48030000  1.0
  C  C146  1  0.30157000  0.77622000  0.42551000  1.0
  C  C147  1  0.29653000  0.83263000  0.36950000  1.0
  C  C148  1  0.20473000  0.88166000  0.37029000  1.0
  C  C149  1  0.12245000  0.87567000  0.42732000  1.0
  C  C150  1  0.79902000  0.93917000  0.60181000  1.0
  C  C151  1  0.73163000  0.95425000  0.56825000  1.0
  C  C152  1  0.75859000  0.96402000  0.48520000  1.0
  C  C153  1  0.69389000  0.97836000  0.45632000  1.0
  C  C154  1  0.60215000  0.98227000  0.50989000  1.0
  C  C155  1  0.57575000  0.97110000  0.59284000  1.0
  C  C156  1  0.64024000  0.95734000  0.62123000  1.0
  C  C157  1  0.99057000  0.91714000  0.69544000  1.0
  C  C158  1  0.99350000  0.94274000  0.76888000  1.0
  C  C159  1  0.02446000  0.88107000  0.81458000  1.0
  C  C160  1  0.02597000  0.90588000  0.88325000  1.0
  C  C161  1  0.99515000  0.99363000  0.90745000  1.0
  C  C162  1  0.96519000  0.05504000  0.86163000  1.0
  C  C163  1  0.96441000  0.02951000  0.79259000  1.0
  C  C164  1  0.87838000  0.50074000  0.61481000  1.0
  C  C165  1  0.94118000  0.71159000  0.55250000  1.0
  C  C166  1  0.91625000  0.64802000  0.56882000  1.0
  C  C167  1  0.93539000  0.59866000  0.62648000  1.0
  C  C168  1  0.97888000  0.61651000  0.66463000  1.0
  C  C169  1  0.00114000  0.68123000  0.64444000  1.0
  C  C170  1  0.92224000  0.30337000  0.80313000  1.0
  C  C171  1  0.86577000  0.42819000  0.65277000  1.0
  C  C172  1  0.81591000  0.39804000  0.63440000  1.0
  C  C173  1  0.80102000  0.33374000  0.67317000  1.0
  C  C174  1  0.83675000  0.30139000  0.72788000  1.0
  C  C175  1  0.88650000  0.33506000  0.74175000  1.0
  C  C176  1  0.03013000  0.27443000  0.98029000  1.0
  C  C177  1  0.99673000  0.27620000  0.92549000  1.0
  C  C178  1  0.00138000  0.33261000  0.86948000  1.0
  C  C179  1  0.04333000  0.38165000  0.87029000  1.0
  C  C180  1  0.07457000  0.37566000  0.92732000  1.0
  C  C181  1  0.84001000  0.56082000  0.89819000  1.0
  C  C182  1  0.75413000  0.54575000  0.93176000  1.0
  C  C183  1  0.70779000  0.53599000  0.01482000  1.0
  C  C184  1  0.62854000  0.52166000  0.04370000  1.0
  C  C185  1  0.59432000  0.51772000  0.99011000  1.0
  C  C186  1  0.63970000  0.52889000  0.90716000  1.0
  C  C187  1  0.71882000  0.54265000  0.87878000  1.0
  C  C188  1  0.10320000  0.58282000  0.80459000  1.0
  C  C189  1  0.20517000  0.55723000  0.73118000  1.0
  C  C190  1  0.22015000  0.61889000  0.68544000  1.0
  C  C191  1  0.31514000  0.59408000  0.61677000  1.0
  C  C192  1  0.39630000  0.50634000  0.59260000  1.0
  C  C193  1  0.38195000  0.44495000  0.63845000  1.0
  C  C194  1  0.28661000  0.47049000  0.70752000  1.0
  C  C195  1  0.49392000  0.99928000  0.88519000  1.0
  C  C196  1  0.70526000  0.78841000  0.94750000  1.0
  C  C197  1  0.63306000  0.85200000  0.93119000  1.0
  C  C198  1  0.66052000  0.90135000  0.87352000  1.0
  C  C199  1  0.76002000  0.88348000  0.83537000  1.0
  C  C200  1  0.82682000  0.81875000  0.85556000  1.0
  C  C201  1  0.52877000  0.19659000  0.69682000  1.0
  C  C202  1  0.44671000  0.07185000  0.84724000  1.0
  C  C203  1  0.34832000  0.10199000  0.86561000  1.0
  C  C204  1  0.30792000  0.16627000  0.82682000  1.0
  C  C205  1  0.36603000  0.19860000  0.77210000  1.0
  C  C206  1  0.46332000  0.16493000  0.75823000  1.0
  C  C207  1  0.78486000  0.22556000  0.51970000  1.0
  C  C208  1  0.69843000  0.22378000  0.57449000  1.0
  C  C209  1  0.70347000  0.16738000  0.63050000  1.0
  C  C210  1  0.79528000  0.11834000  0.62970000  1.0
  C  C211  1  0.87756000  0.12433000  0.57267000  1.0
  N  N212  1  0.01711000  0.27125000  0.41092000  1.0
  N  N213  1  0.08631000  0.46649000  0.35170000  1.0
  N  N214  1  0.03427000  0.65608000  0.18537000  1.0
  N  N215  1  0.93202000  0.67683000  0.01767000  1.0
  N  N216  1  0.09894000  0.60311000  0.29521000  1.0
  N  N217  1  0.45777000  0.00366000  0.52547000  1.0
  N  N218  1  0.00710000  0.97364000  0.02363000  1.0
  N  N219  1  0.19929000  0.22876000  0.08909000  1.0
  N  N220  1  0.40452000  0.03352000  0.14830000  1.0
  N  N221  1  0.37573000  0.84392000  0.31464000  1.0
  N  N222  1  0.12652000  0.82317000  0.48234000  1.0
  N  N223  1  0.49727000  0.89690000  0.20480000  1.0
  N  N224  1  0.48689000  0.49635000  0.97453000  1.0
  N  N225  1  0.50435000  0.52634000  0.47636000  1.0
  N  N226  1  0.98288000  0.72875000  0.58909000  1.0
  N  N227  1  0.91366000  0.53352000  0.64830000  1.0
  N  N228  1  0.96573000  0.34391000  0.81462000  1.0
  N  N229  1  0.06798000  0.32316000  0.98233000  1.0
  N  N230  1  0.90104000  0.39689000  0.70480000  1.0
  N  N231  1  0.54225000  0.99634000  0.47452000  1.0
  N  N232  1  0.99290000  0.02634000  0.97638000  1.0
  N  N233  1  0.80071000  0.77124000  0.91091000  1.0
  N  N234  1  0.59548000  0.96649000  0.85170000  1.0
  N  N235  1  0.62426000  0.15609000  0.68537000  1.0
  N  N236  1  0.87348000  0.17683000  0.51766000  1.0
  N  N237  1  0.50273000  0.10312000  0.79520000  1.0
  N  N238  1  0.51310000  0.50365000  0.02548000  1.0
  N  N239  1  0.49566000  0.47365000  0.52364000  1.0
  O  O240  1  0.99004000  0.16207000  0.31965000  1.0
  O  O241  1  0.03084000  0.02952000  0.34874000  1.0
  O  O242  1  0.23910000  0.03956000  0.31949000  1.0
  O  O243  1  0.10561000  0.09643000  0.45487000  1.0
  O  O244  1  0.14280000  0.47348000  0.44005000  1.0
  O  O245  1  0.08883000  0.75359000  0.16104000  1.0
  O  O246  1  0.97172000  0.33796000  0.18035000  1.0
  O  O247  1  0.90905000  0.47051000  0.15124000  1.0
  O  O248  1  0.09812000  0.46045000  0.18051000  1.0
  O  O249  1  0.15689000  0.40360000  0.04512000  1.0
  O  O250  1  0.55636000  0.02652000  0.05995000  1.0
  O  O251  1  0.50344000  0.74645000  0.33901000  1.0
  O  O252  1  0.00996000  0.83793000  0.68035000  1.0
  O  O253  1  0.96916000  0.97048000  0.65126000  1.0
  O  O254  1  0.76092000  0.96044000  0.68050000  1.0
  O  O255  1  0.89439000  0.90358000  0.54513000  1.0
  O  O256  1  0.85717000  0.52654000  0.55996000  1.0
  O  O257  1  0.91121000  0.24637000  0.83893000  1.0
  O  O258  1  0.02828000  0.66202000  0.81965000  1.0
  O  O259  1  0.09095000  0.52947000  0.84877000  1.0
  O  O260  1  0.90187000  0.53955000  0.81950000  1.0
  O  O261  1  0.84311000  0.59641000  0.95488000  1.0
  O  O262  1  0.44365000  0.97351000  0.94006000  1.0
  O  O263  1  0.49657000  0.25354000  0.66097000  1.0
