# generated using pymatgen
data_Y2H21C27NO14
_symmetry_space_group_name_H-M   'P 1'
_cell_length_a   14.51050000
_cell_length_b   15.93600000
_cell_length_c   17.59380000
_cell_angle_alpha   93.00680000
_cell_angle_beta   90.00000000
_cell_angle_gamma   89.99990000
_symmetry_Int_Tables_number   1
_chemical_formula_structural   Y2H21C27NO14
_chemical_formula_sum   'Y8 H84 C108 N4 O56'
_cell_volume   4062.77761887
_cell_formula_units_Z   4
loop_
 _symmetry_equiv_pos_site_id
 _symmetry_equiv_pos_as_xyz
  1  'x, y, z'
loop_
 _atom_site_type_symbol
 _atom_site_label
 _atom_site_symmetry_multiplicity
 _atom_site_fract_x
 _atom_site_fract_y
 _atom_site_fract_z
 _atom_site_occupancy
  Y  Y0  1  0.96866000  0.65188000  0.82068000  1.0
  Y  Y1  1  0.46866000  0.84812000  0.67932000  1.0
  Y  Y2  1  0.03134000  0.34812000  0.17932000  1.0
  Y  Y3  1  0.53135000  0.15188000  0.32068000  1.0
  Y  Y4  1  0.26620000  0.16945000  0.13953000  1.0
  Y  Y5  1  0.76620000  0.33055000  0.36047000  1.0
  Y  Y6  1  0.73380000  0.83055000  0.86047000  1.0
  Y  Y7  1  0.23380000  0.66945000  0.63953000  1.0
  H  H8  1  0.05973000  0.42086000  0.96801000  1.0
  H  H9  1  0.55974000  0.07915000  0.53199000  1.0
  H  H10  1  0.94026000  0.57914000  0.03199000  1.0
  H  H11  1  0.44027000  0.92086000  0.46801000  1.0
  H  H12  1  0.12991000  0.38688000  0.73037000  1.0
  H  H13  1  0.62991000  0.11312000  0.76963000  1.0
  H  H14  1  0.87009000  0.61312000  0.26963000  1.0
  H  H15  1  0.37009000  0.88688000  0.23037000  1.0
  H  H16  1  0.21435000  0.25526000  0.75651000  1.0
  H  H17  1  0.71435000  0.24473000  0.74349000  1.0
  H  H18  1  0.78565000  0.74474000  0.24349000  1.0
  H  H19  1  0.28565000  0.75526000  0.25651000  1.0
  H  H20  1  0.48243000  0.76777000  0.01801000  1.0
  H  H21  1  0.98243000  0.73223000  0.48199000  1.0
  H  H22  1  0.51757000  0.23223000  0.98199000  1.0
  H  H23  1  0.01757000  0.26777000  0.51801000  1.0
  H  H24  1  0.22523000  0.20988000  0.88998000  1.0
  H  H25  1  0.72524000  0.29012000  0.61002000  1.0
  H  H26  1  0.77477000  0.79012000  0.11002000  1.0
  H  H27  1  0.27477000  0.70988000  0.38998000  1.0
  H  H28  1  0.36020000  0.73870000  0.79615000  1.0
  H  H29  1  0.86020000  0.76130000  0.70385000  1.0
  H  H30  1  0.63980000  0.26130000  0.20385000  1.0
  H  H31  1  0.13980000  0.23870000  0.29615000  1.0
  H  H32  1  0.20017000  0.68236000  0.99217000  1.0
  H  H33  1  0.70017000  0.81765000  0.50783000  1.0
  H  H34  1  0.79983000  0.31765000  0.00783000  1.0
  H  H35  1  0.29983000  0.18235000  0.49217000  1.0
  H  H36  1  0.33399000  0.16870000  0.95992000  1.0
  H  H37  1  0.83398000  0.33130000  0.54008000  1.0
  H  H38  1  0.66601000  0.83130000  0.04008000  1.0
  H  H39  1  0.16602000  0.66870000  0.45992000  1.0
  H  H40  1  0.33553000  0.71925000  0.07582000  1.0
  H  H41  1  0.83553000  0.78075000  0.42418000  1.0
  H  H42  1  0.66447000  0.28075000  0.92418000  1.0
  H  H43  1  0.16447000  0.21925000  0.57582000  1.0
  H  H44  1  0.08136000  0.81100000  0.75406000  1.0
  H  H45  1  0.58136000  0.68900000  0.74594000  1.0
  H  H46  1  0.91864000  0.18900000  0.24594000  1.0
  H  H47  1  0.41863000  0.31099000  0.25406000  1.0
  H  H48  1  0.40619000  0.16121000  0.85309000  1.0
  H  H49  1  0.90618000  0.33879000  0.64691000  1.0
  H  H50  1  0.59381000  0.83879000  0.14691000  1.0
  H  H51  1  0.09381000  0.66121000  0.35309000  1.0
  H  H52  1  0.41269000  0.06151000  0.80068000  1.0
  H  H53  1  0.91268000  0.43849000  0.69932000  1.0
  H  H54  1  0.58731000  0.93849000  0.19932000  1.0
  H  H55  1  0.08731000  0.56151000  0.30069000  1.0
  H  H56  1  0.50540000  0.09553000  0.86019000  1.0
  H  H57  1  0.00539000  0.40447000  0.63981000  1.0
  H  H58  1  0.49460000  0.90447000  0.13981000  1.0
  H  H59  1  0.99460000  0.59553000  0.36020000  1.0
  H  H60  1  0.98625000  0.01956000  0.89826000  1.0
  H  H61  1  0.48626000  0.48044000  0.60174000  1.0
  H  H62  1  0.01374000  0.98044000  0.10174000  1.0
  H  H63  1  0.51374000  0.51955000  0.39826000  1.0
  H  H64  1  0.13670000  0.09250000  0.88148000  1.0
  H  H65  1  0.63670000  0.40751000  0.61852000  1.0
  H  H66  1  0.86330000  0.90750000  0.11852000  1.0
  H  H67  1  0.36330000  0.59250000  0.38148000  1.0
  H  H68  1  0.25860000  0.02339000  0.79879000  1.0
  H  H69  1  0.75860000  0.47661000  0.70121000  1.0
  H  H70  1  0.74140000  0.97661000  0.20121000  1.0
  H  H71  1  0.24140000  0.52339000  0.29879000  1.0
  H  H72  1  0.35780000  0.94370000  0.96882000  1.0
  H  H73  1  0.85780000  0.55630000  0.53118000  1.0
  H  H74  1  0.64219000  0.05630000  0.03118000  1.0
  H  H75  1  0.14220000  0.44370000  0.46882000  1.0
  H  H76  1  0.47386000  0.95274000  0.93491000  1.0
  H  H77  1  0.97386000  0.54726000  0.56509000  1.0
  H  H78  1  0.52613000  0.04727000  0.06509000  1.0
  H  H79  1  0.02613000  0.45274000  0.43491000  1.0
  H  H80  1  0.38195000  0.93332000  0.86890000  1.0
  H  H81  1  0.88195000  0.56668000  0.63110000  1.0
  H  H82  1  0.61805000  0.06668000  0.13110000  1.0
  H  H83  1  0.11805000  0.43332000  0.36890000  1.0
  H  H84  1  0.37758000  0.02819000  0.20606000  1.0
  H  H85  1  0.87758000  0.47181000  0.29394000  1.0
  H  H86  1  0.62242000  0.97181000  0.79394000  1.0
  H  H87  1  0.12242000  0.52819000  0.70606000  1.0
  H  H88  1  0.34350000  0.00811000  0.11895000  1.0
  H  H89  1  0.84350000  0.49189000  0.38105000  1.0
  H  H90  1  0.65650000  0.99189000  0.88105000  1.0
  H  H91  1  0.15650000  0.50811000  0.61895000  1.0
  C  C92  1  0.25143000  0.87067000  0.72412000  1.0
  C  C93  1  0.75143000  0.62933000  0.77588000  1.0
  C  C94  1  0.74857000  0.12933000  0.27588000  1.0
  C  C95  1  0.24857000  0.37067000  0.22412000  1.0
  C  C96  1  0.93380000  0.86944000  0.83784000  1.0
  C  C97  1  0.43380000  0.63056000  0.66216000  1.0
  C  C98  1  0.06620000  0.13056000  0.16216000  1.0
  C  C99  1  0.56620000  0.36944000  0.33784000  1.0
  C  C100  1  0.51431000  0.79211000  0.86710000  1.0
  C  C101  1  0.01431000  0.70789000  0.63290000  1.0
  C  C102  1  0.48569000  0.20789000  0.13290000  1.0
  C  C103  1  0.98569000  0.29211000  0.36710000  1.0
  C  C104  1  0.19491000  0.68362000  0.83618000  1.0
  C  C105  1  0.69491000  0.81638000  0.66382000  1.0
  C  C106  1  0.80509000  0.31638000  0.16382000  1.0
  C  C107  1  0.30509000  0.18362000  0.33619000  1.0
  C  C108  1  0.03732000  0.49002000  0.83362000  1.0
  C  C109  1  0.53732000  0.00998000  0.66638000  1.0
  C  C110  1  0.96268000  0.50998000  0.16638000  1.0
  C  C111  1  0.46268000  0.99002000  0.33362000  1.0
  C  C112  1  0.09386000  0.38474000  0.92181000  1.0
  C  C113  1  0.59387000  0.11526000  0.57819000  1.0
  C  C114  1  0.90613000  0.61526000  0.07819000  1.0
  C  C115  1  0.40614000  0.88474000  0.42181000  1.0
  C  C116  1  0.08886000  0.41148000  0.84741000  1.0
  C  C117  1  0.58886000  0.08852000  0.65259000  1.0
  C  C118  1  0.91114000  0.58852000  0.15259000  1.0
  C  C119  1  0.41114000  0.91148000  0.34741000  1.0
  C  C120  1  0.13287000  0.36506000  0.78795000  1.0
  C  C121  1  0.63287000  0.13494000  0.71205000  1.0
  C  C122  1  0.86713000  0.63494000  0.21205000  1.0
  C  C123  1  0.36713000  0.86506000  0.28795000  1.0
  C  C124  1  0.18106000  0.29198000  0.80285000  1.0
  C  C125  1  0.68106000  0.20802000  0.69715000  1.0
  C  C126  1  0.81894000  0.70802000  0.19715000  1.0
  C  C127  1  0.31894000  0.79198000  0.30285000  1.0
  C  C128  1  0.17761000  0.91303000  0.77177000  1.0
  C  C129  1  0.67761000  0.58697000  0.72823000  1.0
  C  C130  1  0.82239000  0.08697000  0.22823000  1.0
  C  C131  1  0.32239000  0.41303000  0.27177000  1.0
  C  C132  1  0.42939000  0.75922000  0.90354000  1.0
  C  C133  1  0.92939000  0.74078000  0.59646000  1.0
  C  C134  1  0.57061000  0.24078000  0.09646000  1.0
  C  C135  1  0.07061000  0.25922000  0.40353000  1.0
  C  C136  1  0.42274000  0.75186000  0.98247000  1.0
  C  C137  1  0.92274000  0.74814000  0.51753000  1.0
  C  C138  1  0.57726000  0.24814000  0.01752000  1.0
  C  C139  1  0.07726000  0.25186000  0.48247000  1.0
  C  C140  1  0.15048000  0.28616000  0.01759000  1.0
  C  C141  1  0.65049000  0.21384000  0.48241000  1.0
  C  C142  1  0.84952000  0.71384000  0.98241000  1.0
  C  C143  1  0.34951000  0.78616000  0.51759000  1.0
  C  C144  1  0.14391000  0.31257000  0.93713000  1.0
  C  C145  1  0.64391000  0.18743000  0.56287000  1.0
  C  C146  1  0.85609000  0.68743000  0.06287000  1.0
  C  C147  1  0.35609000  0.81257000  0.43713000  1.0
  C  C148  1  0.18718000  0.26633000  0.87728000  1.0
  C  C149  1  0.68718000  0.23367000  0.62272000  1.0
  C  C150  1  0.81282000  0.73367000  0.12272000  1.0
  C  C151  1  0.31282000  0.76633000  0.37728000  1.0
  C  C152  1  0.35445000  0.73588000  0.85749000  1.0
  C  C153  1  0.85445000  0.76412000  0.64251000  1.0
  C  C154  1  0.64555000  0.26412000  0.14251000  1.0
  C  C155  1  0.14555000  0.23588000  0.35749000  1.0
  C  C156  1  0.27251000  0.70777000  0.88895000  1.0
  C  C157  1  0.77251000  0.79223000  0.61105000  1.0
  C  C158  1  0.72749000  0.29223000  0.11105000  1.0
  C  C159  1  0.22750000  0.20777000  0.38894000  1.0
  C  C160  1  0.26486000  0.70339000  0.96805000  1.0
  C  C161  1  0.76487000  0.79661000  0.53195000  1.0
  C  C162  1  0.73513000  0.29661000  0.03195000  1.0
  C  C163  1  0.23514000  0.20339000  0.46804000  1.0
  C  C164  1  0.02485000  0.91090000  0.82783000  1.0
  C  C165  1  0.52485000  0.58910000  0.67217000  1.0
  C  C166  1  0.97515000  0.08910000  0.17216000  1.0
  C  C167  1  0.47515000  0.41090000  0.32784000  1.0
  C  C168  1  0.33933000  0.10133000  0.97037000  1.0
  C  C169  1  0.83933000  0.39867000  0.52963000  1.0
  C  C170  1  0.66067000  0.89867000  0.02963000  1.0
  C  C171  1  0.16067000  0.60133000  0.47037000  1.0
  C  C172  1  0.34056000  0.72452000  0.01437000  1.0
  C  C173  1  0.84057000  0.77548000  0.48563000  1.0
  C  C174  1  0.65943000  0.27548000  0.98563000  1.0
  C  C175  1  0.15944000  0.22452000  0.51437000  1.0
  C  C176  1  0.09333000  0.87249000  0.78212000  1.0
  C  C177  1  0.59333000  0.62750000  0.71788000  1.0
  C  C178  1  0.90667000  0.12751000  0.21788000  1.0
  C  C179  1  0.40667000  0.37249000  0.28212000  1.0
  C  C180  1  0.42992000  0.09597000  0.85442000  1.0
  C  C181  1  0.92991000  0.40403000  0.64558000  1.0
  C  C182  1  0.57008000  0.90403000  0.14558000  1.0
  C  C183  1  0.07008000  0.59597000  0.35442000  1.0
  C  C184  1  0.04073000  0.99047000  0.86333000  1.0
  C  C185  1  0.54073000  0.50953000  0.63667000  1.0
  C  C186  1  0.95927000  0.00953000  0.13667000  1.0
  C  C187  1  0.45927000  0.49047000  0.36333000  1.0
  C  C188  1  0.12476000  0.03086000  0.85344000  1.0
  C  C189  1  0.62476000  0.46914000  0.64656000  1.0
  C  C190  1  0.87524000  0.96914000  0.14656000  1.0
  C  C191  1  0.37524000  0.53086000  0.35344000  1.0
  C  C192  1  0.19287000  0.99245000  0.80776000  1.0
  C  C193  1  0.69287000  0.50755000  0.69224000  1.0
  C  C194  1  0.80713000  0.00755000  0.19223000  1.0
  C  C195  1  0.30713000  0.49245000  0.30776000  1.0
  C  C196  1  0.40098000  0.96604000  0.92306000  1.0
  C  C197  1  0.90098000  0.53396000  0.57694000  1.0
  C  C198  1  0.59902000  0.03396000  0.07694000  1.0
  C  C199  1  0.09902000  0.46603000  0.42306000  1.0
  N  N200  1  0.38692000  0.05595000  0.91780000  1.0
  N  N201  1  0.88691000  0.44405000  0.58220000  1.0
  N  N202  1  0.61308000  0.94405000  0.08220000  1.0
  N  N203  1  0.11309000  0.55595000  0.41780000  1.0
  O  O204  1  0.99030000  0.52594000  0.88666000  1.0
  O  O205  1  0.49030000  0.97406000  0.61334000  1.0
  O  O206  1  0.00970000  0.47406000  0.11334000  1.0
  O  O207  1  0.50970000  0.02594000  0.38666000  1.0
  O  O208  1  0.04080000  0.52292000  0.76788000  1.0
  O  O209  1  0.54080000  0.97708000  0.73211000  1.0
  O  O210  1  0.95920000  0.47708000  0.23211000  1.0
  O  O211  1  0.45920000  0.02292000  0.26789000  1.0
  O  O212  1  0.11362000  0.68126000  0.86355000  1.0
  O  O213  1  0.61362000  0.81874000  0.63646000  1.0
  O  O214  1  0.88638000  0.31874000  0.13646000  1.0
  O  O215  1  0.38638000  0.18126000  0.36354000  1.0
  O  O216  1  0.50866000  0.81551000  0.79917000  1.0
  O  O217  1  0.00866000  0.68449000  0.70083000  1.0
  O  O218  1  0.49134000  0.18449000  0.20083000  1.0
  O  O219  1  0.99134000  0.31551000  0.29917000  1.0
  O  O220  1  0.09737000  0.32320000  0.06564000  1.0
  O  O221  1  0.59737000  0.17679000  0.43436000  1.0
  O  O222  1  0.90264000  0.67680000  0.93436000  1.0
  O  O223  1  0.40263000  0.82321000  0.56564000  1.0
  O  O224  1  0.92392000  0.79102000  0.81862000  1.0
  O  O225  1  0.42392000  0.70898000  0.68137000  1.0
  O  O226  1  0.07609000  0.20898000  0.18137000  1.0
  O  O227  1  0.57608000  0.29102000  0.31862000  1.0
  O  O228  1  0.86670000  0.91325000  0.86402000  1.0
  O  O229  1  0.36670000  0.58675000  0.63599000  1.0
  O  O230  1  0.13330000  0.08675000  0.13599000  1.0
  O  O231  1  0.63330000  0.41325000  0.36401000  1.0
  O  O232  1  0.20815000  0.22904000  0.03245000  1.0
  O  O233  1  0.70816000  0.27096000  0.46755000  1.0
  O  O234  1  0.79185000  0.77096000  0.96755000  1.0
  O  O235  1  0.29185000  0.72904000  0.53245000  1.0
  O  O236  1  0.30265000  0.07231000  0.02796000  1.0
  O  O237  1  0.80265000  0.42769000  0.47204000  1.0
  O  O238  1  0.69735000  0.92769000  0.97204000  1.0
  O  O239  1  0.19735000  0.57231000  0.52796000  1.0
  O  O240  1  0.32712000  0.03568000  0.16779000  1.0
  O  O241  1  0.82712000  0.46432000  0.33221000  1.0
  O  O242  1  0.67288000  0.96432000  0.83221000  1.0
  O  O243  1  0.17288000  0.53568000  0.66779000  1.0
  O  O244  1  0.21453000  0.66738000  0.76672000  1.0
  O  O245  1  0.71453000  0.83262000  0.73329000  1.0
  O  O246  1  0.78547000  0.33262000  0.23329000  1.0
  O  O247  1  0.28547000  0.16738000  0.26671000  1.0
  O  O248  1  0.58849000  0.79629000  0.90576000  1.0
  O  O249  1  0.08849000  0.70370000  0.59424000  1.0
  O  O250  1  0.41151000  0.20371000  0.09424000  1.0
  O  O251  1  0.91151000  0.29629000  0.40576000  1.0
  O  O252  1  0.33333333  0.90037000  0.73007000  1.0
  O  O253  1  0.83334000  0.59963000  0.76993000  1.0
  O  O254  1  0.66666667  0.09963000  0.26993000  1.0
  O  O255  1  0.16666000  0.40037000  0.23007000  1.0
  O  O256  1  0.22997000  0.80712000  0.68144000  1.0
  O  O257  1  0.72998000  0.69288000  0.81856000  1.0
  O  O258  1  0.77003000  0.19288000  0.31856000  1.0
  O  O259  1  0.27002000  0.30712000  0.18144000  1.0
