# generated using pymatgen
data_AgH7C5(NO)4
_symmetry_space_group_name_H-M   'P 1'
_cell_length_a   3.66487000
_cell_length_b   10.38780000
_cell_length_c   11.06320000
_cell_angle_alpha   76.69620000
_cell_angle_beta   83.95150000
_cell_angle_gamma   83.51980000
_symmetry_Int_Tables_number   1
_chemical_formula_structural   AgH7C5(NO)4
_chemical_formula_sum   'Ag2 H14 C10 N8 O8'
_cell_volume   405.87847653
_cell_formula_units_Z   2
loop_
 _symmetry_equiv_pos_site_id
 _symmetry_equiv_pos_as_xyz
  1  'x, y, z'
loop_
 _atom_site_type_symbol
 _atom_site_label
 _atom_site_symmetry_multiplicity
 _atom_site_fract_x
 _atom_site_fract_y
 _atom_site_fract_z
 _atom_site_occupancy
  Ag  Ag0  1  0.91408000  0.06020000  0.11140000  1.0
  Ag  Ag1  1  0.08590000  0.93980000  0.88860000  1.0
  H  H2  1  0.78116000  0.35792000  0.95580000  1.0
  H  H3  1  0.21883000  0.64208000  0.04420000  1.0
  H  H4  1  0.32955000  0.43789000  0.94576000  1.0
  H  H5  1  0.67044000  0.56211000  0.05424000  1.0
  H  H6  1  0.68936000  0.50375000  0.83400000  1.0
  H  H7  1  0.31064000  0.49625000  0.16600000  1.0
  H  H8  1  0.87189000  0.99482000  0.36648000  1.0
  H  H9  1  0.12812000  0.00517000  0.63352000  1.0
  H  H10  1  0.76830000  0.87454000  0.50332000  1.0
  H  H11  1  0.23171000  0.12546000  0.49667000  1.0
  H  H12  1  0.50590000  0.67044000  0.49561000  1.0
  H  H13  1  0.49410000  0.32955000  0.50439000  1.0
  H  H14  1  0.64685000  0.47073000  0.64787000  1.0
  H  H15  1  0.35315000  0.52926000  0.35212000  1.0
  C  C16  1  0.58292000  0.41302000  0.89081000  1.0
  C  C17  1  0.41707000  0.58698000  0.10919000  1.0
  C  C18  1  0.37522000  0.20778000  0.86168000  1.0
  C  C19  1  0.62478000  0.79222000  0.13832000  1.0
  C  C20  1  0.67665000  0.82786000  0.33865000  1.0
  C  C21  1  0.32335000  0.17214000  0.66135000  1.0
  C  C22  1  0.54366000  0.70220000  0.39485000  1.0
  C  C23  1  0.45633000  0.29780000  0.60515000  1.0
  C  C24  1  0.54330000  0.37365000  0.68121000  1.0
  C  C25  1  0.45670000  0.62635000  0.31879000  1.0
  N  N26  1  0.50370000  0.33063000  0.80767000  1.0
  N  N27  1  0.49630000  0.66937000  0.19233000  1.0
  N  N28  1  0.71378000  0.86959000  0.21231000  1.0
  N  N29  1  0.28622000  0.13042000  0.78769000  1.0
  N  N30  1  0.76596000  0.90637000  0.40798000  1.0
  N  N31  1  0.23404000  0.09363000  0.59202000  1.0
  N  N32  1  0.99248000  0.25989000  0.28244000  1.0
  N  N33  1  0.00754000  0.74011000  0.71756000  1.0
  O  O34  1  0.34526000  0.17457000  0.97928000  1.0
  O  O35  1  0.65474000  0.82542000  0.02072000  1.0
  O  O36  1  0.14114000  0.14475000  0.33329000  1.0
  O  O37  1  0.85887000  0.85525000  0.66666667  1.0
  O  O38  1  0.99455000  0.35600000  0.33389000  1.0
  O  O39  1  0.00547000  0.64399000  0.66612000  1.0
  O  O40  1  0.84641000  0.27474000  0.18095000  1.0
  O  O41  1  0.15359000  0.72526000  0.81906000  1.0
