# generated using pymatgen
data_H6RuC19N2(OF2)4
_symmetry_space_group_name_H-M   'P 1'
_cell_length_a   10.79620000
_cell_length_b   14.00080000
_cell_length_c   14.20170000
_cell_angle_alpha   100.81940000
_cell_angle_beta   89.99900000
_cell_angle_gamma   89.99930000
_symmetry_Int_Tables_number   1
_chemical_formula_structural   H6RuC19N2(OF2)4
_chemical_formula_sum   'H24 Ru4 C76 N8 O16 F32'
_cell_volume   2108.50452581
_cell_formula_units_Z   4
loop_
 _symmetry_equiv_pos_site_id
 _symmetry_equiv_pos_as_xyz
  1  'x, y, z'
loop_
 _atom_site_type_symbol
 _atom_site_label
 _atom_site_symmetry_multiplicity
 _atom_site_fract_x
 _atom_site_fract_y
 _atom_site_fract_z
 _atom_site_occupancy
  H  H0  1  0.69875000  0.07142000  0.27075000  1.0
  H  H1  1  0.19879000  0.42855000  0.22920000  1.0
  H  H2  1  0.30133000  0.92856000  0.72923000  1.0
  H  H3  1  0.80129000  0.57143000  0.77075000  1.0
  H  H4  1  0.19114000  0.68361000  0.15516000  1.0
  H  H5  1  0.69117000  0.81640000  0.34483000  1.0
  H  H6  1  0.80884000  0.31641000  0.84483000  1.0
  H  H7  1  0.30884000  0.18364000  0.65517000  1.0
  H  H8  1  0.41351000  0.46972000  0.65394000  1.0
  H  H9  1  0.91350000  0.03023000  0.84607000  1.0
  H  H10  1  0.58646000  0.53021000  0.34610000  1.0
  H  H11  1  0.08648000  0.96976000  0.15390000  1.0
  H  H12  1  0.78463000  0.46263000  0.38407000  1.0
  H  H13  1  0.28463000  0.03733000  0.11593000  1.0
  H  H14  1  0.21536000  0.53729000  0.61597000  1.0
  H  H15  1  0.71536000  0.96263000  0.88405000  1.0
  H  H16  1  0.81293000  0.54931000  0.48848000  1.0
  H  H17  1  0.31294000  0.95066000  0.01150000  1.0
  H  H18  1  0.18705000  0.45062000  0.51155000  1.0
  H  H19  1  0.68705000  0.04933000  0.98845000  1.0
  H  H20  1  0.80705000  0.42518000  0.49637000  1.0
  H  H21  1  0.30705000  0.07480000  0.00362000  1.0
  H  H22  1  0.19292000  0.57475000  0.50367000  1.0
  H  H23  1  0.69294000  0.92521000  0.99638000  1.0
  Ru  Ru24  1  0.53726000  0.45519000  0.92743000  1.0
  Ru  Ru25  1  0.03727000  0.04482000  0.57258000  1.0
  Ru  Ru26  1  0.46271000  0.54482000  0.07262000  1.0
  Ru  Ru27  1  0.96273000  0.95519000  0.42739000  1.0
  C  C28  1  0.56500000  0.35420000  0.08157000  1.0
  C  C29  1  0.06502000  0.14580000  0.41842000  1.0
  C  C30  1  0.43498000  0.64580000  0.91846000  1.0
  C  C31  1  0.93498000  0.85421000  0.58155000  1.0
  C  C32  1  0.60642000  0.27567000  0.13153000  1.0
  C  C33  1  0.10645000  0.22433000  0.36845000  1.0
  C  C34  1  0.39358000  0.72433000  0.86849000  1.0
  C  C35  1  0.89358000  0.77568000  0.63152000  1.0
  C  C36  1  0.55992000  0.18158000  0.10422000  1.0
  C  C37  1  0.05997000  0.31842000  0.39575000  1.0
  C  C38  1  0.44011000  0.81841000  0.89579000  1.0
  C  C39  1  0.94012000  0.68160000  0.60422000  1.0
  C  C40  1  0.59002000  0.10949000  0.15601000  1.0
  C  C41  1  0.09008000  0.39051000  0.34396000  1.0
  C  C42  1  0.41004000  0.89049000  0.84398000  1.0
  C  C43  1  0.91002000  0.60951000  0.65602000  1.0
  C  C44  1  0.67283000  0.12834000  0.23202000  1.0
  C  C45  1  0.17288000  0.37164000  0.26794000  1.0
  C  C46  1  0.32724000  0.87165000  0.76797000  1.0
  C  C47  1  0.82720000  0.62835000  0.73201000  1.0
  C  C48  1  0.72157000  0.22130000  0.25793000  1.0
  C  C49  1  0.22160000  0.27868000  0.24204000  1.0
  C  C50  1  0.27846000  0.77870000  0.74208000  1.0
  C  C51  1  0.77843000  0.72130000  0.75792000  1.0
  C  C52  1  0.68834000  0.29474000  0.20889000  1.0
  C  C53  1  0.18836000  0.20524000  0.29109000  1.0
  C  C54  1  0.31167000  0.70526000  0.79113000  1.0
  C  C55  1  0.81164000  0.79474000  0.70887000  1.0
  C  C56  1  0.72348000  0.56945000  0.04854000  1.0
  C  C57  1  0.22350000  0.93056000  0.45148000  1.0
  C  C58  1  0.27648000  0.43057000  0.95152000  1.0
  C  C59  1  0.77649000  0.06945000  0.54849000  1.0
  C  C60  1  0.85116000  0.60195000  0.07846000  1.0
  C  C61  1  0.35118000  0.89806000  0.42154000  1.0
  C  C62  1  0.14880000  0.39807000  0.92159000  1.0
  C  C63  1  0.64881000  0.10196000  0.57842000  1.0
  C  C64  1  0.94026000  0.61845000  0.01118000  1.0
  C  C65  1  0.44029000  0.88157000  0.48882000  1.0
  C  C66  1  0.05968000  0.38157000  0.98884000  1.0
  C  C67  1  0.55970000  0.11847000  0.51116000  1.0
  C  C68  1  0.05961000  0.64918000  0.03894000  1.0
  C  C69  1  0.55964000  0.85084000  0.46106000  1.0
  C  C70  1  0.94034000  0.35084000  0.96107000  1.0
  C  C71  1  0.44035000  0.14920000  0.53893000  1.0
  C  C72  1  0.09642000  0.66274000  0.13410000  1.0
  C  C73  1  0.59644000  0.83727000  0.36589000  1.0
  C  C74  1  0.90355000  0.33728000  0.86590000  1.0
  C  C75  1  0.40356000  0.16277000  0.63410000  1.0
  C  C76  1  0.00970000  0.64630000  0.20160000  1.0
  C  C77  1  0.50971000  0.85370000  0.29839000  1.0
  C  C78  1  0.99029000  0.35374000  0.79842000  1.0
  C  C79  1  0.49029000  0.14632000  0.70159000  1.0
  C  C80  1  0.88894000  0.61689000  0.17501000  1.0
  C  C81  1  0.38896000  0.88311000  0.32499000  1.0
  C  C82  1  0.11104000  0.38315000  0.82503000  1.0
  C  C83  1  0.61105000  0.11690000  0.67498000  1.0
  C  C84  1  0.62765000  0.42389000  0.71396000  1.0
  C  C85  1  0.12764000  0.07609000  0.78604000  1.0
  C  C86  1  0.37234000  0.57608000  0.28610000  1.0
  C  C87  1  0.87236000  0.92390000  0.21393000  1.0
  C  C88  1  0.57897000  0.47141000  0.56842000  1.0
  C  C89  1  0.07896000  0.02857000  0.93159000  1.0
  C  C90  1  0.42101000  0.52854000  0.43163000  1.0
  C  C91  1  0.92102000  0.97143000  0.06838000  1.0
  C  C92  1  0.44987000  0.48267000  0.58564000  1.0
  C  C93  1  0.94987000  0.01729000  0.91437000  1.0
  C  C94  1  0.55011000  0.51727000  0.41441000  1.0
  C  C95  1  0.05012000  0.98270000  0.08560000  1.0
  C  C96  1  0.62998000  0.48970000  0.48018000  1.0
  C  C97  1  0.12998000  0.01027000  0.01983000  1.0
  C  C98  1  0.37001000  0.51023000  0.51987000  1.0
  C  C99  1  0.87001000  0.98972000  0.98015000  1.0
  C  C100  1  0.76572000  0.48025000  0.46096000  1.0
  C  C101  1  0.26571000  0.01972000  0.03903000  1.0
  C  C102  1  0.23427000  0.51968000  0.53908000  1.0
  C  C103  1  0.73427000  0.98026000  0.96094000  1.0
  N  N104  1  0.61249000  0.40147000  0.79067000  1.0
  N  N105  1  0.11249000  0.09853000  0.70935000  1.0
  N  N106  1  0.38749000  0.59852000  0.20940000  1.0
  N  N107  1  0.88751000  0.90147000  0.29063000  1.0
  N  N108  1  0.65741000  0.44439000  0.63388000  1.0
  N  N109  1  0.15740000  0.05559000  0.86612000  1.0
  N  N110  1  0.34258000  0.55557000  0.36617000  1.0
  N  N111  1  0.84259000  0.94440000  0.13385000  1.0
  O  O112  1  0.58242000  0.34250000  0.99095000  1.0
  O  O113  1  0.08244000  0.15751000  0.50904000  1.0
  O  O114  1  0.41755000  0.65751000  0.00908000  1.0
  O  O115  1  0.91756000  0.84250000  0.49093000  1.0
  O  O116  1  0.51364000  0.42817000  0.13295000  1.0
  O  O117  1  0.01366000  0.07183000  0.36706000  1.0
  O  O118  1  0.48633000  0.57183000  0.86709000  1.0
  O  O119  1  0.98634000  0.92819000  0.63292000  1.0
  O  O120  1  0.70914000  0.51303000  0.96711000  1.0
  O  O121  1  0.20916000  0.98699000  0.53290000  1.0
  O  O122  1  0.29082000  0.48699000  0.03295000  1.0
  O  O123  1  0.79084000  0.01303000  0.46707000  1.0
  O  O124  1  0.63443000  0.59930000  0.10638000  1.0
  O  O125  1  0.13445000  0.90071000  0.39364000  1.0
  O  O126  1  0.36553000  0.40072000  0.89369000  1.0
  O  O127  1  0.86554000  0.09930000  0.60632000  1.0
  F  F128  1  0.48330000  0.16135000  0.02821000  1.0
  F  F129  1  0.98335000  0.33868000  0.47177000  1.0
  F  F130  1  0.51672000  0.83864000  0.97181000  1.0
  F  F131  1  0.01675000  0.66139000  0.52822000  1.0
  F  F132  1  0.53801000  0.02079000  0.13152000  1.0
  F  F133  1  0.03807000  0.47922000  0.36845000  1.0
  F  F134  1  0.46207000  0.97919000  0.86847000  1.0
  F  F135  1  0.96206000  0.52082000  0.63152000  1.0
  F  F136  1  0.80225000  0.24140000  0.33211000  1.0
  F  F137  1  0.30227000  0.25855000  0.16785000  1.0
  F  F138  1  0.19778000  0.75859000  0.66790000  1.0
  F  F139  1  0.69773000  0.74140000  0.83209000  1.0
  F  F140  1  0.73876000  0.38430000  0.23406000  1.0
  F  F141  1  0.23877000  0.11568000  0.26592000  1.0
  F  F142  1  0.26121000  0.61571000  0.76597000  1.0
  F  F143  1  0.76119000  0.88429000  0.73403000  1.0
  F  F144  1  0.91178000  0.60713000  0.91716000  1.0
  F  F145  1  0.41181000  0.89289000  0.58284000  1.0
  F  F146  1  0.08813000  0.39289000  0.08287000  1.0
  F  F147  1  0.58817000  0.10714000  0.41713000  1.0
  F  F148  1  0.13989000  0.66526000  0.97027000  1.0
  F  F149  1  0.63992000  0.83478000  0.52973000  1.0
  F  F150  1  0.86004000  0.33476000  0.02972000  1.0
  F  F151  1  0.36006000  0.16528000  0.47028000  1.0
  F  F152  1  0.04211000  0.65816000  0.29473000  1.0
  F  F153  1  0.54212000  0.84182000  0.20526000  1.0
  F  F154  1  0.95791000  0.34188000  0.70528000  1.0
  F  F155  1  0.45790000  0.15818000  0.79472000  1.0
  F  F156  1  0.81050000  0.60034000  0.24403000  1.0
  F  F157  1  0.31051000  0.89965000  0.25597000  1.0
  F  F158  1  0.18950000  0.39971000  0.75602000  1.0
  F  F159  1  0.68950000  0.10036000  0.74399000  1.0
