# generated using pymatgen
data_DyH8C8NO9
_symmetry_space_group_name_H-M   'P 1'
_cell_length_a   9.44996000
_cell_length_b   9.94494000
_cell_length_c   14.19000000
_cell_angle_alpha   90.00000000
_cell_angle_beta   90.00000000
_cell_angle_gamma   92.94210000
_symmetry_Int_Tables_number   1
_chemical_formula_structural   DyH8C8NO9
_chemical_formula_sum   'Dy4 H32 C32 N4 O36'
_cell_volume   1331.80830056
_cell_formula_units_Z   4
loop_
 _symmetry_equiv_pos_site_id
 _symmetry_equiv_pos_as_xyz
  1  'x, y, z'
loop_
 _atom_site_type_symbol
 _atom_site_label
 _atom_site_symmetry_multiplicity
 _atom_site_fract_x
 _atom_site_fract_y
 _atom_site_fract_z
 _atom_site_occupancy
  Dy  Dy0  1  0.38252000  0.41596000  0.85613000  1.0
  Dy  Dy1  1  0.61748000  0.08403000  0.35613000  1.0
  Dy  Dy2  1  0.61749000  0.58404000  0.14387000  1.0
  Dy  Dy3  1  0.38252000  0.91597000  0.64387000  1.0
  H  H4  1  0.57940000  0.18964000  0.90570000  1.0
  H  H5  1  0.42060000  0.31035000  0.40570000  1.0
  H  H6  1  0.42059000  0.81036000  0.09430000  1.0
  H  H7  1  0.57940000  0.68964000  0.59430000  1.0
  H  H8  1  0.55952000  0.27136000  0.00120000  1.0
  H  H9  1  0.44048000  0.22864000  0.50120000  1.0
  H  H10  1  0.44048000  0.72865000  0.99880000  1.0
  H  H11  1  0.55952000  0.77136000  0.49880000  1.0
  H  H12  1  0.46013000  0.23969000  0.68841000  1.0
  H  H13  1  0.53987000  0.26031000  0.18841000  1.0
  H  H14  1  0.53987000  0.76031000  0.31159000  1.0
  H  H15  1  0.46013000  0.73969000  0.81159000  1.0
  H  H16  1  0.58192000  0.34960000  0.71440000  1.0
  H  H17  1  0.41808000  0.15039000  0.21440000  1.0
  H  H18  1  0.41808000  0.65039000  0.28560000  1.0
  H  H19  1  0.58192000  0.84961000  0.78560000  1.0
  H  H20  1  0.28963000  0.58829000  0.69514000  1.0
  H  H21  1  0.71037000  0.91171000  0.19514000  1.0
  H  H22  1  0.71037000  0.41171000  0.30486000  1.0
  H  H23  1  0.28963000  0.08829000  0.80486000  1.0
  H  H24  1  0.29387000  0.43785000  0.65731000  1.0
  H  H25  1  0.70614000  0.06215000  0.15732000  1.0
  H  H26  1  0.70614000  0.56214000  0.34268000  1.0
  H  H27  1  0.29386000  0.93786000  0.84268000  1.0
  H  H28  1  0.93420000  0.72918000  0.92626000  1.0
  H  H29  1  0.06581000  0.77082000  0.42625000  1.0
  H  H30  1  0.06581000  0.27082000  0.07375000  1.0
  H  H31  1  0.93419000  0.22918000  0.57375000  1.0
  H  H32  1  0.81389000  0.31851000  0.84298000  1.0
  H  H33  1  0.18612000  0.18149000  0.34297000  1.0
  H  H34  1  0.18612000  0.68149000  0.15703000  1.0
  H  H35  1  0.81388000  0.81851000  0.65703000  1.0
  C  C36  1  0.09987000  0.59713000  0.89025000  1.0
  C  C37  1  0.90014000  0.90287000  0.39024000  1.0
  C  C38  1  0.90014000  0.40287000  0.10976000  1.0
  C  C39  1  0.09986000  0.09713000  0.60976000  1.0
  C  C40  1  0.95897000  0.62806000  0.90424000  1.0
  C  C41  1  0.04104000  0.87194000  0.40424000  1.0
  C  C42  1  0.04104000  0.37194000  0.09576000  1.0
  C  C43  1  0.95896000  0.12806000  0.59576000  1.0
  C  C44  1  0.85352000  0.52686000  0.88755000  1.0
  C  C45  1  0.14649000  0.97314000  0.38754000  1.0
  C  C46  1  0.14649000  0.47314000  0.11246000  1.0
  C  C47  1  0.85351000  0.02686000  0.61246000  1.0
  C  C48  1  0.89230000  0.39976000  0.85796000  1.0
  C  C49  1  0.10770000  0.10024000  0.35796000  1.0
  C  C50  1  0.10770000  0.60024000  0.14204000  1.0
  C  C51  1  0.89229000  0.89976000  0.64205000  1.0
  C  C52  1  0.03554000  0.37544000  0.85114000  1.0
  C  C53  1  0.96446000  0.12456000  0.35113000  1.0
  C  C54  1  0.96446000  0.62457000  0.14887000  1.0
  C  C55  1  0.03553000  0.87544000  0.64886000  1.0
  C  C56  1  0.22324000  0.69899000  0.89864000  1.0
  C  C57  1  0.77677000  0.80102000  0.39863000  1.0
  C  C58  1  0.77677000  0.30102000  0.10137000  1.0
  C  C59  1  0.22323000  0.19898000  0.60136000  1.0
  C  C60  1  0.69882000  0.54548000  0.90409000  1.0
  C  C61  1  0.30118000  0.95451000  0.40408000  1.0
  C  C62  1  0.30118000  0.45451000  0.09592000  1.0
  C  C63  1  0.69881000  0.04548000  0.59592000  1.0
  C  C64  1  0.08831000  0.23843000  0.82746000  1.0
  C  C65  1  0.91169000  0.26156000  0.32746000  1.0
  C  C66  1  0.91169000  0.76156000  0.17254000  1.0
  C  C67  1  0.08831000  0.73844000  0.67254000  1.0
  N  N68  1  0.13574000  0.47283000  0.86685000  1.0
  N  N69  1  0.86426000  0.02717000  0.36685000  1.0
  N  N70  1  0.86426000  0.52717000  0.13316000  1.0
  N  N71  1  0.13573000  0.97283000  0.63316000  1.0
  O  O72  1  0.34895000  0.64997000  0.89053000  1.0
  O  O73  1  0.65106000  0.85003000  0.39053000  1.0
  O  O74  1  0.65106000  0.35003000  0.10947000  1.0
  O  O75  1  0.34894000  0.14997000  0.60947000  1.0
  O  O76  1  0.20165000  0.81985000  0.91195000  1.0
  O  O77  1  0.79835000  0.68014000  0.41195000  1.0
  O  O78  1  0.79835000  0.18015000  0.08805000  1.0
  O  O79  1  0.20165000  0.31985000  0.58804000  1.0
  O  O80  1  0.66166000  0.58996000  0.98355000  1.0
  O  O81  1  0.33835000  0.91006000  0.48354000  1.0
  O  O82  1  0.33835000  0.41006000  0.01646000  1.0
  O  O83  1  0.66164000  0.08994000  0.51646000  1.0
  O  O84  1  0.61424000  0.50891000  0.83850000  1.0
  O  O85  1  0.38577000  0.99107000  0.33849000  1.0
  O  O86  1  0.38576000  0.49108000  0.16151000  1.0
  O  O87  1  0.61423000  0.00893000  0.66151000  1.0
  O  O88  1  0.00402000  0.14148000  0.81450000  1.0
  O  O89  1  0.99598000  0.35852000  0.31450000  1.0
  O  O90  1  0.99598000  0.85852000  0.18550000  1.0
  O  O91  1  0.00402000  0.64148000  0.68551000  1.0
  O  O92  1  0.22734000  0.23679000  0.82307000  1.0
  O  O93  1  0.77266000  0.26321000  0.32307000  1.0
  O  O94  1  0.77266000  0.76321000  0.17693000  1.0
  O  O95  1  0.22733000  0.73679000  0.67693000  1.0
  O  O96  1  0.51988000  0.25178000  0.93797000  1.0
  O  O97  1  0.48011000  0.24821000  0.43796000  1.0
  O  O98  1  0.48012000  0.74822000  0.06204000  1.0
  O  O99  1  0.51988000  0.75179000  0.56204000  1.0
  O  O100  1  0.51157000  0.28596000  0.74157000  1.0
  O  O101  1  0.48842000  0.21404000  0.24157000  1.0
  O  O102  1  0.48843000  0.71404000  0.25843000  1.0
  O  O103  1  0.51157000  0.78596000  0.75843000  1.0
  O  O104  1  0.33690000  0.50079000  0.70523000  1.0
  O  O105  1  0.66310000  0.99921000  0.20523000  1.0
  O  O106  1  0.66310000  0.49921000  0.29477000  1.0
  O  O107  1  0.33690000  0.00079000  0.79477000  1.0
