# generated using pymatgen
data_CuP2H16C18(NO5)2
_symmetry_space_group_name_H-M   'P 1'
_cell_length_a   6.50815000
_cell_length_b   10.37140000
_cell_length_c   15.57950000
_cell_angle_alpha   107.58400000
_cell_angle_beta   89.99800000
_cell_angle_gamma   89.99880000
_symmetry_Int_Tables_number   1
_chemical_formula_structural   CuP2H16C18(NO5)2
_chemical_formula_sum   'Cu2 P4 H32 C36 N4 O20'
_cell_volume   1002.45915880
_cell_formula_units_Z   2
loop_
 _symmetry_equiv_pos_site_id
 _symmetry_equiv_pos_as_xyz
  1  'x, y, z'
loop_
 _atom_site_type_symbol
 _atom_site_label
 _atom_site_symmetry_multiplicity
 _atom_site_fract_x
 _atom_site_fract_y
 _atom_site_fract_z
 _atom_site_occupancy
  Cu  Cu0  1  0.50000000  0.00000000  0.00000000  1.0
  Cu  Cu1  1  0.00000000  0.00000000  0.50000000  1.0
  P  P2  1  0.32360000  0.63767000  0.85653000  1.0
  P  P3  1  0.82362000  0.36230000  0.64345000  1.0
  P  P4  1  0.67640000  0.36233000  0.14347000  1.0
  P  P5  1  0.17638000  0.63770000  0.35654000  1.0
  H  H6  1  0.13810000  0.57934000  0.00870000  1.0
  H  H7  1  0.63806000  0.42069000  0.49133000  1.0
  H  H8  1  0.86192000  0.42066000  0.99130000  1.0
  H  H9  1  0.36193000  0.57931000  0.50867000  1.0
  H  H10  1  0.73456000  0.52996000  0.88093000  1.0
  H  H11  1  0.23454000  0.47002000  0.61905000  1.0
  H  H12  1  0.26546000  0.47005000  0.11907000  1.0
  H  H13  1  0.76545000  0.52999000  0.38095000  1.0
  H  H14  1  0.22848000  0.97898000  0.15554000  1.0
  H  H15  1  0.72850000  0.02102000  0.34446000  1.0
  H  H16  1  0.77153000  0.02103000  0.84445000  1.0
  H  H17  1  0.27149000  0.97898000  0.65554000  1.0
  H  H18  1  0.27650000  0.86346000  0.27580000  1.0
  H  H19  1  0.77650000  0.13658000  0.22422000  1.0
  H  H20  1  0.72351000  0.13655000  0.72421000  1.0
  H  H21  1  0.22349000  0.86342000  0.77578000  1.0
  H  H22  1  0.60158000  0.73618000  0.27732000  1.0
  H  H23  1  0.10158000  0.26387000  0.22272000  1.0
  H  H24  1  0.39843000  0.26383000  0.72269000  1.0
  H  H25  1  0.89841000  0.73613000  0.77728000  1.0
  H  H26  1  0.87094000  0.72907000  0.15912000  1.0
  H  H27  1  0.37094000  0.27093000  0.34089000  1.0
  H  H28  1  0.12907000  0.27093000  0.84088000  1.0
  H  H29  1  0.62904000  0.72907000  0.65912000  1.0
  H  H30  1  0.15528000  0.80096000  0.95442000  1.0
  H  H31  1  0.65528000  0.19900000  0.54556000  1.0
  H  H32  1  0.84472000  0.19903000  0.04557000  1.0
  H  H33  1  0.34472000  0.80099000  0.45444000  1.0
  H  H34  1  0.55598000  0.55742000  0.74602000  1.0
  H  H35  1  0.05597000  0.44253000  0.75396000  1.0
  H  H36  1  0.44402000  0.44257000  0.25398000  1.0
  H  H37  1  0.94403000  0.55747000  0.24604000  1.0
  C  C38  1  0.29633000  0.54367000  0.00455000  1.0
  C  C39  1  0.79630000  0.45636000  0.49547000  1.0
  C  C40  1  0.70368000  0.45634000  0.99545000  1.0
  C  C41  1  0.20369000  0.54365000  0.50453000  1.0
  C  C42  1  0.42672000  0.56095000  0.93696000  1.0
  C  C43  1  0.92672000  0.43906000  0.56304000  1.0
  C  C44  1  0.57329000  0.43906000  0.06304000  1.0
  C  C45  1  0.07327000  0.56094000  0.43696000  1.0
  C  C46  1  0.63136000  0.51699000  0.93283000  1.0
  C  C47  1  0.13136000  0.48300000  0.56716000  1.0
  C  C48  1  0.36865000  0.48301000  0.06717000  1.0
  C  C49  1  0.86863000  0.51700000  0.43284000  1.0
  C  C50  1  0.36711000  0.92285000  0.16005000  1.0
  C  C51  1  0.86713000  0.07714000  0.33995000  1.0
  C  C52  1  0.63290000  0.07716000  0.83995000  1.0
  C  C53  1  0.13286000  0.92285000  0.66005000  1.0
  C  C54  1  0.39556000  0.85849000  0.22586000  1.0
  C  C55  1  0.89557000  0.14152000  0.27415000  1.0
  C  C56  1  0.60444000  0.14152000  0.77414000  1.0
  C  C57  1  0.10443000  0.85847000  0.72584000  1.0
  C  C58  1  0.57715000  0.78731000  0.22654000  1.0
  C  C59  1  0.07715000  0.21271000  0.27349000  1.0
  C  C60  1  0.42286000  0.21270000  0.77347000  1.0
  C  C61  1  0.92284000  0.78728000  0.72651000  1.0
  C  C62  1  0.72635000  0.78263000  0.16123000  1.0
  C  C63  1  0.22635000  0.21737000  0.33878000  1.0
  C  C64  1  0.27365000  0.21737000  0.83877000  1.0
  C  C65  1  0.77364000  0.78262000  0.66122000  1.0
  C  C66  1  0.68753000  0.84925000  0.09782000  1.0
  C  C67  1  0.18757000  0.15073000  0.40219000  1.0
  C  C68  1  0.31247000  0.15075000  0.90218000  1.0
  C  C69  1  0.81242000  0.84927000  0.59781000  1.0
  C  C70  1  0.83410000  0.85261000  0.02429000  1.0
  C  C71  1  0.33414000  0.14737000  0.47570000  1.0
  C  C72  1  0.16589000  0.14739000  0.97571000  1.0
  C  C73  1  0.66585000  0.85262000  0.52430000  1.0
  N  N74  1  0.51107000  0.91777000  0.09772000  1.0
  N  N75  1  0.01110000  0.08222000  0.40228000  1.0
  N  N76  1  0.48893000  0.08224000  0.90228000  1.0
  N  N77  1  0.98888000  0.91777000  0.59772000  1.0
  O  O78  1  0.27749000  0.79083000  0.90765000  1.0
  O  O79  1  0.77753000  0.20914000  0.59231000  1.0
  O  O80  1  0.72251000  0.20917000  0.09235000  1.0
  O  O81  1  0.22247000  0.79085000  0.40768000  1.0
  O  O82  1  0.49753000  0.64810000  0.79002000  1.0
  O  O83  1  0.99754000  0.35185000  0.70996000  1.0
  O  O84  1  0.50247000  0.35189000  0.20997000  1.0
  O  O85  1  0.00247000  0.64815000  0.29004000  1.0
  O  O86  1  0.13065000  0.56425000  0.81538000  1.0
  O  O87  1  0.63064000  0.43569000  0.68461000  1.0
  O  O88  1  0.86936000  0.43574000  0.18462000  1.0
  O  O89  1  0.36936000  0.56431000  0.31539000  1.0
  O  O90  1  0.77153000  0.91116000  0.96743000  1.0
  O  O91  1  0.27157000  0.08883000  0.53257000  1.0
  O  O92  1  0.22848000  0.08884000  0.03257000  1.0
  O  O93  1  0.72843000  0.91117000  0.46743000  1.0
  O  O94  1  0.00809000  0.79876000  0.02287000  1.0
  O  O95  1  0.50812000  0.20120000  0.47711000  1.0
  O  O96  1  0.99192000  0.20123000  0.97712000  1.0
  O  O97  1  0.49187000  0.79880000  0.52289000  1.0
