# generated using pymatgen
data_NaH12C5N7O4
_symmetry_space_group_name_H-M   'P 1'
_cell_length_a   6.92519000
_cell_length_b   9.36587000
_cell_length_c   9.52339000
_cell_angle_alpha   106.98800000
_cell_angle_beta   92.10880000
_cell_angle_gamma   107.47400000
_symmetry_Int_Tables_number   1
_chemical_formula_structural   NaH12C5N7O4
_chemical_formula_sum   'Na2 H24 C10 N14 O8'
_cell_volume   558.20331960
_cell_formula_units_Z   2
loop_
 _symmetry_equiv_pos_site_id
 _symmetry_equiv_pos_as_xyz
  1  'x, y, z'
loop_
 _atom_site_type_symbol
 _atom_site_label
 _atom_site_symmetry_multiplicity
 _atom_site_fract_x
 _atom_site_fract_y
 _atom_site_fract_z
 _atom_site_occupancy
  Na  Na0  1  0.49998000  0.00000000  0.50000000  1.0
  Na  Na1  1  0.99999000  0.99999000  0.50000000  1.0
  H  H2  1  0.21863000  0.19743000  0.34031000  1.0
  H  H3  1  0.78135000  0.80256000  0.65969000  1.0
  H  H4  1  0.16970000  0.32746000  0.46738000  1.0
  H  H5  1  0.83026000  0.67252000  0.53263000  1.0
  H  H6  1  0.32972000  0.73714000  0.58658000  1.0
  H  H7  1  0.67025000  0.26287000  0.41341000  1.0
  H  H8  1  0.50765000  0.70901000  0.49432000  1.0
  H  H9  1  0.49232000  0.29098000  0.50567000  1.0
  H  H10  1  0.22154000  0.77784000  0.35386000  1.0
  H  H11  1  0.77844000  0.22215000  0.64613000  1.0
  H  H12  1  0.20350000  0.85395000  0.22590000  1.0
  H  H13  1  0.79648000  0.14604000  0.77409000  1.0
  H  H14  1  0.29605000  0.48308000  0.00539000  1.0
  H  H15  1  0.70403000  0.51694000  0.99460000  1.0
  H  H16  1  0.13436000  0.59246000  0.08369000  1.0
  H  H17  1  0.86566000  0.40751000  0.91629000  1.0
  H  H18  1  0.40508000  0.68401000  0.11680000  1.0
  H  H19  1  0.59494000  0.31603000  0.88321000  1.0
  H  H20  1  0.23906000  0.41222000  0.77251000  1.0
  H  H21  1  0.76091000  0.58778000  0.22748000  1.0
  H  H22  1  0.41341000  0.56050000  0.71437000  1.0
  H  H23  1  0.58659000  0.43948000  0.28563000  1.0
  H  H24  1  0.14420000  0.51994000  0.67598000  1.0
  H  H25  1  0.85583000  0.48009000  0.32401000  1.0
  C  C26  1  0.26251000  0.78700000  0.90827000  1.0
  C  C27  1  0.73750000  0.21301000  0.09173000  1.0
  C  C28  1  0.24503000  0.02288000  0.04631000  1.0
  C  C29  1  0.75499000  0.97712000  0.95371000  1.0
  C  C30  1  0.26325000  0.96853000  0.78169000  1.0
  C  C31  1  0.73675000  0.03148000  0.21830000  1.0
  C  C32  1  0.27628000  0.59878000  0.03432000  1.0
  C  C33  1  0.72375000  0.40122000  0.96568000  1.0
  C  C34  1  0.26678000  0.52784000  0.75741000  1.0
  C  C35  1  0.73322000  0.47217000  0.24259000  1.0
  N  N36  1  0.24795000  0.06828000  0.92177000  1.0
  N  N37  1  0.75207000  0.93172000  0.07825000  1.0
  N  N38  1  0.26732000  0.82568000  0.78041000  1.0
  N  N39  1  0.73268000  0.17432000  0.21959000  1.0
  N  N40  1  0.25456000  0.88279000  0.04535000  1.0
  N  N41  1  0.74545000  0.11721000  0.95466000  1.0
  N  N42  1  0.22974000  0.14419000  0.15845000  1.0
  N  N43  1  0.77028000  0.85582000  0.84157000  1.0
  N  N44  1  0.23618000  0.21757000  0.95802000  1.0
  N  N45  1  0.76384000  0.78243000  0.04199000  1.0
  N  N46  1  0.26833000  0.64236000  0.89963000  1.0
  N  N47  1  0.73168000  0.35765000  0.10037000  1.0
  N  N48  1  0.22553000  0.25907000  0.09902000  1.0
  N  N49  1  0.77448000  0.74093000  0.90098000  1.0
  O  O50  1  0.21877000  0.23772000  0.45163000  1.0
  O  O51  1  0.78120000  0.76227000  0.54836000  1.0
  O  O52  1  0.18706000  0.86417000  0.33142000  1.0
  O  O53  1  0.81292000  0.13582000  0.66856000  1.0
  O  O54  1  0.36545000  0.71092000  0.48407000  1.0
  O  O55  1  0.63452000  0.28908000  0.51593000  1.0
  O  O56  1  0.27206000  0.01842000  0.67346000  1.0
  O  O57  1  0.72794000  0.98158000  0.32655000  1.0
