# generated using pymatgen
data_ZnH13PdC19N7O
_symmetry_space_group_name_H-M   'P 1'
_cell_length_a   9.73017000
_cell_length_b   9.73020000
_cell_length_c   11.54960000
_cell_angle_alpha   82.45010000
_cell_angle_beta   82.45000000
_cell_angle_gamma   71.99180000
_symmetry_Int_Tables_number   1
_chemical_formula_structural   ZnH13PdC19N7O
_chemical_formula_sum   'Zn2 H26 Pd2 C38 N14 O2'
_cell_volume   1026.10419428
_cell_formula_units_Z   2
loop_
 _symmetry_equiv_pos_site_id
 _symmetry_equiv_pos_as_xyz
  1  'x, y, z'
loop_
 _atom_site_type_symbol
 _atom_site_label
 _atom_site_symmetry_multiplicity
 _atom_site_fract_x
 _atom_site_fract_y
 _atom_site_fract_z
 _atom_site_occupancy
  Zn  Zn0  1  0.26452000  0.73548000  0.25000000  1.0
  Zn  Zn1  1  0.73548000  0.26452000  0.75000000  1.0
  H  H2  1  0.43705000  0.45820000  0.27262000  1.0
  H  H3  1  0.54180000  0.56295000  0.22738000  1.0
  H  H4  1  0.56295000  0.54180000  0.72738000  1.0
  H  H5  1  0.45820000  0.43705000  0.77262000  1.0
  H  H6  1  0.48601000  0.71691000  0.01744000  1.0
  H  H7  1  0.28308000  0.51399000  0.48256000  1.0
  H  H8  1  0.51399000  0.28309000  0.98256000  1.0
  H  H9  1  0.71691000  0.48601000  0.51744000  1.0
  H  H10  1  0.52298000  0.88278000  0.83830000  1.0
  H  H11  1  0.11722000  0.47702000  0.66170000  1.0
  H  H12  1  0.47702000  0.11722000  0.16170000  1.0
  H  H13  1  0.88278000  0.52298000  0.33830000  1.0
  H  H14  1  0.33929000  0.12919000  0.81083000  1.0
  H  H15  1  0.87081000  0.66071000  0.68917000  1.0
  H  H16  1  0.66071000  0.87081000  0.18917000  1.0
  H  H17  1  0.12919000  0.33929000  0.31083000  1.0
  H  H18  1  0.12403000  0.19465000  0.95719000  1.0
  H  H19  1  0.80535000  0.87597000  0.54281000  1.0
  H  H20  1  0.87597000  0.80535000  0.04281000  1.0
  H  H21  1  0.19465000  0.12403000  0.45719000  1.0
  H  H22  1  0.93677000  0.22950000  0.08259000  1.0
  H  H23  1  0.77050000  0.06323000  0.41742000  1.0
  H  H24  1  0.06323000  0.77050000  0.91742000  1.0
  H  H25  1  0.22950000  0.93677000  0.58259000  1.0
  H  H26  1  0.74513000  0.25487000  0.25000000  1.0
  H  H27  1  0.25487000  0.74513000  0.75000000  1.0
  Pd  Pd28  1  0.00000000  0.50000000  0.00000000  1.0
  Pd  Pd29  1  0.50000000  0.00000000  0.50000000  1.0
  C  C30  1  0.09480000  0.56961000  0.11182000  1.0
  C  C31  1  0.43039000  0.90520000  0.38818000  1.0
  C  C32  1  0.90520000  0.43039000  0.88818000  1.0
  C  C33  1  0.56961000  0.09480000  0.61182000  1.0
  C  C34  1  0.81705000  0.54172000  0.10495000  1.0
  C  C35  1  0.45828000  0.18295000  0.39505000  1.0
  C  C36  1  0.18295000  0.45828000  0.89506000  1.0
  C  C37  1  0.54172000  0.81705000  0.60495000  1.0
  C  C38  1  0.40803000  0.82364000  0.00032000  1.0
  C  C39  1  0.17636000  0.59198000  0.49968000  1.0
  C  C40  1  0.59197000  0.17636000  0.99968000  1.0
  C  C41  1  0.82364000  0.40802000  0.50032000  1.0
  C  C42  1  0.42854000  0.91669000  0.90134000  1.0
  C  C43  1  0.08331000  0.57146000  0.59866000  1.0
  C  C44  1  0.57146000  0.08331000  0.09866000  1.0
  C  C45  1  0.91669000  0.42854000  0.40134000  1.0
  C  C46  1  0.32559000  0.05216000  0.88565000  1.0
  C  C47  1  0.94784000  0.67441000  0.61435000  1.0
  C  C48  1  0.67441000  0.94784000  0.11435000  1.0
  C  C49  1  0.05216000  0.32559000  0.38565000  1.0
  C  C50  1  0.20539000  0.08928000  0.96819000  1.0
  C  C51  1  0.91072000  0.79461000  0.53181000  1.0
  C  C52  1  0.79461000  0.91072000  0.03181000  1.0
  C  C53  1  0.08928000  0.20539000  0.46819000  1.0
  C  C54  1  0.19223000  0.99058000  0.06539000  1.0
  C  C55  1  0.00942000  0.80777000  0.43461000  1.0
  C  C56  1  0.80777000  0.00942000  0.93461000  1.0
  C  C57  1  0.99058000  0.19223000  0.56539000  1.0
  C  C58  1  0.06905000  0.02179000  0.15875000  1.0
  C  C59  1  0.97821000  0.93095000  0.34125000  1.0
  C  C60  1  0.93095000  0.97821000  0.84125000  1.0
  C  C61  1  0.02179000  0.06905000  0.65875000  1.0
  C  C62  1  0.94793000  0.14562000  0.15599000  1.0
  C  C63  1  0.85438000  0.05207000  0.34401000  1.0
  C  C64  1  0.05207000  0.85438000  0.84402000  1.0
  C  C65  1  0.14562000  0.94793000  0.65599000  1.0
  C  C66  1  0.84036000  0.15964000  0.25000000  1.0
  C  C67  1  0.15964000  0.84036000  0.75000000  1.0
  N  N68  1  0.15068000  0.61494000  0.17540000  1.0
  N  N69  1  0.38506000  0.84932000  0.32460000  1.0
  N  N70  1  0.84932000  0.38506000  0.82460000  1.0
  N  N71  1  0.61494000  0.15068000  0.67540000  1.0
  N  N72  1  0.70966000  0.56597000  0.16800000  1.0
  N  N73  1  0.43403000  0.29034000  0.33200000  1.0
  N  N74  1  0.29034000  0.43403000  0.83200000  1.0
  N  N75  1  0.56597000  0.70966000  0.66800000  1.0
  N  N76  1  0.29368000  0.85998000  0.08050000  1.0
  N  N77  1  0.14002000  0.70632000  0.41950000  1.0
  N  N78  1  0.70632000  0.14002000  0.91950000  1.0
  N  N79  1  0.85998000  0.29368000  0.58050000  1.0
  N  N80  1  0.07998000  0.92002000  0.25000000  1.0
  N  N81  1  0.92002000  0.07998000  0.75000000  1.0
  O  O82  1  0.43996000  0.56004000  0.25000000  1.0
  O  O83  1  0.56004000  0.43996000  0.75000000  1.0
