# generated using pymatgen
data_Mn2MoH4C8(N4O)2
_symmetry_space_group_name_H-M   'P 1'
_cell_length_a   12.76190000
_cell_length_b   13.32950000
_cell_length_c   13.62740000
_cell_angle_alpha   114.92300000
_cell_angle_beta   112.86100000
_cell_angle_gamma   97.44430000
_symmetry_Int_Tables_number   1
_chemical_formula_structural   Mn2MoH4C8(N4O)2
_chemical_formula_sum   'Mn8 Mo4 H16 C32 N32 O8'
_cell_volume   1813.92222066
_cell_formula_units_Z   4
loop_
 _symmetry_equiv_pos_site_id
 _symmetry_equiv_pos_as_xyz
  1  'x, y, z'
loop_
 _atom_site_type_symbol
 _atom_site_label
 _atom_site_symmetry_multiplicity
 _atom_site_fract_x
 _atom_site_fract_y
 _atom_site_fract_z
 _atom_site_occupancy
  Mn  Mn0  1  0.49879000  0.74773000  0.89145000  1.0
  Mn  Mn1  1  0.87907000  0.45639000  0.64774000  1.0
  Mn  Mn2  1  0.12096000  0.54363000  0.35226000  1.0
  Mn  Mn3  1  0.50123000  0.25230000  0.10854000  1.0
  Mn  Mn4  1  0.92243000  0.17163000  0.91189000  1.0
  Mn  Mn5  1  0.27213000  0.19523000  0.64855000  1.0
  Mn  Mn6  1  0.72788000  0.80477000  0.35143000  1.0
  Mn  Mn7  1  0.07756000  0.82838000  0.08811000  1.0
  Mo  Mo8  1  0.11337000  0.86959000  0.73289000  1.0
  Mo  Mo9  1  0.71940000  0.46380000  0.94496000  1.0
  Mo  Mo10  1  0.88664000  0.13044000  0.26712000  1.0
  Mo  Mo11  1  0.28058000  0.53619000  0.05499000  1.0
  H  H12  1  0.26145000  0.06329000  0.25511000  1.0
  H  H13  1  0.73859000  0.93675000  0.74511000  1.0
  H  H14  1  0.42706000  0.31008000  0.29851000  1.0
  H  H15  1  0.63501000  0.37808000  0.42520000  1.0
  H  H16  1  0.22196000  0.97202000  0.43076000  1.0
  H  H17  1  0.64770000  0.00304000  0.73476000  1.0
  H  H18  1  0.44573000  0.19807000  0.30340000  1.0
  H  H19  1  0.35221000  0.99686000  0.26535000  1.0
  H  H20  1  0.73201000  0.47788000  0.44125000  1.0
  H  H21  1  0.26800000  0.52220000  0.55876000  1.0
  H  H22  1  0.31775000  0.06308000  0.43587000  1.0
  H  H23  1  0.57294000  0.68982000  0.70152000  1.0
  H  H24  1  0.55441000  0.80187000  0.69665000  1.0
  H  H25  1  0.68219000  0.93674000  0.56413000  1.0
  H  H26  1  0.36503000  0.62195000  0.57476000  1.0
  H  H27  1  0.77805000  0.02784000  0.56938000  1.0
  C  C28  1  0.74598000  0.43893000  0.79338000  1.0
  C  C29  1  0.00900000  0.97287000  0.78140000  1.0
  C  C30  1  0.88817000  0.13454000  0.11360000  1.0
  C  C31  1  0.13759000  0.39009000  0.99976000  1.0
  C  C32  1  0.86239000  0.60991000  0.00018000  1.0
  C  C33  1  0.12449000  0.51537000  0.89840000  1.0
  C  C34  1  0.24445000  0.69561000  0.12229000  1.0
  C  C35  1  0.83720000  0.01489000  0.32424000  1.0
  C  C36  1  0.71879000  0.60062000  0.10204000  1.0
  C  C37  1  0.01306000  0.69682000  0.67725000  1.0
  C  C38  1  0.98695000  0.30321000  0.32276000  1.0
  C  C39  1  0.26224000  0.02599000  0.89045000  1.0
  C  C40  1  0.73777000  0.97403000  0.10957000  1.0
  C  C41  1  0.54658000  0.34326000  0.79313000  1.0
  C  C42  1  0.26836000  0.81892000  0.78696000  1.0
  C  C43  1  0.05580000  0.18352000  0.42484000  1.0
  C  C44  1  0.12665000  0.76197000  0.57363000  1.0
  C  C45  1  0.62897000  0.37262000  0.00255000  1.0
  C  C46  1  0.87549000  0.48463000  0.10157000  1.0
  C  C47  1  0.38046000  0.44066000  0.11980000  1.0
  C  C48  1  0.11189000  0.86549000  0.88643000  1.0
  C  C49  1  0.99098000  0.02712000  0.21862000  1.0
  C  C50  1  0.87335000  0.23803000  0.42638000  1.0
  C  C51  1  0.75553000  0.30437000  0.87766000  1.0
  C  C52  1  0.25400000  0.56110000  0.20656000  1.0
  C  C53  1  0.28121000  0.39939000  0.89792000  1.0
  C  C54  1  0.16276000  0.98516000  0.67579000  1.0
  C  C55  1  0.73167000  0.18114000  0.21305000  1.0
  C  C56  1  0.61952000  0.55935000  0.88016000  1.0
  C  C57  1  0.94422000  0.81649000  0.57516000  1.0
  C  C58  1  0.45341000  0.65674000  0.20676000  1.0
  C  C59  1  0.37097000  0.62736000  0.99737000  1.0
  N  N60  1  0.95749000  0.60304000  0.64955000  1.0
  N  N61  1  0.34719000  0.10840000  0.97609000  1.0
  N  N62  1  0.85249000  0.78762000  0.48654000  1.0
  N  N63  1  0.06190000  0.30818000  0.97280000  1.0
  N  N64  1  0.22447000  0.78435000  0.15839000  1.0
  N  N65  1  0.64641000  0.20946000  0.18596000  1.0
  N  N66  1  0.93807000  0.69184000  0.02714000  1.0
  N  N67  1  0.77553000  0.21564000  0.84159000  1.0
  N  N68  1  0.80651000  0.94800000  0.35084000  1.0
  N  N69  1  0.23518000  0.56886000  0.28664000  1.0
  N  N70  1  0.45018000  0.27551000  0.71089000  1.0
  N  N71  1  0.12817000  0.69767000  0.48395000  1.0
  N  N72  1  0.43234000  0.38583000  0.15536000  1.0
  N  N73  1  0.04252000  0.39698000  0.35043000  1.0
  N  N74  1  0.54981000  0.72448000  0.28899000  1.0
  N  N75  1  0.10606000  0.86220000  0.96882000  1.0
  N  N76  1  0.65282000  0.89161000  0.02393000  1.0
  N  N77  1  0.72345000  0.67626000  0.19018000  1.0
  N  N78  1  0.19344000  0.05207000  0.64921000  1.0
  N  N79  1  0.27660000  0.32377000  0.80980000  1.0
  N  N80  1  0.42163000  0.68087000  0.96947000  1.0
  N  N81  1  0.05190000  0.97243000  0.19438000  1.0
  N  N82  1  0.94806000  0.02754000  0.80563000  1.0
  N  N83  1  0.76480000  0.43117000  0.71331000  1.0
  N  N84  1  0.14753000  0.21240000  0.51346000  1.0
  N  N85  1  0.57830000  0.31910000  0.03043000  1.0
  N  N86  1  0.56765000  0.61417000  0.84460000  1.0
  N  N87  1  0.35364000  0.79062000  0.81405000  1.0
  N  N88  1  0.96166000  0.50102000  0.18874000  1.0
  N  N89  1  0.87180000  0.30234000  0.51604000  1.0
  N  N90  1  0.89400000  0.13782000  0.03120000  1.0
  N  N91  1  0.03833000  0.49899000  0.81124000  1.0
  O  O92  1  0.48173000  0.26531000  0.29897000  1.0
  O  O93  1  0.34622000  0.07477000  0.30584000  1.0
  O  O94  1  0.29182000  0.04514000  0.48770000  1.0
  O  O95  1  0.29067000  0.55105000  0.51248000  1.0
  O  O96  1  0.70813000  0.95477000  0.51236000  1.0
  O  O97  1  0.65379000  0.92518000  0.69433000  1.0
  O  O98  1  0.70933000  0.44902000  0.48751000  1.0
  O  O99  1  0.51833000  0.73465000  0.70106000  1.0
