# generated using pymatgen
data_SnH3C7NO5
_symmetry_space_group_name_H-M   'P 1'
_cell_length_a   5.41200000
_cell_length_b   8.10775000
_cell_length_c   17.87840000
_cell_angle_alpha   89.99940000
_cell_angle_beta   89.99930000
_cell_angle_gamma   89.99990000
_symmetry_Int_Tables_number   1
_chemical_formula_structural   SnH3C7NO5
_chemical_formula_sum   'Sn4 H12 C28 N4 O20'
_cell_volume   784.48887011
_cell_formula_units_Z   4
loop_
 _symmetry_equiv_pos_site_id
 _symmetry_equiv_pos_as_xyz
  1  'x, y, z'
loop_
 _atom_site_type_symbol
 _atom_site_label
 _atom_site_symmetry_multiplicity
 _atom_site_fract_x
 _atom_site_fract_y
 _atom_site_fract_z
 _atom_site_occupancy
  Sn  Sn0  1  0.16895000  0.92299000  0.67868000  1.0
  Sn  Sn1  1  0.66891000  0.07702000  0.32131000  1.0
  Sn  Sn2  1  0.66897000  0.42298000  0.82132000  1.0
  Sn  Sn3  1  0.16893000  0.57703000  0.17869000  1.0
  H  H4  1  0.84171000  0.27336000  0.53221000  1.0
  H  H5  1  0.34171000  0.72664000  0.46779000  1.0
  H  H6  1  0.34172000  0.77337000  0.96779000  1.0
  H  H7  1  0.84171000  0.22664000  0.03221000  1.0
  H  H8  1  0.63023000  0.68458000  0.57802000  1.0
  H  H9  1  0.13023000  0.31543000  0.42197000  1.0
  H  H10  1  0.13022000  0.18457000  0.92197000  1.0
  H  H11  1  0.63022000  0.81543000  0.07803000  1.0
  H  H12  1  0.29497000  0.57164000  0.64788000  1.0
  H  H13  1  0.79497000  0.42836000  0.35211000  1.0
  H  H14  1  0.79497000  0.07162000  0.85211000  1.0
  H  H15  1  0.29496000  0.92836000  0.14789000  1.0
  C  C16  1  0.58402000  0.44561000  0.58376000  1.0
  C  C17  1  0.08401000  0.55440000  0.41623000  1.0
  C  C18  1  0.08402000  0.94560000  0.91624000  1.0
  C  C19  1  0.58401000  0.05440000  0.08376000  1.0
  C  C20  1  0.65553000  0.97953000  0.58047000  1.0
  C  C21  1  0.15551000  0.02046000  0.41952000  1.0
  C  C22  1  0.15555000  0.47953000  0.91953000  1.0
  C  C23  1  0.65553000  0.52047000  0.08048000  1.0
  C  C24  1  0.55463000  0.14997000  0.59292000  1.0
  C  C25  1  0.05462000  0.85003000  0.40708000  1.0
  C  C26  1  0.05464000  0.64997000  0.90709000  1.0
  C  C27  1  0.55463000  0.35004000  0.09292000  1.0
  C  C28  1  0.67574000  0.28816000  0.56587000  1.0
  C  C29  1  0.17573000  0.71184000  0.43412000  1.0
  C  C30  1  0.17575000  0.78816000  0.93413000  1.0
  C  C31  1  0.67573000  0.21184000  0.06588000  1.0
  C  C32  1  0.37208000  0.45472000  0.62968000  1.0
  C  C33  1  0.87207000  0.54528000  0.37032000  1.0
  C  C34  1  0.87208000  0.95471000  0.87032000  1.0
  C  C35  1  0.37206000  0.04528000  0.12968000  1.0
  C  C36  1  0.05307000  0.30895000  0.70924000  1.0
  C  C37  1  0.55306000  0.69105000  0.29075000  1.0
  C  C38  1  0.55308000  0.80894000  0.79076000  1.0
  C  C39  1  0.05305000  0.19105000  0.20924000  1.0
  C  C40  1  0.26466000  0.31020000  0.65489000  1.0
  C  C41  1  0.76466000  0.68980000  0.34510000  1.0
  C  C42  1  0.76467000  0.81019000  0.84511000  1.0
  C  C43  1  0.26466000  0.18981000  0.15490000  1.0
  N  N44  1  0.35155000  0.16011000  0.63592000  1.0
  N  N45  1  0.85154000  0.83989000  0.36408000  1.0
  N  N46  1  0.85157000  0.66010000  0.86408000  1.0
  N  N47  1  0.35154000  0.33990000  0.13592000  1.0
  O  O48  1  0.51521000  0.85842000  0.60244000  1.0
  O  O49  1  0.01520000  0.14158000  0.39756000  1.0
  O  O50  1  0.01524000  0.35842000  0.89756000  1.0
  O  O51  1  0.51521000  0.64158000  0.10244000  1.0
  O  O52  1  0.86862000  0.96302000  0.55497000  1.0
  O  O53  1  0.36860000  0.03698000  0.44502000  1.0
  O  O54  1  0.36864000  0.46302000  0.94503000  1.0
  O  O55  1  0.86863000  0.53698000  0.05498000  1.0
  O  O56  1  0.70362000  0.57724000  0.55837000  1.0
  O  O57  1  0.20360000  0.42277000  0.44163000  1.0
  O  O58  1  0.20361000  0.07723000  0.94163000  1.0
  O  O59  1  0.70360000  0.92277000  0.05837000  1.0
  O  O60  1  0.96614000  0.44799000  0.73017000  1.0
  O  O61  1  0.46612000  0.55202000  0.26983000  1.0
  O  O62  1  0.46613000  0.94796000  0.76984000  1.0
  O  O63  1  0.96611000  0.05203000  0.23016000  1.0
  O  O64  1  0.97768000  0.16959000  0.73232000  1.0
  O  O65  1  0.47764000  0.83042000  0.26769000  1.0
  O  O66  1  0.47767000  0.66956000  0.76769000  1.0
  O  O67  1  0.97764000  0.33043000  0.23232000  1.0
