# generated using pymatgen
data_MnH28(C12N7)2
_symmetry_space_group_name_H-M   'P 1'
_cell_length_a   7.42245000
_cell_length_b   10.09490000
_cell_length_c   10.15840000
_cell_angle_alpha   109.92300000
_cell_angle_beta   103.07900000
_cell_angle_gamma   108.64800000
_symmetry_Int_Tables_number   1
_chemical_formula_structural   MnH28(C12N7)2
_chemical_formula_sum   'Mn1 H28 C24 N14'
_cell_volume   628.18347375
_cell_formula_units_Z   1
loop_
 _symmetry_equiv_pos_site_id
 _symmetry_equiv_pos_as_xyz
  1  'x, y, z'
loop_
 _atom_site_type_symbol
 _atom_site_label
 _atom_site_symmetry_multiplicity
 _atom_site_fract_x
 _atom_site_fract_y
 _atom_site_fract_z
 _atom_site_occupancy
  Mn  Mn0  1  0.00000000  0.50000000  0.50000000  1.0
  H  H1  1  0.08220000  0.67326000  0.04620000  1.0
  H  H2  1  0.91780000  0.32674000  0.95380000  1.0
  H  H3  1  0.27723000  0.61824000  0.01094000  1.0
  H  H4  1  0.72277000  0.38176000  0.98906000  1.0
  H  H5  1  0.37655000  0.88326000  0.03917000  1.0
  H  H6  1  0.62345000  0.11674000  0.96082000  1.0
  H  H7  1  0.54609000  0.89007000  0.19559000  1.0
  H  H8  1  0.45391000  0.10993000  0.80440000  1.0
  H  H9  1  0.31125000  0.95678000  0.33965000  1.0
  H  H10  1  0.68875000  0.04322000  0.66034000  1.0
  H  H11  1  0.46871000  0.10420000  0.30626000  1.0
  H  H12  1  0.53129000  0.89580000  0.69374000  1.0
  H  H13  1  0.18745000  0.05742000  0.09447000  1.0
  H  H14  1  0.81255000  0.94258000  0.90553000  1.0
  H  H15  1  0.02313000  0.88095000  0.08982000  1.0
  H  H16  1  0.97687000  0.11905000  0.91018000  1.0
  H  H17  1  0.95784000  0.59970000  0.22063000  1.0
  H  H18  1  0.04216000  0.40030000  0.77937000  1.0
  H  H19  1  0.47624000  0.60558000  0.50614000  1.0
  H  H20  1  0.52377000  0.39442000  0.49386000  1.0
  H  H21  1  0.57915000  0.69313000  0.29109000  1.0
  H  H22  1  0.42084000  0.30687000  0.70891000  1.0
  H  H23  1  0.17857000  0.30634000  0.25573000  1.0
  H  H24  1  0.82143000  0.69366000  0.74427000  1.0
  H  H25  1  0.83665000  0.15186000  0.49799000  1.0
  H  H26  1  0.16336000  0.84814000  0.50201000  1.0
  H  H27  1  0.91453000  0.91096000  0.32586000  1.0
  H  H28  1  0.08547000  0.08904000  0.67414000  1.0
  C  C29  1  0.24435000  0.69882000  0.09544000  1.0
  C  C30  1  0.75565000  0.30118000  0.90456000  1.0
  C  C31  1  0.38660000  0.86872000  0.14290000  1.0
  C  C32  1  0.61340000  0.13128000  0.85710000  1.0
  C  C33  1  0.33726000  0.98840000  0.24965000  1.0
  C  C34  1  0.66274000  0.01160000  0.75034000  1.0
  C  C35  1  0.14817000  0.99841000  0.16374000  1.0
  C  C36  1  0.85183000  0.00159000  0.83626000  1.0
  C  C37  1  0.11051000  0.61001000  0.27064000  1.0
  C  C38  1  0.88949000  0.38999000  0.72936000  1.0
  C  C39  1  0.38384000  0.61752000  0.41578000  1.0
  C  C40  1  0.61616000  0.38249000  0.58422000  1.0
  C  C41  1  0.43843000  0.66433000  0.31275000  1.0
  C  C42  1  0.56158000  0.33567000  0.68725000  1.0
  C  C43  1  0.09502000  0.23503000  0.30044000  1.0
  C  C44  1  0.90498000  0.76497000  0.69957000  1.0
  C  C45  1  0.92114000  0.14985000  0.42399000  1.0
  C  C46  1  0.07886000  0.85015000  0.57601000  1.0
  C  C47  1  0.95888000  0.02986000  0.34060000  1.0
  C  C48  1  0.04112000  0.97014000  0.65940000  1.0
  C  C49  1  0.40009000  0.62542000  0.77621000  1.0
  C  C50  1  0.59991000  0.37458000  0.22379000  1.0
  C  C51  1  0.65022000  0.66514000  0.99208000  1.0
  C  C52  1  0.34978000  0.33486000  0.00792000  1.0
  N  N53  1  0.26415000  0.66000000  0.22278000  1.0
  N  N54  1  0.73585000  0.34000000  0.77722000  1.0
  N  N55  1  0.17853000  0.58297000  0.38819000  1.0
  N  N56  1  0.82147000  0.41704000  0.61181000  1.0
  N  N57  1  0.06839000  0.08518000  0.26286000  1.0
  N  N58  1  0.93161000  0.91482000  0.73714000  1.0
  N  N59  1  0.00694000  0.27756000  0.39847000  1.0
  N  N60  1  0.99306000  0.72244000  0.60153000  1.0
  N  N61  1  0.58011000  0.69732000  0.88407000  1.0
  N  N62  1  0.41989000  0.30268000  0.11593000  1.0
  N  N63  1  0.24819000  0.57748000  0.67120000  1.0
  N  N64  1  0.75181000  0.42252000  0.32881000  1.0
  N  N65  1  0.73706000  0.65367000  0.09809000  1.0
  N  N66  1  0.26294000  0.34633000  0.90191000  1.0
