# generated using pymatgen
data_CuH15C14(NO)4
_symmetry_space_group_name_H-M   'P 1'
_cell_length_a   7.35443000
_cell_length_b   8.32250000
_cell_length_c   12.79480000
_cell_angle_alpha   80.44140000
_cell_angle_beta   83.52110000
_cell_angle_gamma   81.37710000
_symmetry_Int_Tables_number   1
_chemical_formula_structural   CuH15C14(NO)4
_chemical_formula_sum   'Cu2 H30 C28 N8 O8'
_cell_volume   760.42011480
_cell_formula_units_Z   2
loop_
 _symmetry_equiv_pos_site_id
 _symmetry_equiv_pos_as_xyz
  1  'x, y, z'
loop_
 _atom_site_type_symbol
 _atom_site_label
 _atom_site_symmetry_multiplicity
 _atom_site_fract_x
 _atom_site_fract_y
 _atom_site_fract_z
 _atom_site_occupancy
  Cu  Cu0  1  0.37461000  0.05075000  0.57010000  1.0
  Cu  Cu1  1  0.62538000  0.94925000  0.42990000  1.0
  H  H2  1  0.94701000  0.00569000  0.62696000  1.0
  H  H3  1  0.05298000  0.99432000  0.37304000  1.0
  H  H4  1  0.74559000  0.02624000  0.82254000  1.0
  H  H5  1  0.25442000  0.97375000  0.17747000  1.0
  H  H6  1  0.98441000  0.13826000  0.93760000  1.0
  H  H7  1  0.01562000  0.86171000  0.06241000  1.0
  H  H8  1  0.05516000  0.65334000  0.93777000  1.0
  H  H9  1  0.94484000  0.34665000  0.06223000  1.0
  H  H10  1  0.25118000  0.76046000  0.74486000  1.0
  H  H11  1  0.74882000  0.23953000  0.25513000  1.0
  H  H12  1  0.41470000  0.46903000  0.67757000  1.0
  H  H13  1  0.58530000  0.53097000  0.32242000  1.0
  H  H14  1  0.42272000  0.18294000  0.74755000  1.0
  H  H15  1  0.57728000  0.81705000  0.25244000  1.0
  H  H16  1  0.35092000  0.86225000  0.88140000  1.0
  H  H17  1  0.64907000  0.13774000  0.11860000  1.0
  H  H18  1  0.49144000  0.30353000  0.96904000  1.0
  H  H19  1  0.50856000  0.69647000  0.03097000  1.0
  H  H20  1  0.30904000  0.42572000  0.25270000  1.0
  H  H21  1  0.69098000  0.57428000  0.74730000  1.0
  H  H22  1  0.08966000  0.35737000  0.29494000  1.0
  H  H23  1  0.91035000  0.64264000  0.70506000  1.0
  H  H24  1  0.24386000  0.26624000  0.19531000  1.0
  H  H25  1  0.75615000  0.73377000  0.80469000  1.0
  H  H26  1  0.71306000  0.49347000  0.49997000  1.0
  H  H27  1  0.28693000  0.50654000  0.50003000  1.0
  H  H28  1  0.92422000  0.35454000  0.49102000  1.0
  H  H29  1  0.07577000  0.64546000  0.50898000  1.0
  H  H30  1  0.79831000  0.37636000  0.61716000  1.0
  H  H31  1  0.20168000  0.62364000  0.38285000  1.0
  C  C32  1  0.98403000  0.04576000  0.69730000  1.0
  C  C33  1  0.01596000  0.95424000  0.30270000  1.0
  C  C34  1  0.88393000  0.05533000  0.79724000  1.0
  C  C35  1  0.11607000  0.94466000  0.20276000  1.0
  C  C36  1  0.00156000  0.10935000  0.85727000  1.0
  C  C37  1  0.99846000  0.89063000  0.14273000  1.0
  C  C38  1  0.14450000  0.58279000  0.88323000  1.0
  C  C39  1  0.85550000  0.41720000  0.11677000  1.0
  C  C40  1  0.24348000  0.63645000  0.78546000  1.0
  C  C41  1  0.75652000  0.36355000  0.21454000  1.0
  C  C42  1  0.32827000  0.49342000  0.74921000  1.0
  C  C43  1  0.67173000  0.50657000  0.25078000  1.0
  C  C44  1  0.32306000  0.19283000  0.81781000  1.0
  C  C45  1  0.67694000  0.80716000  0.18218000  1.0
  C  C46  1  0.40776000  0.09464000  0.91553000  1.0
  C  C47  1  0.59225000  0.90535000  0.08447000  1.0
  C  C48  1  0.41415000  0.92352000  0.93398000  1.0
  C  C49  1  0.58585000  0.07649000  0.06602000  1.0
  C  C50  1  0.49487000  0.17053000  0.98204000  1.0
  C  C51  1  0.50513000  0.82947000  0.01796000  1.0
  C  C52  1  0.32521000  0.19593000  0.35523000  1.0
  C  C53  1  0.67478000  0.80409000  0.64477000  1.0
  C  C54  1  0.23416000  0.31811000  0.26928000  1.0
  C  C55  1  0.76584000  0.68190000  0.73071000  1.0
  C  C56  1  0.67662000  0.23795000  0.52322000  1.0
  C  C57  1  0.32337000  0.76205000  0.47679000  1.0
  C  C58  1  0.78627000  0.37384000  0.53278000  1.0
  C  C59  1  0.21372000  0.62616000  0.46722000  1.0
  N  N60  1  0.15145000  0.09146000  0.69552000  1.0
  N  N61  1  0.84854000  0.90854000  0.30447000  1.0
  N  N62  1  0.16090000  0.12839000  0.79405000  1.0
  N  N63  1  0.83911000  0.87160000  0.20595000  1.0
  N  N64  1  0.27938000  0.36664000  0.82413000  1.0
  N  N65  1  0.72062000  0.63336000  0.17587000  1.0
  N  N66  1  0.16599000  0.41836000  0.90645000  1.0
  N  N67  1  0.83401000  0.58164000  0.09355000  1.0
  O  O68  1  0.25468000  0.19902000  0.45075000  1.0
  O  O69  1  0.74534000  0.80101000  0.54925000  1.0
  O  O70  1  0.74474000  0.13815000  0.45928000  1.0
  O  O71  1  0.25524000  0.86189000  0.54072000  1.0
  O  O72  1  0.46776000  0.10042000  0.32602000  1.0
  O  O73  1  0.53222000  0.89957000  0.67398000  1.0
  O  O74  1  0.52197000  0.23335000  0.58003000  1.0
  O  O75  1  0.47802000  0.76663000  0.41999000  1.0
