# generated using pymatgen
data_CdH8C10S(NO2)2
_symmetry_space_group_name_H-M   'P 1'
_cell_length_a   6.94702000
_cell_length_b   6.94705000
_cell_length_c   11.86920000
_cell_angle_alpha   90.00000000
_cell_angle_beta   90.00000000
_cell_angle_gamma   89.99960000
_symmetry_Int_Tables_number   1
_chemical_formula_structural   CdH8C10S(NO2)2
_chemical_formula_sum   'Cd2 H16 C20 S2 N4 O8'
_cell_volume   572.82296605
_cell_formula_units_Z   2
loop_
 _symmetry_equiv_pos_site_id
 _symmetry_equiv_pos_as_xyz
  1  'x, y, z'
loop_
 _atom_site_type_symbol
 _atom_site_label
 _atom_site_symmetry_multiplicity
 _atom_site_fract_x
 _atom_site_fract_y
 _atom_site_fract_z
 _atom_site_occupancy
  Cd  Cd0  1  0.00000000  0.50001000  0.53975000  1.0
  Cd  Cd1  1  0.50000000  1.00000000  0.46025000  1.0
  H  H2  1  0.78897000  0.28897000  0.33491000  1.0
  H  H3  1  0.21102000  0.71102000  0.33490000  1.0
  H  H4  1  0.71103000  0.78898000  0.66509000  1.0
  H  H5  1  0.28898000  0.21102000  0.66509000  1.0
  H  H6  1  0.77911000  0.27911000  0.12793000  1.0
  H  H7  1  0.22087000  0.72087000  0.12793000  1.0
  H  H8  1  0.72089000  0.77912000  0.87207000  1.0
  H  H9  1  0.27912000  0.22089000  0.87207000  1.0
  H  H10  1  0.20979000  0.70979000  0.75054000  1.0
  H  H11  1  0.79022000  0.29022000  0.75053000  1.0
  H  H12  1  0.29021000  0.20979000  0.24946000  1.0
  H  H13  1  0.70979000  0.79022000  0.24946000  1.0
  H  H14  1  0.22045000  0.72045000  0.95993000  1.0
  H  H15  1  0.77954000  0.27954000  0.95993000  1.0
  H  H16  1  0.27954000  0.22046000  0.04007000  1.0
  H  H17  1  0.72046000  0.77954000  0.04007000  1.0
  C  C18  1  0.88229000  0.38229000  0.28558000  1.0
  C  C19  1  0.11771000  0.61771000  0.28558000  1.0
  C  C20  1  0.61772000  0.88229000  0.71442000  1.0
  C  C21  1  0.38229000  0.11771000  0.71442000  1.0
  C  C22  1  0.87839000  0.37839000  0.16850000  1.0
  C  C23  1  0.12158000  0.62158000  0.16850000  1.0
  C  C24  1  0.62160000  0.87840000  0.83150000  1.0
  C  C25  1  0.37840000  0.12160000  0.83150000  1.0
  C  C26  1  0.00000000  0.50000000  0.10618000  1.0
  C  C27  1  0.50000000  1.00000000  0.89382000  1.0
  C  C28  1  0.11737000  0.61737000  0.80134000  1.0
  C  C29  1  0.88263000  0.38263000  0.80134000  1.0
  C  C30  1  0.38263000  0.11737000  0.19865000  1.0
  C  C31  1  0.61737000  0.88263000  0.19866000  1.0
  C  C32  1  0.12168000  0.62168000  0.91861000  1.0
  C  C33  1  0.87832000  0.37832000  0.91861000  1.0
  C  C34  1  0.37833000  0.12168000  0.08139000  1.0
  C  C35  1  0.62167000  0.87832000  0.08139000  1.0
  C  C36  1  0.99999000  0.49999000  0.98106000  1.0
  C  C37  1  0.50000000  1.00000000  0.01894000  1.0
  S  S38  1  0.50000000  0.50000000  0.50000000  1.0
  S  S39  1  0.00000000  0.00000000  0.50000000  1.0
  N  N40  1  0.99999000  0.49999000  0.34354000  1.0
  N  N41  1  0.50000000  1.00000000  0.65646000  1.0
  N  N42  1  0.00000000  0.50000000  0.74348000  1.0
  N  N43  1  0.50000000  1.00000000  0.25652000  1.0
  O  O44  1  0.32778000  0.51115000  0.57467000  1.0
  O  O45  1  0.67223000  0.48885000  0.57467000  1.0
  O  O46  1  0.17223000  0.01116000  0.42533000  1.0
  O  O47  1  0.82778000  0.98885000  0.42533000  1.0
  O  O48  1  0.01116000  0.82778000  0.57467000  1.0
  O  O49  1  0.98885000  0.17223000  0.57467000  1.0
  O  O50  1  0.51116000  0.67222000  0.42533000  1.0
  O  O51  1  0.48885000  0.32777000  0.42533000  1.0
