# generated using pymatgen
data_Zn2H10C9(N8O)2
_symmetry_space_group_name_H-M   'P 1'
_cell_length_a   9.31758000
_cell_length_b   10.73550000
_cell_length_c   11.72510000
_cell_angle_alpha   89.99940000
_cell_angle_beta   66.63100000
_cell_angle_gamma   89.99940000
_symmetry_Int_Tables_number   1
_chemical_formula_structural   Zn2H10C9(N8O)2
_chemical_formula_sum   'Zn4 H20 C18 N32 O4'
_cell_volume   1076.63910937
_cell_formula_units_Z   2
loop_
 _symmetry_equiv_pos_site_id
 _symmetry_equiv_pos_as_xyz
  1  'x, y, z'
loop_
 _atom_site_type_symbol
 _atom_site_label
 _atom_site_symmetry_multiplicity
 _atom_site_fract_x
 _atom_site_fract_y
 _atom_site_fract_z
 _atom_site_occupancy
  Zn  Zn0  1  0.53897000  0.49317000  0.68372000  1.0
  Zn  Zn1  1  0.46104000  0.99318000  0.31628000  1.0
  Zn  Zn2  1  0.77767000  0.99315000  0.68362000  1.0
  Zn  Zn3  1  0.22234000  0.49316000  0.31637000  1.0
  H  H4  1  0.91891000  0.73586000  0.50827000  1.0
  H  H5  1  0.05853000  0.64371000  0.53581000  1.0
  H  H6  1  0.83005000  0.56981000  0.74119000  1.0
  H  H7  1  0.91327000  0.72068000  0.73178000  1.0
  H  H8  1  0.08109000  0.23587000  0.49174000  1.0
  H  H9  1  0.94148000  0.14371000  0.46420000  1.0
  H  H10  1  0.16996000  0.06982000  0.25881000  1.0
  H  H11  1  0.08673000  0.22069000  0.26823000  1.0
  H  H12  1  0.57263000  0.23566000  0.50798000  1.0
  H  H13  1  0.40569000  0.14325000  0.53568000  1.0
  H  H14  1  0.42922000  0.06979000  0.74106000  1.0
  H  H15  1  0.35547000  0.22066000  0.73151000  1.0
  H  H16  1  0.42736000  0.73566000  0.49203000  1.0
  H  H17  1  0.59431000  0.64325000  0.46432000  1.0
  H  H18  1  0.57077000  0.56980000  0.25894000  1.0
  H  H19  1  0.64451000  0.72068000  0.26850000  1.0
  H  H20  1  0.54444000  0.51064000  0.00011000  1.0
  H  H21  1  0.49905000  0.56848000  0.99992000  1.0
  H  H22  1  0.45558000  0.01063000  0.99990000  1.0
  H  H23  1  0.50098000  0.06847000  0.00007000  1.0
  C  C24  1  0.89089000  0.54186000  0.49599000  1.0
  C  C25  1  0.93362000  0.65057000  0.55505000  1.0
  C  C26  1  0.84295000  0.66192000  0.69706000  1.0
  C  C27  1  0.68559000  0.72004000  0.73556000  1.0
  C  C28  1  0.10912000  0.04186000  0.50401000  1.0
  C  C29  1  0.06639000  0.15058000  0.44496000  1.0
  C  C30  1  0.15706000  0.16193000  0.30294000  1.0
  C  C31  1  0.31442000  0.22005000  0.26444000  1.0
  C  C32  1  0.61318000  0.04166000  0.49586000  1.0
  C  C33  1  0.51143000  0.15036000  0.55485000  1.0
  C  C34  1  0.46040000  0.16185000  0.69683000  1.0
  C  C35  1  0.57932000  0.22000000  0.73535000  1.0
  C  C36  1  0.38682000  0.54165000  0.50414000  1.0
  C  C37  1  0.48857000  0.65036000  0.44515000  1.0
  C  C38  1  0.53959000  0.66186000  0.30317000  1.0
  C  C39  1  0.42067000  0.72001000  0.26466000  1.0
  C  C40  1  0.18150000  0.49132000  0.99973000  1.0
  C  C41  1  0.81845000  0.99126000  0.00029000  1.0
  N  N42  1  0.74935000  0.48988000  0.52890000  1.0
  N  N43  1  0.76427000  0.39545000  0.44721000  1.0
  N  N44  1  0.90833000  0.39020000  0.36752000  1.0
  N  N45  1  0.99092000  0.48056000  0.39568000  1.0
  N  N46  1  0.55254000  0.65976000  0.75191000  1.0
  N  N47  1  0.43517000  0.74559000  0.78698000  1.0
  N  N48  1  0.49411000  0.85380000  0.79199000  1.0
  N  N49  1  0.65147000  0.84121000  0.76029000  1.0
  N  N50  1  0.25066000  0.98988000  0.47109000  1.0
  N  N51  1  0.23574000  0.89545000  0.55278000  1.0
  N  N52  1  0.09168000  0.89019000  0.63246000  1.0
  N  N53  1  0.00909000  0.98055000  0.60431000  1.0
  N  N54  1  0.44747000  0.15977000  0.24809000  1.0
  N  N55  1  0.56484000  0.24561000  0.21301000  1.0
  N  N56  1  0.50590000  0.35381000  0.20800000  1.0
  N  N57  1  0.34854000  0.34122000  0.23970000  1.0
  N  N58  1  0.72191000  0.98975000  0.52877000  1.0
  N  N59  1  0.78850000  0.89527000  0.44714000  1.0
  N  N60  1  0.72393000  0.88992000  0.36750000  1.0
  N  N61  1  0.61323000  0.98028000  0.39562000  1.0
  N  N62  1  0.69601000  0.15974000  0.75175000  1.0
  N  N63  1  0.77822000  0.24552000  0.78702000  1.0
  N  N64  1  0.71422000  0.35372000  0.79210000  1.0
  N  N65  1  0.58862000  0.34114000  0.76025000  1.0
  N  N66  1  0.27809000  0.48975000  0.47123000  1.0
  N  N67  1  0.21151000  0.39527000  0.55285000  1.0
  N  N68  1  0.27609000  0.38991000  0.63249000  1.0
  N  N69  1  0.38677000  0.48027000  0.60438000  1.0
  N  N70  1  0.30398000  0.65975000  0.24825000  1.0
  N  N71  1  0.22177000  0.74554000  0.21298000  1.0
  N  N72  1  0.28578000  0.85374000  0.20790000  1.0
  N  N73  1  0.41138000  0.84116000  0.23975000  1.0
  O  O74  1  0.23535000  0.49101000  0.89056000  1.0
  O  O75  1  0.76458000  0.99097000  0.10945000  1.0
  O  O76  1  0.87326000  0.99044000  0.89113000  1.0
  O  O77  1  0.12672000  0.49050000  0.10888000  1.0
