# generated using pymatgen
data_PrH13C18N2O7
_symmetry_space_group_name_H-M   'P 1'
_cell_length_a   8.98890000
_cell_length_b   10.05500000
_cell_length_c   10.52560000
_cell_angle_alpha   72.35770000
_cell_angle_beta   77.76560000
_cell_angle_gamma   69.92380000
_symmetry_Int_Tables_number   1
_chemical_formula_structural   PrH13C18N2O7
_chemical_formula_sum   'Pr2 H26 C36 N4 O14'
_cell_volume   845.30066125
_cell_formula_units_Z   2
loop_
 _symmetry_equiv_pos_site_id
 _symmetry_equiv_pos_as_xyz
  1  'x, y, z'
loop_
 _atom_site_type_symbol
 _atom_site_label
 _atom_site_symmetry_multiplicity
 _atom_site_fract_x
 _atom_site_fract_y
 _atom_site_fract_z
 _atom_site_occupancy
  Pr  Pr0  1  0.58448000  0.41211000  0.33483000  1.0
  Pr  Pr1  1  0.41552000  0.58790000  0.66517000  1.0
  H  H2  1  0.73226000  0.04201000  0.50702000  1.0
  H  H3  1  0.26774000  0.95800000  0.49298000  1.0
  H  H4  1  0.94799000  0.80512000  0.50306000  1.0
  H  H5  1  0.05201000  0.19489000  0.49694000  1.0
  H  H6  1  0.14847000  0.78979000  0.29576000  1.0
  H  H7  1  0.85153000  0.21021000  0.70425000  1.0
  H  H8  1  0.24528000  0.91327000  0.06566000  1.0
  H  H9  1  0.75472000  0.08673000  0.93434000  1.0
  H  H10  1  0.21265000  0.13245000  0.87537000  1.0
  H  H11  1  0.78735000  0.86755000  0.12463000  1.0
  H  H12  1  0.07365000  0.39315000  0.77897000  1.0
  H  H13  1  0.92635000  0.60685000  0.22103000  1.0
  H  H14  1  0.86354000  0.62411000  0.81061000  1.0
  H  H15  1  0.13647000  0.37589000  0.18939000  1.0
  H  H16  1  0.68798000  0.62101000  0.02892000  1.0
  H  H17  1  0.31203000  0.37899000  0.97108000  1.0
  H  H18  1  0.51519000  0.92857000  0.13171000  1.0
  H  H19  1  0.48481000  0.07143000  0.86829000  1.0
  H  H20  1  0.48770000  0.03758000  0.38288000  1.0
  H  H21  1  0.51230000  0.96242000  0.61712000  1.0
  H  H22  1  0.12537000  0.43752000  0.39072000  1.0
  H  H23  1  0.87463000  0.56248000  0.60928000  1.0
  H  H24  1  0.43722000  0.66707000  0.06963000  1.0
  H  H25  1  0.56278000  0.33294000  0.93038000  1.0
  H  H26  1  0.38027000  0.52371000  0.11942000  1.0
  H  H27  1  0.61973000  0.47629000  0.88058000  1.0
  C  C28  1  0.82044000  0.03073000  0.41910000  1.0
  C  C29  1  0.17956000  0.96928000  0.58091000  1.0
  C  C30  1  0.94113000  0.89806000  0.41583000  1.0
  C  C31  1  0.05887000  0.10194000  0.58418000  1.0
  C  C32  1  0.05157000  0.88983000  0.30299000  1.0
  C  C33  1  0.94843000  0.11017000  0.69701000  1.0
  C  C34  1  0.03917000  0.01454000  0.19356000  1.0
  C  C35  1  0.96083000  0.98547000  0.80644000  1.0
  C  C36  1  0.14841000  0.01288000  0.07318000  1.0
  C  C37  1  0.85159000  0.98712000  0.92683000  1.0
  C  C38  1  0.13099000  0.13386000  0.96784000  1.0
  C  C39  1  0.86901000  0.86614000  0.03216000  1.0
  C  C40  1  0.00679000  0.26636000  0.97648000  1.0
  C  C41  1  0.99320000  0.73364000  0.02351000  1.0
  C  C42  1  0.99112000  0.39466000  0.87105000  1.0
  C  C43  1  0.00888000  0.60534000  0.12895000  1.0
  C  C44  1  0.87609000  0.52232000  0.88857000  1.0
  C  C45  1  0.12391000  0.47768000  0.11143000  1.0
  C  C46  1  0.77656000  0.52061000  0.01124000  1.0
  C  C47  1  0.22344000  0.47939000  0.98876000  1.0
  C  C48  1  0.89810000  0.27351000  0.09585000  1.0
  C  C49  1  0.10189000  0.72649000  0.90416000  1.0
  C  C50  1  0.91247000  0.14415000  0.20570000  1.0
  C  C51  1  0.08753000  0.85585000  0.79430000  1.0
  C  C52  1  0.51866000  0.77640000  0.33305000  1.0
  C  C53  1  0.48134000  0.22360000  0.66695000  1.0
  C  C54  1  0.50598000  0.92337000  0.23817000  1.0
  C  C55  1  0.49402000  0.07663000  0.76183000  1.0
  C  C56  1  0.49558000  0.04206000  0.27681000  1.0
  C  C57  1  0.50442000  0.95795000  0.72319000  1.0
  C  C58  1  0.49668000  0.18580000  0.18042000  1.0
  C  C59  1  0.50332000  0.81420000  0.81957000  1.0
  C  C60  1  0.18739000  0.54228000  0.51941000  1.0
  C  C61  1  0.81261000  0.45773000  0.48059000  1.0
  C  C62  1  0.07643000  0.49111000  0.47283000  1.0
  C  C63  1  0.92357000  0.50890000  0.52717000  1.0
  N  N64  1  0.80554000  0.15090000  0.31818000  1.0
  N  N65  1  0.19446000  0.84911000  0.68182000  1.0
  N  N66  1  0.78405000  0.39989000  0.11096000  1.0
  N  N67  1  0.21595000  0.60011000  0.88904000  1.0
  O  O68  1  0.59142000  0.66772000  0.28248000  1.0
  O  O69  1  0.40859000  0.33228000  0.71752000  1.0
  O  O70  1  0.46006000  0.76922000  0.45559000  1.0
  O  O71  1  0.53994000  0.23078000  0.54441000  1.0
  O  O72  1  0.52694000  0.19441000  0.05595000  1.0
  O  O73  1  0.47306000  0.80560000  0.94405000  1.0
  O  O74  1  0.46431000  0.29387000  0.23348000  1.0
  O  O75  1  0.53569000  0.70613000  0.76652000  1.0
  O  O76  1  0.32897000  0.52677000  0.45678000  1.0
  O  O77  1  0.67103000  0.47323000  0.54322000  1.0
  O  O78  1  0.14183000  0.59913000  0.61895000  1.0
  O  O79  1  0.85817000  0.40087000  0.38105000  1.0
  O  O80  1  0.41276000  0.59025000  0.15088000  1.0
  O  O81  1  0.58724000  0.40975000  0.84912000  1.0
