# generated using pymatgen
data_Zr3H19C44Br2Cl5O16
_symmetry_space_group_name_H-M   'P 1'
_cell_length_a   19.04021493
_cell_length_b   19.15523802
_cell_length_c   19.15530000
_cell_angle_alpha   90.33202013
_cell_angle_beta   119.71925104
_cell_angle_gamma   119.71983526
_symmetry_Int_Tables_number   1
_chemical_formula_structural   Zr3H19C44Br2Cl5O16
_chemical_formula_sum   'Zr6 H38 C88 Br4 Cl10 O32'
_cell_volume   4967.52331467
_cell_formula_units_Z   2
loop_
 _symmetry_equiv_pos_site_id
 _symmetry_equiv_pos_as_xyz
  1  'x, y, z'
loop_
 _atom_site_type_symbol
 _atom_site_label
 _atom_site_symmetry_multiplicity
 _atom_site_fract_x
 _atom_site_fract_y
 _atom_site_fract_z
 _atom_site_occupancy
  Zr  Zr0  1  0.49929000  0.90715000  0.90716000  1.0
  Zr  Zr1  1  0.50122000  0.09282000  0.09285000  1.0
  Zr  Zr2  1  0.68537000  0.09136000  0.09142000  1.0
  Zr  Zr3  1  0.31515000  0.90858000  0.90864000  1.0
  Zr  Zr4  1  0.50023000  0.90806000  0.09192000  1.0
  Zr  Zr5  1  0.50023000  0.09187000  0.90810000  1.0
  H  H6  1  0.64537000  0.92652000  0.07167000  1.0
  H  H7  1  0.35512000  0.92831000  0.07346000  1.0
  H  H8  1  0.64569000  0.21726000  0.07240000  1.0
  H  H9  1  0.35482000  0.92760000  0.78272000  1.0
  H  H10  1  0.50028000  0.45372000  0.11371000  1.0
  H  H11  1  0.50112000  0.54672000  0.88680000  1.0
  H  H12  1  0.49659000  0.68087000  0.10394000  1.0
  H  H13  1  0.49961000  0.55445000  0.11180000  1.0
  H  H14  1  0.49702000  0.31582000  0.89261000  1.0
  H  H15  1  0.50000000  0.44522000  0.88781000  1.0
  H  H16  1  0.49881000  0.11306000  0.45296000  1.0
  H  H17  1  0.49963000  0.88614000  0.54593000  1.0
  H  H18  1  0.50317000  0.10730000  0.68406000  1.0
  H  H19  1  0.49989000  0.11202000  0.55453000  1.0
  H  H20  1  0.50350000  0.89593000  0.31899000  1.0
  H  H21  1  0.50026000  0.88801000  0.44529000  1.0
  H  H22  1  0.83929000  0.45312000  0.88716000  1.0
  H  H23  1  0.16113000  0.54793000  0.11404000  1.0
  H  H24  1  0.07583000  0.67945000  0.89232000  1.0
  H  H25  1  0.94181000  0.55345000  0.88793000  1.0
  H  H26  1  0.92470000  0.31715000  0.10442000  1.0
  H  H27  1  0.05860000  0.44681000  0.11245000  1.0
  H  H28  1  0.83912000  0.88607000  0.45229000  1.0
  H  H29  1  0.16099000  0.11296000  0.54714000  1.0
  H  H30  1  0.07572000  0.89558000  0.68304000  1.0
  H  H31  1  0.94176000  0.88765000  0.55352000  1.0
  H  H32  1  0.92465000  0.10776000  0.32078000  1.0
  H  H33  1  0.05857000  0.11218000  0.44691000  1.0
  H  H34  1  0.29032000  0.11315000  0.11026000  1.0
  H  H35  1  0.06817000  0.89037000  0.88732000  1.0
  H  H36  1  0.71023000  0.88972000  0.88689000  1.0
  H  H37  1  0.93239000  0.11266000  0.10966000  1.0
  H  H38  1  0.06789000  0.45358000  0.45282000  1.0
  H  H39  1  0.93248000  0.54729000  0.54654000  1.0
  H  H40  1  0.28771000  0.68028000  0.68358000  1.0
  H  H41  1  0.16705000  0.55436000  0.55449000  1.0
  H  H42  1  0.71259000  0.31627000  0.31964000  1.0
  H  H43  1  0.83313000  0.44540000  0.44558000  1.0
  C  C44  1  0.49559000  0.76332000  0.99484000  1.0
  C  C45  1  0.50477000  0.00510000  0.23663000  1.0
  C  C46  1  0.49622000  0.23239000  0.00082000  1.0
  C  C47  1  0.50423000  0.99919000  0.76757000  1.0
  C  C48  1  0.73599000  0.00160000  0.99755000  1.0
  C  C49  1  0.26195000  0.76345000  0.76772000  1.0
  C  C50  1  0.26456000  0.00248000  0.99840000  1.0
  C  C51  1  0.73857000  0.23228000  0.23655000  1.0
  C  C52  1  0.73235000  0.99938000  0.23625000  1.0
  C  C53  1  0.73243000  0.23128000  0.99455000  1.0
  C  C54  1  0.26802000  0.00541000  0.76875000  1.0
  C  C55  1  0.26810000  0.76381000  0.00065000  1.0
  C  C56  1  0.49698000  0.31068000  0.00403000  1.0
  C  C57  1  0.49673000  0.68599000  0.99257000  1.0
  C  C58  1  0.49820000  0.35182000  0.06648000  1.0
  C  C59  1  0.49959000  0.42523000  0.06394000  1.0
  C  C60  1  0.49840000  0.64626000  0.93159000  1.0
  C  C61  1  0.49993000  0.57431000  0.93561000  1.0
  C  C62  1  0.49744000  0.65010000  0.05660000  1.0
  C  C63  1  0.49911000  0.57870000  0.06045000  1.0
  C  C64  1  0.49776000  0.34735000  0.94076000  1.0
  C  C65  1  0.49938000  0.42038000  0.93859000  1.0
  C  C66  1  0.49996000  0.46122000  0.00051000  1.0
  C  C67  1  0.49995000  0.53854000  0.99927000  1.0
  C  C68  1  0.50341000  0.00731000  0.31385000  1.0
  C  C69  1  0.50328000  0.99591000  0.68918000  1.0
  C  C70  1  0.50165000  0.06828000  0.35350000  1.0
  C  C71  1  0.50002000  0.06425000  0.42540000  1.0
  C  C72  1  0.50193000  0.93341000  0.64795000  1.0
  C  C73  1  0.50037000  0.93591000  0.57447000  1.0
  C  C74  1  0.50239000  0.05915000  0.65250000  1.0
  C  C75  1  0.50061000  0.06127000  0.57939000  1.0
  C  C76  1  0.50260000  0.94326000  0.34971000  1.0
  C  C77  1  0.50082000  0.93939000  0.42105000  1.0
  C  C78  1  0.49995000  0.00058000  0.46117000  1.0
  C  C79  1  0.49998000  0.99936000  0.53851000  1.0
  C  C80  1  0.80720000  0.31039000  0.99273000  1.0
  C  C81  1  0.19332000  0.68613000  0.00393000  1.0
  C  C82  1  0.78530000  0.35128000  0.93190000  1.0
  C  C83  1  0.86106000  0.42495000  0.93600000  1.0
  C  C84  1  0.21518000  0.64695000  0.06648000  1.0
  C  C85  1  0.13938000  0.57506000  0.06416000  1.0
  C  C86  1  0.09291000  0.64943000  0.94069000  1.0
  C  C87  1  0.01782000  0.57817000  0.93871000  1.0
  C  C88  1  0.90759000  0.34809000  0.05698000  1.0
  C  C89  1  0.98262000  0.42136000  0.06097000  1.0
  C  C90  1  0.96099000  0.46156000  0.99968000  1.0
  C  C91  1  0.03944000  0.53876000  0.00078000  1.0
  C  C92  1  0.80709000  0.99615000  0.31403000  1.0
  C  C93  1  0.19318000  0.00729000  0.68976000  1.0
  C  C94  1  0.78516000  0.93363000  0.35322000  1.0
  C  C95  1  0.86091000  0.93594000  0.42515000  1.0
  C  C96  1  0.21503000  0.06817000  0.64890000  1.0
  C  C97  1  0.13924000  0.06409000  0.57530000  1.0
  C  C98  1  0.09280000  0.94306000  0.65211000  1.0
  C  C99  1  0.01773000  0.93911000  0.57891000  1.0
  C  C100  1  0.90751000  0.05940000  0.35080000  1.0
  C  C101  1  0.98254000  0.06139000  0.42212000  1.0
  C  C102  1  0.96087000  0.99931000  0.46151000  1.0
  C  C103  1  0.03931000  0.00041000  0.53871000  1.0
  C  C104  1  0.21236000  0.06461000  0.06214000  1.0
  C  C105  1  0.13999000  0.06515000  0.06400000  1.0
  C  C106  1  0.16470000  0.12894000  0.12873000  1.0
  C  C107  1  0.08654000  0.93841000  0.93586000  1.0
  C  C108  1  0.01152000  0.93623000  0.93509000  1.0
  C  C109  1  0.90808000  0.87145000  0.87128000  1.0
  C  C110  1  0.78820000  0.93785000  0.93545000  1.0
  C  C111  1  0.86057000  0.93600000  0.93489000  1.0
  C  C112  1  0.83581000  0.87125000  0.87110000  1.0
  C  C113  1  0.91400000  0.06412000  0.06161000  1.0
  C  C114  1  0.98902000  0.06492000  0.06375000  1.0
  C  C115  1  0.09244000  0.12877000  0.12853000  1.0
  C  C116  1  0.18574000  0.00200000  0.99860000  1.0
  C  C117  1  0.03767000  0.00051000  0.99964000  1.0
  C  C118  1  0.81480000  0.00139000  0.99806000  1.0
  C  C119  1  0.96288000  0.00036000  0.99950000  1.0
  C  C120  1  0.81910000  0.31072000  0.31395000  1.0
  C  C121  1  0.18135000  0.68609000  0.68930000  1.0
  C  C122  1  0.92139000  0.35188000  0.35361000  1.0
  C  C123  1  0.99041000  0.42523000  0.42542000  1.0
  C  C124  1  0.07908000  0.64648000  0.64821000  1.0
  C  C125  1  0.00995000  0.57465000  0.57485000  1.0
  C  C126  1  0.20890000  0.64989000  0.65233000  1.0
  C  C127  1  0.14007000  0.57865000  0.57937000  1.0
  C  C128  1  0.79143000  0.34760000  0.35010000  1.0
  C  C129  1  0.86017000  0.42056000  0.42134000  1.0
  C  C130  1  0.96230000  0.46137000  0.46138000  1.0
  C  C131  1  0.03795000  0.53864000  0.53862000  1.0
  Br  Br132  1  0.12621000  0.21321000  0.21405000  1.0
  Br  Br133  1  0.30023000  0.21332000  0.21430000  1.0
  Br  Br134  1  0.70027000  0.78568000  0.78680000  1.0
  Br  Br135  1  0.87424000  0.78582000  0.78689000  1.0
  Cl  Cl136  1  0.49791000  0.31741000  0.14987000  1.0
  Cl  Cl137  1  0.49959000  0.68112000  0.84864000  1.0
  Cl  Cl138  1  0.50049000  0.15121000  0.31860000  1.0
  Cl  Cl139  1  0.50221000  0.85001000  0.68232000  1.0
  Cl  Cl140  1  0.66681000  0.31634000  0.84857000  1.0
  Cl  Cl141  1  0.33366000  0.68227000  0.15016000  1.0
  Cl  Cl142  1  0.66663000  0.84997000  0.31786000  1.0
  Cl  Cl143  1  0.33350000  0.15152000  0.68380000  1.0
  Cl  Cl144  1  0.97107000  0.31750000  0.31886000  1.0
  Cl  Cl145  1  0.02951000  0.68131000  0.68267000  1.0
  O  O146  1  0.49356000  0.79485000  0.93592000  1.0
  O  O147  1  0.50697000  0.06409000  0.20517000  1.0
  O  O148  1  0.49580000  0.19969000  0.05856000  1.0
  O  O149  1  0.50477000  0.94151000  0.80033000  1.0
  O  O150  1  0.76500000  0.06115000  0.05700000  1.0
  O  O151  1  0.23664000  0.79592000  0.80123000  1.0
  O  O152  1  0.23555000  0.94304000  0.93884000  1.0
  O  O153  1  0.76393000  0.19881000  0.20411000  1.0
  O  O154  1  0.64151000  0.94234000  0.20406000  1.0
  O  O155  1  0.64164000  0.19821000  0.93654000  1.0
  O  O156  1  0.35880000  0.06341000  0.80176000  1.0
  O  O157  1  0.35891000  0.79591000  0.05763000  1.0
  O  O158  1  0.76420000  0.20274000  0.05460000  1.0
  O  O159  1  0.23630000  0.94533000  0.79726000  1.0
  O  O160  1  0.23630000  0.79362000  0.94195000  1.0
  O  O161  1  0.76420000  0.05807000  0.20645000  1.0
  O  O162  1  0.64656000  0.94212000  0.93914000  1.0
  O  O163  1  0.64965000  0.20468000  0.20739000  1.0
  O  O164  1  0.35400000  0.06087000  0.05792000  1.0
  O  O165  1  0.35085000  0.79261000  0.79526000  1.0
  O  O166  1  0.50291000  0.05873000  0.79590000  1.0
  O  O167  1  0.49809000  0.79351000  0.05627000  1.0
  O  O168  1  0.50232000  0.94368000  0.20649000  1.0
  O  O169  1  0.49753000  0.20406000  0.94127000  1.0
  O  O170  1  0.39567000  0.94806000  0.84451000  1.0
  O  O171  1  0.60483000  0.15546000  0.05193000  1.0
  O  O172  1  0.39614000  0.94870000  0.05232000  1.0
  O  O173  1  0.60437000  0.94768000  0.05129000  1.0
  O  O174  1  0.57737000  0.03831000  0.11446000  1.0
  O  O175  1  0.42313000  0.88553000  0.96167000  1.0
  O  O176  1  0.42344000  0.03846000  0.96231000  1.0
  O  O177  1  0.57704000  0.03768000  0.96153000  1.0
