# generated using pymatgen
data_Zn3H16C30(NO8)2
_symmetry_space_group_name_H-M   'P 1'
_cell_length_a   18.41340000
_cell_length_b   18.43750000
_cell_length_c   18.49810000
_cell_angle_alpha   109.43900000
_cell_angle_beta   109.24400000
_cell_angle_gamma   109.51700000
_symmetry_Int_Tables_number   1
_chemical_formula_structural   Zn3H16C30(NO8)2
_chemical_formula_sum   'Zn6 H32 C60 N4 O32'
_cell_volume   4847.06906681
_cell_formula_units_Z   2
loop_
 _symmetry_equiv_pos_site_id
 _symmetry_equiv_pos_as_xyz
  1  'x, y, z'
loop_
 _atom_site_type_symbol
 _atom_site_label
 _atom_site_symmetry_multiplicity
 _atom_site_fract_x
 _atom_site_fract_y
 _atom_site_fract_z
 _atom_site_occupancy
  Zn  Zn0  1  0.56887000  0.50456000  0.07132000  1.0
  Zn  Zn1  1  0.44301000  0.50447000  0.94396000  1.0
  Zn  Zn2  1  0.99505000  0.93471000  0.92758000  1.0
  Zn  Zn3  1  0.99211000  0.06045000  0.05440000  1.0
  Zn  Zn4  1  0.43227000  0.93715000  0.49387000  1.0
  Zn  Zn5  1  0.55978000  0.06913000  0.49854000  1.0
  H  H6  1  0.23548000  0.35308000  0.01421000  1.0
  H  H7  1  0.67178000  0.77533000  0.01901000  1.0
  H  H8  1  0.24387000  0.28206000  0.13069000  1.0
  H  H9  1  0.86024000  0.88094000  0.13060000  1.0
  H  H10  1  0.40640000  0.29095000  0.14450000  1.0
  H  H11  1  0.86488000  0.73085000  0.14101000  1.0
  H  H12  1  0.30630000  0.11569000  0.99637000  1.0
  H  H13  1  0.88602000  0.68232000  0.98953000  1.0
  H  H14  1  0.29890000  0.18853000  0.88215000  1.0
  H  H15  1  0.69797000  0.57837000  0.87956000  1.0
  H  H16  1  0.37865000  0.79678000  0.18390000  1.0
  H  H17  1  0.49433000  0.80789000  0.11277000  1.0
  H  H18  1  0.37530000  0.64027000  0.18123000  1.0
  H  H19  1  0.64201000  0.91647000  0.28771000  1.0
  H  H20  1  0.52089000  0.74936000  0.35761000  1.0
  H  H21  1  0.63898000  0.76114000  0.28861000  1.0
  H  H22  1  0.40892000  0.23882000  0.58689000  1.0
  H  H23  1  0.34147000  0.20558000  0.69756000  1.0
  H  H24  1  0.54516000  0.40808000  0.73306000  1.0
  H  H25  1  0.44873000  0.12740000  0.73657000  1.0
  H  H26  1  0.65447000  0.33210000  0.77274000  1.0
  H  H27  1  0.58819000  0.29752000  0.88421000  1.0
  H  H28  1  0.67585000  0.09575000  0.81477000  1.0
  H  H29  1  0.67839000  0.96096000  0.85671000  1.0
  H  H30  1  0.85062000  0.14678000  0.84072000  1.0
  H  H31  1  0.60186000  0.84099000  0.67486000  1.0
  H  H32  1  0.77451000  0.02822000  0.65788000  1.0
  H  H33  1  0.77514000  0.89151000  0.69732000  1.0
  H  H34  1  0.27087000  0.09453000  0.41425000  1.0
  H  H35  1  0.29806000  0.15177000  0.29488000  1.0
  H  H36  1  0.09135000  0.96698000  0.27980000  1.0
  H  H37  1  0.17677000  0.89634000  0.10890000  1.0
  C  C38  1  0.49204000  0.63281000  0.09992000  1.0
  C  C39  1  0.41151000  0.38257000  0.02850000  1.0
  C  C40  1  0.65446000  0.61308000  0.02868000  1.0
  C  C41  1  0.48157000  0.38864000  0.86332000  1.0
  C  C42  1  0.25210000  0.30120000  0.01257000  1.0
  C  C43  1  0.72102000  0.75635000  0.01465000  1.0
  C  C44  1  0.20064000  0.20592000  0.93179000  1.0
  C  C45  1  0.73223000  0.72683000  0.93175000  1.0
  C  C46  1  0.20402000  0.16634000  0.99643000  1.0
  C  C47  1  0.83702000  0.78632000  0.99371000  1.0
  C  C48  1  0.25783000  0.26250000  0.07648000  1.0
  C  C49  1  0.82402000  0.81289000  0.07596000  1.0
  C  C50  1  0.34651000  0.26613000  0.08364000  1.0
  C  C51  1  0.82718000  0.73059000  0.08120000  1.0
  C  C52  1  0.29232000  0.16981000  0.00195000  1.0
  C  C53  1  0.83868000  0.70294000  0.99740000  1.0
  C  C54  1  0.28747000  0.20875000  0.93808000  1.0
  C  C55  1  0.73536000  0.64552000  0.93601000  1.0
  C  C56  1  0.34147000  0.30595000  0.02068000  1.0
  C  C57  1  0.72393000  0.67419000  0.02065000  1.0
  C  C58  1  0.50122000  0.79557000  0.16788000  1.0
  C  C59  1  0.43460000  0.70258000  0.20654000  1.0
  C  C60  1  0.43594000  0.78733000  0.20540000  1.0
  C  C61  1  0.51819000  0.84748000  0.30261000  1.0
  C  C62  1  0.58277000  0.85503000  0.26430000  1.0
  C  C63  1  0.51549000  0.76126000  0.30246000  1.0
  C  C64  1  0.58134000  0.76982000  0.26558000  1.0
  C  C65  1  0.50142000  0.71069000  0.16903000  1.0
  C  C66  1  0.41098000  0.23231000  0.71389000  1.0
  C  C67  1  0.52501000  0.34549000  0.73383000  1.0
  C  C68  1  0.44802000  0.25256000  0.65381000  1.0
  C  C69  1  0.50834000  0.21031000  0.67734000  1.0
  C  C70  1  0.47070000  0.19065000  0.73721000  1.0
  C  C71  1  0.58513000  0.30418000  0.75703000  1.0
  C  C72  1  0.54835000  0.28365000  0.81752000  1.0
  C  C73  1  0.48895000  0.32540000  0.79567000  1.0
  C  C74  1  0.86989000  0.01138000  0.89450000  1.0
  C  C75  1  0.12363000  0.09435000  0.98194000  1.0
  C  C76  1  0.89191000  0.85272000  0.97793000  1.0
  C  C77  1  0.10552000  0.02039000  0.13778000  1.0
  C  C78  1  0.34845000  0.97588000  0.37954000  1.0
  C  C79  1  0.52071000  0.91586000  0.37512000  1.0
  C  C80  1  0.58753000  0.97913000  0.61609000  1.0
  C  C81  1  0.51369000  0.14384000  0.61068000  1.0
  C  C82  1  0.69859000  0.97543000  0.81152000  1.0
  C  C83  1  0.79456000  0.07897000  0.80254000  1.0
  C  C84  1  0.69936000  0.05088000  0.79022000  1.0
  C  C85  1  0.65778000  0.98362000  0.68850000  1.0
  C  C86  1  0.65733000  0.90889000  0.71129000  1.0
  C  C87  1  0.75380000  0.01285000  0.70244000  1.0
  C  C88  1  0.75269000  0.93685000  0.72316000  1.0
  C  C89  1  0.79448000  0.00232000  0.82331000  1.0
  C  C90  1  0.26483000  0.08326000  0.28033000  1.0
  C  C91  1  0.14983000  0.98056000  0.27189000  1.0
  C  C92  1  0.24829000  0.05173000  0.34503000  1.0
  C  C93  1  0.27939000  0.98191000  0.31554000  1.0
  C  C94  1  0.29404000  0.01404000  0.25032000  1.0
  C  C95  1  0.18039000  0.91215000  0.24263000  1.0
  C  C96  1  0.19702000  0.94141000  0.17661000  1.0
  C  C97  1  0.16619000  0.00998000  0.20505000  1.0
  N  N98  1  0.11823000  0.16878000  0.85024000  1.0
  N  N99  1  0.68652000  0.72918000  0.85154000  1.0
  N  N100  1  0.37084000  0.02766000  0.23668000  1.0
  N  N101  1  0.13447000  0.81772000  0.21645000  1.0
  O  O102  1  0.53835000  0.59934000  0.12625000  1.0
  O  O103  1  0.43682000  0.60249000  0.01834000  1.0
  O  O104  1  0.49291000  0.41207000  0.08354000  1.0
  O  O105  1  0.67805000  0.58669000  0.08426000  1.0
  O  O106  1  0.38474000  0.41271000  0.97900000  1.0
  O  O107  1  0.57541000  0.59134000  0.97870000  1.0
  O  O108  1  0.52992000  0.41188000  0.94316000  1.0
  O  O109  1  0.42756000  0.41653000  0.83767000  1.0
  O  O110  1  0.90337000  0.96377000  0.87085000  1.0
  O  O111  1  0.89750000  0.06665000  0.97531000  1.0
  O  O112  1  0.09482000  0.01400000  0.92475000  1.0
  O  O113  1  0.91758000  0.82718000  0.92208000  1.0
  O  O114  1  0.08930000  0.11920000  0.02757000  1.0
  O  O115  1  0.90823000  0.93118000  0.02150000  1.0
  O  O116  1  0.08649000  0.97427000  0.05915000  1.0
  O  O117  1  0.07745000  0.07399000  0.16312000  1.0
  O  O118  1  0.32326000  0.92034000  0.40532000  1.0
  O  O119  1  0.42727000  0.03061000  0.40523000  1.0
  O  O120  1  0.46791000  0.88711000  0.40198000  1.0
  O  O121  1  0.57458000  0.99855000  0.40639000  1.0
  O  O122  1  0.50564000  0.92261000  0.58509000  1.0
  O  O123  1  0.61316000  0.03296000  0.58928000  1.0
  O  O124  1  0.46161000  0.06281000  0.58232000  1.0
  O  O125  1  0.56910000  0.17188000  0.58486000  1.0
  O  O126  1  0.11161000  0.12288000  0.77940000  1.0
  O  O127  1  0.06040000  0.18488000  0.85902000  1.0
  O  O128  1  0.66108000  0.66615000  0.77962000  1.0
  O  O129  1  0.67881000  0.79585000  0.86228000  1.0
  O  O130  1  0.42245000  0.10356000  0.25683000  1.0
  O  O131  1  0.37678000  0.96061000  0.20482000  1.0
  O  O132  1  0.05932000  0.78614000  0.20823000  1.0
  O  O133  1  0.17373000  0.77664000  0.20172000  1.0
