# generated using pymatgen
data_TbH15C26(NO5)2
_symmetry_space_group_name_H-M   'P 1'
_cell_length_a   7.65374000
_cell_length_b   10.63440000
_cell_length_c   14.37500000
_cell_angle_alpha   75.80820000
_cell_angle_beta   84.59810000
_cell_angle_gamma   75.91310000
_symmetry_Int_Tables_number   1
_chemical_formula_structural   TbH15C26(NO5)2
_chemical_formula_sum   'Tb2 H30 C52 N4 O20'
_cell_volume   1099.46393481
_cell_formula_units_Z   2
loop_
 _symmetry_equiv_pos_site_id
 _symmetry_equiv_pos_as_xyz
  1  'x, y, z'
loop_
 _atom_site_type_symbol
 _atom_site_label
 _atom_site_symmetry_multiplicity
 _atom_site_fract_x
 _atom_site_fract_y
 _atom_site_fract_z
 _atom_site_occupancy
  Tb  Tb0  1  0.19663000  0.08718000  0.33627000  1.0
  Tb  Tb1  1  0.80337000  0.91282000  0.66373000  1.0
  H  H2  1  0.50146000  0.23093000  0.10750000  1.0
  H  H3  1  0.49854000  0.76907000  0.89250000  1.0
  H  H4  1  0.85748000  0.04455000  0.90076000  1.0
  H  H5  1  0.14252000  0.95545000  0.09924000  1.0
  H  H6  1  0.96186000  0.80048000  0.94118000  1.0
  H  H7  1  0.03814000  0.19953000  0.05882000  1.0
  H  H8  1  0.61587000  0.78704000  0.19690000  1.0
  H  H9  1  0.38413000  0.21296000  0.80310000  1.0
  H  H10  1  0.12632000  0.64113000  0.07472000  1.0
  H  H11  1  0.87369000  0.35888000  0.92529000  1.0
  H  H12  1  0.23983000  0.39829000  0.13584000  1.0
  H  H13  1  0.76018000  0.60171000  0.86416000  1.0
  H  H14  1  0.68473000  0.36539000  0.19767000  1.0
  H  H15  1  0.31528000  0.63461000  0.80233000  1.0
  H  H16  1  0.58954000  0.61030000  0.12975000  1.0
  H  H17  1  0.41046000  0.38970000  0.87025000  1.0
  H  H18  1  0.71626000  0.49706000  0.65879000  1.0
  H  H19  1  0.28374000  0.50294000  0.34121000  1.0
  H  H20  1  0.55931000  0.31479000  0.66611000  1.0
  H  H21  1  0.44069000  0.68521000  0.33389000  1.0
  H  H22  1  0.08320000  0.61456000  0.56304000  1.0
  H  H23  1  0.91680000  0.38544000  0.43696000  1.0
  H  H24  1  0.42651000  0.22144000  0.57418000  1.0
  H  H25  1  0.57348000  0.77856000  0.42582000  1.0
  H  H26  1  0.27557000  0.03412000  0.61155000  1.0
  H  H27  1  0.72443000  0.96588000  0.38845000  1.0
  H  H28  1  0.83234000  0.27986000  0.74444000  1.0
  H  H29  1  0.16765000  0.72013000  0.25556000  1.0
  H  H30  1  0.99458000  0.46596000  0.69195000  1.0
  H  H31  1  0.00541000  0.53404000  0.30805000  1.0
  C  C32  1  0.68609000  0.05679000  0.02663000  1.0
  C  C33  1  0.31391000  0.94321000  0.97337000  1.0
  C  C34  1  0.80910000  0.98713000  0.96745000  1.0
  C  C35  1  0.19090000  0.01287000  0.03255000  1.0
  C  C36  1  0.86736000  0.84936000  0.98991000  1.0
  C  C37  1  0.13264000  0.15064000  0.01009000  1.0
  C  C38  1  0.79760000  0.77671000  0.07331000  1.0
  C  C39  1  0.20240000  0.22329000  0.92669000  1.0
  C  C40  1  0.67351000  0.84249000  0.13250000  1.0
  C  C41  1  0.32649000  0.15751000  0.86750000  1.0
  C  C42  1  0.48297000  0.03236000  0.18597000  1.0
  C  C43  1  0.51703000  0.96764000  0.81403000  1.0
  C  C44  1  0.64027000  0.20611000  0.98707000  1.0
  C  C45  1  0.35973000  0.79388000  0.01293000  1.0
  C  C46  1  0.03475000  0.57484000  0.09950000  1.0
  C  C47  1  0.96526000  0.42516000  0.90050000  1.0
  C  C48  1  0.09560000  0.44115000  0.13557000  1.0
  C  C49  1  0.90441000  0.55885000  0.86443000  1.0
  C  C50  1  0.97243000  0.35844000  0.17688000  1.0
  C  C51  1  0.02757000  0.64156000  0.82311000  1.0
  C  C52  1  0.78508000  0.42382000  0.17102000  1.0
  C  C53  1  0.21493000  0.57618000  0.82898000  1.0
  C  C54  1  0.73093000  0.55793000  0.13456000  1.0
  C  C55  1  0.26907000  0.44207000  0.86544000  1.0
  C  C56  1  0.31439000  0.68908000  0.57646000  1.0
  C  C57  1  0.68560000  0.31092000  0.42354000  1.0
  C  C58  1  0.49385000  0.65543000  0.60626000  1.0
  C  C59  1  0.50615000  0.34457000  0.39374000  1.0
  C  C60  1  0.57850000  0.52043000  0.63626000  1.0
  C  C61  1  0.42149000  0.47957000  0.36374000  1.0
  C  C62  1  0.49127000  0.41905000  0.64044000  1.0
  C  C63  1  0.50872000  0.58095000  0.35957000  1.0
  C  C64  1  0.31100000  0.45410000  0.61551000  1.0
  C  C65  1  0.68900000  0.54589000  0.38450000  1.0
  C  C66  1  0.22366000  0.58741000  0.58316000  1.0
  C  C67  1  0.77634000  0.41259000  0.41684000  1.0
  C  C68  1  0.20937000  0.82787000  0.53206000  1.0
  C  C69  1  0.79062000  0.17213000  0.46794000  1.0
  C  C70  1  0.60070000  0.75300000  0.61532000  1.0
  C  C71  1  0.39929000  0.24700000  0.38468000  1.0
  C  C72  1  0.29195000  0.23112000  0.60795000  1.0
  C  C73  1  0.70804000  0.76888000  0.39205000  1.0
  C  C74  1  0.20722000  0.12789000  0.62989000  1.0
  C  C75  1  0.79277000  0.87211000  0.37011000  1.0
  C  C76  1  0.03674000  0.13973000  0.68125000  1.0
  C  C77  1  0.96326000  0.86027000  0.31875000  1.0
  C  C78  1  0.95925000  0.26699000  0.70288000  1.0
  C  C79  1  0.04075000  0.73301000  0.29713000  1.0
  C  C80  1  0.04696000  0.36846000  0.67598000  1.0
  C  C81  1  0.95304000  0.63154000  0.32402000  1.0
  C  C82  1  0.61714000  0.98176000  0.11195000  1.0
  C  C83  1  0.38286000  0.01824000  0.88805000  1.0
  N  N84  1  0.85454000  0.63418000  0.10047000  1.0
  N  N85  1  0.14546000  0.36582000  0.89953000  1.0
  N  N86  1  0.21311000  0.35152000  0.62957000  1.0
  N  N87  1  0.78689000  0.64848000  0.37043000  1.0
  O  O88  1  0.41898000  0.94880000  0.24976000  1.0
  O  O89  1  0.58102000  0.05120000  0.75024000  1.0
  O  O90  1  0.43275000  0.15716000  0.18542000  1.0
  O  O91  1  0.56725000  0.84283000  0.81458000  1.0
  O  O92  1  0.55002000  0.28594000  0.04076000  1.0
  O  O93  1  0.44997000  0.71406000  0.95924000  1.0
  O  O94  1  0.69032000  0.25293000  0.90378000  1.0
  O  O95  1  0.30968000  0.74708000  0.09622000  1.0
  O  O96  1  0.05357000  0.86469000  0.56802000  1.0
  O  O97  1  0.94643000  0.13532000  0.43198000  1.0
  O  O98  1  0.27899000  0.89279000  0.45783000  1.0
  O  O99  1  0.72101000  0.10721000  0.54217000  1.0
  O  O100  1  0.52794000  0.87582000  0.60760000  1.0
  O  O101  1  0.47206000  0.12418000  0.39240000  1.0
  O  O102  1  0.76826000  0.70686000  0.63497000  1.0
  O  O103  1  0.23174000  0.29314000  0.36503000  1.0
  O  O104  1  0.02389000  0.23439000  0.21591000  1.0
  O  O105  1  0.97612000  0.76561000  0.78409000  1.0
  O  O106  1  0.95900000  0.04277000  0.70864000  1.0
  O  O107  1  0.04100000  0.95722000  0.29136000  1.0
