# generated using pymatgen
data_CdH22C35(NO3)2
_symmetry_space_group_name_H-M   'P 1'
_cell_length_a   11.52200000
_cell_length_b   15.55640000
_cell_length_c   18.93410000
_cell_angle_alpha   90.00000000
_cell_angle_beta   107.62300000
_cell_angle_gamma   89.99990000
_symmetry_Int_Tables_number   1
_chemical_formula_structural   CdH22C35(NO3)2
_chemical_formula_sum   'Cd4 H88 C140 N8 O24'
_cell_volume   3234.49198461
_cell_formula_units_Z   4
loop_
 _symmetry_equiv_pos_site_id
 _symmetry_equiv_pos_as_xyz
  1  'x, y, z'
loop_
 _atom_site_type_symbol
 _atom_site_label
 _atom_site_symmetry_multiplicity
 _atom_site_fract_x
 _atom_site_fract_y
 _atom_site_fract_z
 _atom_site_occupancy
  Cd  Cd0  1  0.74033000  0.72347000  0.64675000  1.0
  Cd  Cd1  1  0.75966000  0.72347000  0.85325000  1.0
  Cd  Cd2  1  0.25966000  0.27653000  0.35325000  1.0
  Cd  Cd3  1  0.24034000  0.27653000  0.14675000  1.0
  H  H4  1  0.81931000  0.67114000  0.45975000  1.0
  H  H5  1  0.68069000  0.67114000  0.04025000  1.0
  H  H6  1  0.18069000  0.32886000  0.54024000  1.0
  H  H7  1  0.31931000  0.32886000  0.95976000  1.0
  H  H8  1  0.51513000  0.89224000  0.83690000  1.0
  H  H9  1  0.98488000  0.89224000  0.66310000  1.0
  H  H10  1  0.48488000  0.10776000  0.16310000  1.0
  H  H11  1  0.01513000  0.10776000  0.33690000  1.0
  H  H12  1  0.51474000  0.85370000  0.41384000  1.0
  H  H13  1  0.98526000  0.85370000  0.08616000  1.0
  H  H14  1  0.48526000  0.14630000  0.58616000  1.0
  H  H15  1  0.01474000  0.14630000  0.91384000  1.0
  H  H16  1  0.37718000  0.91837000  0.30167000  1.0
  H  H17  1  0.12282000  0.91837000  0.19833000  1.0
  H  H18  1  0.62282000  0.08163000  0.69833000  1.0
  H  H19  1  0.87718000  0.08163000  0.80167000  1.0
  H  H20  1  0.30293000  0.93181000  0.16422000  1.0
  H  H21  1  0.19707000  0.93181000  0.33578000  1.0
  H  H22  1  0.69707000  0.06819000  0.83578000  1.0
  H  H23  1  0.80293000  0.06819000  0.66422000  1.0
  H  H24  1  0.40291000  0.84862000  0.08677000  1.0
  H  H25  1  0.09709000  0.84862000  0.41323000  1.0
  H  H26  1  0.59709000  0.15138000  0.91323000  1.0
  H  H27  1  0.90291000  0.15138000  0.58677000  1.0
  H  H28  1  0.57638000  0.75355000  0.14436000  1.0
  H  H29  1  0.92362000  0.75355000  0.35564000  1.0
  H  H30  1  0.42362000  0.24645000  0.85564000  1.0
  H  H31  1  0.07638000  0.24645000  0.64436000  1.0
  H  H32  1  0.68586000  0.63449000  0.21006000  1.0
  H  H33  1  0.81415000  0.63449000  0.28994000  1.0
  H  H34  1  0.31415000  0.36551000  0.78994000  1.0
  H  H35  1  0.18586000  0.36551000  0.71006000  1.0
  H  H36  1  0.51371000  0.85911000  0.60261000  1.0
  H  H37  1  0.98629000  0.85911000  0.89739000  1.0
  H  H38  1  0.48630000  0.14089000  0.39739000  1.0
  H  H39  1  0.01370000  0.14089000  0.10261000  1.0
  H  H40  1  0.40922000  0.93366000  0.48767000  1.0
  H  H41  1  0.09078000  0.93366000  0.01233000  1.0
  H  H42  1  0.59078000  0.06635000  0.51233000  1.0
  H  H43  1  0.90922000  0.06634000  0.98767000  1.0
  H  H44  1  0.24220000  0.03090000  0.41535000  1.0
  H  H45  1  0.25780000  0.03090000  0.08465000  1.0
  H  H46  1  0.75780000  0.96910000  0.58465000  1.0
  H  H47  1  0.74220000  0.96910000  0.91535000  1.0
  H  H48  1  0.09568000  0.09107000  0.47570000  1.0
  H  H49  1  0.40432000  0.09107000  0.02430000  1.0
  H  H50  1  0.90432000  0.90893000  0.52430000  1.0
  H  H51  1  0.59568000  0.90893000  0.97570000  1.0
  H  H52  1  0.12453000  0.06850000  0.60777000  1.0
  H  H53  1  0.37547000  0.06850000  0.89223000  1.0
  H  H54  1  0.87547000  0.93150000  0.39223000  1.0
  H  H55  1  0.62453000  0.93150000  0.10777000  1.0
  H  H56  1  0.18303000  0.07677000  0.71278000  1.0
  H  H57  1  0.31697000  0.07677000  0.78722000  1.0
  H  H58  1  0.81697000  0.92323000  0.28722000  1.0
  H  H59  1  0.68303000  0.92323000  0.21278000  1.0
  H  H60  1  0.44398000  0.68505000  0.57723000  1.0
  H  H61  1  0.05602000  0.68505000  0.92277000  1.0
  H  H62  1  0.55602000  0.31494000  0.42277000  1.0
  H  H63  1  0.94398000  0.31495000  0.07723000  1.0
  H  H64  1  0.29960000  0.55931000  0.54073000  1.0
  H  H65  1  0.20040000  0.55931000  0.95927000  1.0
  H  H66  1  0.70040000  0.44069000  0.45927000  1.0
  H  H67  1  0.79960000  0.44069000  0.04073000  1.0
  H  H68  1  0.38442000  0.41024000  0.56225000  1.0
  H  H69  1  0.11558000  0.41024000  0.93775000  1.0
  H  H70  1  0.61558000  0.58976000  0.43775000  1.0
  H  H71  1  0.88442000  0.58976000  0.06225000  1.0
  H  H72  1  0.56781000  0.31412000  0.60937000  1.0
  H  H73  1  0.93219000  0.31412000  0.89063000  1.0
  H  H74  1  0.43219000  0.68588000  0.39063000  1.0
  H  H75  1  0.06781000  0.68588000  0.10937000  1.0
  H  H76  1  0.79075000  0.29870000  0.66760000  1.0
  H  H77  1  0.70925000  0.29870000  0.83241000  1.0
  H  H78  1  0.20925000  0.70130000  0.33240000  1.0
  H  H79  1  0.29075000  0.70130000  0.16760000  1.0
  H  H80  1  0.99391000  0.36686000  0.72297000  1.0
  H  H81  1  0.50609000  0.36686000  0.77703000  1.0
  H  H82  1  0.00609000  0.63314000  0.27703000  1.0
  H  H83  1  0.49391000  0.63314000  0.22297000  1.0
  H  H84  1  0.11886000  0.50136000  0.75749000  1.0
  H  H85  1  0.38113000  0.50136000  0.74251000  1.0
  H  H86  1  0.88113000  0.49864000  0.24251000  1.0
  H  H87  1  0.61887000  0.49864000  0.25749000  1.0
  H  H88  1  0.01272000  0.64453000  0.73022000  1.0
  H  H89  1  0.48727000  0.64453000  0.76978000  1.0
  H  H90  1  0.98727000  0.35547000  0.26978000  1.0
  H  H91  1  0.51273000  0.35547000  0.23022000  1.0
  C  C92  1  0.68882000  0.75077000  0.49543000  1.0
  C  C93  1  0.81118000  0.75077000  0.00457000  1.0
  C  C94  1  0.31118000  0.24923000  0.50457000  1.0
  C  C95  1  0.18882000  0.24923000  0.99543000  1.0
  C  C96  1  0.65407000  0.76364000  0.41397000  1.0
  C  C97  1  0.84593000  0.76364000  0.08603000  1.0
  C  C98  1  0.34593000  0.23636000  0.58603000  1.0
  C  C99  1  0.15408000  0.23636000  0.91397000  1.0
  C  C100  1  0.55934000  0.81832000  0.37958000  1.0
  C  C101  1  0.94066000  0.81832000  0.12042000  1.0
  C  C102  1  0.44066000  0.18168000  0.62042000  1.0
  C  C103  1  0.05934000  0.18168000  0.87958000  1.0
  C  C104  1  0.51986000  0.82820000  0.30196000  1.0
  C  C105  1  0.98014000  0.82820000  0.19804000  1.0
  C  C106  1  0.48014000  0.17180000  0.69804000  1.0
  C  C107  1  0.01986000  0.17180000  0.80196000  1.0
  C  C108  1  0.42008000  0.88240000  0.26684000  1.0
  C  C109  1  0.07992000  0.88240000  0.23316000  1.0
  C  C110  1  0.57992000  0.11760000  0.73316000  1.0
  C  C111  1  0.92008000  0.11760000  0.76684000  1.0
  C  C112  1  0.37892000  0.88969000  0.19086000  1.0
  C  C113  1  0.12108000  0.88969000  0.30914000  1.0
  C  C114  1  0.62108000  0.11031000  0.80914000  1.0
  C  C115  1  0.87892000  0.11031000  0.69086000  1.0
  C  C116  1  0.43628000  0.84249000  0.14697000  1.0
  C  C117  1  0.06372000  0.84249000  0.35303000  1.0
  C  C118  1  0.56373000  0.15751000  0.85303000  1.0
  C  C119  1  0.93627000  0.15751000  0.64697000  1.0
  C  C120  1  0.53443000  0.78968000  0.17941000  1.0
  C  C121  1  0.96557000  0.78967000  0.32058000  1.0
  C  C122  1  0.46557000  0.21033000  0.82058000  1.0
  C  C123  1  0.03443000  0.21032000  0.67942000  1.0
  C  C124  1  0.58071000  0.78122000  0.25789000  1.0
  C  C125  1  0.91929000  0.78122000  0.24211000  1.0
  C  C126  1  0.41929000  0.21878000  0.74211000  1.0
  C  C127  1  0.08071000  0.21878000  0.75789000  1.0
  C  C128  1  0.68208000  0.72752000  0.29330000  1.0
  C  C129  1  0.81792000  0.72752000  0.20670000  1.0
  C  C130  1  0.31792000  0.27248000  0.70670000  1.0
  C  C131  1  0.18208000  0.27247000  0.79330000  1.0
  C  C132  1  0.71653000  0.71830000  0.37025000  1.0
  C  C133  1  0.78347000  0.71830000  0.12975000  1.0
  C  C134  1  0.28347000  0.28170000  0.62975000  1.0
  C  C135  1  0.21653000  0.28170000  0.87025000  1.0
  C  C136  1  0.75000000  0.67659000  0.25000000  1.0
  C  C137  1  0.25000000  0.32341000  0.75000000  1.0
  C  C138  1  0.57637000  0.82308000  0.74858000  1.0
  C  C139  1  0.92363000  0.82308000  0.75142000  1.0
  C  C140  1  0.42363000  0.17692000  0.25142000  1.0
  C  C141  1  0.07637000  0.17692000  0.24858000  1.0
  C  C142  1  0.48144000  0.88338000  0.70702000  1.0
  C  C143  1  0.01856000  0.88338000  0.79298000  1.0
  C  C144  1  0.51856000  0.11662000  0.29298000  1.0
  C  C145  1  0.98144000  0.11662000  0.20702000  1.0
  C  C146  1  0.45820000  0.89335000  0.63107000  1.0
  C  C147  1  0.04180000  0.89335000  0.86893000  1.0
  C  C148  1  0.54180000  0.10665000  0.36893000  1.0
  C  C149  1  0.95820000  0.10665000  0.13107000  1.0
  C  C150  1  0.36482000  0.94834000  0.59020000  1.0
  C  C151  1  0.13518000  0.94834000  0.90980000  1.0
  C  C152  1  0.63518000  0.05166000  0.40980000  1.0
  C  C153  1  0.86482000  0.05166000  0.09020000  1.0
  C  C154  1  0.34631000  0.96362000  0.51337000  1.0
  C  C155  1  0.15370000  0.96362000  0.98663000  1.0
  C  C156  1  0.65370000  0.03638000  0.48663000  1.0
  C  C157  1  0.84630000  0.03638000  0.01337000  1.0
  C  C158  1  0.25355000  0.01615000  0.47332000  1.0
  C  C159  1  0.24645000  0.01615000  0.02668000  1.0
  C  C160  1  0.74645000  0.98385000  0.52668000  1.0
  C  C161  1  0.75355000  0.98385000  0.97332000  1.0
  C  C162  1  0.17223000  0.05240000  0.50820000  1.0
  C  C163  1  0.32778000  0.05240000  0.99180000  1.0
  C  C164  1  0.82777000  0.94760000  0.49180000  1.0
  C  C165  1  0.67222000  0.94760000  0.00820000  1.0
  C  C166  1  0.18882000  0.04006000  0.58267000  1.0
  C  C167  1  0.31118000  0.04006000  0.91733000  1.0
  C  C168  1  0.81118000  0.95994000  0.41733000  1.0
  C  C169  1  0.68882000  0.95994000  0.08267000  1.0
  C  C170  1  0.28800000  0.99054000  0.62731000  1.0
  C  C171  1  0.21200000  0.99054000  0.87269000  1.0
  C  C172  1  0.71200000  0.00946000  0.37269000  1.0
  C  C173  1  0.78800000  0.00946000  0.12731000  1.0
  C  C174  1  0.31500000  0.98304000  0.70559000  1.0
  C  C175  1  0.18500000  0.98305000  0.79441000  1.0
  C  C176  1  0.68500000  0.01695000  0.29441000  1.0
  C  C177  1  0.81500000  0.01695000  0.20559000  1.0
  C  C178  1  0.41239000  0.93180000  0.74469000  1.0
  C  C179  1  0.08761000  0.93180000  0.75531000  1.0
  C  C180  1  0.58761000  0.06820000  0.25531000  1.0
  C  C181  1  0.91239000  0.06820000  0.24469000  1.0
  C  C182  1  0.25000000  0.03423000  0.75000000  1.0
  C  C183  1  0.75000000  0.96577000  0.25000000  1.0
  C  C184  1  0.47668000  0.61882000  0.58592000  1.0
  C  C185  1  0.02332000  0.61882000  0.91408000  1.0
  C  C186  1  0.52332000  0.38118000  0.41408000  1.0
  C  C187  1  0.97668000  0.38118000  0.08592000  1.0
  C  C188  1  0.39687000  0.54838000  0.56578000  1.0
  C  C189  1  0.10314000  0.54838000  0.93422000  1.0
  C  C190  1  0.60313000  0.45162000  0.43422000  1.0
  C  C191  1  0.89686000  0.45162000  0.06577000  1.0
  C  C192  1  0.44399000  0.46600000  0.57759000  1.0
  C  C193  1  0.05601000  0.46600000  0.92241000  1.0
  C  C194  1  0.55601000  0.53400000  0.42241000  1.0
  C  C195  1  0.94399000  0.53400000  0.07759000  1.0
  C  C196  1  0.57056000  0.45388000  0.61006000  1.0
  C  C197  1  0.92944000  0.45388000  0.88994000  1.0
  C  C198  1  0.42944000  0.54612000  0.38994000  1.0
  C  C199  1  0.07056000  0.54612000  0.11006000  1.0
  C  C200  1  0.62599000  0.37065000  0.62431000  1.0
  C  C201  1  0.87401000  0.37065000  0.87570000  1.0
  C  C202  1  0.37401000  0.62935000  0.37569000  1.0
  C  C203  1  0.12599000  0.62935000  0.12430000  1.0
  C  C204  1  0.74868000  0.36213000  0.65655000  1.0
  C  C205  1  0.75132000  0.36212000  0.84345000  1.0
  C  C206  1  0.25132000  0.63787000  0.34345000  1.0
  C  C207  1  0.24868000  0.63788000  0.15655000  1.0
  C  C208  1  0.82535000  0.43628000  0.67697000  1.0
  C  C209  1  0.67465000  0.43628000  0.82303000  1.0
  C  C210  1  0.17464000  0.56372000  0.32303000  1.0
  C  C211  1  0.32536000  0.56372000  0.17697000  1.0
  C  C212  1  0.95224000  0.43026000  0.71133000  1.0
  C  C213  1  0.54776000  0.43026000  0.78867000  1.0
  C  C214  1  0.04776000  0.56974000  0.28867000  1.0
  C  C215  1  0.45224000  0.56974000  0.21133000  1.0
  C  C216  1  0.02098000  0.50434000  0.73035000  1.0
  C  C217  1  0.47901000  0.50434000  0.76965000  1.0
  C  C218  1  0.97901000  0.49566000  0.26965000  1.0
  C  C219  1  0.52099000  0.49566000  0.23035000  1.0
  C  C220  1  0.96236000  0.58444000  0.71513000  1.0
  C  C221  1  0.53764000  0.58444000  0.78488000  1.0
  C  C222  1  0.03764000  0.41556000  0.28487000  1.0
  C  C223  1  0.46236000  0.41556000  0.21512000  1.0
  C  C224  1  0.77397000  0.52001000  0.66345000  1.0
  C  C225  1  0.72602000  0.52001000  0.83655000  1.0
  C  C226  1  0.22602000  0.47999000  0.33655000  1.0
  C  C227  1  0.27397000  0.47999000  0.16345000  1.0
  C  C228  1  0.64393000  0.52891000  0.62901000  1.0
  C  C229  1  0.85607000  0.52891000  0.87099000  1.0
  C  C230  1  0.35607000  0.47109000  0.37099000  1.0
  C  C231  1  0.14393000  0.47109000  0.12901000  1.0
  N  N232  1  0.59603000  0.60887000  0.61630000  1.0
  N  N233  1  0.90397000  0.60886000  0.88370000  1.0
  N  N234  1  0.40397000  0.39113000  0.38370000  1.0
  N  N235  1  0.09603000  0.39113000  0.11630000  1.0
  N  N236  1  0.84302000  0.59181000  0.68267000  1.0
  N  N237  1  0.65698000  0.59181000  0.81733000  1.0
  N  N238  1  0.15698000  0.40819000  0.31733000  1.0
  N  N239  1  0.34302000  0.40819000  0.18267000  1.0
  O  O240  1  0.62714000  0.78521000  0.53321000  1.0
  O  O241  1  0.87286000  0.78521000  0.96679000  1.0
  O  O242  1  0.37286000  0.21479000  0.46679000  1.0
  O  O243  1  0.12714000  0.21479000  0.03321000  1.0
  O  O244  1  0.78105000  0.70142000  0.52591000  1.0
  O  O245  1  0.71895000  0.70142000  0.97409000  1.0
  O  O246  1  0.21895000  0.29858000  0.47409000  1.0
  O  O247  1  0.28105000  0.29858000  0.02591000  1.0
  O  O248  1  0.81044000  0.66532000  0.40423000  1.0
  O  O249  1  0.68956000  0.66532000  0.09577000  1.0
  O  O250  1  0.18956000  0.33468000  0.59577000  1.0
  O  O251  1  0.31044000  0.33468000  0.90423000  1.0
  O  O252  1  0.61570000  0.76368000  0.71575000  1.0
  O  O253  1  0.88430000  0.76369000  0.78425000  1.0
  O  O254  1  0.38430000  0.23631000  0.28424000  1.0
  O  O255  1  0.11570000  0.23631000  0.21575000  1.0
  O  O256  1  0.61573000  0.82931000  0.82027000  1.0
  O  O257  1  0.88427000  0.82931000  0.67973000  1.0
  O  O258  1  0.38427000  0.17069000  0.17973000  1.0
  O  O259  1  0.11573000  0.17069000  0.32027000  1.0
  O  O260  1  0.44035000  0.92908000  0.81948000  1.0
  O  O261  1  0.05964000  0.92908000  0.68052000  1.0
  O  O262  1  0.55965000  0.07092000  0.18052000  1.0
  O  O263  1  0.94036000  0.07092000  0.31948000  1.0
