# generated using pymatgen
data_NaH3C5N2O3
_symmetry_space_group_name_H-M   'P 1'
_cell_length_a   4.46717000
_cell_length_b   11.53730000
_cell_length_c   11.71630000
_cell_angle_alpha   89.99720000
_cell_angle_beta   89.99970000
_cell_angle_gamma   98.27090000
_symmetry_Int_Tables_number   1
_chemical_formula_structural   NaH3C5N2O3
_chemical_formula_sum   'Na4 H12 C20 N8 O12'
_cell_volume   597.56669845
_cell_formula_units_Z   4
loop_
 _symmetry_equiv_pos_site_id
 _symmetry_equiv_pos_as_xyz
  1  'x, y, z'
loop_
 _atom_site_type_symbol
 _atom_site_label
 _atom_site_symmetry_multiplicity
 _atom_site_fract_x
 _atom_site_fract_y
 _atom_site_fract_z
 _atom_site_occupancy
  Na  Na0  1  0.32953000  0.62427000  0.47540000  1.0
  Na  Na1  1  0.67064000  0.87567000  0.97518000  1.0
  Na  Na2  1  0.67056000  0.37563000  0.52474000  1.0
  Na  Na3  1  0.32951000  0.12437000  0.02465000  1.0
  H  H4  1  0.10958000  0.46422000  0.68879000  1.0
  H  H5  1  0.89010000  0.03577000  0.18883000  1.0
  H  H6  1  0.89011000  0.53567000  0.31124000  1.0
  H  H7  1  0.10998000  0.96426000  0.81119000  1.0
  H  H8  1  0.26794000  0.49804000  0.88896000  1.0
  H  H9  1  0.73153000  0.00187000  0.38892000  1.0
  H  H10  1  0.73166000  0.50181000  0.11098000  1.0
  H  H11  1  0.26849000  0.99816000  0.61106000  1.0
  H  H12  1  0.08697000  0.66550000  0.99761000  1.0
  H  H13  1  0.91317000  0.83453000  0.49759000  1.0
  H  H14  1  0.91337000  0.33452000  0.00236000  1.0
  H  H15  1  0.08681000  0.16555000  0.50243000  1.0
  C  C16  1  0.75360000  0.69755000  0.75261000  1.0
  C  C17  1  0.24601000  0.80232000  0.25253000  1.0
  C  C18  1  0.24633000  0.30242000  0.24742000  1.0
  C  C19  1  0.75381000  0.19764000  0.74746000  1.0
  C  C20  1  0.83923000  0.60605000  0.68002000  1.0
  C  C21  1  0.16058000  0.89393000  0.18002000  1.0
  C  C22  1  0.16088000  0.39400000  0.31994000  1.0
  C  C23  1  0.83920000  0.10600000  0.81994000  1.0
  C  C24  1  0.03308000  0.53510000  0.73714000  1.0
  C  C25  1  0.96725000  0.96503000  0.23721000  1.0
  C  C26  1  0.96727000  0.46500000  0.26276000  1.0
  C  C27  1  0.03279000  0.03498000  0.76279000  1.0
  C  C28  1  0.12113000  0.55381000  0.84852000  1.0
  C  C29  1  0.87938000  0.94638000  0.34863000  1.0
  C  C30  1  0.87920000  0.44629000  0.15138000  1.0
  C  C31  1  0.12079000  0.05367000  0.65138000  1.0
  C  C32  1  0.01895000  0.64641000  0.90946000  1.0
  C  C33  1  0.98114000  0.85360000  0.40945000  1.0
  C  C34  1  0.98098000  0.35352000  0.09056000  1.0
  C  C35  1  0.01881000  0.14640000  0.59055000  1.0
  N  N36  1  0.55799000  0.77810000  0.71427000  1.0
  N  N37  1  0.44180000  0.72182000  0.21422000  1.0
  N  N38  1  0.44208000  0.22193000  0.28579000  1.0
  N  N39  1  0.55801000  0.27815000  0.78577000  1.0
  N  N40  1  0.84213000  0.71532000  0.86187000  1.0
  N  N41  1  0.15744000  0.78456000  0.36182000  1.0
  N  N42  1  0.15758000  0.28457000  0.13819000  1.0
  N  N43  1  0.84236000  0.21541000  0.63818000  1.0
  O  O44  1  0.45939000  0.77238000  0.61371000  1.0
  O  O45  1  0.54077000  0.72765000  0.11370000  1.0
  O  O46  1  0.54068000  0.22770000  0.38636000  1.0
  O  O47  1  0.45928000  0.27236000  0.88632000  1.0
  O  O48  1  0.76182000  0.58412000  0.57556000  1.0
  O  O49  1  0.23813000  0.91596000  0.07559000  1.0
  O  O50  1  0.23810000  0.41590000  0.42443000  1.0
  O  O51  1  0.76191000  0.08405000  0.92442000  1.0
  O  O52  1  0.48865000  0.85397000  0.78220000  1.0
  O  O53  1  0.51159000  0.64608000  0.28222000  1.0
  O  O54  1  0.51153000  0.14605000  0.21788000  1.0
  O  O55  1  0.48841000  0.35396000  0.71783000  1.0
