# generated using pymatgen
data_CuH4C6N5
_symmetry_space_group_name_H-M   'P 1'
_cell_length_a   4.94262000
_cell_length_b   9.93964000
_cell_length_c   17.05730000
_cell_angle_alpha   90.00030000
_cell_angle_beta   90.00020000
_cell_angle_gamma   103.39000000
_symmetry_Int_Tables_number   1
_chemical_formula_structural   CuH4C6N5
_chemical_formula_sum   'Cu4 H16 C24 N20'
_cell_volume   815.20908100
_cell_formula_units_Z   4
loop_
 _symmetry_equiv_pos_site_id
 _symmetry_equiv_pos_as_xyz
  1  'x, y, z'
loop_
 _atom_site_type_symbol
 _atom_site_label
 _atom_site_symmetry_multiplicity
 _atom_site_fract_x
 _atom_site_fract_y
 _atom_site_fract_z
 _atom_site_occupancy
  Cu  Cu0  1  0.65304000  0.41428000  0.43417000  1.0
  Cu  Cu1  1  0.34696000  0.08573000  0.93416000  1.0
  Cu  Cu2  1  0.34695000  0.58573000  0.56584000  1.0
  Cu  Cu3  1  0.65305000  0.91427000  0.06584000  1.0
  H  H4  1  0.01761000  0.71911000  0.07756000  1.0
  H  H5  1  0.98240000  0.78090000  0.57757000  1.0
  H  H6  1  0.98241000  0.28090000  0.92244000  1.0
  H  H7  1  0.01756000  0.21911000  0.42244000  1.0
  H  H8  1  0.25693000  0.62232000  0.18621000  1.0
  H  H9  1  0.74310000  0.87769000  0.68622000  1.0
  H  H10  1  0.74309000  0.37768000  0.81379000  1.0
  H  H11  1  0.25688000  0.12231000  0.31380000  1.0
  H  H12  1  0.87572000  0.85435000  0.34912000  1.0
  H  H13  1  0.12428000  0.64564000  0.84913000  1.0
  H  H14  1  0.12427000  0.14563000  0.65087000  1.0
  H  H15  1  0.87570000  0.35434000  0.15086000  1.0
  H  H16  1  0.65219000  0.94268000  0.23411000  1.0
  H  H17  1  0.34778000  0.55731000  0.73411000  1.0
  H  H18  1  0.34781000  0.05731000  0.76589000  1.0
  H  H19  1  0.65216000  0.44268000  0.26588000  1.0
  C  C20  1  0.21538000  0.67377000  0.34106000  1.0
  C  C21  1  0.78465000  0.82624000  0.84106000  1.0
  C  C22  1  0.78465000  0.32624000  0.65894000  1.0
  C  C23  1  0.21534000  0.17374000  0.15895000  1.0
  C  C24  1  0.99229000  0.74638000  0.13864000  1.0
  C  C25  1  0.00772000  0.75363000  0.63865000  1.0
  C  C26  1  0.00772000  0.25362000  0.86135000  1.0
  C  C27  1  0.99226000  0.24638000  0.36135000  1.0
  C  C28  1  0.12503000  0.69344000  0.19884000  1.0
  C  C29  1  0.87501000  0.80658000  0.69885000  1.0
  C  C30  1  0.87499000  0.30656000  0.80116000  1.0
  C  C31  1  0.12501000  0.19343000  0.30116000  1.0
  C  C32  1  0.08598000  0.73128000  0.27662000  1.0
  C  C33  1  0.91405000  0.76873000  0.77663000  1.0
  C  C34  1  0.91403000  0.26872000  0.72337000  1.0
  C  C35  1  0.08597000  0.23125000  0.22338000  1.0
  C  C36  1  0.91406000  0.82315000  0.28973000  1.0
  C  C37  1  0.08595000  0.67685000  0.78974000  1.0
  C  C38  1  0.08594000  0.17684000  0.71027000  1.0
  C  C39  1  0.91408000  0.32313000  0.21027000  1.0
  C  C40  1  0.78861000  0.87162000  0.22644000  1.0
  C  C41  1  0.21137000  0.62836000  0.72645000  1.0
  C  C42  1  0.21138000  0.12836000  0.77356000  1.0
  C  C43  1  0.78860000  0.37162000  0.27355000  1.0
  N  N44  1  0.37722000  0.58244000  0.33096000  1.0
  N  N45  1  0.62281000  0.91758000  0.83097000  1.0
  N  N46  1  0.62280000  0.41757000  0.66903000  1.0
  N  N47  1  0.37720000  0.08242000  0.16904000  1.0
  N  N48  1  0.44535000  0.55186000  0.40282000  1.0
  N  N49  1  0.55467000  0.94815000  0.90282000  1.0
  N  N50  1  0.55468000  0.44816000  0.59719000  1.0
  N  N51  1  0.44532000  0.05184000  0.09719000  1.0
  N  N52  1  0.32835000  0.62323000  0.45551000  1.0
  N  N53  1  0.67164000  0.87678000  0.95551000  1.0
  N  N54  1  0.67166000  0.37679000  0.54449000  1.0
  N  N55  1  0.32834000  0.12322000  0.04449000  1.0
  N  N56  1  0.18374000  0.70073000  0.41782000  1.0
  N  N57  1  0.81628000  0.79929000  0.91783000  1.0
  N  N58  1  0.81629000  0.29929000  0.58217000  1.0
  N  N59  1  0.18371000  0.20072000  0.08218000  1.0
  N  N60  1  0.82452000  0.83424000  0.15152000  1.0
  N  N61  1  0.17547000  0.66576000  0.65153000  1.0
  N  N62  1  0.17548000  0.16576000  0.84847000  1.0
  N  N63  1  0.82452000  0.33425000  0.34848000  1.0
