# generated using pymatgen
data_CuH7C10N3O4
_symmetry_space_group_name_H-M   'P 1'
_cell_length_a   7.45488000
_cell_length_b   7.45537000
_cell_length_c   10.10720000
_cell_angle_alpha   90.89560000
_cell_angle_beta   90.89300000
_cell_angle_gamma   116.42100000
_symmetry_Int_Tables_number   1
_chemical_formula_structural   CuH7C10N3O4
_chemical_formula_sum   'Cu2 H14 C20 N6 O8'
_cell_volume   502.85091755
_cell_formula_units_Z   2
loop_
 _symmetry_equiv_pos_site_id
 _symmetry_equiv_pos_as_xyz
  1  'x, y, z'
loop_
 _atom_site_type_symbol
 _atom_site_label
 _atom_site_symmetry_multiplicity
 _atom_site_fract_x
 _atom_site_fract_y
 _atom_site_fract_z
 _atom_site_occupancy
  Cu  Cu0  1  0.50240000  0.68422000  0.18100000  1.0
  Cu  Cu1  1  0.68422000  0.50239000  0.68100000  1.0
  H  H2  1  0.93141000  0.21408000  0.17059000  1.0
  H  H3  1  0.21409000  0.93141000  0.67059000  1.0
  H  H4  1  0.48445000  0.02577000  0.36419000  1.0
  H  H5  1  0.02574000  0.48441000  0.86418000  1.0
  H  H6  1  0.25349000  0.18361000  0.30586000  1.0
  H  H7  1  0.18360000  0.25346000  0.80586000  1.0
  H  H8  1  0.16166000  0.72795000  0.01600000  1.0
  H  H9  1  0.72795000  0.16167000  0.51597000  1.0
  H  H10  1  0.68314000  0.16886000  0.99184000  1.0
  H  H11  1  0.16891000  0.68322000  0.49182000  1.0
  H  H12  1  0.99585000  0.46401000  0.35340000  1.0
  H  H13  1  0.46396000  0.99581000  0.85342000  1.0
  H  H14  1  0.03358000  0.00524000  0.09354000  1.0
  H  H15  1  0.00524000  0.03357000  0.59352000  1.0
  C  C16  1  0.85119000  0.30531000  0.17182000  1.0
  C  C17  1  0.30532000  0.85121000  0.67182000  1.0
  C  C18  1  0.38025000  0.98074000  0.28059000  1.0
  C  C19  1  0.98073000  0.38022000  0.78057000  1.0
  C  C20  1  0.60682000  0.39455000  0.07688000  1.0
  C  C21  1  0.39458000  0.60685000  0.57687000  1.0
  C  C22  1  0.78202000  0.55957000  0.27227000  1.0
  C  C23  1  0.55955000  0.78200000  0.77230000  1.0
  C  C24  1  0.21099000  0.83194000  0.09969000  1.0
  C  C25  1  0.83194000  0.21099000  0.59967000  1.0
  C  C26  1  0.71080000  0.27934000  0.07084000  1.0
  C  C27  1  0.27938000  0.71085000  0.57083000  1.0
  C  C28  1  0.88737000  0.44514000  0.27462000  1.0
  C  C29  1  0.44512000  0.88736000  0.77463000  1.0
  C  C30  1  0.44090000  0.38391000  0.98519000  1.0
  C  C31  1  0.38395000  0.44096000  0.48516000  1.0
  C  C32  1  0.14775000  0.97130000  0.13830000  1.0
  C  C33  1  0.97128000  0.14773000  0.63828000  1.0
  C  C34  1  0.80030000  0.72235000  0.37021000  1.0
  C  C35  1  0.72231000  0.80024000  0.87024000  1.0
  N  N36  1  0.35616000  0.83885000  0.18932000  1.0
  N  N37  1  0.83885000  0.35615000  0.68930000  1.0
  N  N38  1  0.25636000  0.06302000  0.25213000  1.0
  N  N39  1  0.06301000  0.25634000  0.75211000  1.0
  N  N40  1  0.64678000  0.52980000  0.17556000  1.0
  N  N41  1  0.52980000  0.64679000  0.67556000  1.0
  O  O42  1  0.68743000  0.80960000  0.34259000  1.0
  O  O43  1  0.80955000  0.68737000  0.84262000  1.0
  O  O44  1  0.91479000  0.76237000  0.46898000  1.0
  O  O45  1  0.76233000  0.91472000  0.96902000  1.0
  O  O46  1  0.35940000  0.49864000  0.01813000  1.0
  O  O47  1  0.49869000  0.35946000  0.51810000  1.0
  O  O48  1  0.39066000  0.26852000  0.88501000  1.0
  O  O49  1  0.26856000  0.39073000  0.38499000  1.0
