# generated using pymatgen
data_Ni3H28C38(N3O7)2
_symmetry_space_group_name_H-M   'P 1'
_cell_length_a   10.06490000
_cell_length_b   14.41366812
_cell_length_c   17.85940000
_cell_angle_alpha   87.66945264
_cell_angle_beta   73.66110000
_cell_angle_gamma   69.59558529
_symmetry_Int_Tables_number   1
_chemical_formula_structural   Ni3H28C38(N3O7)2
_chemical_formula_sum   'Ni6 H56 C76 N12 O28'
_cell_volume   2325.51291125
_cell_formula_units_Z   2
loop_
 _symmetry_equiv_pos_site_id
 _symmetry_equiv_pos_as_xyz
  1  'x, y, z'
loop_
 _atom_site_type_symbol
 _atom_site_label
 _atom_site_symmetry_multiplicity
 _atom_site_fract_x
 _atom_site_fract_y
 _atom_site_fract_z
 _atom_site_occupancy
  Ni  Ni0  1  0.50002000  0.99998000  0.49999000  1.0
  Ni  Ni1  1  0.00001000  0.49996000  0.99999000  1.0
  Ni  Ni2  1  0.83302000  0.22192000  0.42078000  1.0
  Ni  Ni3  1  0.47534000  0.27855000  0.07947000  1.0
  Ni  Ni4  1  0.16699000  0.77817000  0.57923000  1.0
  Ni  Ni5  1  0.52455000  0.72154000  0.92056000  1.0
  H  H6  1  0.95539000  0.03421000  0.44112000  1.0
  H  H7  1  0.43029000  0.46632000  0.05886000  1.0
  H  H8  1  0.04479000  0.96591000  0.55876000  1.0
  H  H9  1  0.56960000  0.53381000  0.94097000  1.0
  H  H10  1  0.77958000  0.07237000  0.46702000  1.0
  H  H11  1  0.31857000  0.42785000  0.03311000  1.0
  H  H12  1  0.22061000  0.92759000  0.53291000  1.0
  H  H13  1  0.68137000  0.57211000  0.96683000  1.0
  H  H14  1  0.46459000  0.10499000  0.11299000  1.0
  H  H15  1  0.68242000  0.39547000  0.38737000  1.0
  H  H16  1  0.53554000  0.89503000  0.88701000  1.0
  H  H17  1  0.31746000  0.60459000  0.61265000  1.0
  H  H18  1  0.62599000  0.10771000  0.11790000  1.0
  H  H19  1  0.85134000  0.39283000  0.38264000  1.0
  H  H20  1  0.37409000  0.89239000  0.88212000  1.0
  H  H21  1  0.14853000  0.60725000  0.61740000  1.0
  H  H22  1  0.23731000  0.16329000  0.22434000  1.0
  H  H23  1  0.62461000  0.33755000  0.27604000  1.0
  H  H24  1  0.76274000  0.83680000  0.77565000  1.0
  H  H25  1  0.37525000  0.66255000  0.72399000  1.0
  H  H26  1  0.66938000  0.13783000  0.23849000  1.0
  H  H27  1  0.04570000  0.36246000  0.26204000  1.0
  H  H28  1  0.33070000  0.86214000  0.76154000  1.0
  H  H29  1  0.95422000  0.63754000  0.73801000  1.0
  H  H30  1  0.49687000  0.30579000  0.47885000  1.0
  H  H31  1  0.28152000  0.19429000  0.02103000  1.0
  H  H32  1  0.50320000  0.69415000  0.52113000  1.0
  H  H33  1  0.71851000  0.80564000  0.97898000  1.0
  H  H34  1  0.31086000  0.35714000  0.60410000  1.0
  H  H35  1  0.27285000  0.14228000  0.89575000  1.0
  H  H36  1  0.68917000  0.64274000  0.39588000  1.0
  H  H37  1  0.72721000  0.85761000  0.10427000  1.0
  H  H38  1  0.49400000  0.43872000  0.79565000  1.0
  H  H39  1  0.72888000  0.06088000  0.70433000  1.0
  H  H40  1  0.50597000  0.56129000  0.20431000  1.0
  H  H41  1  0.27113000  0.93914000  0.29565000  1.0
  H  H42  1  0.30434000  0.49078000  0.92363000  1.0
  H  H43  1  0.71888000  0.00883000  0.57636000  1.0
  H  H44  1  0.69564000  0.50923000  0.07634000  1.0
  H  H45  1  0.28114000  0.99120000  0.42362000  1.0
  H  H46  1  0.01757000  0.38891000  0.85653000  1.0
  H  H47  1  0.26341000  0.11084000  0.64346000  1.0
  H  H48  1  0.98242000  0.61107000  0.14346000  1.0
  H  H49  1  0.73661000  0.88914000  0.35653000  1.0
  H  H50  1  0.19198000  0.33606000  0.72153000  1.0
  H  H51  1  0.25030000  0.16355000  0.77848000  1.0
  H  H52  1  0.80802000  0.66388000  0.27847000  1.0
  H  H53  1  0.74971000  0.83637000  0.22153000  1.0
  H  H54  1  0.66415000  0.33092000  0.70726000  1.0
  H  H55  1  0.70278000  0.16889000  0.79304000  1.0
  H  H56  1  0.33583000  0.66914000  0.29274000  1.0
  H  H57  1  0.29715000  0.83117000  0.20696000  1.0
  H  H58  1  0.84027000  0.27665000  0.57412000  1.0
  H  H59  1  0.69087000  0.22375000  0.92619000  1.0
  H  H60  1  0.15972000  0.72345000  0.42588000  1.0
  H  H61  1  0.30905000  0.77633000  0.07380000  1.0
  C  C62  1  0.29533000  0.18820000  0.47497000  1.0
  C  C63  1  0.95834000  0.31192000  0.02550000  1.0
  C  C64  1  0.70469000  0.81173000  0.52505000  1.0
  C  C65  1  0.04167000  0.68800000  0.97454000  1.0
  C  C66  1  0.34947000  0.17641000  0.38607000  1.0
  C  C67  1  0.91165000  0.32402000  0.11439000  1.0
  C  C68  1  0.65058000  0.82356000  0.61395000  1.0
  C  C69  1  0.08829000  0.67596000  0.88565000  1.0
  C  C70  1  0.25683000  0.17769000  0.33950000  1.0
  C  C71  1  0.77367000  0.32289000  0.16089000  1.0
  C  C72  1  0.74323000  0.82233000  0.66050000  1.0
  C  C73  1  0.22623000  0.67716000  0.83914000  1.0
  C  C74  1  0.09817000  0.19017000  0.37388000  1.0
  C  C75  1  0.66182000  0.31044000  0.12648000  1.0
  C  C76  1  0.90186000  0.80990000  0.62611000  1.0
  C  C77  1  0.33808000  0.68964000  0.87355000  1.0
  C  C78  1  0.31231000  0.16303000  0.25802000  1.0
  C  C79  1  0.73308000  0.33764000  0.24237000  1.0
  C  C80  1  0.68775000  0.83701000  0.74198000  1.0
  C  C81  1  0.26681000  0.66242000  0.75767000  1.0
  C  C82  1  0.45987000  0.15008000  0.22077000  1.0
  C  C83  1  0.83054000  0.35047000  0.27966000  1.0
  C  C84  1  0.54020000  0.84993000  0.77925000  1.0
  C  C85  1  0.16936000  0.64957000  0.72037000  1.0
  C  C86  1  0.55304000  0.14873000  0.26595000  1.0
  C  C87  1  0.96761000  0.35169000  0.23453000  1.0
  C  C88  1  0.44703000  0.85125000  0.73407000  1.0
  C  C89  1  0.03231000  0.64832000  0.76551000  1.0
  C  C90  1  0.49927000  0.15905000  0.34751000  1.0
  C  C91  1  0.00565000  0.34132000  0.15296000  1.0
  C  C92  1  0.50078000  0.84090000  0.65251000  1.0
  C  C93  1  0.99431000  0.65865000  0.84708000  1.0
  C  C94  1  0.60981000  0.14856000  0.39123000  1.0
  C  C95  1  0.14939000  0.35167000  0.10912000  1.0
  C  C96  1  0.39028000  0.85136000  0.60879000  1.0
  C  C97  1  0.85059000  0.64826000  0.89091000  1.0
  C  C98  1  0.53128000  0.31254000  0.53032000  1.0
  C  C99  1  0.37432000  0.18744000  0.96968000  1.0
  C  C100  1  0.46875000  0.68742000  0.46967000  1.0
  C  C101  1  0.62569000  0.81251000  0.03033000  1.0
  C  C102  1  0.42547000  0.34259000  0.60225000  1.0
  C  C103  1  0.37084000  0.15707000  0.89773000  1.0
  C  C104  1  0.57456000  0.65734000  0.39774000  1.0
  C  C105  1  0.62920000  0.84285000  0.10228000  1.0
  C  C106  1  0.46944000  0.35039000  0.66886000  1.0
  C  C107  1  0.48932000  0.14921000  0.83119000  1.0
  C  C108  1  0.53056000  0.64958000  0.33113000  1.0
  C  C109  1  0.51069000  0.85075000  0.16881000  1.0
  C  C110  1  0.36108000  0.38095000  0.74658000  1.0
  C  C111  1  0.48924000  0.11863000  0.75344000  1.0
  C  C112  1  0.63891000  0.61902000  0.25341000  1.0
  C  C113  1  0.51077000  0.88134000  0.24656000  1.0
  C  C114  1  0.39187000  0.42352000  0.80581000  1.0
  C  C115  1  0.62169000  0.07608000  0.69421000  1.0
  C  C116  1  0.60810000  0.57648000  0.19417000  1.0
  C  C117  1  0.37832000  0.92392000  0.30578000  1.0
  C  C118  1  0.28644000  0.45326000  0.87782000  1.0
  C  C119  1  0.61780000  0.04638000  0.62219000  1.0
  C  C120  1  0.71354000  0.54675000  0.12215000  1.0
  C  C121  1  0.38221000  0.95364000  0.37780000  1.0
  C  C122  1  0.12424000  0.39906000  0.83882000  1.0
  C  C123  1  0.36254000  0.10060000  0.66119000  1.0
  C  C124  1  0.87576000  0.60091000  0.16116000  1.0
  C  C125  1  0.63749000  0.89937000  0.33880000  1.0
  C  C126  1  0.22263000  0.36941000  0.76465000  1.0
  C  C127  1  0.35732000  0.13018000  0.73538000  1.0
  C  C128  1  0.77736000  0.63055000  0.23534000  1.0
  C  C129  1  0.64270000  0.86977000  0.26462000  1.0
  C  C130  1  0.62186000  0.32721000  0.65804000  1.0
  C  C131  1  0.60751000  0.17261000  0.84216000  1.0
  C  C132  1  0.37813000  0.67282000  0.34196000  1.0
  C  C133  1  0.39245000  0.82742000  0.15784000  1.0
  C  C134  1  0.72127000  0.29662000  0.58433000  1.0
  C  C135  1  0.60229000  0.20351000  0.91589000  1.0
  C  C136  1  0.27872000  0.70343000  0.41567000  1.0
  C  C137  1  0.39765000  0.79654000  0.08411000  1.0
  N  N138  1  0.15466000  0.44156000  0.89461000  1.0
  N  N139  1  0.49110000  0.05811000  0.60541000  1.0
  N  N140  1  0.84532000  0.55844000  0.10537000  1.0
  N  N141  1  0.50892000  0.94190000  0.39457000  1.0
  N  N142  1  0.67725000  0.28871000  0.52080000  1.0
  N  N143  1  0.48668000  0.21152000  0.97933000  1.0
  N  N144  1  0.32279000  0.71129000  0.47920000  1.0
  N  N145  1  0.51329000  0.78848000  0.02068000  1.0
  N  N146  1  0.51378000  0.14175000  0.13749000  1.0
  N  N147  1  0.79282000  0.35878000  0.36294000  1.0
  N  N148  1  0.48627000  0.85831000  0.86252000  1.0
  N  N149  1  0.20705000  0.64129000  0.63710000  1.0
  O  O150  1  0.61902000  0.09056000  0.44731000  1.0
  O  O151  1  0.15662000  0.40947000  0.05290000  1.0
  O  O152  1  0.38124000  0.90925000  0.55262000  1.0
  O  O153  1  0.84342000  0.59030000  0.94703000  1.0
  O  O154  1  0.29279000  0.10781000  0.50947000  1.0
  O  O155  1  0.90998000  0.39210000  0.99077000  1.0
  O  O156  1  0.70725000  0.89210000  0.49053000  1.0
  O  O157  1  0.09010000  0.60778000  0.00922000  1.0
  O  O158  1  0.03686000  0.15075000  0.33668000  1.0
  O  O159  1  0.52400000  0.34993000  0.16361000  1.0
  O  O160  1  0.96316000  0.84931000  0.66333000  1.0
  O  O161  1  0.47590000  0.65013000  0.83643000  1.0
  O  O162  1  0.02093000  0.24155000  0.43825000  1.0
  O  O163  1  0.70022000  0.25900000  0.06213000  1.0
  O  O164  1  0.97907000  0.75858000  0.56172000  1.0
  O  O165  1  0.29966000  0.74114000  0.93787000  1.0
  O  O166  1  0.69388000  0.19876000  0.36835000  1.0
  O  O167  1  0.26081000  0.30156000  0.13197000  1.0
  O  O168  1  0.30609000  0.80127000  0.63171000  1.0
  O  O169  1  0.73913000  0.69848000  0.86812000  1.0
  O  O170  1  0.26261000  0.27117000  0.50744000  1.0
  O  O171  1  0.04117000  0.22888000  0.99327000  1.0
  O  O172  1  0.73731000  0.72876000  0.49261000  1.0
  O  O173  1  0.95888000  0.77101000  0.00681000  1.0
  O  O174  1  0.86797000  0.08346000  0.47548000  1.0
  O  O175  1  0.42644000  0.41688000  0.02465000  1.0
  O  O176  1  0.13218000  0.91657000  0.52447000  1.0
  O  O177  1  0.57348000  0.58313000  0.97529000  1.0
