# generated using pymatgen
data_UH5C6NO5
_symmetry_space_group_name_H-M   'P 1'
_cell_length_a   8.62858000
_cell_length_b   10.09280000
_cell_length_c   18.66500000
_cell_angle_alpha   90.00000000
_cell_angle_beta   90.00000000
_cell_angle_gamma   90.00000000
_symmetry_Int_Tables_number   1
_chemical_formula_structural   UH5C6NO5
_chemical_formula_sum   'U8 H40 C48 N8 O40'
_cell_volume   1625.47012396
_cell_formula_units_Z   8
loop_
 _symmetry_equiv_pos_site_id
 _symmetry_equiv_pos_as_xyz
  1  'x, y, z'
loop_
 _atom_site_type_symbol
 _atom_site_label
 _atom_site_symmetry_multiplicity
 _atom_site_fract_x
 _atom_site_fract_y
 _atom_site_fract_z
 _atom_site_occupancy
  U  U0  1  0.86649000  0.21062000  0.43417000  1.0
  U  U1  1  0.13351000  0.28938000  0.93417000  1.0
  U  U2  1  0.63351000  0.71063000  0.56582000  1.0
  U  U3  1  0.36649000  0.78938000  0.06583000  1.0
  U  U4  1  0.13351000  0.78938000  0.56583000  1.0
  U  U5  1  0.86649000  0.71062000  0.06583000  1.0
  U  U6  1  0.36649000  0.28937000  0.43417000  1.0
  U  U7  1  0.63351000  0.21062000  0.93418000  1.0
  H  H8  1  0.13671000  0.12434000  0.50146000  1.0
  H  H9  1  0.86329000  0.37566000  0.00146000  1.0
  H  H10  1  0.36329000  0.62434000  0.49854000  1.0
  H  H11  1  0.63671000  0.87566000  0.99854000  1.0
  H  H12  1  0.86329000  0.87566000  0.49854000  1.0
  H  H13  1  0.13671000  0.62434000  0.99854000  1.0
  H  H14  1  0.63671000  0.37566000  0.50146000  1.0
  H  H15  1  0.36329000  0.12434000  0.00146000  1.0
  H  H16  1  0.52471000  0.45639000  0.19880000  1.0
  H  H17  1  0.47529000  0.04361000  0.69880000  1.0
  H  H18  1  0.97529000  0.95639000  0.80121000  1.0
  H  H19  1  0.02472000  0.54361000  0.30121000  1.0
  H  H20  1  0.47529000  0.54361000  0.80120000  1.0
  H  H21  1  0.52471000  0.95640000  0.30120000  1.0
  H  H22  1  0.02472000  0.04361000  0.19879000  1.0
  H  H23  1  0.97528000  0.45639000  0.69879000  1.0
  H  H24  1  0.54133000  0.42915000  0.06685000  1.0
  H  H25  1  0.45867000  0.07085000  0.56685000  1.0
  H  H26  1  0.95867000  0.92915000  0.93315000  1.0
  H  H27  1  0.04133000  0.57085000  0.43315000  1.0
  H  H28  1  0.45867000  0.57085000  0.93315000  1.0
  H  H29  1  0.54133000  0.92915000  0.43315000  1.0
  H  H30  1  0.04133000  0.07085000  0.06685000  1.0
  H  H31  1  0.95867000  0.42915000  0.56685000  1.0
  H  H32  1  0.72483000  0.05002000  0.08694000  1.0
  H  H33  1  0.27517000  0.44997000  0.58694000  1.0
  H  H34  1  0.77517000  0.55002000  0.91306000  1.0
  H  H35  1  0.22483000  0.94998000  0.41306000  1.0
  H  H36  1  0.27517000  0.94998000  0.91306000  1.0
  H  H37  1  0.72483000  0.55003000  0.41306000  1.0
  H  H38  1  0.22483000  0.44998000  0.08694000  1.0
  H  H39  1  0.77517000  0.05002000  0.58694000  1.0
  H  H40  1  0.72184000  0.06553000  0.22056000  1.0
  H  H41  1  0.27816000  0.43446000  0.72056000  1.0
  H  H42  1  0.77816000  0.56553000  0.77943000  1.0
  H  H43  1  0.22184000  0.93447000  0.27944000  1.0
  H  H44  1  0.27816000  0.93447000  0.77944000  1.0
  H  H45  1  0.72184000  0.56554000  0.27944000  1.0
  H  H46  1  0.22184000  0.43446000  0.22057000  1.0
  H  H47  1  0.77816000  0.06553000  0.72056000  1.0
  C  C48  1  0.61076000  0.26909000  0.29983000  1.0
  C  C49  1  0.38924000  0.23091000  0.79983000  1.0
  C  C50  1  0.88924000  0.76910000  0.70017000  1.0
  C  C51  1  0.11076000  0.73091000  0.20017000  1.0
  C  C52  1  0.38924000  0.73091000  0.70017000  1.0
  C  C53  1  0.61076000  0.76909000  0.20017000  1.0
  C  C54  1  0.11076000  0.23090000  0.29983000  1.0
  C  C55  1  0.88924000  0.26909000  0.79983000  1.0
  C  C56  1  0.62189000  0.26183000  0.21994000  1.0
  C  C57  1  0.37811000  0.23816000  0.71994000  1.0
  C  C58  1  0.87811000  0.76183000  0.78006000  1.0
  C  C59  1  0.12189000  0.73817000  0.28006000  1.0
  C  C60  1  0.37811000  0.73817000  0.78006000  1.0
  C  C61  1  0.62189000  0.76184000  0.28006000  1.0
  C  C62  1  0.12189000  0.23816000  0.21994000  1.0
  C  C63  1  0.87811000  0.26183000  0.71994000  1.0
  C  C64  1  0.57074000  0.36533000  0.17615000  1.0
  C  C65  1  0.42926000  0.13467000  0.67615000  1.0
  C  C66  1  0.92925000  0.86533000  0.82385000  1.0
  C  C67  1  0.07075000  0.63467000  0.32385000  1.0
  C  C68  1  0.42926000  0.63467000  0.82384000  1.0
  C  C69  1  0.57074000  0.86533000  0.32385000  1.0
  C  C70  1  0.07075000  0.13467000  0.17615000  1.0
  C  C71  1  0.92925000  0.36533000  0.67615000  1.0
  C  C72  1  0.57975000  0.35017000  0.10228000  1.0
  C  C73  1  0.42025000  0.14983000  0.60228000  1.0
  C  C74  1  0.92025000  0.85017000  0.89772000  1.0
  C  C75  1  0.07975000  0.64983000  0.39772000  1.0
  C  C76  1  0.42025000  0.64983000  0.89771000  1.0
  C  C77  1  0.57975000  0.85017000  0.39772000  1.0
  C  C78  1  0.07975000  0.14983000  0.10229000  1.0
  C  C79  1  0.92025000  0.35017000  0.60228000  1.0
  C  C80  1  0.68218000  0.13860000  0.11361000  1.0
  C  C81  1  0.31782000  0.36140000  0.61361000  1.0
  C  C82  1  0.81782000  0.63860000  0.88639000  1.0
  C  C83  1  0.18218000  0.86141000  0.38639000  1.0
  C  C84  1  0.31782000  0.86140000  0.88639000  1.0
  C  C85  1  0.68218000  0.63860000  0.38639000  1.0
  C  C86  1  0.18218000  0.36140000  0.11361000  1.0
  C  C87  1  0.81782000  0.13859000  0.61361000  1.0
  C  C88  1  0.68014000  0.14716000  0.18781000  1.0
  C  C89  1  0.31986000  0.35284000  0.68781000  1.0
  C  C90  1  0.81986000  0.64716000  0.81219000  1.0
  C  C91  1  0.18014000  0.85284000  0.31219000  1.0
  C  C92  1  0.31986000  0.85284000  0.81219000  1.0
  C  C93  1  0.68014000  0.64716000  0.31219000  1.0
  C  C94  1  0.18014000  0.35284000  0.18781000  1.0
  C  C95  1  0.81986000  0.14716000  0.68781000  1.0
  N  N96  1  0.63315000  0.23842000  0.07148000  1.0
  N  N97  1  0.36685000  0.26158000  0.57148000  1.0
  N  N98  1  0.86684000  0.73842000  0.92852000  1.0
  N  N99  1  0.13316000  0.76158000  0.42852000  1.0
  N  N100  1  0.36685000  0.76158000  0.92852000  1.0
  N  N101  1  0.63316000  0.73842000  0.42852000  1.0
  N  N102  1  0.13316000  0.26158000  0.07148000  1.0
  N  N103  1  0.86685000  0.23842000  0.57148000  1.0
  O  O104  1  0.89981000  0.38371000  0.41277000  1.0
  O  O105  1  0.10019000  0.11629000  0.91277000  1.0
  O  O106  1  0.60020000  0.88371000  0.58723000  1.0
  O  O107  1  0.39981000  0.61629000  0.08723000  1.0
  O  O108  1  0.10019000  0.61629000  0.58723000  1.0
  O  O109  1  0.89980000  0.88371000  0.08723000  1.0
  O  O110  1  0.39981000  0.11628000  0.41277000  1.0
  O  O111  1  0.60019000  0.38371000  0.91277000  1.0
  O  O112  1  0.83744000  0.03579000  0.45633000  1.0
  O  O113  1  0.16256000  0.46421000  0.95633000  1.0
  O  O114  1  0.66256000  0.53579000  0.54367000  1.0
  O  O115  1  0.33744000  0.96421000  0.04367000  1.0
  O  O116  1  0.16256000  0.96421000  0.54367000  1.0
  O  O117  1  0.83744000  0.53579000  0.04367000  1.0
  O  O118  1  0.33744000  0.46421000  0.45633000  1.0
  O  O119  1  0.66256000  0.03578000  0.95633000  1.0
  O  O120  1  0.11894000  0.20713000  0.47413000  1.0
  O  O121  1  0.88106000  0.29287000  0.97413000  1.0
  O  O122  1  0.38106000  0.70714000  0.52587000  1.0
  O  O123  1  0.61894000  0.79287000  0.02587000  1.0
  O  O124  1  0.88106000  0.79287000  0.52587000  1.0
  O  O125  1  0.11894000  0.70713000  0.02587000  1.0
  O  O126  1  0.61894000  0.29286000  0.47413000  1.0
  O  O127  1  0.38106000  0.20713000  0.97413000  1.0
  O  O128  1  0.69727000  0.19069000  0.33550000  1.0
  O  O129  1  0.30274000  0.30930000  0.83550000  1.0
  O  O130  1  0.80274000  0.69070000  0.66450000  1.0
  O  O131  1  0.19726000  0.80930000  0.16450000  1.0
  O  O132  1  0.30273000  0.80931000  0.66450000  1.0
  O  O133  1  0.69726000  0.69070000  0.16450000  1.0
  O  O134  1  0.19727000  0.30930000  0.33550000  1.0
  O  O135  1  0.80274000  0.19070000  0.83550000  1.0
  O  O136  1  0.51351000  0.34873000  0.32720000  1.0
  O  O137  1  0.48650000  0.15126000  0.82721000  1.0
  O  O138  1  0.98649000  0.84874000  0.67279000  1.0
  O  O139  1  0.01350000  0.65127000  0.17280000  1.0
  O  O140  1  0.48650000  0.65127000  0.67280000  1.0
  O  O141  1  0.51350000  0.84874000  0.17279000  1.0
  O  O142  1  0.01351000  0.15126000  0.32721000  1.0
  O  O143  1  0.98650000  0.34873000  0.82720000  1.0
