# generated using pymatgen
data_ZnH22C20(N2O3)2
_symmetry_space_group_name_H-M   'P 1'
_cell_length_a   9.38876000
_cell_length_b   10.16210000
_cell_length_c   13.84900000
_cell_angle_alpha   78.78560000
_cell_angle_beta   86.36940000
_cell_angle_gamma   79.89620000
_symmetry_Int_Tables_number   1
_chemical_formula_structural   ZnH22C20(N2O3)2
_chemical_formula_sum   'Zn2 H44 C40 N8 O12'
_cell_volume   1275.41328267
_cell_formula_units_Z   2
loop_
 _symmetry_equiv_pos_site_id
 _symmetry_equiv_pos_as_xyz
  1  'x, y, z'
loop_
 _atom_site_type_symbol
 _atom_site_label
 _atom_site_symmetry_multiplicity
 _atom_site_fract_x
 _atom_site_fract_y
 _atom_site_fract_z
 _atom_site_occupancy
  Zn  Zn0  1  0.16051000  0.12443000  0.69061000  1.0
  Zn  Zn1  1  0.83949000  0.87557000  0.30939000  1.0
  H  H2  1  0.12362000  0.42115000  0.39997000  1.0
  H  H3  1  0.87638000  0.57885000  0.60003000  1.0
  H  H4  1  0.91824000  0.93165000  0.68607000  1.0
  H  H5  1  0.08176000  0.06835000  0.31393000  1.0
  H  H6  1  0.73167000  0.22948000  0.45002000  1.0
  H  H7  1  0.26833000  0.77053000  0.54998000  1.0
  H  H8  1  0.58440000  0.09502000  0.42887000  1.0
  H  H9  1  0.41560000  0.90497000  0.57113000  1.0
  H  H10  1  0.49912000  0.12991000  0.54165000  1.0
  H  H11  1  0.50088000  0.87009000  0.45835000  1.0
  H  H12  1  0.77741000  0.34686000  0.00570000  1.0
  H  H13  1  0.22259000  0.65314000  0.99430000  1.0
  H  H14  1  0.81479000  0.46737000  0.89937000  1.0
  H  H15  1  0.18520000  0.53263000  0.10063000  1.0
  H  H16  1  0.65806000  0.92261000  0.63279000  1.0
  H  H17  1  0.34194000  0.07739000  0.36721000  1.0
  H  H18  1  0.73900000  0.88862000  0.51929000  1.0
  H  H19  1  0.26101000  0.11138000  0.48071000  1.0
  H  H20  1  0.78769000  0.36560000  0.25466000  1.0
  H  H21  1  0.21231000  0.63440000  0.74534000  1.0
  H  H22  1  0.66377000  0.35138000  0.16677000  1.0
  H  H23  1  0.33623000  0.64862000  0.83323000  1.0
  H  H24  1  0.23384000  0.55009000  0.46988000  1.0
  H  H25  1  0.76616000  0.44992000  0.53012000  1.0
  H  H26  1  0.37747000  0.51090000  0.55367000  1.0
  H  H27  1  0.62253000  0.48910000  0.44633000  1.0
  H  H28  1  0.49004000  0.22996000  0.16620000  1.0
  H  H29  1  0.50996000  0.77005000  0.83380000  1.0
  H  H30  1  0.97781000  0.39342000  0.09322000  1.0
  H  H31  1  0.02220000  0.60658000  0.90677000  1.0
  H  H32  1  0.85540000  0.54437000  0.05316000  1.0
  H  H33  1  0.14461000  0.45563000  0.94683000  1.0
  H  H34  1  0.97487000  0.30924000  0.51098000  1.0
  H  H35  1  0.02513000  0.69076000  0.48902000  1.0
  H  H36  1  0.96683000  0.37358000  0.76797000  1.0
  H  H37  1  0.03317000  0.62642000  0.23203000  1.0
  H  H38  1  0.04532000  0.33850000  0.25998000  1.0
  H  H39  1  0.95468000  0.66150000  0.74002000  1.0
  H  H40  1  0.19665000  0.00997000  0.92634000  1.0
  H  H41  1  0.80336000  0.99003000  0.07366000  1.0
  H  H42  1  0.22774000  0.24036000  0.14262000  1.0
  H  H43  1  0.77226000  0.75964000  0.85738000  1.0
  H  H44  1  0.02161000  0.14795000  0.05896000  1.0
  H  H45  1  0.97839000  0.85205000  0.94104000  1.0
  C  C46  1  0.22391000  0.37430000  0.58384000  1.0
  C  C47  1  0.77608000  0.62571000  0.41616000  1.0
  C  C48  1  0.20539000  0.37818000  0.35032000  1.0
  C  C49  1  0.79461000  0.62182000  0.64968000  1.0
  C  C50  1  0.90238000  0.02339000  0.63017000  1.0
  C  C51  1  0.09762000  0.97661000  0.36983000  1.0
  C  C52  1  0.80850000  0.17982000  0.50624000  1.0
  C  C53  1  0.19150000  0.82019000  0.49376000  1.0
  C  C54  1  0.45596000  0.31998000  0.29624000  1.0
  C  C55  1  0.54404000  0.68002000  0.70376000  1.0
  C  C56  1  0.35260000  0.36857000  0.36593000  1.0
  C  C57  1  0.64740000  0.63143000  0.63407000  1.0
  C  C58  1  0.55265000  0.04826000  0.50356000  1.0
  C  C59  1  0.44735000  0.95174000  0.49644000  1.0
  C  C60  1  0.86348000  0.39503000  0.96297000  1.0
  C  C61  1  0.13652000  0.60497000  0.03703000  1.0
  C  C62  1  0.68655000  0.97019000  0.55757000  1.0
  C  C63  1  0.31345000  0.02981000  0.44243000  1.0
  C  C64  1  0.70634000  0.30661000  0.24055000  1.0
  C  C65  1  0.29366000  0.69339000  0.75945000  1.0
  C  C66  1  0.30978000  0.46660000  0.51095000  1.0
  C  C67  1  0.69022000  0.53340000  0.48904000  1.0
  C  C68  1  0.41044000  0.27387000  0.21670000  1.0
  C  C69  1  0.58956000  0.72614000  0.78330000  1.0
  C  C70  1  0.78408000  0.16059000  0.24002000  1.0
  C  C71  1  0.21592000  0.83941000  0.75998000  1.0
  C  C72  1  0.93822000  0.46691000  0.02724000  1.0
  C  C73  1  0.06178000  0.53309000  0.97275000  1.0
  C  C74  1  0.92841000  0.21810000  0.53745000  1.0
  C  C75  1  0.07159000  0.78190000  0.46255000  1.0
  C  C76  1  0.00538000  0.29247000  0.82850000  1.0
  C  C77  1  0.99462000  0.70753000  0.17150000  1.0
  C  C78  1  0.16066000  0.33304000  0.26962000  1.0
  C  C79  1  0.83934000  0.66696000  0.73039000  1.0
  C  C80  1  0.12494000  0.10706000  0.91366000  1.0
  C  C81  1  0.87506000  0.89294000  0.08634000  1.0
  C  C82  1  0.26230000  0.27932000  0.20380000  1.0
  C  C83  1  0.73770000  0.72068000  0.79620000  1.0
  C  C84  1  0.04024000  0.17319000  0.97982000  1.0
  C  C85  1  0.95976000  0.82681000  0.02018000  1.0
  N  N86  1  0.79382000  0.05670000  0.56560000  1.0
  N  N87  1  0.20618000  0.94330000  0.43440000  1.0
  N  N88  1  0.96462000  0.28973000  0.92429000  1.0
  N  N89  1  0.03538000  0.71027000  0.07571000  1.0
  N  N90  1  0.98613000  0.11973000  0.61492000  1.0
  N  N91  1  0.01387000  0.88027000  0.38508000  1.0
  N  N92  1  0.10244000  0.18217000  0.81984000  1.0
  N  N93  1  0.89756000  0.81783000  0.18016000  1.0
  O  O94  1  0.59664000  0.32321000  0.31503000  1.0
  O  O95  1  0.40336000  0.67679000  0.68498000  1.0
  O  O96  1  0.40880000  0.40294000  0.44417000  1.0
  O  O97  1  0.59119000  0.59705000  0.55583000  1.0
  O  O98  1  0.27506000  0.24552000  0.60031000  1.0
  O  O99  1  0.72494000  0.75449000  0.39969000  1.0
  O  O100  1  0.90316000  0.14949000  0.19371000  1.0
  O  O101  1  0.09684000  0.85051000  0.80629000  1.0
  O  O102  1  0.72166000  0.06279000  0.28697000  1.0
  O  O103  1  0.27834000  0.93721000  0.71303000  1.0
  O  O104  1  0.11304000  0.43121000  0.62379000  1.0
  O  O105  1  0.88696000  0.56879000  0.37621000  1.0
