# generated using pymatgen
data_Zn4H18C30S6O13
_symmetry_space_group_name_H-M   'P 1'
_cell_length_a   20.07380000
_cell_length_b   20.19700000
_cell_length_c   21.06895798
_cell_angle_alpha   62.10258177
_cell_angle_beta   62.34539574
_cell_angle_gamma   61.03410000
_symmetry_Int_Tables_number   1
_chemical_formula_structural   Zn4H18C30S6O13
_chemical_formula_sum   'Zn8 H36 C60 S12 O26'
_cell_volume   6285.53955847
_cell_formula_units_Z   2
loop_
 _symmetry_equiv_pos_site_id
 _symmetry_equiv_pos_as_xyz
  1  'x, y, z'
loop_
 _atom_site_type_symbol
 _atom_site_label
 _atom_site_symmetry_multiplicity
 _atom_site_fract_x
 _atom_site_fract_y
 _atom_site_fract_z
 _atom_site_occupancy
  Zn  Zn0  1  0.05255000  0.02166000  0.87951000  1.0
  Zn  Zn1  1  0.06444000  0.86884000  0.02024000  1.0
  Zn  Zn2  1  0.90232000  0.02239000  0.02556000  1.0
  Zn  Zn3  1  0.05970000  0.03008000  0.02409000  1.0
  Zn  Zn4  1  0.48283000  0.45135000  0.59727000  1.0
  Zn  Zn5  1  0.48089000  0.60277000  0.45241000  1.0
  Zn  Zn6  1  0.47860000  0.44478000  0.45033000  1.0
  Zn  Zn7  1  0.63746000  0.44335000  0.45274000  1.0
  H  H8  1  0.37069000  0.77850000  0.52468000  1.0
  H  H9  1  0.27881000  0.85078000  0.55828000  1.0
  H  H10  1  0.36722000  0.83716000  0.56905000  1.0
  H  H11  1  0.19926000  0.92925000  0.64180000  1.0
  H  H12  1  0.28670000  0.91732000  0.65302000  1.0
  H  H13  1  0.19127000  0.95824000  0.71382000  1.0
  H  H14  1  0.80113000  0.27081000  0.53470000  1.0
  H  H15  1  0.88335000  0.24204000  0.56519000  1.0
  H  H16  1  0.84168000  0.17067000  0.58943000  1.0
  H  H17  1  0.96041000  0.15350000  0.65221000  1.0
  H  H18  1  0.91724000  0.08325000  0.67660000  1.0
  H  H19  1  0.97153000  0.06728000  0.73268000  1.0
  H  H20  1  0.34065000  0.33083000  0.52355000  1.0
  H  H21  1  0.32506000  0.23777000  0.56394000  1.0
  H  H22  1  0.24205000  0.32727000  0.56173000  1.0
  H  H23  1  0.23668000  0.16210000  0.64853000  1.0
  H  H24  1  0.15371000  0.25163000  0.64741000  1.0
  H  H25  1  0.14102000  0.15993000  0.71500000  1.0
  H  H26  1  0.81212000  0.51517000  0.37375000  1.0
  H  H27  1  0.86309000  0.53027000  0.27622000  1.0
  H  H28  1  0.89017000  0.55668000  0.32782000  1.0
  H  H29  1  0.95860000  0.61486000  0.19088000  1.0
  H  H30  1  0.96875000  0.64210000  0.25363000  1.0
  H  H31  1  0.99924000  0.69151000  0.15515000  1.0
  H  H32  1  0.40851000  0.51997000  0.28401000  1.0
  H  H33  1  0.31874000  0.54661000  0.26652000  1.0
  H  H34  1  0.40214000  0.56767000  0.19011000  1.0
  H  H35  1  0.24717000  0.63115000  0.17319000  1.0
  H  H36  1  0.33088000  0.65469000  0.09959000  1.0
  H  H37  1  0.23387000  0.70992000  0.08819000  1.0
  H  H38  1  0.54882000  0.29739000  0.35395000  1.0
  H  H39  1  0.57494000  0.29232000  0.26269000  1.0
  H  H40  1  0.59470000  0.20344000  0.33774000  1.0
  H  H41  1  0.65653000  0.20969000  0.18210000  1.0
  H  H42  1  0.67846000  0.12086000  0.25669000  1.0
  H  H43  1  0.73341000  0.12149000  0.16151000  1.0
  C  C44  1  0.14544000  0.86282000  0.86459000  1.0
  C  C45  1  0.19400000  0.81243000  0.81555000  1.0
  C  C46  1  0.26487000  0.69216000  0.77709000  1.0
  C  C47  1  0.34414000  0.66281000  0.65747000  1.0
  C  C48  1  0.39357000  0.61533000  0.60570000  1.0
  C  C49  1  0.31765000  0.74409000  0.64511000  1.0
  C  C50  1  0.33485000  0.80565000  0.56981000  1.0
  C  C51  1  0.27129000  0.76149000  0.71512000  1.0
  C  C52  1  0.22988000  0.83173000  0.73782000  1.0
  C  C53  1  0.22617000  0.91398000  0.68407000  1.0
  C  C54  1  0.88840000  0.09382000  0.87360000  1.0
  C  C55  1  0.83775000  0.14489000  0.82419000  1.0
  C  C56  1  0.72254000  0.24598000  0.78054000  1.0
  C  C57  1  0.69301000  0.30955000  0.66051000  1.0
  C  C58  1  0.64718000  0.36183000  0.60679000  1.0
  C  C59  1  0.76981000  0.25372000  0.65245000  1.0
  C  C60  1  0.82673000  0.23367000  0.58125000  1.0
  C  C61  1  0.78722000  0.21624000  0.72273000  1.0
  C  C62  1  0.85431000  0.15661000  0.74860000  1.0
  C  C63  1  0.93029000  0.11240000  0.70030000  1.0
  C  C64  1  0.12441000  0.12527000  0.86659000  1.0
  C  C65  1  0.17304000  0.17685000  0.81697000  1.0
  C  C66  1  0.25928000  0.25189000  0.77752000  1.0
  C  C67  1  0.33748000  0.32171000  0.65661000  1.0
  C  C68  1  0.39244000  0.36638000  0.60402000  1.0
  C  C69  1  0.29703000  0.29101000  0.64471000  1.0
  C  C70  1  0.30178000  0.29741000  0.56906000  1.0
  C  C71  1  0.25108000  0.25014000  0.71539000  1.0
  C  C72  1  0.20031000  0.20647000  0.73867000  1.0
  C  C73  1  0.18154000  0.19400000  0.68486000  1.0
  C  C74  1  0.90589000  0.85500000  0.11328000  1.0
  C  C75  1  0.85431000  0.80749000  0.16916000  1.0
  C  C76  1  0.73061000  0.77706000  0.24899000  1.0
  C  C77  1  0.69667000  0.65615000  0.33239000  1.0
  C  C78  1  0.64747000  0.60494000  0.37998000  1.0
  C  C79  1  0.77922000  0.63763000  0.30431000  1.0
  C  C80  1  0.83924000  0.55548000  0.32203000  1.0
  C  C81  1  0.79941000  0.70826000  0.25485000  1.0
  C  C82  1  0.87179000  0.72640000  0.20788000  1.0
  C  C83  1  0.95431000  0.66565000  0.20097000  1.0
  C  C84  1  0.16075000  0.86803000  0.09266000  1.0
  C  C85  1  0.21182000  0.81966000  0.14202000  1.0
  C  C86  1  0.27435000  0.78413000  0.23495000  1.0
  C  C87  1  0.35624000  0.66049000  0.30658000  1.0
  C  C88  1  0.40105000  0.60726000  0.36114000  1.0
  C  C89  1  0.34029000  0.64534000  0.25809000  1.0
  C  C90  1  0.36941000  0.56530000  0.24946000  1.0
  C  C91  1  0.29221000  0.71760000  0.21615000  1.0
  C  C92  1  0.25612000  0.73872000  0.16123000  1.0
  C  C93  1  0.26712000  0.68085000  0.12856000  1.0
  C  C94  1  0.89504000  0.10798000  0.11167000  1.0
  C  C95  1  0.84681000  0.15626000  0.16288000  1.0
  C  C96  1  0.81395000  0.23873000  0.23633000  1.0
  C  C97  1  0.69169000  0.30743000  0.31976000  1.0
  C  C98  1  0.64008000  0.35706000  0.36959000  1.0
  C  C99  1  0.67462000  0.26737000  0.29369000  1.0
  C  C100  1  0.59348000  0.26533000  0.31353000  1.0
  C  C101  1  0.74600000  0.22734000  0.24465000  1.0
  C  C102  1  0.76546000  0.17899000  0.20156000  1.0
  C  C103  1  0.70557000  0.15629000  0.19990000  1.0
  S  S104  1  0.20951000  0.71037000  0.86144000  1.0
  S  S105  1  0.31377000  0.60707000  0.75265000  1.0
  S  S106  1  0.74141000  0.20375000  0.86472000  1.0
  S  S107  1  0.64133000  0.31687000  0.75203000  1.0
  S  S108  1  0.20778000  0.20155000  0.86270000  1.0
  S  S109  1  0.32089000  0.30156000  0.75226000  1.0
  S  S110  1  0.75152000  0.86224000  0.18878000  1.0
  S  S111  1  0.64307000  0.75805000  0.30102000  1.0
  S  S112  1  0.21509000  0.87084000  0.18805000  1.0
  S  S113  1  0.31529000  0.76130000  0.30092000  1.0
  S  S114  1  0.90020000  0.19210000  0.17836000  1.0
  S  S115  1  0.79319000  0.29680000  0.28596000  1.0
  O  O116  1  0.01956000  0.98544000  0.98952000  1.0
  O  O117  1  0.11580000  0.82721000  0.93456000  1.0
  O  O118  1  0.13590000  0.93725000  0.83558000  1.0
  O  O119  1  0.41837000  0.65013000  0.53490000  1.0
  O  O120  1  0.40799000  0.53995000  0.63765000  1.0
  O  O121  1  0.85460000  0.09179000  0.94304000  1.0
  O  O122  1  0.96197000  0.05601000  0.84492000  1.0
  O  O123  1  0.68130000  0.36575000  0.53715000  1.0
  O  O124  1  0.57391000  0.40100000  0.63561000  1.0
  O  O125  1  0.11700000  0.10035000  0.93703000  1.0
  O  O126  1  0.09376000  0.10860000  0.83681000  1.0
  O  O127  1  0.40405000  0.38966000  0.53294000  1.0
  O  O128  1  0.42512000  0.37856000  0.63562000  1.0
  O  O129  1  0.86820000  0.92892000  0.08497000  1.0
  O  O130  1  0.98201000  0.82124000  0.09661000  1.0
  O  O131  1  0.68234000  0.52941000  0.40259000  1.0
  O  O132  1  0.57161000  0.64175000  0.39415000  1.0
  O  O133  1  0.13052000  0.94306000  0.08389000  1.0
  O  O134  1  0.14917000  0.83295000  0.06340000  1.0
  O  O135  1  0.42479000  0.53183000  0.37554000  1.0
  O  O136  1  0.41184000  0.64252000  0.39113000  1.0
  O  O137  1  0.97057000  0.09480000  0.08790000  1.0
  O  O138  1  0.85963000  0.08338000  0.09443000  1.0
  O  O139  1  0.56509000  0.36802000  0.39710000  1.0
  O  O140  1  0.67611000  0.38628000  0.38143000  1.0
  O  O141  1  0.52023000  0.48581000  0.48668000  1.0
