# generated using pymatgen
data_NiH22C14(SN4)2
_symmetry_space_group_name_H-M   'P 1'
_cell_length_a   9.19265000
_cell_length_b   9.97264000
_cell_length_c   11.03160000
_cell_angle_alpha   90.00000000
_cell_angle_beta   89.99960000
_cell_angle_gamma   114.10700000
_symmetry_Int_Tables_number   1
_chemical_formula_structural   NiH22C14(SN4)2
_chemical_formula_sum   'Ni2 H44 C28 S4 N16'
_cell_volume   923.11865338
_cell_formula_units_Z   2
loop_
 _symmetry_equiv_pos_site_id
 _symmetry_equiv_pos_as_xyz
  1  'x, y, z'
loop_
 _atom_site_type_symbol
 _atom_site_label
 _atom_site_symmetry_multiplicity
 _atom_site_fract_x
 _atom_site_fract_y
 _atom_site_fract_z
 _atom_site_occupancy
  Ni  Ni0  1  0.00000000  0.50000000  0.00000000  1.0
  Ni  Ni1  1  0.50000000  0.00000000  0.50000000  1.0
  H  H2  1  0.64933000  0.45580000  0.09307000  1.0
  H  H3  1  0.85067000  0.04419000  0.59307000  1.0
  H  H4  1  0.35067000  0.54420000  0.90693000  1.0
  H  H5  1  0.14934000  0.95580000  0.40693000  1.0
  H  H6  1  0.65563000  0.28210000  0.09561000  1.0
  H  H7  1  0.84437000  0.21789000  0.59560000  1.0
  H  H8  1  0.34437000  0.71789000  0.90440000  1.0
  H  H9  1  0.15564000  0.78211000  0.40439000  1.0
  H  H10  1  0.44616000  0.19748000  0.92791000  1.0
  H  H11  1  0.05384000  0.30252000  0.42791000  1.0
  H  H12  1  0.55384000  0.80252000  0.07209000  1.0
  H  H13  1  0.94617000  0.69748000  0.57209000  1.0
  H  H14  1  0.43781000  0.37025000  0.93133000  1.0
  H  H15  1  0.06219000  0.12974000  0.43132000  1.0
  H  H16  1  0.56218000  0.62975000  0.06868000  1.0
  H  H17  1  0.93782000  0.87026000  0.56868000  1.0
  H  H18  1  0.34624000  0.32916000  0.14813000  1.0
  H  H19  1  0.15376000  0.17084000  0.64812000  1.0
  H  H20  1  0.65376000  0.67084000  0.85187000  1.0
  H  H21  1  0.84624000  0.82916000  0.35187000  1.0
  H  H22  1  0.21858000  0.18606000  0.05199000  1.0
  H  H23  1  0.28142000  0.31394000  0.55199000  1.0
  H  H24  1  0.78141000  0.81394000  0.94801000  1.0
  H  H25  1  0.71859000  0.68606000  0.44801000  1.0
  H  H26  1  0.32019000  0.95634000  0.03813000  1.0
  H  H27  1  0.17979000  0.54365000  0.53811000  1.0
  H  H28  1  0.67980000  0.04366000  0.96188000  1.0
  H  H29  1  0.82021000  0.45635000  0.46188000  1.0
  H  H30  1  0.41776000  0.83549000  0.23558000  1.0
  H  H31  1  0.08223000  0.66450000  0.73557000  1.0
  H  H32  1  0.58224000  0.16452000  0.76442000  1.0
  H  H33  1  0.91777000  0.33550000  0.26443000  1.0
  H  H34  1  0.43655000  0.24944000  0.33581000  1.0
  H  H35  1  0.06346000  0.25056000  0.83581000  1.0
  H  H36  1  0.56346000  0.75056000  0.66419000  1.0
  H  H37  1  0.93654000  0.74944000  0.16419000  1.0
  H  H38  1  0.73895000  0.47373000  0.87997000  1.0
  H  H39  1  0.76104000  0.02627000  0.37997000  1.0
  H  H40  1  0.26104000  0.52627000  0.12003000  1.0
  H  H41  1  0.23896000  0.97373000  0.62003000  1.0
  H  H42  1  0.75368000  0.31756000  0.89490000  1.0
  H  H43  1  0.74632000  0.18243000  0.39490000  1.0
  H  H44  1  0.24631000  0.68243000  0.10510000  1.0
  H  H45  1  0.25368000  0.81757000  0.60510000  1.0
  C  C46  1  0.63299000  0.36007000  0.03627000  1.0
  C  C47  1  0.86701000  0.13992000  0.53626000  1.0
  C  C48  1  0.36701000  0.63992000  0.96374000  1.0
  C  C49  1  0.13299000  0.86008000  0.46373000  1.0
  C  C50  1  0.46279000  0.29103000  0.98760000  1.0
  C  C51  1  0.03721000  0.20896000  0.48759000  1.0
  C  C52  1  0.53721000  0.70897000  0.01241000  1.0
  C  C53  1  0.96279000  0.79103000  0.51241000  1.0
  C  C54  1  0.33949000  0.23801000  0.08926000  1.0
  C  C55  1  0.16051000  0.26199000  0.58925000  1.0
  C  C56  1  0.66051000  0.76199000  0.91075000  1.0
  C  C57  1  0.83949000  0.73801000  0.41074000  1.0
  C  C58  1  0.35886000  0.99664000  0.12896000  1.0
  C  C59  1  0.14113000  0.50335000  0.62894000  1.0
  C  C60  1  0.64114000  0.00336000  0.87104000  1.0
  C  C61  1  0.85887000  0.49665000  0.37105000  1.0
  C  C62  1  0.40656000  0.93890000  0.22666000  1.0
  C  C63  1  0.09343000  0.56110000  0.72665000  1.0
  C  C64  1  0.59344000  0.06110000  0.77335000  1.0
  C  C65  1  0.90657000  0.43890000  0.27335000  1.0
  C  C66  1  0.41804000  0.15171000  0.28340000  1.0
  C  C67  1  0.08196000  0.34829000  0.78340000  1.0
  C  C68  1  0.58196000  0.84830000  0.71660000  1.0
  C  C69  1  0.91804000  0.65170000  0.21660000  1.0
  C  C70  1  0.06287000  0.82249000  0.90416000  1.0
  C  C71  1  0.43715000  0.67750000  0.40416000  1.0
  C  C72  1  0.93713000  0.17750000  0.09584000  1.0
  C  C73  1  0.56286000  0.32251000  0.59584000  1.0
  S  S74  1  0.11366000  0.98118000  0.83853000  1.0
  S  S75  1  0.38634000  0.51882000  0.33853000  1.0
  S  S76  1  0.88634000  0.01883000  0.16147000  1.0
  S  S77  1  0.61366000  0.48119000  0.66147000  1.0
  N  N78  1  0.75777000  0.40670000  0.94285000  1.0
  N  N79  1  0.74223000  0.09329000  0.44285000  1.0
  N  N80  1  0.24223000  0.59330000  0.05715000  1.0
  N  N81  1  0.25777000  0.90671000  0.55715000  1.0
  N  N82  1  0.36659000  0.13136000  0.16660000  1.0
  N  N83  1  0.13340000  0.36863000  0.66659000  1.0
  N  N84  1  0.63340000  0.86864000  0.83340000  1.0
  N  N85  1  0.86660000  0.63136000  0.33340000  1.0
  N  N86  1  0.44221000  0.03590000  0.32254000  1.0
  N  N87  1  0.05779000  0.46410000  0.82253000  1.0
  N  N88  1  0.55779000  0.96410000  0.67746000  1.0
  N  N89  1  0.94221000  0.53590000  0.17746000  1.0
  N  N90  1  0.02538000  0.70673000  0.95262000  1.0
  N  N91  1  0.47463000  0.79327000  0.45262000  1.0
  N  N92  1  0.97462000  0.29328000  0.04738000  1.0
  N  N93  1  0.52538000  0.20674000  0.54738000  1.0
