# generated using pymatgen
data_Zn5H12C36N18(Cl2O3)2
_symmetry_space_group_name_H-M   'P 1'
_cell_length_a   22.09090000
_cell_length_b   22.09085000
_cell_length_c   22.09086661
_cell_angle_alpha   59.99997513
_cell_angle_beta   60.00005000
_cell_angle_gamma   59.99977538
_symmetry_Int_Tables_number   1
_chemical_formula_structural   Zn5H12C36N18(Cl2O3)2
_chemical_formula_sum   'Zn10 H24 C72 N36 Cl8 O12'
_cell_volume   7622.94764753
_cell_formula_units_Z   2
loop_
 _symmetry_equiv_pos_site_id
 _symmetry_equiv_pos_as_xyz
  1  'x, y, z'
loop_
 _atom_site_type_symbol
 _atom_site_label
 _atom_site_symmetry_multiplicity
 _atom_site_fract_x
 _atom_site_fract_y
 _atom_site_fract_z
 _atom_site_occupancy
  Zn  Zn0  1  0.18372000  0.18371000  0.44886000  1.0
  Zn  Zn1  1  0.44887000  0.18371000  0.18371000  1.0
  Zn  Zn2  1  0.18372000  0.44886000  0.18371000  1.0
  Zn  Zn3  1  0.18372000  0.18371000  0.18371000  1.0
  Zn  Zn4  1  0.55113000  0.81629000  0.81629000  1.0
  Zn  Zn5  1  0.81628000  0.81629000  0.55114000  1.0
  Zn  Zn6  1  0.81628000  0.55114000  0.81629000  1.0
  Zn  Zn7  1  0.81628000  0.81629000  0.81629000  1.0
  Zn  Zn8  1  0.25000000  0.25000000  0.25000000  1.0
  Zn  Zn9  1  0.75000000  0.75000000  0.75000000  1.0
  H  H10  1  0.07489000  0.07487000  0.54005000  1.0
  H  H11  1  0.54005000  0.31019000  0.07489000  1.0
  H  H12  1  0.31020000  0.54005000  0.07487000  1.0
  H  H13  1  0.07488000  0.07488000  0.31019000  1.0
  H  H14  1  0.07489000  0.54005000  0.31019000  1.0
  H  H15  1  0.54005000  0.07489000  0.07487000  1.0
  H  H16  1  0.31020000  0.07487000  0.07488000  1.0
  H  H17  1  0.07488000  0.31019000  0.54005000  1.0
  H  H18  1  0.07489000  0.31019000  0.07487000  1.0
  H  H19  1  0.54005000  0.07487000  0.31019000  1.0
  H  H20  1  0.31020000  0.07488000  0.54005000  1.0
  H  H21  1  0.07488000  0.54005000  0.07488000  1.0
  H  H22  1  0.45994000  0.92513000  0.92512000  1.0
  H  H23  1  0.92511000  0.68981000  0.45995000  1.0
  H  H24  1  0.92513000  0.45995000  0.68981000  1.0
  H  H25  1  0.68981000  0.92511000  0.92513000  1.0
  H  H26  1  0.68981000  0.45995000  0.92511000  1.0
  H  H27  1  0.92513000  0.92511000  0.45995000  1.0
  H  H28  1  0.92511000  0.92513000  0.68981000  1.0
  H  H29  1  0.45994000  0.68981000  0.92513000  1.0
  H  H30  1  0.92513000  0.68981000  0.92511000  1.0
  H  H31  1  0.68981000  0.92513000  0.45995000  1.0
  H  H32  1  0.45994000  0.92512000  0.68981000  1.0
  H  H33  1  0.92511000  0.45995000  0.92513000  1.0
  C  C34  1  0.11354000  0.11352000  0.41852000  1.0
  C  C35  1  0.41852000  0.35443000  0.11353000  1.0
  C  C36  1  0.35442000  0.41852000  0.11353000  1.0
  C  C37  1  0.11352000  0.11353000  0.35443000  1.0
  C  C38  1  0.11353000  0.41852000  0.35443000  1.0
  C  C39  1  0.41853000  0.11353000  0.11352000  1.0
  C  C40  1  0.35442000  0.11353000  0.11353000  1.0
  C  C41  1  0.11353000  0.35442000  0.41852000  1.0
  C  C42  1  0.11354000  0.35442000  0.11352000  1.0
  C  C43  1  0.41853000  0.11352000  0.35442000  1.0
  C  C44  1  0.35442000  0.11353000  0.41852000  1.0
  C  C45  1  0.11352000  0.41852000  0.11353000  1.0
  C  C46  1  0.58148000  0.88647000  0.88647000  1.0
  C  C47  1  0.88647000  0.64558000  0.58148000  1.0
  C  C48  1  0.88647000  0.58148000  0.64558000  1.0
  C  C49  1  0.64557000  0.88647000  0.88648000  1.0
  C  C50  1  0.64557000  0.58148000  0.88647000  1.0
  C  C51  1  0.88647000  0.88647000  0.58148000  1.0
  C  C52  1  0.88648000  0.88647000  0.64557000  1.0
  C  C53  1  0.58149000  0.64557000  0.88647000  1.0
  C  C54  1  0.88648000  0.64557000  0.88647000  1.0
  C  C55  1  0.64557000  0.88648000  0.58148000  1.0
  C  C56  1  0.58148000  0.88647000  0.64558000  1.0
  C  C57  1  0.88648000  0.58148000  0.88647000  1.0
  C  C58  1  0.07535000  0.07534000  0.49026000  1.0
  C  C59  1  0.49026000  0.35904000  0.07536000  1.0
  C  C60  1  0.35905000  0.49026000  0.07534000  1.0
  C  C61  1  0.07535000  0.07535000  0.35904000  1.0
  C  C62  1  0.07535000  0.49026000  0.35905000  1.0
  C  C63  1  0.49026000  0.07536000  0.07534000  1.0
  C  C64  1  0.35904000  0.07535000  0.07535000  1.0
  C  C65  1  0.07535000  0.35904000  0.49026000  1.0
  C  C66  1  0.07535000  0.35905000  0.07534000  1.0
  C  C67  1  0.49027000  0.07534000  0.35904000  1.0
  C  C68  1  0.35905000  0.07535000  0.49026000  1.0
  C  C69  1  0.07535000  0.49026000  0.07535000  1.0
  C  C70  1  0.50974000  0.92465000  0.92465000  1.0
  C  C71  1  0.92465000  0.64096000  0.50974000  1.0
  C  C72  1  0.92465000  0.50974000  0.64096000  1.0
  C  C73  1  0.64095000  0.92465000  0.92466000  1.0
  C  C74  1  0.64095000  0.50974000  0.92465000  1.0
  C  C75  1  0.92466000  0.92465000  0.50974000  1.0
  C  C76  1  0.92465000  0.92465000  0.64096000  1.0
  C  C77  1  0.50974000  0.64096000  0.92465000  1.0
  C  C78  1  0.92466000  0.64095000  0.92465000  1.0
  C  C79  1  0.64096000  0.92466000  0.50974000  1.0
  C  C80  1  0.50974000  0.92465000  0.64096000  1.0
  C  C81  1  0.92465000  0.50974000  0.92465000  1.0
  C  C82  1  0.03793000  0.03792000  0.49442000  1.0
  C  C83  1  0.49442000  0.42973000  0.03793000  1.0
  C  C84  1  0.42974000  0.49442000  0.03792000  1.0
  C  C85  1  0.03793000  0.03792000  0.42973000  1.0
  C  C86  1  0.03793000  0.49442000  0.42973000  1.0
  C  C87  1  0.49443000  0.03792000  0.03792000  1.0
  C  C88  1  0.42973000  0.03792000  0.03792000  1.0
  C  C89  1  0.03793000  0.42973000  0.49442000  1.0
  C  C90  1  0.03793000  0.42973000  0.03792000  1.0
  C  C91  1  0.49443000  0.03792000  0.42973000  1.0
  C  C92  1  0.42974000  0.03792000  0.49442000  1.0
  C  C93  1  0.03792000  0.49443000  0.03792000  1.0
  C  C94  1  0.50557000  0.96208000  0.96208000  1.0
  C  C95  1  0.96208000  0.57027000  0.50557000  1.0
  C  C96  1  0.96208000  0.50558000  0.57027000  1.0
  C  C97  1  0.57027000  0.96207000  0.96208000  1.0
  C  C98  1  0.57027000  0.50557000  0.96208000  1.0
  C  C99  1  0.96208000  0.96207000  0.50558000  1.0
  C  C100  1  0.96208000  0.96208000  0.57027000  1.0
  C  C101  1  0.50557000  0.57027000  0.96208000  1.0
  C  C102  1  0.96208000  0.57027000  0.96207000  1.0
  C  C103  1  0.57027000  0.96208000  0.50557000  1.0
  C  C104  1  0.50557000  0.96208000  0.57027000  1.0
  C  C105  1  0.96207000  0.50558000  0.96208000  1.0
  N  N106  1  0.15533000  0.15533000  0.39441000  1.0
  N  N107  1  0.39440000  0.29493000  0.15534000  1.0
  N  N108  1  0.29493000  0.39441000  0.15533000  1.0
  N  N109  1  0.15533000  0.15533000  0.29493000  1.0
  N  N110  1  0.15533000  0.39441000  0.29493000  1.0
  N  N111  1  0.39440000  0.15534000  0.15533000  1.0
  N  N112  1  0.29492000  0.15533000  0.15534000  1.0
  N  N113  1  0.15532000  0.29493000  0.39441000  1.0
  N  N114  1  0.15533000  0.29493000  0.15533000  1.0
  N  N115  1  0.39440000  0.15533000  0.29493000  1.0
  N  N116  1  0.29493000  0.15533000  0.39441000  1.0
  N  N117  1  0.15532000  0.39441000  0.15534000  1.0
  N  N118  1  0.60560000  0.84467000  0.84466000  1.0
  N  N119  1  0.84467000  0.70507000  0.60559000  1.0
  N  N120  1  0.84468000  0.60559000  0.70507000  1.0
  N  N121  1  0.70508000  0.84466000  0.84467000  1.0
  N  N122  1  0.70508000  0.60559000  0.84466000  1.0
  N  N123  1  0.84468000  0.84466000  0.60559000  1.0
  N  N124  1  0.84467000  0.84467000  0.70507000  1.0
  N  N125  1  0.60560000  0.70507000  0.84467000  1.0
  N  N126  1  0.84468000  0.70507000  0.84466000  1.0
  N  N127  1  0.70508000  0.84467000  0.60559000  1.0
  N  N128  1  0.60560000  0.84466000  0.70507000  1.0
  N  N129  1  0.84467000  0.60559000  0.84467000  1.0
  N  N130  1  0.17956000  0.17956000  0.32044000  1.0
  N  N131  1  0.32044000  0.32044000  0.17956000  1.0
  N  N132  1  0.17956000  0.32044000  0.32044000  1.0
  N  N133  1  0.32044000  0.17956000  0.17956000  1.0
  N  N134  1  0.17956000  0.32044000  0.17956000  1.0
  N  N135  1  0.32044000  0.17956000  0.32044000  1.0
  N  N136  1  0.67956000  0.82044000  0.82044000  1.0
  N  N137  1  0.82044000  0.67956000  0.67956000  1.0
  N  N138  1  0.67956000  0.67956000  0.82044000  1.0
  N  N139  1  0.82044000  0.82044000  0.67956000  1.0
  N  N140  1  0.82044000  0.67956000  0.82044000  1.0
  N  N141  1  0.67956000  0.82044000  0.67956000  1.0
  Cl  Cl142  1  0.14360000  0.14359000  0.56923000  1.0
  Cl  Cl143  1  0.56923000  0.14359000  0.14359000  1.0
  Cl  Cl144  1  0.14359000  0.56923000  0.14359000  1.0
  Cl  Cl145  1  0.14359000  0.14359000  0.14359000  1.0
  Cl  Cl146  1  0.43077000  0.85641000  0.85641000  1.0
  Cl  Cl147  1  0.85640000  0.85641000  0.43077000  1.0
  Cl  Cl148  1  0.85641000  0.43077000  0.85641000  1.0
  Cl  Cl149  1  0.85640000  0.85641000  0.85642000  1.0
  O  O150  1  0.00000000  0.00000000  0.56419000  1.0
  O  O151  1  0.56419000  0.43581000  0.00000000  1.0
  O  O152  1  0.43580000  0.56420000  0.00000000  1.0
  O  O153  1  0.00000000  0.00000000  0.43581000  1.0
  O  O154  1  0.99999000  0.56420000  0.43581000  1.0
  O  O155  1  0.56419000  0.00000000  0.00000000  1.0
  O  O156  1  0.43581000  0.00000000  0.00000000  1.0
  O  O157  1  0.00001000  0.43580000  0.56419000  1.0
  O  O158  1  0.99999000  0.43581000  0.00000000  1.0
  O  O159  1  0.56419000  0.00000000  0.43581000  1.0
  O  O160  1  0.43581000  0.00000000  0.56419000  1.0
  O  O161  1  0.00000000  0.56420000  0.00000000  1.0
