# generated using pymatgen
data_NbNiH8C8N4(OF2)2
_symmetry_space_group_name_H-M   'P 1'
_cell_length_a   9.74380000
_cell_length_b   9.74326000
_cell_length_c   10.01067337
_cell_angle_alpha   117.94772762
_cell_angle_beta   117.95035551
_cell_angle_gamma   92.11550000
_symmetry_Int_Tables_number   1
_chemical_formula_structural   NbNiH8C8N4(OF2)2
_chemical_formula_sum   'Nb2 Ni2 H16 C16 N8 O4 F8'
_cell_volume   700.37468315
_cell_formula_units_Z   2
loop_
 _symmetry_equiv_pos_site_id
 _symmetry_equiv_pos_as_xyz
  1  'x, y, z'
loop_
 _atom_site_type_symbol
 _atom_site_label
 _atom_site_symmetry_multiplicity
 _atom_site_fract_x
 _atom_site_fract_y
 _atom_site_fract_z
 _atom_site_occupancy
  Nb  Nb0  1  0.00001000  0.00005000  0.00003000  1.0
  Nb  Nb1  1  0.49995000  0.50000000  0.99997000  1.0
  Ni  Ni2  1  0.75002000  0.74997000  0.49999000  1.0
  Ni  Ni3  1  0.24996000  0.25004000  0.50000000  1.0
  H  H4  1  0.70852000  0.86094000  0.25618000  1.0
  H  H5  1  0.54766000  0.39488000  0.25614000  1.0
  H  H6  1  0.86197000  0.54114000  0.25251000  1.0
  H  H7  1  0.39046000  0.71147000  0.25251000  1.0
  H  H8  1  0.95885000  0.63800000  0.74748000  1.0
  H  H9  1  0.78853000  0.10956000  0.74749000  1.0
  H  H10  1  0.10513000  0.95232000  0.74387000  1.0
  H  H11  1  0.63906000  0.79150000  0.74383000  1.0
  H  H12  1  0.29047000  0.13807000  0.74375000  1.0
  H  H13  1  0.45366000  0.60599000  0.74410000  1.0
  H  H14  1  0.13847000  0.45809000  0.74739000  1.0
  H  H15  1  0.60885000  0.28938000  0.74739000  1.0
  H  H16  1  0.04190000  0.36154000  0.25260000  1.0
  H  H17  1  0.21063000  0.89113000  0.25261000  1.0
  H  H18  1  0.89403000  0.04635000  0.25591000  1.0
  H  H19  1  0.36191000  0.20952000  0.25624000  1.0
  C  C20  1  0.83814000  0.92396000  0.36619000  1.0
  C  C21  1  0.52820000  0.44198000  0.36627000  1.0
  C  C22  1  0.92491000  0.52374000  0.36395000  1.0
  C  C23  1  0.43896000  0.84030000  0.36397000  1.0
  C  C24  1  0.97625000  0.57506000  0.63604000  1.0
  C  C25  1  0.65970000  0.06105000  0.63603000  1.0
  C  C26  1  0.05803000  0.97179000  0.63374000  1.0
  C  C27  1  0.57605000  0.66187000  0.63382000  1.0
  C  C28  1  0.16087000  0.07488000  0.63362000  1.0
  C  C29  1  0.47309000  0.55893000  0.63393000  1.0
  C  C30  1  0.07560000  0.47559000  0.63602000  1.0
  C  C31  1  0.56033000  0.16051000  0.63602000  1.0
  C  C32  1  0.02439000  0.42439000  0.36396000  1.0
  C  C33  1  0.33950000  0.93966000  0.36398000  1.0
  C  C34  1  0.94110000  0.02692000  0.36608000  1.0
  C  C35  1  0.42510000  0.33914000  0.36638000  1.0
  N  N36  1  0.89769000  0.89749000  0.50001000  1.0
  N  N37  1  0.60250000  0.60231000  0.49999000  1.0
  N  N38  1  0.90198000  0.59799000  0.49999000  1.0
  N  N39  1  0.59796000  0.90206000  0.50000000  1.0
  N  N40  1  0.10139000  0.10138000  0.49984000  1.0
  N  N41  1  0.39861000  0.39862000  0.50016000  1.0
  N  N42  1  0.09861000  0.40138000  0.49999000  1.0
  N  N43  1  0.40130000  0.09870000  0.50000000  1.0
  O  O44  1  0.87269000  0.87269000  0.74535000  1.0
  O  O45  1  0.62731000  0.62731000  0.25464000  1.0
  O  O46  1  0.12734000  0.12743000  0.25470000  1.0
  O  O47  1  0.37256000  0.37266000  0.74530000  1.0
  F  F48  1  0.20268000  0.99625000  0.00013000  1.0
  F  F49  1  0.79740000  0.00394000  0.00007000  1.0
  F  F50  1  0.98924000  0.79744000  0.00001000  1.0
  F  F51  1  0.01066000  0.20258000  0.99991000  1.0
  F  F52  1  0.70254000  0.51073000  0.99998000  1.0
  F  F53  1  0.29743000  0.48938000  0.00010000  1.0
  F  F54  1  0.49611000  0.70263000  0.99994000  1.0
  F  F55  1  0.50374000  0.29732000  0.99989000  1.0
