# generated using pymatgen
data_CuH19C24SNO6
_symmetry_space_group_name_H-M   'P 1'
_cell_length_a   12.93570000
_cell_length_b   13.29930000
_cell_length_c   24.57330000
_cell_angle_alpha   90.00000000
_cell_angle_beta   89.99970000
_cell_angle_gamma   89.99990000
_symmetry_Int_Tables_number   1
_chemical_formula_structural   CuH19C24SNO6
_chemical_formula_sum   'Cu8 H152 C192 S8 N8 O48'
_cell_volume   4227.48621852
_cell_formula_units_Z   8
loop_
 _symmetry_equiv_pos_site_id
 _symmetry_equiv_pos_as_xyz
  1  'x, y, z'
loop_
 _atom_site_type_symbol
 _atom_site_label
 _atom_site_symmetry_multiplicity
 _atom_site_fract_x
 _atom_site_fract_y
 _atom_site_fract_z
 _atom_site_occupancy
  Cu  Cu0  1  0.48477000  0.05127000  0.45711000  1.0
  Cu  Cu1  1  0.01524000  0.55127000  0.54289000  1.0
  Cu  Cu2  1  0.51523000  0.44874000  0.95712000  1.0
  Cu  Cu3  1  0.98476000  0.94873000  0.04289000  1.0
  Cu  Cu4  1  0.51524000  0.94873000  0.54289000  1.0
  Cu  Cu5  1  0.98477000  0.44873000  0.45711000  1.0
  Cu  Cu6  1  0.48476000  0.55127000  0.04289000  1.0
  Cu  Cu7  1  0.01523000  0.05127000  0.95711000  1.0
  H  H8  1  0.70412000  0.30188000  0.49962000  1.0
  H  H9  1  0.79588000  0.80188000  0.50039000  1.0
  H  H10  1  0.29588000  0.19812000  0.99961000  1.0
  H  H11  1  0.20412000  0.69812000  0.00039000  1.0
  H  H12  1  0.29588000  0.69812000  0.50039000  1.0
  H  H13  1  0.20412000  0.19812000  0.49962000  1.0
  H  H14  1  0.70412000  0.80188000  0.00039000  1.0
  H  H15  1  0.79588000  0.30188000  0.99962000  1.0
  H  H16  1  0.77086000  0.45787000  0.64909000  1.0
  H  H17  1  0.72914000  0.95787000  0.35092000  1.0
  H  H18  1  0.22914000  0.04213000  0.14909000  1.0
  H  H19  1  0.27086000  0.54213000  0.85091000  1.0
  H  H20  1  0.22914000  0.54213000  0.35092000  1.0
  H  H21  1  0.27086000  0.04213000  0.64909000  1.0
  H  H22  1  0.77086000  0.95787000  0.85092000  1.0
  H  H23  1  0.72914000  0.45787000  0.14909000  1.0
  H  H24  1  0.55867000  0.20925000  0.64902000  1.0
  H  H25  1  0.94133000  0.70924000  0.35099000  1.0
  H  H26  1  0.44132000  0.29075000  0.14901000  1.0
  H  H27  1  0.05867000  0.79075000  0.85099000  1.0
  H  H28  1  0.44133000  0.79076000  0.35099000  1.0
  H  H29  1  0.05867000  0.29075000  0.64902000  1.0
  H  H30  1  0.55867000  0.70924000  0.85099000  1.0
  H  H31  1  0.94132000  0.20925000  0.14901000  1.0
  H  H32  1  0.76340000  0.26067000  0.88269000  1.0
  H  H33  1  0.73659000  0.76067000  0.11731000  1.0
  H  H34  1  0.23660000  0.23933000  0.38269000  1.0
  H  H35  1  0.26341000  0.73933000  0.61732000  1.0
  H  H36  1  0.23658000  0.73933000  0.11732000  1.0
  H  H37  1  0.26341000  0.23933000  0.88269000  1.0
  H  H38  1  0.76341000  0.76066000  0.61731000  1.0
  H  H39  1  0.73659000  0.26066000  0.38269000  1.0
  H  H40  1  0.85627000  0.11174000  0.84593000  1.0
  H  H41  1  0.64372000  0.61173000  0.15407000  1.0
  H  H42  1  0.14373000  0.38826000  0.34594000  1.0
  H  H43  1  0.35628000  0.88827000  0.65407000  1.0
  H  H44  1  0.14372000  0.88826000  0.15407000  1.0
  H  H45  1  0.35628000  0.38826000  0.84593000  1.0
  H  H46  1  0.85628000  0.61173000  0.65407000  1.0
  H  H47  1  0.64372000  0.11173000  0.34593000  1.0
  H  H48  1  0.83434000  0.06874000  0.74666000  1.0
  H  H49  1  0.66567000  0.56873000  0.25334000  1.0
  H  H50  1  0.16566000  0.43126000  0.24666000  1.0
  H  H51  1  0.33434000  0.93127000  0.75334000  1.0
  H  H52  1  0.16567000  0.93127000  0.25334000  1.0
  H  H53  1  0.33435000  0.43126000  0.74666000  1.0
  H  H54  1  0.83433000  0.56873000  0.75334000  1.0
  H  H55  1  0.66566000  0.06873000  0.24666000  1.0
  H  H56  1  0.73453000  0.17691000  0.68668000  1.0
  H  H57  1  0.76548000  0.67690000  0.31332000  1.0
  H  H58  1  0.26547000  0.32309000  0.18669000  1.0
  H  H59  1  0.23452000  0.82309000  0.81332000  1.0
  H  H60  1  0.26549000  0.82310000  0.31332000  1.0
  H  H61  1  0.23453000  0.32309000  0.68668000  1.0
  H  H62  1  0.73452000  0.67691000  0.81332000  1.0
  H  H63  1  0.76547000  0.17691000  0.18668000  1.0
  H  H64  1  0.53178000  0.46846000  0.64744000  1.0
  H  H65  1  0.96822000  0.96845000  0.35256000  1.0
  H  H66  1  0.46822000  0.03155000  0.14744000  1.0
  H  H67  1  0.03179000  0.53155000  0.85256000  1.0
  H  H68  1  0.46822000  0.53155000  0.35256000  1.0
  H  H69  1  0.03178000  0.03155000  0.64744000  1.0
  H  H70  1  0.53178000  0.96845000  0.85256000  1.0
  H  H71  1  0.96822000  0.46845000  0.14744000  1.0
  H  H72  1  0.42272000  0.60961000  0.67421000  1.0
  H  H73  1  0.07729000  0.10961000  0.32579000  1.0
  H  H74  1  0.57729000  0.89040000  0.17421000  1.0
  H  H75  1  0.92272000  0.39039000  0.82579000  1.0
  H  H76  1  0.57729000  0.39040000  0.32579000  1.0
  H  H77  1  0.92271000  0.89039000  0.67421000  1.0
  H  H78  1  0.42271000  0.10960000  0.82579000  1.0
  H  H79  1  0.07729000  0.60960000  0.17421000  1.0
  H  H80  1  0.40421000  0.65830000  0.77201000  1.0
  H  H81  1  0.09578000  0.15829000  0.22800000  1.0
  H  H82  1  0.59579000  0.84172000  0.27200000  1.0
  H  H83  1  0.90421000  0.34171000  0.72800000  1.0
  H  H84  1  0.59579000  0.34172000  0.22800000  1.0
  H  H85  1  0.90421000  0.84172000  0.77200000  1.0
  H  H86  1  0.40421000  0.15829000  0.72800000  1.0
  H  H87  1  0.09579000  0.65829000  0.27200000  1.0
  H  H88  1  0.50118000  0.55924000  0.84259000  1.0
  H  H89  1  0.99881000  0.05924000  0.15741000  1.0
  H  H90  1  0.49882000  0.94077000  0.34258000  1.0
  H  H91  1  0.00119000  0.44077000  0.65741000  1.0
  H  H92  1  0.49881000  0.44077000  0.15742000  1.0
  H  H93  1  0.00118000  0.94077000  0.84259000  1.0
  H  H94  1  0.50119000  0.05923000  0.65741000  1.0
  H  H95  1  0.99882000  0.55924000  0.34258000  1.0
  H  H96  1  0.65452000  0.59444000  0.55412000  1.0
  H  H97  1  0.84549000  0.09443000  0.44587000  1.0
  H  H98  1  0.34547000  0.90556000  0.05413000  1.0
  H  H99  1  0.15453000  0.40556000  0.94588000  1.0
  H  H100  1  0.34549000  0.40557000  0.44587000  1.0
  H  H101  1  0.15452000  0.90556000  0.55412000  1.0
  H  H102  1  0.65453000  0.09444000  0.94587000  1.0
  H  H103  1  0.84548000  0.59443000  0.05413000  1.0
  H  H104  1  0.59827000  0.64308000  0.61814000  1.0
  H  H105  1  0.90173000  0.14307000  0.38185000  1.0
  H  H106  1  0.40173000  0.85692000  0.11815000  1.0
  H  H107  1  0.09828000  0.35692000  0.88186000  1.0
  H  H108  1  0.40174000  0.35693000  0.38185000  1.0
  H  H109  1  0.09827000  0.85692000  0.61814000  1.0
  H  H110  1  0.59827000  0.14308000  0.88185000  1.0
  H  H111  1  0.90173000  0.64307000  0.11814000  1.0
  H  H112  1  0.42227000  0.62837000  0.57892000  1.0
  H  H113  1  0.07773000  0.12838000  0.42107000  1.0
  H  H114  1  0.57772000  0.87163000  0.07893000  1.0
  H  H115  1  0.92228000  0.37163000  0.92107000  1.0
  H  H116  1  0.57773000  0.37163000  0.42107000  1.0
  H  H117  1  0.92228000  0.87163000  0.57892000  1.0
  H  H118  1  0.42228000  0.12837000  0.92107000  1.0
  H  H119  1  0.07773000  0.62836000  0.07893000  1.0
  H  H120  1  0.47820000  0.58059000  0.51451000  1.0
  H  H121  1  0.02181000  0.08059000  0.48548000  1.0
  H  H122  1  0.52180000  0.91942000  0.01452000  1.0
  H  H123  1  0.97820000  0.41941000  0.98549000  1.0
  H  H124  1  0.52181000  0.41941000  0.48548000  1.0
  H  H125  1  0.97820000  0.91941000  0.51451000  1.0
  H  H126  1  0.47820000  0.08059000  0.98548000  1.0
  H  H127  1  0.02180000  0.58058000  0.01452000  1.0
  H  H128  1  0.60908000  0.74236000  0.37649000  1.0
  H  H129  1  0.89092000  0.24234000  0.62350000  1.0
  H  H130  1  0.39092000  0.75765000  0.87650000  1.0
  H  H131  1  0.10908000  0.25764000  0.12351000  1.0
  H  H132  1  0.39092000  0.25766000  0.62350000  1.0
  H  H133  1  0.10908000  0.75764000  0.37649000  1.0
  H  H134  1  0.60908000  0.24235000  0.12350000  1.0
  H  H135  1  0.89092000  0.74235000  0.87650000  1.0
  H  H136  1  0.63699000  0.61102000  0.35536000  1.0
  H  H137  1  0.86300000  0.11100000  0.64464000  1.0
  H  H138  1  0.36301000  0.88899000  0.85536000  1.0
  H  H139  1  0.13699000  0.38898000  0.14465000  1.0
  H  H140  1  0.36301000  0.38900000  0.64463000  1.0
  H  H141  1  0.13699000  0.88898000  0.35535000  1.0
  H  H142  1  0.63700000  0.11101000  0.14464000  1.0
  H  H143  1  0.86301000  0.61101000  0.85536000  1.0
  H  H144  1  0.65763000  0.56108000  0.45073000  1.0
  H  H145  1  0.84237000  0.06107000  0.54926000  1.0
  H  H146  1  0.34237000  0.93893000  0.95074000  1.0
  H  H147  1  0.15763000  0.43892000  0.04927000  1.0
  H  H148  1  0.34238000  0.43893000  0.54925000  1.0
  H  H149  1  0.15763000  0.93891000  0.45073000  1.0
  H  H150  1  0.65763000  0.06108000  0.04926000  1.0
  H  H151  1  0.84237000  0.56107000  0.95074000  1.0
  H  H152  1  0.62689000  0.69146000  0.47317000  1.0
  H  H153  1  0.87311000  0.19145000  0.52682000  1.0
  H  H154  1  0.37310000  0.80855000  0.97318000  1.0
  H  H155  1  0.12689000  0.30855000  0.02683000  1.0
  H  H156  1  0.37311000  0.30855000  0.52682000  1.0
  H  H157  1  0.12690000  0.80854000  0.47317000  1.0
  H  H158  1  0.62689000  0.19145000  0.02682000  1.0
  H  H159  1  0.87310000  0.69145000  0.97318000  1.0
  C  C160  1  0.57603000  0.16001000  0.54245000  1.0
  C  C161  1  0.92398000  0.66000000  0.45755000  1.0
  C  C162  1  0.42397000  0.33999000  0.04245000  1.0
  C  C163  1  0.07602000  0.83999000  0.95755000  1.0
  C  C164  1  0.42398000  0.84000000  0.45755000  1.0
  C  C165  1  0.07603000  0.34000000  0.54245000  1.0
  C  C166  1  0.57602000  0.66000000  0.95755000  1.0
  C  C167  1  0.92397000  0.16001000  0.04245000  1.0
  C  C168  1  0.62390000  0.24804000  0.57087000  1.0
  C  C169  1  0.87610000  0.74804000  0.42913000  1.0
  C  C170  1  0.37610000  0.25196000  0.07087000  1.0
  C  C171  1  0.12390000  0.75196000  0.92913000  1.0
  C  C172  1  0.37610000  0.75196000  0.42913000  1.0
  C  C173  1  0.12390000  0.25196000  0.57087000  1.0
  C  C174  1  0.62390000  0.74804000  0.92913000  1.0
  C  C175  1  0.87610000  0.24804000  0.07087000  1.0
  C  C176  1  0.69018000  0.31252000  0.54288000  1.0
  C  C177  1  0.80983000  0.81252000  0.45712000  1.0
  C  C178  1  0.30982000  0.18748000  0.04288000  1.0
  C  C179  1  0.19017000  0.68748000  0.95712000  1.0
  C  C180  1  0.30982000  0.68748000  0.45712000  1.0
  C  C181  1  0.19018000  0.18748000  0.54288000  1.0
  C  C182  1  0.69017000  0.81252000  0.95712000  1.0
  C  C183  1  0.80982000  0.31252000  0.04288000  1.0
  C  C184  1  0.74487000  0.38669000  0.57123000  1.0
  C  C185  1  0.75514000  0.88669000  0.42878000  1.0
  C  C186  1  0.25513000  0.11331000  0.07123000  1.0
  C  C187  1  0.24486000  0.61331000  0.92878000  1.0
  C  C188  1  0.25514000  0.61331000  0.42878000  1.0
  C  C189  1  0.24487000  0.11331000  0.57122000  1.0
  C  C190  1  0.74486000  0.88669000  0.92878000  1.0
  C  C191  1  0.75514000  0.38669000  0.07123000  1.0
  C  C192  1  0.72859000  0.39989000  0.62713000  1.0
  C  C193  1  0.77141000  0.89989000  0.37287000  1.0
  C  C194  1  0.27141000  0.10011000  0.12713000  1.0
  C  C195  1  0.22859000  0.60011000  0.87287000  1.0
  C  C196  1  0.27141000  0.60011000  0.37287000  1.0
  C  C197  1  0.22859000  0.10011000  0.62713000  1.0
  C  C198  1  0.72859000  0.89989000  0.87287000  1.0
  C  C199  1  0.77141000  0.39989000  0.12713000  1.0
  C  C200  1  0.65944000  0.33731000  0.65458000  1.0
  C  C201  1  0.84056000  0.83731000  0.34542000  1.0
  C  C202  1  0.34056000  0.16269000  0.15458000  1.0
  C  C203  1  0.15944000  0.66269000  0.84542000  1.0
  C  C204  1  0.34056000  0.66269000  0.34542000  1.0
  C  C205  1  0.15944000  0.16269000  0.65458000  1.0
  C  C206  1  0.65943000  0.83731000  0.84542000  1.0
  C  C207  1  0.84056000  0.33731000  0.15458000  1.0
  C  C208  1  0.60860000  0.26059000  0.62684000  1.0
  C  C209  1  0.89140000  0.76058000  0.37316000  1.0
  C  C210  1  0.39139000  0.23942000  0.12684000  1.0
  C  C211  1  0.10860000  0.73941000  0.87316000  1.0
  C  C212  1  0.39140000  0.73942000  0.37316000  1.0
  C  C213  1  0.10860000  0.23941000  0.62684000  1.0
  C  C214  1  0.60860000  0.76059000  0.87316000  1.0
  C  C215  1  0.89139000  0.26059000  0.12684000  1.0
  C  C216  1  0.83016000  0.44273000  0.54328000  1.0
  C  C217  1  0.66984000  0.94273000  0.45672000  1.0
  C  C218  1  0.16984000  0.05727000  0.04328000  1.0
  C  C219  1  0.33016000  0.55728000  0.95672000  1.0
  C  C220  1  0.16984000  0.55728000  0.45672000  1.0
  C  C221  1  0.33016000  0.05728000  0.54328000  1.0
  C  C222  1  0.83016000  0.94273000  0.95672000  1.0
  C  C223  1  0.66984000  0.44273000  0.04328000  1.0
  C  C224  1  0.69359000  0.28577000  0.74855000  1.0
  C  C225  1  0.80641000  0.78577000  0.25145000  1.0
  C  C226  1  0.30641000  0.21423000  0.24855000  1.0
  C  C227  1  0.19358000  0.71423000  0.75145000  1.0
  C  C228  1  0.30642000  0.71423000  0.25145000  1.0
  C  C229  1  0.19358000  0.21423000  0.74855000  1.0
  C  C230  1  0.69358000  0.78577000  0.75145000  1.0
  C  C231  1  0.80641000  0.28577000  0.24855000  1.0
  C  C232  1  0.70073000  0.30424000  0.80501000  1.0
  C  C233  1  0.79927000  0.80423000  0.19499000  1.0
  C  C234  1  0.29927000  0.19577000  0.30502000  1.0
  C  C235  1  0.20073000  0.69577000  0.69499000  1.0
  C  C236  1  0.29927000  0.69577000  0.19499000  1.0
  C  C237  1  0.20073000  0.19576000  0.80501000  1.0
  C  C238  1  0.70073000  0.80423000  0.69499000  1.0
  C  C239  1  0.79927000  0.30423000  0.30502000  1.0
  C  C240  1  0.57267000  0.46209000  0.78397000  1.0
  C  C241  1  0.92733000  0.96208000  0.21603000  1.0
  C  C242  1  0.42733000  0.03792000  0.28397000  1.0
  C  C243  1  0.07267000  0.53792000  0.71603000  1.0
  C  C244  1  0.42733000  0.53792000  0.21603000  1.0
  C  C245  1  0.07267000  0.03792000  0.78397000  1.0
  C  C246  1  0.57267000  0.96208000  0.71603000  1.0
  C  C247  1  0.92733000  0.46208000  0.28397000  1.0
  C  C248  1  0.58316000  0.43264000  0.72905000  1.0
  C  C249  1  0.91683000  0.93264000  0.27095000  1.0
  C  C250  1  0.41684000  0.06737000  0.22905000  1.0
  C  C251  1  0.08317000  0.56736000  0.77095000  1.0
  C  C252  1  0.41684000  0.56736000  0.27095000  1.0
  C  C253  1  0.08316000  0.06736000  0.72905000  1.0
  C  C254  1  0.58317000  0.93264000  0.77095000  1.0
  C  C255  1  0.91683000  0.43264000  0.22905000  1.0
  C  C256  1  0.75881000  0.24191000  0.83954000  1.0
  C  C257  1  0.74119000  0.74190000  0.16046000  1.0
  C  C258  1  0.24119000  0.25810000  0.33954000  1.0
  C  C259  1  0.25881000  0.75810000  0.66046000  1.0
  C  C260  1  0.24119000  0.75810000  0.16046000  1.0
  C  C261  1  0.25881000  0.25810000  0.83954000  1.0
  C  C262  1  0.75881000  0.74190000  0.66046000  1.0
  C  C263  1  0.74119000  0.24190000  0.33954000  1.0
  C  C264  1  0.80967000  0.15838000  0.81905000  1.0
  C  C265  1  0.69033000  0.65838000  0.18096000  1.0
  C  C266  1  0.19034000  0.34162000  0.31905000  1.0
  C  C267  1  0.30967000  0.84162000  0.68096000  1.0
  C  C268  1  0.19033000  0.84162000  0.18096000  1.0
  C  C269  1  0.30967000  0.34162000  0.81904000  1.0
  C  C270  1  0.80966000  0.65837000  0.68096000  1.0
  C  C271  1  0.69033000  0.15838000  0.31905000  1.0
  C  C272  1  0.79840000  0.13581000  0.76368000  1.0
  C  C273  1  0.70160000  0.63581000  0.23632000  1.0
  C  C274  1  0.20160000  0.36419000  0.26368000  1.0
  C  C275  1  0.29840000  0.86419000  0.73633000  1.0
  C  C276  1  0.20160000  0.86419000  0.23632000  1.0
  C  C277  1  0.29840000  0.36419000  0.76368000  1.0
  C  C278  1  0.79840000  0.63581000  0.73633000  1.0
  C  C279  1  0.70160000  0.13581000  0.26368000  1.0
  C  C280  1  0.74166000  0.19744000  0.72928000  1.0
  C  C281  1  0.75835000  0.69744000  0.27072000  1.0
  C  C282  1  0.25834000  0.30256000  0.22928000  1.0
  C  C283  1  0.24166000  0.80256000  0.77072000  1.0
  C  C284  1  0.25835000  0.80257000  0.27072000  1.0
  C  C285  1  0.24166000  0.30256000  0.72928000  1.0
  C  C286  1  0.74166000  0.69744000  0.77072000  1.0
  C  C287  1  0.75834000  0.19744000  0.22928000  1.0
  C  C288  1  0.52712000  0.48872000  0.69020000  1.0
  C  C289  1  0.97288000  0.98871000  0.30980000  1.0
  C  C290  1  0.47289000  0.01129000  0.19020000  1.0
  C  C291  1  0.02712000  0.51129000  0.80980000  1.0
  C  C292  1  0.47288000  0.51129000  0.30980000  1.0
  C  C293  1  0.02712000  0.01129000  0.69020000  1.0
  C  C294  1  0.52712000  0.98871000  0.80980000  1.0
  C  C295  1  0.97288000  0.48871000  0.19020000  1.0
  C  C296  1  0.46518000  0.56897000  0.70551000  1.0
  C  C297  1  0.03482000  0.06896000  0.29449000  1.0
  C  C298  1  0.53482000  0.93104000  0.20551000  1.0
  C  C299  1  0.96518000  0.43104000  0.79449000  1.0
  C  C300  1  0.53482000  0.43104000  0.29449000  1.0
  C  C301  1  0.96518000  0.93104000  0.70551000  1.0
  C  C302  1  0.46518000  0.06896000  0.79449000  1.0
  C  C303  1  0.03482000  0.56896000  0.20551000  1.0
  C  C304  1  0.45413000  0.59595000  0.76033000  1.0
  C  C305  1  0.04587000  0.09594000  0.23967000  1.0
  C  C306  1  0.54587000  0.90406000  0.26033000  1.0
  C  C307  1  0.95414000  0.40406000  0.73967000  1.0
  C  C308  1  0.54586000  0.40406000  0.23967000  1.0
  C  C309  1  0.95413000  0.90406000  0.76033000  1.0
  C  C310  1  0.45413000  0.09594000  0.73967000  1.0
  C  C311  1  0.04587000  0.59594000  0.26033000  1.0
  C  C312  1  0.50764000  0.54157000  0.79938000  1.0
  C  C313  1  0.99236000  0.04157000  0.20062000  1.0
  C  C314  1  0.49236000  0.95843000  0.29938000  1.0
  C  C315  1  0.00764000  0.45843000  0.70062000  1.0
  C  C316  1  0.49236000  0.45843000  0.20062000  1.0
  C  C317  1  0.00764000  0.95844000  0.79938000  1.0
  C  C318  1  0.50764000  0.04156000  0.70062000  1.0
  C  C319  1  0.99236000  0.54156000  0.29938000  1.0
  C  C320  1  0.58554000  0.61504000  0.57706000  1.0
  C  C321  1  0.91447000  0.11504000  0.42294000  1.0
  C  C322  1  0.41446000  0.88496000  0.07706000  1.0
  C  C323  1  0.08554000  0.38496000  0.92294000  1.0
  C  C324  1  0.41447000  0.38496000  0.42294000  1.0
  C  C325  1  0.08553000  0.88496000  0.57705000  1.0
  C  C326  1  0.58553000  0.11504000  0.92294000  1.0
  C  C327  1  0.91446000  0.61504000  0.07706000  1.0
  C  C328  1  0.49108000  0.60720000  0.55594000  1.0
  C  C329  1  0.00892000  0.10720000  0.44405000  1.0
  C  C330  1  0.50891000  0.89280000  0.05595000  1.0
  C  C331  1  0.99110000  0.39280000  0.94405000  1.0
  C  C332  1  0.50892000  0.39280000  0.44405000  1.0
  C  C333  1  0.99109000  0.89280000  0.55594000  1.0
  C  C334  1  0.49109000  0.10720000  0.94405000  1.0
  C  C335  1  0.00892000  0.60720000  0.05594000  1.0
  C  C336  1  0.62678000  0.66509000  0.38809000  1.0
  C  C337  1  0.87320000  0.16507000  0.61190000  1.0
  C  C338  1  0.37321000  0.83492000  0.88810000  1.0
  C  C339  1  0.12678000  0.33492000  0.11190000  1.0
  C  C340  1  0.37321000  0.33493000  0.61190000  1.0
  C  C341  1  0.12678000  0.83491000  0.38809000  1.0
  C  C342  1  0.62679000  0.16508000  0.11190000  1.0
  C  C343  1  0.87321000  0.66508000  0.88810000  1.0
  C  C344  1  0.63751000  0.63821000  0.43993000  1.0
  C  C345  1  0.86249000  0.13820000  0.56006000  1.0
  C  C346  1  0.36249000  0.86180000  0.93994000  1.0
  C  C347  1  0.13751000  0.36179000  0.06007000  1.0
  C  C348  1  0.36249000  0.36180000  0.56005000  1.0
  C  C349  1  0.13750000  0.86179000  0.43993000  1.0
  C  C350  1  0.63751000  0.13821000  0.06006000  1.0
  C  C351  1  0.86249000  0.63820000  0.93994000  1.0
  S  S352  1  0.64501000  0.40855000  0.83653000  1.0
  S  S353  1  0.85499000  0.90855000  0.16347000  1.0
  S  S354  1  0.35500000  0.09145000  0.33653000  1.0
  S  S355  1  0.14501000  0.59145000  0.66347000  1.0
  S  S356  1  0.35499000  0.59145000  0.16347000  1.0
  S  S357  1  0.14501000  0.09145000  0.83653000  1.0
  S  S358  1  0.64501000  0.90854000  0.66347000  1.0
  S  S359  1  0.85499000  0.40855000  0.33653000  1.0
  N  N360  1  0.64358000  0.35118000  0.71237000  1.0
  N  N361  1  0.85642000  0.85117000  0.28763000  1.0
  N  N362  1  0.35641000  0.14883000  0.21237000  1.0
  N  N363  1  0.14358000  0.64883000  0.78763000  1.0
  N  N364  1  0.35642000  0.64883000  0.28763000  1.0
  N  N365  1  0.14359000  0.14883000  0.71237000  1.0
  N  N366  1  0.64359000  0.85117000  0.78763000  1.0
  N  N367  1  0.85641000  0.35117000  0.21237000  1.0
  O  O368  1  0.55233000  0.16922000  0.49239000  1.0
  O  O369  1  0.94767000  0.66921000  0.50761000  1.0
  O  O370  1  0.44767000  0.33079000  0.99239000  1.0
  O  O371  1  0.05234000  0.83079000  0.00761000  1.0
  O  O372  1  0.44766000  0.83079000  0.50761000  1.0
  O  O373  1  0.05234000  0.33079000  0.49239000  1.0
  O  O374  1  0.55233000  0.66922000  0.00761000  1.0
  O  O375  1  0.94767000  0.16922000  0.99239000  1.0
  O  O376  1  0.56435000  0.08117000  0.57144000  1.0
  O  O377  1  0.93565000  0.58116000  0.42856000  1.0
  O  O378  1  0.43565000  0.41883000  0.07144000  1.0
  O  O379  1  0.06434000  0.91883000  0.92856000  1.0
  O  O380  1  0.43566000  0.91884000  0.42856000  1.0
  O  O381  1  0.06435000  0.41884000  0.57144000  1.0
  O  O382  1  0.56434000  0.58116000  0.92856000  1.0
  O  O383  1  0.93565000  0.08117000  0.07144000  1.0
  O  O384  1  0.85220000  0.41577000  0.49485000  1.0
  O  O385  1  0.64780000  0.91577000  0.50515000  1.0
  O  O386  1  0.14780000  0.08423000  0.99485000  1.0
  O  O387  1  0.35220000  0.58423000  0.00515000  1.0
  O  O388  1  0.14780000  0.58423000  0.50515000  1.0
  O  O389  1  0.35220000  0.08423000  0.49485000  1.0
  O  O390  1  0.85220000  0.91577000  0.00515000  1.0
  O  O391  1  0.64780000  0.41577000  0.99485000  1.0
  O  O392  1  0.87773000  0.50962000  0.57111000  1.0
  O  O393  1  0.62228000  0.00962000  0.42889000  1.0
  O  O394  1  0.12226000  0.99038000  0.07111000  1.0
  O  O395  1  0.37773000  0.49038000  0.92889000  1.0
  O  O396  1  0.12227000  0.49038000  0.42889000  1.0
  O  O397  1  0.37773000  0.99039000  0.57111000  1.0
  O  O398  1  0.87773000  0.00962000  0.92889000  1.0
  O  O399  1  0.62227000  0.50962000  0.07111000  1.0
  O  O400  1  0.57432000  0.37296000  0.87904000  1.0
  O  O401  1  0.92568000  0.87296000  0.12096000  1.0
  O  O402  1  0.42569000  0.12704000  0.37904000  1.0
  O  O403  1  0.07432000  0.62704000  0.62096000  1.0
  O  O404  1  0.42568000  0.62703000  0.12096000  1.0
  O  O405  1  0.07432000  0.12704000  0.87903000  1.0
  O  O406  1  0.57432000  0.87296000  0.62096000  1.0
  O  O407  1  0.92568000  0.37296000  0.37904000  1.0
  O  O408  1  0.72630000  0.47712000  0.85350000  1.0
  O  O409  1  0.77370000  0.97712000  0.14650000  1.0
  O  O410  1  0.27370000  0.02288000  0.35350000  1.0
  O  O411  1  0.22630000  0.52288000  0.64650000  1.0
  O  O412  1  0.27370000  0.52288000  0.14651000  1.0
  O  O413  1  0.22630000  0.02288000  0.85350000  1.0
  O  O414  1  0.72630000  0.97712000  0.64650000  1.0
  O  O415  1  0.77370000  0.47712000  0.35350000  1.0
