# generated using pymatgen
data_CdH11C17SN3O4
_symmetry_space_group_name_H-M   'P 1'
_cell_length_a   6.39161000
_cell_length_b   14.67460000
_cell_length_c   18.55260000
_cell_angle_alpha   83.18920000
_cell_angle_beta   80.25110000
_cell_angle_gamma   82.54650000
_symmetry_Int_Tables_number   1
_chemical_formula_structural   CdH11C17SN3O4
_chemical_formula_sum   'Cd4 H44 C68 S4 N12 O16'
_cell_volume   1692.17590711
_cell_formula_units_Z   4
loop_
 _symmetry_equiv_pos_site_id
 _symmetry_equiv_pos_as_xyz
  1  'x, y, z'
loop_
 _atom_site_type_symbol
 _atom_site_label
 _atom_site_symmetry_multiplicity
 _atom_site_fract_x
 _atom_site_fract_y
 _atom_site_fract_z
 _atom_site_occupancy
  Cd  Cd0  1  0.07510000  0.16461000  0.26852000  1.0
  Cd  Cd1  1  0.92490000  0.83540000  0.73148000  1.0
  Cd  Cd2  1  0.41492000  0.91435000  0.25220000  1.0
  Cd  Cd3  1  0.58508000  0.08564000  0.74780000  1.0
  H  H4  1  0.66520000  0.58357000  0.13526000  1.0
  H  H5  1  0.33481000  0.41643000  0.86473000  1.0
  H  H6  1  0.80298000  0.06541000  0.53472000  1.0
  H  H7  1  0.19702000  0.93459000  0.46528000  1.0
  H  H8  1  0.01745000  0.52506000  0.40260000  1.0
  H  H9  1  0.98254000  0.47494000  0.59740000  1.0
  H  H10  1  0.87362000  0.94951000  0.34109000  1.0
  H  H11  1  0.12638000  0.05049000  0.65892000  1.0
  H  H12  1  0.47537000  0.48987000  0.42013000  1.0
  H  H13  1  0.52464000  0.51013000  0.57986000  1.0
  H  H14  1  0.65440000  0.55718000  0.44567000  1.0
  H  H15  1  0.34560000  0.44282000  0.55433000  1.0
  H  H16  1  0.29296000  0.50275000  0.09694000  1.0
  H  H17  1  0.70705000  0.49725000  0.90306000  1.0
  H  H18  1  0.04938000  0.57501000  0.10147000  1.0
  H  H19  1  0.95063000  0.42499000  0.89853000  1.0
  H  H20  1  0.32738000  0.56648000  0.22191000  1.0
  H  H21  1  0.67263000  0.43352000  0.77809000  1.0
  H  H22  1  0.78708000  0.67212000  0.20984000  1.0
  H  H23  1  0.21293000  0.32788000  0.79015000  1.0
  H  H24  1  0.16792000  0.58713000  0.49149000  1.0
  H  H25  1  0.83208000  0.41287000  0.50851000  1.0
  H  H26  1  0.34670000  0.65982000  0.50921000  1.0
  H  H27  1  0.65329000  0.34018000  0.49080000  1.0
  H  H28  1  0.58589000  0.30105000  0.31814000  1.0
  H  H29  1  0.41411000  0.69895000  0.68186000  1.0
  H  H30  1  0.28767000  0.09104000  0.01603000  1.0
  H  H31  1  0.71233000  0.90896000  0.98397000  1.0
  H  H32  1  0.28571000  0.42826000  0.31047000  1.0
  H  H33  1  0.71430000  0.57174000  0.68952000  1.0
  H  H34  1  0.18572000  0.42270000  0.99660000  1.0
  H  H35  1  0.81428000  0.57729000  0.00341000  1.0
  H  H36  1  0.21071000  0.54149000  0.97193000  1.0
  H  H37  1  0.78928000  0.45851000  0.02807000  1.0
  H  H38  1  0.65767000  0.12594000  0.18216000  1.0
  H  H39  1  0.34233000  0.87406000  0.81785000  1.0
  H  H40  1  0.65365000  0.70503000  0.49547000  1.0
  H  H41  1  0.34633000  0.29497000  0.50453000  1.0
  H  H42  1  0.47203000  0.38681000  0.04044000  1.0
  H  H43  1  0.52797000  0.61319000  0.95956000  1.0
  H  H44  1  0.04137000  0.78977000  0.20141000  1.0
  H  H45  1  0.95865000  0.21022000  0.79859000  1.0
  H  H46  1  0.78181000  0.54018000  0.30673000  1.0
  H  H47  1  0.21818000  0.45982000  0.69327000  1.0
  C  C48  1  0.03343000  0.01212000  0.07114000  1.0
  C  C49  1  0.96657000  0.98788000  0.92886000  1.0
  C  C50  1  0.59492000  0.07255000  0.45400000  1.0
  C  C51  1  0.40508000  0.92745000  0.54599000  1.0
  C  C52  1  0.39951000  0.74190000  0.36835000  1.0
  C  C53  1  0.60048000  0.25810000  0.63165000  1.0
  C  C54  1  0.07802000  0.02429000  0.14654000  1.0
  C  C55  1  0.92197000  0.97571000  0.85345000  1.0
  C  C56  1  0.71398000  0.14335000  0.40263000  1.0
  C  C57  1  0.28602000  0.85666000  0.59736000  1.0
  C  C58  1  0.64968000  0.52234000  0.17433000  1.0
  C  C59  1  0.35032000  0.47767000  0.82566000  1.0
  C  C60  1  0.87089000  0.96072000  0.06146000  1.0
  C  C61  1  0.12911000  0.03928000  0.93853000  1.0
  C  C62  1  0.16078000  0.64988000  0.35494000  1.0
  C  C63  1  0.83921000  0.35012000  0.64506000  1.0
  C  C64  1  0.66828000  0.03760000  0.51956000  1.0
  C  C65  1  0.33172000  0.96240000  0.48043000  1.0
  C  C66  1  0.11512000  0.35340000  0.16770000  1.0
  C  C67  1  0.88488000  0.64660000  0.83230000  1.0
  C  C68  1  0.02307000  0.58231000  0.35936000  1.0
  C  C69  1  0.97692000  0.41769000  0.64064000  1.0
  C  C70  1  0.42300000  0.03462000  0.43496000  1.0
  C  C71  1  0.57701000  0.96538000  0.56504000  1.0
  C  C72  1  0.71728000  0.92644000  0.12616000  1.0
  C  C73  1  0.28272000  0.07355000  0.87384000  1.0
  C  C74  1  0.57102000  0.78219000  0.39104000  1.0
  C  C75  1  0.42897000  0.21781000  0.60896000  1.0
  C  C76  1  0.79870000  0.88919000  0.36817000  1.0
  C  C77  1  0.20129000  0.11081000  0.63183000  1.0
  C  C78  1  0.49891000  0.53055000  0.46381000  1.0
  C  C79  1  0.50109000  0.46945000  0.53619000  1.0
  C  C80  1  0.31859000  0.07769000  0.37133000  1.0
  C  C81  1  0.68141000  0.92231000  0.62867000  1.0
  C  C82  1  0.79362000  0.37210000  0.23057000  1.0
  C  C83  1  0.20638000  0.62791000  0.76943000  1.0
  C  C84  1  0.12653000  0.50644000  0.08780000  1.0
  C  C85  1  0.87348000  0.49356000  0.91220000  1.0
  C  C86  1  0.46083000  0.51228000  0.22327000  1.0
  C  C87  1  0.53918000  0.48772000  0.77673000  1.0
  C  C88  1  0.89842000  0.66495000  0.24906000  1.0
  C  C89  1  0.10159000  0.33505000  0.75094000  1.0
  C  C90  1  0.81644000  0.45129000  0.17935000  1.0
  C  C91  1  0.18356000  0.54872000  0.82065000  1.0
  C  C92  1  0.32424000  0.61197000  0.47053000  1.0
  C  C93  1  0.67576000  0.38803000  0.52947000  1.0
  C  C94  1  0.60277000  0.36233000  0.27914000  1.0
  C  C95  1  0.39723000  0.63767000  0.72086000  1.0
  C  C96  1  0.16003000  0.05155000  0.00942000  1.0
  C  C97  1  0.83997000  0.94845000  0.99057000  1.0
  C  C98  1  0.43795000  0.43364000  0.27445000  1.0
  C  C99  1  0.56205000  0.56636000  0.72555000  1.0
  C  C100  1  0.11396000  0.49275000  0.00845000  1.0
  C  C101  1  0.88604000  0.50725000  0.99155000  1.0
  C  C102  1  0.32705000  0.30795000  0.14295000  1.0
  C  C103  1  0.67295000  0.69205000  0.85705000  1.0
  C  C104  1  0.57963000  0.19073000  0.15946000  1.0
  C  C105  1  0.42037000  0.80927000  0.84054000  1.0
  C  C106  1  0.17178000  0.72232000  0.29720000  1.0
  C  C107  1  0.82822000  0.27768000  0.70280000  1.0
  C  C108  1  0.68009000  0.75770000  0.44990000  1.0
  C  C109  1  0.31989000  0.24230000  0.55011000  1.0
  C  C110  1  0.47947000  0.33002000  0.08319000  1.0
  C  C111  1  0.52054000  0.66997000  0.91681000  1.0
  C  C112  1  0.03865000  0.73134000  0.24362000  1.0
  C  C113  1  0.96135000  0.26866000  0.75638000  1.0
  C  C114  1  0.89283000  0.59102000  0.30515000  1.0
  C  C115  1  0.10716000  0.40898000  0.69485000  1.0
  S  S116  1  0.87080000  0.82973000  0.44741000  1.0
  S  S117  1  0.12919000  0.17027000  0.55260000  1.0
  S  S118  1  0.70041000  0.25024000  0.08096000  1.0
  S  S119  1  0.29959000  0.74975000  0.91904000  1.0
  N  N120  1  0.38824000  0.22766000  0.18485000  1.0
  N  N121  1  0.61176000  0.77234000  0.81515000  1.0
  N  N122  1  0.02334000  0.43833000  0.14105000  1.0
  N  N123  1  0.97667000  0.56168000  0.85896000  1.0
  N  N124  1  0.32117000  0.77735000  0.30720000  1.0
  N  N125  1  0.67883000  0.22265000  0.69280000  1.0
  N  N126  1  0.64170000  0.85737000  0.34546000  1.0
  N  N127  1  0.35830000  0.14263000  0.65455000  1.0
  N  N128  1  0.98077000  0.31330000  0.22153000  1.0
  N  N129  1  0.01923000  0.68670000  0.77848000  1.0
  N  N130  1  0.30314000  0.66514000  0.39998000  1.0
  N  N131  1  0.69685000  0.33486000  0.60002000  1.0
  O  O132  1  0.77707000  0.11789000  0.33736000  1.0
  O  O133  1  0.22293000  0.88211000  0.66263000  1.0
  O  O134  1  0.25487000  0.02606000  0.32947000  1.0
  O  O135  1  0.74513000  0.97393000  0.67053000  1.0
  O  O136  1  0.74960000  0.21553000  0.42598000  1.0
  O  O137  1  0.25040000  0.78448000  0.57402000  1.0
  O  O138  1  0.06013000  0.10779000  0.16153000  1.0
  O  O139  1  0.93986000  0.89221000  0.83847000  1.0
  O  O140  1  0.65532000  0.98515000  0.17469000  1.0
  O  O141  1  0.34467000  0.01485000  0.82531000  1.0
  O  O142  1  0.65059000  0.84881000  0.13091000  1.0
  O  O143  1  0.34942000  0.15119000  0.86909000  1.0
  O  O144  1  0.13384000  0.95234000  0.18701000  1.0
  O  O145  1  0.86617000  0.04766000  0.81299000  1.0
  O  O146  1  0.27957000  0.16471000  0.36364000  1.0
  O  O147  1  0.72043000  0.83529000  0.63635000  1.0
