# generated using pymatgen
data_TbZnH20C24N4ClO12
_symmetry_space_group_name_H-M   'P 1'
_cell_length_a   13.07570000
_cell_length_b   15.72054247
_cell_length_c   23.22880000
_cell_angle_alpha   79.82559489
_cell_angle_beta   90.02040000
_cell_angle_gamma   65.42267663
_symmetry_Int_Tables_number   1
_chemical_formula_structural   TbZnH20C24N4ClO12
_chemical_formula_sum   'Tb4 Zn4 H80 C96 N16 Cl4 O48'
_cell_volume   4259.40202544
_cell_formula_units_Z   4
loop_
 _symmetry_equiv_pos_site_id
 _symmetry_equiv_pos_as_xyz
  1  'x, y, z'
loop_
 _atom_site_type_symbol
 _atom_site_label
 _atom_site_symmetry_multiplicity
 _atom_site_fract_x
 _atom_site_fract_y
 _atom_site_fract_z
 _atom_site_occupancy
  Tb  Tb0  1  0.84391000  0.06084000  0.95330000  1.0
  Tb  Tb1  1  0.90519000  0.93870000  0.54665000  1.0
  Tb  Tb2  1  0.15611000  0.93915000  0.04668000  1.0
  Tb  Tb3  1  0.09482000  0.06129000  0.45338000  1.0
  Zn  Zn4  1  0.62750000  0.49964000  0.64119000  1.0
  Zn  Zn5  1  0.12737000  0.50057000  0.85893000  1.0
  Zn  Zn6  1  0.37249000  0.50034000  0.35883000  1.0
  Zn  Zn7  1  0.87264000  0.49941000  0.14106000  1.0
  H  H8  1  0.97838000  0.40546000  0.78030000  1.0
  H  H9  1  0.38380000  0.59386000  0.71923000  1.0
  H  H10  1  0.02167000  0.59449000  0.21969000  1.0
  H  H11  1  0.61618000  0.40619000  0.28076000  1.0
  H  H12  1  0.98015000  0.25198000  0.83627000  1.0
  H  H13  1  0.23206000  0.74766000  0.66346000  1.0
  H  H14  1  0.01989000  0.74797000  0.16371000  1.0
  H  H15  1  0.76790000  0.25240000  0.33655000  1.0
  H  H16  1  0.81277000  0.34512000  0.42990000  1.0
  H  H17  1  0.15856000  0.65533000  0.07010000  1.0
  H  H18  1  0.18725000  0.65488000  0.57013000  1.0
  H  H19  1  0.84141000  0.34470000  0.92987000  1.0
  H  H20  1  0.59793000  0.65240000  0.72010000  1.0
  H  H21  1  0.25037000  0.34698000  0.78017000  1.0
  H  H22  1  0.40208000  0.34758000  0.27989000  1.0
  H  H23  1  0.74964000  0.65302000  0.21981000  1.0
  H  H24  1  0.48455000  0.69811000  0.74741000  1.0
  H  H25  1  0.18419000  0.30033000  0.75256000  1.0
  H  H26  1  0.51548000  0.30189000  0.25259000  1.0
  H  H27  1  0.81585000  0.69965000  0.24742000  1.0
  H  H28  1  0.85914000  0.93868000  0.86588000  1.0
  H  H29  1  0.79773000  0.06117000  0.63379000  1.0
  H  H30  1  0.14086000  0.06131000  0.13409000  1.0
  H  H31  1  0.20219000  0.93882000  0.36622000  1.0
  H  H32  1  0.79097000  0.04944000  0.83552000  1.0
  H  H33  1  0.84046000  0.95052000  0.66441000  1.0
  H  H34  1  0.20901000  0.95056000  0.16447000  1.0
  H  H35  1  0.15949000  0.04947000  0.33561000  1.0
  H  H36  1  0.34896000  0.78469000  0.43111000  1.0
  H  H37  1  0.13301000  0.21609000  0.06909000  1.0
  H  H38  1  0.65106000  0.21531000  0.56894000  1.0
  H  H39  1  0.86693000  0.78395000  0.93091000  1.0
  H  H40  1  0.72395000  0.00724000  0.05532000  1.0
  H  H41  1  0.73184000  0.99203000  0.44456000  1.0
  H  H42  1  0.27603000  0.99280000  0.94466000  1.0
  H  H43  1  0.26817000  0.00800000  0.55546000  1.0
  H  H44  1  0.63109000  0.10220000  0.00987000  1.0
  H  H45  1  0.73382000  0.89723000  0.49006000  1.0
  H  H46  1  0.36892000  0.89780000  0.99009000  1.0
  H  H47  1  0.26616000  0.10280000  0.50996000  1.0
  H  H48  1  0.64007000  0.69786000  0.58694000  1.0
  H  H49  1  0.33771000  0.30234000  0.91313000  1.0
  H  H50  1  0.35990000  0.30216000  0.41309000  1.0
  H  H51  1  0.66232000  0.69764000  0.08683000  1.0
  H  H52  1  0.82129000  0.31497000  0.61721000  1.0
  H  H53  1  0.13695000  0.68510000  0.88281000  1.0
  H  H54  1  0.17872000  0.68502000  0.38282000  1.0
  H  H55  1  0.86299000  0.31492000  0.11715000  1.0
  H  H56  1  0.68792000  0.30558000  0.72504000  1.0
  H  H57  1  0.99382000  0.69471000  0.77512000  1.0
  H  H58  1  0.31206000  0.69442000  0.27497000  1.0
  H  H59  1  0.00617000  0.30525000  0.22487000  1.0
  H  H60  1  0.42147000  0.70596000  0.61836000  1.0
  H  H61  1  0.12750000  0.29433000  0.88185000  1.0
  H  H62  1  0.57856000  0.29401000  0.38169000  1.0
  H  H63  1  0.87254000  0.70564000  0.11815000  1.0
  H  H64  1  0.64845000  0.50452000  0.42171000  1.0
  H  H65  1  0.15332000  0.49602000  0.07840000  1.0
  H  H66  1  0.35154000  0.49548000  0.57833000  1.0
  H  H67  1  0.84667000  0.50400000  0.92157000  1.0
  H  H68  1  0.50992000  0.63106000  0.42221000  1.0
  H  H69  1  0.14048000  0.36967000  0.07793000  1.0
  H  H70  1  0.49009000  0.36893000  0.57782000  1.0
  H  H71  1  0.85946000  0.63038000  0.92205000  1.0
  H  H72  1  0.98957000  0.51143000  0.71562000  1.0
  H  H73  1  0.50134000  0.48781000  0.78415000  1.0
  H  H74  1  0.01047000  0.48853000  0.28436000  1.0
  H  H75  1  0.49866000  0.51223000  0.21584000  1.0
  H  H76  1  0.96333000  0.66673000  0.65109000  1.0
  H  H77  1  0.63017000  0.33244000  0.84877000  1.0
  H  H78  1  0.03669000  0.33324000  0.34890000  1.0
  H  H79  1  0.36985000  0.66761000  0.15122000  1.0
  H  H80  1  0.08055000  0.93451000  0.92815000  1.0
  H  H81  1  0.01448000  0.06577000  0.57179000  1.0
  H  H82  1  0.91943000  0.06551000  0.07182000  1.0
  H  H83  1  0.98553000  0.93423000  0.42822000  1.0
  H  H84  1  0.07420000  0.04361000  0.92542000  1.0
  H  H85  1  0.11766000  0.95679000  0.57458000  1.0
  H  H86  1  0.92581000  0.95640000  0.07457000  1.0
  H  H87  1  0.88234000  0.04321000  0.42545000  1.0
  C  C88  1  0.91666000  0.38053000  0.76843000  1.0
  C  C89  1  0.29728000  0.61910000  0.73130000  1.0
  C  C90  1  0.08336000  0.61944000  0.23156000  1.0
  C  C91  1  0.70269000  0.38093000  0.26869000  1.0
  C  C92  1  0.91739000  0.29608000  0.79968000  1.0
  C  C93  1  0.21357000  0.70365000  0.70014000  1.0
  C  C94  1  0.08263000  0.70388000  0.20031000  1.0
  C  C95  1  0.78640000  0.29639000  0.29986000  1.0
  C  C96  1  0.82922000  0.31848000  0.52413000  1.0
  C  C97  1  0.14840000  0.68177000  0.97589000  1.0
  C  C98  1  0.17079000  0.68152000  0.47590000  1.0
  C  C99  1  0.85156000  0.31825000  0.02408000  1.0
  C  C100  1  0.65033000  0.49557000  0.51613000  1.0
  C  C101  1  0.14605000  0.50485000  0.98398000  1.0
  C  C102  1  0.34966000  0.50442000  0.48390000  1.0
  C  C103  1  0.85392000  0.49517000  0.01599000  1.0
  C  C104  1  0.55285000  0.58792000  0.51649000  1.0
  C  C105  1  0.14072000  0.41255000  0.98367000  1.0
  C  C106  1  0.44715000  0.41207000  0.48354000  1.0
  C  C107  1  0.85927000  0.58745000  0.01631000  1.0
  C  C108  1  0.78030000  0.37385000  0.46888000  1.0
  C  C109  1  0.15472000  0.62653000  0.03116000  1.0
  C  C110  1  0.21971000  0.62615000  0.53115000  1.0
  C  C111  1  0.84525000  0.37349000  0.96881000  1.0
  C  C112  1  0.39981000  0.73474000  0.46991000  1.0
  C  C113  1  0.13408000  0.26589000  0.03026000  1.0
  C  C114  1  0.60021000  0.26526000  0.53013000  1.0
  C  C115  1  0.86589000  0.73413000  0.96974000  1.0
  C  C116  1  0.92121000  0.21891000  0.53109000  1.0
  C  C117  1  0.14095000  0.78132000  0.96882000  1.0
  C  C118  1  0.07881000  0.78108000  0.46892000  1.0
  C  C119  1  0.85906000  0.21869000  0.03114000  1.0
  C  C120  1  0.27485000  0.84912000  0.53154000  1.0
  C  C121  1  0.12348000  0.15149000  0.96859000  1.0
  C  C122  1  0.72517000  0.15087000  0.46851000  1.0
  C  C123  1  0.87652000  0.84851000  0.03142000  1.0
  C  C124  1  0.78178000  0.78501000  0.57344000  1.0
  C  C125  1  0.56675000  0.21456000  0.92650000  1.0
  C  C126  1  0.21822000  0.21499000  0.42658000  1.0
  C  C127  1  0.43329000  0.78544000  0.07347000  1.0
  C  C128  1  0.71734000  0.65841000  0.61578000  1.0
  C  C129  1  0.37571000  0.34152000  0.88423000  1.0
  C  C130  1  0.28265000  0.34160000  0.38424000  1.0
  C  C131  1  0.62432000  0.65847000  0.11574000  1.0
  C  C132  1  0.37252000  0.75725000  0.52519000  1.0
  C  C133  1  0.12944000  0.24328000  0.97499000  1.0
  C  C134  1  0.62751000  0.24274000  0.47485000  1.0
  C  C135  1  0.87056000  0.75672000  0.02501000  1.0
  C  C136  1  0.78587000  0.35627000  0.57337000  1.0
  C  C137  1  0.14268000  0.64394000  0.92667000  1.0
  C  C138  1  0.21414000  0.64372000  0.42666000  1.0
  C  C139  1  0.85726000  0.35608000  0.07329000  1.0
  C  C140  1  0.75443000  0.32476000  0.73812000  1.0
  C  C141  1  0.07948000  0.67535000  0.76197000  1.0
  C  C142  1  0.24556000  0.67523000  0.26189000  1.0
  C  C143  1  0.92051000  0.32464000  0.23802000  1.0
  C  C144  1  0.43863000  0.69178000  0.57424000  1.0
  C  C145  1  0.13036000  0.30863000  0.92596000  1.0
  C  C146  1  0.56139000  0.30820000  0.42580000  1.0
  C  C147  1  0.86966000  0.69136000  0.07404000  1.0
  C  C148  1  0.68986000  0.46278000  0.46460000  1.0
  C  C149  1  0.15296000  0.53768000  0.03549000  1.0
  C  C150  1  0.31015000  0.53721000  0.53543000  1.0
  C  C151  1  0.84701000  0.46234000  0.96448000  1.0
  C  C152  1  0.83277000  0.17589000  0.81614000  1.0
  C  C153  1  0.00882000  0.82413000  0.68391000  1.0
  C  C154  1  0.16724000  0.82409000  0.18385000  1.0
  C  C155  1  0.99115000  0.17589000  0.31611000  1.0
  C  C156  1  0.82527000  0.52495000  0.68670000  1.0
  C  C157  1  0.35038000  0.47477000  0.81318000  1.0
  C  C158  1  0.17474000  0.47504000  0.31330000  1.0
  C  C159  1  0.64963000  0.52524000  0.18680000  1.0
  C  C160  1  0.83606000  0.26644000  0.78387000  1.0
  C  C161  1  0.10271000  0.73354000  0.71613000  1.0
  C  C162  1  0.16396000  0.73353000  0.21612000  1.0
  C  C163  1  0.89727000  0.26647000  0.28388000  1.0
  C  C164  1  0.49019000  0.64973000  0.46519000  1.0
  C  C165  1  0.13955000  0.35089000  0.03497000  1.0
  C  C166  1  0.50982000  0.35027000  0.53485000  1.0
  C  C167  1  0.86041000  0.64914000  0.96502000  1.0
  C  C168  1  0.83267000  0.43490000  0.72275000  1.0
  C  C169  1  0.26777000  0.56490000  0.77712000  1.0
  C  C170  1  0.16734000  0.56508000  0.27725000  1.0
  C  C171  1  0.73223000  0.43511000  0.22286000  1.0
  C  C172  1  0.79951000  0.69339000  0.61455000  1.0
  C  C173  1  0.49288000  0.30624000  0.88541000  1.0
  C  C174  1  0.20049000  0.30660000  0.38546000  1.0
  C  C175  1  0.50715000  0.69377000  0.11457000  1.0
  C  C176  1  0.91236000  0.55475000  0.68738000  1.0
  C  C177  1  0.46730000  0.44470000  0.81246000  1.0
  C  C178  1  0.08767000  0.44522000  0.31261000  1.0
  C  C179  1  0.53271000  0.55533000  0.18752000  1.0
  C  C180  1  0.89840000  0.64025000  0.65151000  1.0
  C  C181  1  0.53874000  0.35916000  0.84837000  1.0
  C  C182  1  0.10162000  0.35973000  0.34848000  1.0
  C  C183  1  0.46128000  0.64087000  0.15161000  1.0
  N  N184  1  0.69986000  0.44210000  0.56939000  1.0
  N  N185  1  0.14222000  0.55820000  0.93070000  1.0
  N  N186  1  0.30014000  0.55789000  0.43064000  1.0
  N  N187  1  0.85773000  0.44182000  0.06927000  1.0
  N  N188  1  0.75218000  0.40711000  0.70902000  1.0
  N  N189  1  0.15958000  0.59295000  0.79103000  1.0
  N  N190  1  0.24781000  0.59289000  0.29100000  1.0
  N  N191  1  0.84042000  0.40704000  0.20895000  1.0
  N  N192  1  0.52588000  0.60990000  0.56990000  1.0
  N  N193  1  0.13587000  0.39046000  0.93028000  1.0
  N  N194  1  0.47413000  0.39008000  0.43013000  1.0
  N  N195  1  0.86414000  0.60953000  0.06971000  1.0
  N  N196  1  0.72881000  0.57726000  0.65129000  1.0
  N  N197  1  0.30611000  0.42268000  0.84869000  1.0
  N  N198  1  0.27120000  0.42273000  0.34873000  1.0
  N  N199  1  0.69391000  0.57732000  0.15129000  1.0
  Cl  Cl200  1  0.49239000  0.44643000  0.66751000  1.0
  Cl  Cl201  1  0.93925000  0.55336000  0.83230000  1.0
  Cl  Cl202  1  0.50759000  0.55355000  0.33251000  1.0
  Cl  Cl203  1  0.06074000  0.44663000  0.16769000  1.0
  O  O204  1  0.88148000  0.14546000  0.86794000  1.0
  O  O205  1  0.02708000  0.85455000  0.63211000  1.0
  O  O206  1  0.11856000  0.85449000  0.13203000  1.0
  O  O207  1  0.97289000  0.14549000  0.36791000  1.0
  O  O208  1  0.94881000  0.16837000  0.58228000  1.0
  O  O209  1  0.11789000  0.83181000  0.91763000  1.0
  O  O210  1  0.05122000  0.83162000  0.41774000  1.0
  O  O211  1  0.88203000  0.16822000  0.08233000  1.0
  O  O212  1  0.04811000  0.99547000  0.94587000  1.0
  O  O213  1  0.04332000  0.00475000  0.55411000  1.0
  O  O214  1  0.95191000  0.00453000  0.05412000  1.0
  O  O215  1  0.95669000  0.99525000  0.44591000  1.0
  O  O216  1  0.26037000  0.87033000  0.58193000  1.0
  O  O217  1  0.13041000  0.13028000  0.91819000  1.0
  O  O218  1  0.73963000  0.12965000  0.41811000  1.0
  O  O219  1  0.86960000  0.86972000  0.08181000  1.0
  O  O220  1  0.78168000  0.13918000  0.78984000  1.0
  O  O221  1  0.92107000  0.86085000  0.71021000  1.0
  O  O222  1  0.21826000  0.86083000  0.21016000  1.0
  O  O223  1  0.07891000  0.13916000  0.28982000  1.0
  O  O224  1  0.70792000  0.81494000  0.53072000  1.0
  O  O225  1  0.52294000  0.18480000  0.96932000  1.0
  O  O226  1  0.29206000  0.18508000  0.46930000  1.0
  O  O227  1  0.47709000  0.81517000  0.03063000  1.0
  O  O228  1  0.21472000  0.89882000  0.48405000  1.0
  O  O229  1  0.11276000  0.10183000  0.01600000  1.0
  O  O230  1  0.78530000  0.10117000  0.51600000  1.0
  O  O231  1  0.88725000  0.89816000  0.98400000  1.0
  O  O232  1  0.52792000  0.64612000  0.72769000  1.0
  O  O233  1  0.17450000  0.35243000  0.77240000  1.0
  O  O234  1  0.47208000  0.35388000  0.27230000  1.0
  O  O235  1  0.82552000  0.64754000  0.22760000  1.0
  O  O236  1  0.80255000  0.99911000  0.87276000  1.0
  O  O237  1  0.80172000  0.00061000  0.62709000  1.0
  O  O238  1  0.19745000  0.00088000  0.12723000  1.0
  O  O239  1  0.19823000  0.99936000  0.37293000  1.0
  O  O240  1  0.71330000  0.06213000  0.02488000  1.0
  O  O241  1  0.77614000  0.93705000  0.47495000  1.0
  O  O242  1  0.28669000  0.93789000  0.97510000  1.0
  O  O243  1  0.22386000  0.06296000  0.52507000  1.0
  O  O244  1  0.84579000  0.82323000  0.58586000  1.0
  O  O245  1  0.66885000  0.17609000  0.91395000  1.0
  O  O246  1  0.15422000  0.17676000  0.41416000  1.0
  O  O247  1  0.33119000  0.82395000  0.08603000  1.0
  O  O248  1  0.96115000  0.19379000  0.48375000  1.0
  O  O249  1  0.15597000  0.80647000  0.01613000  1.0
  O  O250  1  0.03885000  0.80621000  0.51626000  1.0
  O  O251  1  0.84414000  0.19351000  0.98382000  1.0
