# generated using pymatgen
data_NdH14C9O7
_symmetry_space_group_name_H-M   'P 1'
_cell_length_a   7.74187000
_cell_length_b   9.79736000
_cell_length_c   18.04080000
_cell_angle_alpha   79.42770000
_cell_angle_beta   77.83400000
_cell_angle_gamma   66.75290000
_symmetry_Int_Tables_number   1
_chemical_formula_structural   NdH14C9O7
_chemical_formula_sum   'Nd4 H56 C36 O28'
_cell_volume   1221.37027642
_cell_formula_units_Z   4
loop_
 _symmetry_equiv_pos_site_id
 _symmetry_equiv_pos_as_xyz
  1  'x, y, z'
loop_
 _atom_site_type_symbol
 _atom_site_label
 _atom_site_symmetry_multiplicity
 _atom_site_fract_x
 _atom_site_fract_y
 _atom_site_fract_z
 _atom_site_occupancy
  Nd  Nd0  1  0.21629000  0.51363000  0.53831000  1.0
  Nd  Nd1  1  0.26812000  0.98631000  0.96187000  1.0
  Nd  Nd2  1  0.78371000  0.48637000  0.46169000  1.0
  Nd  Nd3  1  0.73188000  0.01369000  0.03813000  1.0
  H  H4  1  0.00784000  0.09221000  0.58367000  1.0
  H  H5  1  0.68391000  0.40781000  0.91625000  1.0
  H  H6  1  0.99217000  0.90779000  0.41633000  1.0
  H  H7  1  0.31609000  0.59219000  0.08375000  1.0
  H  H8  1  0.84381000  0.22288000  0.64344000  1.0
  H  H9  1  0.70974000  0.27743000  0.85619000  1.0
  H  H10  1  0.15619000  0.77712000  0.35656000  1.0
  H  H11  1  0.29026000  0.72257000  0.14381000  1.0
  H  H12  1  0.04815000  0.10855000  0.74782000  1.0
  H  H13  1  0.90390000  0.39152000  0.75242000  1.0
  H  H14  1  0.95185000  0.89145000  0.25218000  1.0
  H  H15  1  0.09610000  0.60848000  0.24758000  1.0
  H  H16  1  0.21732000  0.98043000  0.68774000  1.0
  H  H17  1  0.88558000  0.51937000  0.81273000  1.0
  H  H18  1  0.78268000  0.01957000  0.31226000  1.0
  H  H19  1  0.11442000  0.48063000  0.18727000  1.0
  H  H20  1  0.80026000  0.00886000  0.73496000  1.0
  H  H21  1  0.54404000  0.49173000  0.76453000  1.0
  H  H22  1  0.19974000  0.99114000  0.26504000  1.0
  H  H23  1  0.45596000  0.50827000  0.23547000  1.0
  H  H24  1  0.97132000  0.88268000  0.67318000  1.0
  H  H25  1  0.52765000  0.61775000  0.82648000  1.0
  H  H26  1  0.02868000  0.11732000  0.32682000  1.0
  H  H27  1  0.47235000  0.38225000  0.17352000  1.0
  H  H28  1  0.92243000  0.75677000  0.80277000  1.0
  H  H29  1  0.48281000  0.74338000  0.69659000  1.0
  H  H30  1  0.07757000  0.24323000  0.19723000  1.0
  H  H31  1  0.51719000  0.25662000  0.30341000  1.0
  H  H32  1  0.16166000  0.74727000  0.77536000  1.0
  H  H33  1  0.68451000  0.75299000  0.72486000  1.0
  H  H34  1  0.83834000  0.25273000  0.22464000  1.0
  H  H35  1  0.31549000  0.24701000  0.27514000  1.0
  H  H36  1  0.21193000  0.01646000  0.46268000  1.0
  H  H37  1  0.69195000  0.48306000  0.03720000  1.0
  H  H38  1  0.78807000  0.98353000  0.53732000  1.0
  H  H39  1  0.30805000  0.51694000  0.96280000  1.0
  H  H40  1  0.42510000  0.90935000  0.40456000  1.0
  H  H41  1  0.74052000  0.59026000  0.09543000  1.0
  H  H42  1  0.57490000  0.09065000  0.59544000  1.0
  H  H43  1  0.25947000  0.40974000  0.90457000  1.0
  H  H44  1  0.38941000  0.94781000  0.57291000  1.0
  H  H45  1  0.90912000  0.55232000  0.92705000  1.0
  H  H46  1  0.61059000  0.05219000  0.42709000  1.0
  H  H47  1  0.09088000  0.44768000  0.07295000  1.0
  H  H48  1  0.59544000  0.83100000  0.51933000  1.0
  H  H49  1  0.94533000  0.66905000  0.98081000  1.0
  H  H50  1  0.40456000  0.16900000  0.48067000  1.0
  H  H51  1  0.05467000  0.33096000  0.01919000  1.0
  H  H52  1  0.47529000  0.53844000  0.63456000  1.0
  H  H53  1  0.64780000  0.96111000  0.86551000  1.0
  H  H54  1  0.52471000  0.46156000  0.36544000  1.0
  H  H55  1  0.35220000  0.03889000  0.13449000  1.0
  H  H56  1  0.36420000  0.43781000  0.68560000  1.0
  H  H57  1  0.48647000  0.06205000  0.81453000  1.0
  H  H58  1  0.63580000  0.56219000  0.31440000  1.0
  H  H59  1  0.51353000  0.93795000  0.18547000  1.0
  C  C60  1  0.09417000  0.26307000  0.59861000  1.0
  C  C61  1  0.95552000  0.23676000  0.90158000  1.0
  C  C62  1  0.90583000  0.73693000  0.40139000  1.0
  C  C63  1  0.04448000  0.76324000  0.09842000  1.0
  C  C64  1  0.99678000  0.15396000  0.63075000  1.0
  C  C65  1  0.78127000  0.34613000  0.86922000  1.0
  C  C66  1  0.00322000  0.84603000  0.36924000  1.0
  C  C67  1  0.21873000  0.65387000  0.13078000  1.0
  C  C68  1  0.06402000  0.04631000  0.70034000  1.0
  C  C69  1  0.81047000  0.45377000  0.79982000  1.0
  C  C70  1  0.93598000  0.95369000  0.29966000  1.0
  C  C71  1  0.18953000  0.54623000  0.20018000  1.0
  C  C72  1  0.95349000  0.94161000  0.72232000  1.0
  C  C73  1  0.61760000  0.55877000  0.77744000  1.0
  C  C74  1  0.04651000  0.05838000  0.27768000  1.0
  C  C75  1  0.38240000  0.44123000  0.22256000  1.0
  C  C76  1  0.01377000  0.82270000  0.79027000  1.0
  C  C77  1  0.62732000  0.67748000  0.70956000  1.0
  C  C78  1  0.98623000  0.17731000  0.20973000  1.0
  C  C79  1  0.37268000  0.32252000  0.29044000  1.0
  C  C80  1  0.99928000  0.89228000  0.86077000  1.0
  C  C81  1  0.75291000  0.60777000  0.63925000  1.0
  C  C82  1  0.00072000  0.10772000  0.13923000  1.0
  C  C83  1  0.24709000  0.39223000  0.36075000  1.0
  C  C84  1  0.30633000  0.77993000  0.49252000  1.0
  C  C85  1  0.57889000  0.71963000  0.00747000  1.0
  C  C86  1  0.69367000  0.22007000  0.50748000  1.0
  C  C87  1  0.42111000  0.28037000  0.99253000  1.0
  C  C88  1  0.34626000  0.91919000  0.46283000  1.0
  C  C89  1  0.72895000  0.58046000  0.03712000  1.0
  C  C90  1  0.65374000  0.08081000  0.53717000  1.0
  C  C91  1  0.27105000  0.41954000  0.96288000  1.0
  C  C92  1  0.46928000  0.93429000  0.51482000  1.0
  C  C93  1  0.91813000  0.56570000  0.98521000  1.0
  C  C94  1  0.53073000  0.06571000  0.48518000  1.0
  C  C95  1  0.08187000  0.43431000  0.01479000  1.0
  O  O96  1  0.21412000  0.27922000  0.63067000  1.0
  O  O97  1  0.12329000  0.22052000  0.86973000  1.0
  O  O98  1  0.78588000  0.72078000  0.36933000  1.0
  O  O99  1  0.87671000  0.77948000  0.13027000  1.0
  O  O100  1  0.04876000  0.34358000  0.53488000  1.0
  O  O101  1  0.92725000  0.15620000  0.96518000  1.0
  O  O102  1  0.95125000  0.65642000  0.46512000  1.0
  O  O103  1  0.07275000  0.84380000  0.03482000  1.0
  O  O104  1  0.83454000  0.94179000  0.90279000  1.0
  O  O105  1  0.67967000  0.55783000  0.59711000  1.0
  O  O106  1  0.16546000  0.05821000  0.09721000  1.0
  O  O107  1  0.32034000  0.44216000  0.40290000  1.0
  O  O108  1  0.14791000  0.90183000  0.87359000  1.0
  O  O109  1  0.92356000  0.59854000  0.62662000  1.0
  O  O110  1  0.85209000  0.09817000  0.12641000  1.0
  O  O111  1  0.07644000  0.40146000  0.37338000  1.0
  O  O112  1  0.15424000  0.78470000  0.53673000  1.0
  O  O113  1  0.47487000  0.71487000  0.96333000  1.0
  O  O114  1  0.84576000  0.21529000  0.46327000  1.0
  O  O115  1  0.52512000  0.28513000  0.03667000  1.0
  O  O116  1  0.43402000  0.65231000  0.47403000  1.0
  O  O117  1  0.56089000  0.84730000  0.02596000  1.0
  O  O118  1  0.56598000  0.34769000  0.52596000  1.0
  O  O119  1  0.43911000  0.15270000  0.97404000  1.0
  O  O120  1  0.34624000  0.52987000  0.65139000  1.0
  O  O121  1  0.52648000  0.97000000  0.84877000  1.0
  O  O122  1  0.65376000  0.47013000  0.34861000  1.0
  O  O123  1  0.47352000  0.03000000  0.15123000  1.0
