# generated using pymatgen
data_ZnH14C20(NO)4
_symmetry_space_group_name_H-M   'P 1'
_cell_length_a   8.71310000
_cell_length_b   9.73902000
_cell_length_c   11.56260000
_cell_angle_alpha   107.05700000
_cell_angle_beta   91.42720000
_cell_angle_gamma   111.25100000
_symmetry_Int_Tables_number   1
_chemical_formula_structural   ZnH14C20(NO)4
_chemical_formula_sum   'Zn2 H28 C40 N8 O8'
_cell_volume   864.69379036
_cell_formula_units_Z   2
loop_
 _symmetry_equiv_pos_site_id
 _symmetry_equiv_pos_as_xyz
  1  'x, y, z'
loop_
 _atom_site_type_symbol
 _atom_site_label
 _atom_site_symmetry_multiplicity
 _atom_site_fract_x
 _atom_site_fract_y
 _atom_site_fract_z
 _atom_site_occupancy
  Zn  Zn0  1  0.11686000  0.56797000  0.84110000  1.0
  Zn  Zn1  1  0.88314000  0.43203000  0.15890000  1.0
  H  H2  1  0.58357000  0.51607000  0.20142000  1.0
  H  H3  1  0.41643000  0.48393000  0.79858000  1.0
  H  H4  1  0.65534000  0.00004000  0.31316000  1.0
  H  H5  1  0.34466000  0.99996000  0.68684000  1.0
  H  H6  1  0.81833000  0.04689000  0.51020000  1.0
  H  H7  1  0.18167000  0.95311000  0.48980000  1.0
  H  H8  1  0.86827000  0.82944000  0.55134000  1.0
  H  H9  1  0.13173000  0.17056000  0.44866000  1.0
  H  H10  1  0.87665000  0.24195000  0.34851000  1.0
  H  H11  1  0.12335000  0.75805000  0.65149000  1.0
  H  H12  1  0.71874000  0.55555000  0.60225000  1.0
  H  H13  1  0.28126000  0.44444000  0.39775000  1.0
  H  H14  1  0.44667000  0.86642000  0.91567000  1.0
  H  H15  1  0.55333000  0.13358000  0.08433000  1.0
  H  H16  1  0.27624000  0.51613000  0.08096000  1.0
  H  H17  1  0.72376000  0.48387000  0.91904000  1.0
  H  H18  1  0.08249000  0.11328000  0.86301000  1.0
  H  H19  1  0.91751000  0.88672000  0.13699000  1.0
  H  H20  1  0.60158000  0.02972000  0.69072000  1.0
  H  H21  1  0.39842000  0.97029000  0.30928000  1.0
  H  H22  1  0.49255000  0.75704000  0.69983000  1.0
  H  H23  1  0.50745000  0.24297000  0.30018000  1.0
  H  H24  1  0.68649000  0.66304000  0.78550000  1.0
  H  H25  1  0.31351000  0.33696000  0.21450000  1.0
  H  H26  1  0.81505000  0.33223000  0.56994000  1.0
  H  H27  1  0.18496000  0.66777000  0.43006000  1.0
  H  H28  1  0.67200000  0.93976000  0.09452000  1.0
  H  H29  1  0.32801000  0.06023000  0.90548000  1.0
  C  C30  1  0.72753000  0.65801000  0.38003000  1.0
  C  C31  1  0.27247000  0.34198000  0.61997000  1.0
  C  C32  1  0.63351000  0.63176000  0.26971000  1.0
  C  C33  1  0.36649000  0.36823000  0.73029000  1.0
  C  C34  1  0.60739000  0.75445000  0.24467000  1.0
  C  C35  1  0.39261000  0.24554000  0.75533000  1.0
  C  C36  1  0.67655000  0.90454000  0.33183000  1.0
  C  C37  1  0.32345000  0.09546000  0.66817000  1.0
  C  C38  1  0.76817000  0.93105000  0.44198000  1.0
  C  C39  1  0.23183000  0.06895000  0.55802000  1.0
  C  C40  1  0.79405000  0.80841000  0.46602000  1.0
  C  C41  1  0.20595000  0.19159000  0.53398000  1.0
  C  C42  1  0.83466000  0.33564000  0.38580000  1.0
  C  C43  1  0.16534000  0.66436000  0.61420000  1.0
  C  C44  1  0.75324000  0.50119000  0.51688000  1.0
  C  C45  1  0.24676000  0.49881000  0.48312000  1.0
  C  C46  1  0.75989000  0.53263000  0.40772000  1.0
  C  C47  1  0.24011000  0.46737000  0.59228000  1.0
  C  C48  1  0.44148000  0.80089000  0.97735000  1.0
  C  C49  1  0.55852000  0.19912000  0.02265000  1.0
  C  C50  1  0.35960000  0.62030000  0.06453000  1.0
  C  C51  1  0.64040000  0.37969000  0.93547000  1.0
  C  C52  1  0.51055000  0.73138000  0.13064000  1.0
  C  C53  1  0.48945000  0.26862000  0.86936000  1.0
  C  C54  1  0.89699000  0.87961000  0.82618000  1.0
  C  C55  1  0.10301000  0.12039000  0.17382000  1.0
  C  C56  1  0.95358000  0.03462000  0.82767000  1.0
  C  C57  1  0.04642000  0.96538000  0.17233000  1.0
  C  C58  1  0.84590000  0.08835000  0.78002000  1.0
  C  C59  1  0.15410000  0.91165000  0.21998000  1.0
  C  C60  1  0.68067000  0.98703000  0.73214000  1.0
  C  C61  1  0.31933000  0.01297000  0.26787000  1.0
  C  C62  1  0.62146000  0.83525000  0.73602000  1.0
  C  C63  1  0.37854000  0.16475000  0.26398000  1.0
  C  C64  1  0.72910000  0.78205000  0.78336000  1.0
  C  C65  1  0.27090000  0.21795000  0.21664000  1.0
  C  C66  1  0.01576000  0.81189000  0.85735000  1.0
  C  C67  1  0.98424000  0.18811000  0.14265000  1.0
  C  C68  1  0.90508000  0.24972000  0.77108000  1.0
  C  C69  1  0.09492000  0.75028000  0.22892000  1.0
  N  N70  1  0.81096000  0.42663000  0.32579000  1.0
  N  N71  1  0.18904000  0.57336000  0.67421000  1.0
  N  N72  1  0.80031000  0.37760000  0.50090000  1.0
  N  N73  1  0.19969000  0.62240000  0.49910000  1.0
  N  N74  1  0.55894000  0.84323000  0.07272000  1.0
  N  N75  1  0.44106000  0.15677000  0.92728000  1.0
  N  N76  1  0.31825000  0.66657000  0.96998000  1.0
  N  N77  1  0.68175000  0.33343000  0.03001000  1.0
  O  O78  1  0.17056000  0.89080000  0.87862000  1.0
  O  O79  1  0.82944000  0.10920000  0.12139000  1.0
  O  O80  1  0.95146000  0.66725000  0.85093000  1.0
  O  O81  1  0.04854000  0.33276000  0.14907000  1.0
  O  O82  1  0.83371000  0.27023000  0.68536000  1.0
  O  O83  1  0.16629000  0.72977000  0.31463000  1.0
  O  O84  1  0.02564000  0.35605000  0.85277000  1.0
  O  O85  1  0.97436000  0.64396000  0.14723000  1.0
