# generated using pymatgen
data_CoH11C13(NO3)2
_symmetry_space_group_name_H-M   'P 1'
_cell_length_a   4.96392000
_cell_length_b   10.21460000
_cell_length_c   12.89660000
_cell_angle_alpha   108.23700000
_cell_angle_beta   90.09560000
_cell_angle_gamma   97.66810000
_symmetry_Int_Tables_number   1
_chemical_formula_structural   CoH11C13(NO3)2
_chemical_formula_sum   'Co2 H22 C26 N4 O12'
_cell_volume   614.85981324
_cell_formula_units_Z   2
loop_
 _symmetry_equiv_pos_site_id
 _symmetry_equiv_pos_as_xyz
  1  'x, y, z'
loop_
 _atom_site_type_symbol
 _atom_site_label
 _atom_site_symmetry_multiplicity
 _atom_site_fract_x
 _atom_site_fract_y
 _atom_site_fract_z
 _atom_site_occupancy
  Co  Co0  1  0.63328000  0.85516000  0.72817000  1.0
  Co  Co1  1  0.36676000  0.14484000  0.27183000  1.0
  H  H2  1  0.69473000  0.90122000  0.00829000  1.0
  H  H3  1  0.30536000  0.09880000  0.99169000  1.0
  H  H4  1  0.79436000  0.71376000  0.08289000  1.0
  H  H5  1  0.20584000  0.28623000  0.91704000  1.0
  H  H6  1  0.10688000  0.44959000  0.87958000  1.0
  H  H7  1  0.89305000  0.55046000  0.12048000  1.0
  H  H8  1  0.03345000  0.65003000  0.81811000  1.0
  H  H9  1  0.96640000  0.35004000  0.18198000  1.0
  H  H10  1  0.30293000  0.58638000  0.24497000  1.0
  H  H11  1  0.69711000  0.41359000  0.75500000  1.0
  H  H12  1  0.71759000  0.95980000  0.47666000  1.0
  H  H13  1  0.28229000  0.04020000  0.52336000  1.0
  H  H14  1  0.84598000  0.55881000  0.49553000  1.0
  H  H15  1  0.15390000  0.44119000  0.50449000  1.0
  H  H16  1  0.06139000  0.76571000  0.61944000  1.0
  H  H17  1  0.93863000  0.23422000  0.38052000  1.0
  H  H18  1  0.05037000  0.92441000  0.61262000  1.0
  H  H19  1  0.94968000  0.07559000  0.38737000  1.0
  H  H20  1  0.08412000  0.95186000  0.84522000  1.0
  H  H21  1  0.91593000  0.04814000  0.15475000  1.0
  H  H22  1  0.91316000  0.07264000  0.82301000  1.0
  H  H23  1  0.08682000  0.92736000  0.17694000  1.0
  C  C24  1  0.57523000  0.79855000  0.98520000  1.0
  C  C25  1  0.42487000  0.20147000  0.01479000  1.0
  C  C26  1  0.62539000  0.69182000  0.02325000  1.0
  C  C27  1  0.37474000  0.30818000  0.97671000  1.0
  C  C28  1  0.46732000  0.55931000  0.98417000  1.0
  C  C29  1  0.53275000  0.44069000  0.01579000  1.0
  C  C30  1  0.24430000  0.54689000  0.91240000  1.0
  C  C31  1  0.75570000  0.45315000  0.08763000  1.0
  C  C32  1  0.19704000  0.65625000  0.87668000  1.0
  C  C33  1  0.80292000  0.34380000  0.12336000  1.0
  C  C34  1  0.50366000  0.40322000  0.32826000  1.0
  C  C35  1  0.49629000  0.59676000  0.67176000  1.0
  C  C36  1  0.57305000  0.55699000  0.36518000  1.0
  C  C37  1  0.42686000  0.44299000  0.63484000  1.0
  C  C38  1  0.44710000  0.63662000  0.31397000  1.0
  C  C39  1  0.55288000  0.36336000  0.68602000  1.0
  C  C40  1  0.51014000  0.78142000  0.35107000  1.0
  C  C41  1  0.48980000  0.21856000  0.64894000  1.0
  C  C42  1  0.68313000  0.84653000  0.44422000  1.0
  C  C43  1  0.31675000  0.15347000  0.55582000  1.0
  C  C44  1  0.79845000  0.76733000  0.49881000  1.0
  C  C45  1  0.20150000  0.23266000  0.50120000  1.0
  C  C46  1  0.75306000  0.62199000  0.45538000  1.0
  C  C47  1  0.24682000  0.37800000  0.54465000  1.0
  C  C48  1  0.38835000  0.86696000  0.29254000  1.0
  C  C49  1  0.61165000  0.13303000  0.70745000  1.0
  N  N50  1  0.36970000  0.77822000  0.90950000  1.0
  N  N51  1  0.63032000  0.22181000  0.09051000  1.0
  N  N52  1  0.93597000  0.82978000  0.60261000  1.0
  N  N53  1  0.06412000  0.17020000  0.39736000  1.0
  O  O54  1  0.35523000  0.87517000  0.86164000  1.0
  O  O55  1  0.64479000  0.12485000  0.13836000  1.0
  O  O56  1  0.29062000  0.34493000  0.26666000  1.0
  O  O57  1  0.70939000  0.65504000  0.73336000  1.0
  O  O58  1  0.64936000  0.32647000  0.35920000  1.0
  O  O59  1  0.35060000  0.67353000  0.64084000  1.0
  O  O60  1  0.17837000  0.81420000  0.23004000  1.0
  O  O61  1  0.82167000  0.18579000  0.76994000  1.0
  O  O62  1  0.51265000  0.99219000  0.31132000  1.0
  O  O63  1  0.48736000  0.00780000  0.68866000  1.0
  O  O64  1  0.90621000  0.98711000  0.84762000  1.0
  O  O65  1  0.09384000  0.01290000  0.15235000  1.0
