# generated using pymatgen
data_ZnH16C18(NO)3
_symmetry_space_group_name_H-M   'P 1'
_cell_length_a   16.87880000
_cell_length_b   18.37660000
_cell_length_c   18.37660000
_cell_angle_alpha   75.88890000
_cell_angle_beta   62.67800000
_cell_angle_gamma   62.67840000
_symmetry_Int_Tables_number   1
_chemical_formula_structural   ZnH16C18(NO)3
_chemical_formula_sum   'Zn8 H128 C144 N24 O24'
_cell_volume   4495.18680587
_cell_formula_units_Z   8
loop_
 _symmetry_equiv_pos_site_id
 _symmetry_equiv_pos_as_xyz
  1  'x, y, z'
loop_
 _atom_site_type_symbol
 _atom_site_label
 _atom_site_symmetry_multiplicity
 _atom_site_fract_x
 _atom_site_fract_y
 _atom_site_fract_z
 _atom_site_occupancy
  Zn  Zn0  1  0.73580000  0.59516000  0.13532000  1.0
  Zn  Zn1  1  0.53366000  0.63526000  0.09525000  1.0
  Zn  Zn2  1  0.76419000  0.86468000  0.40484000  1.0
  Zn  Zn3  1  0.96634000  0.90475000  0.36474000  1.0
  Zn  Zn4  1  0.26419000  0.40484000  0.86468000  1.0
  Zn  Zn5  1  0.46634000  0.36474000  0.90475000  1.0
  Zn  Zn6  1  0.23581000  0.13532000  0.59516000  1.0
  Zn  Zn7  1  0.03366000  0.09525000  0.63526000  1.0
  H  H8  1  0.82646000  0.16922000  0.66872000  1.0
  H  H9  1  0.33558000  0.16882000  0.66927000  1.0
  H  H10  1  0.67354000  0.33128000  0.83078000  1.0
  H  H11  1  0.16442000  0.33073000  0.83118000  1.0
  H  H12  1  0.17354000  0.83077000  0.33128000  1.0
  H  H13  1  0.66441000  0.83118000  0.33073000  1.0
  H  H14  1  0.32646000  0.66872000  0.16922000  1.0
  H  H15  1  0.83558000  0.66927000  0.16882000  1.0
  H  H16  1  0.81119000  0.38931000  0.27806000  1.0
  H  H17  1  0.52152000  0.77813000  0.88918000  1.0
  H  H18  1  0.68881000  0.72194000  0.61069000  1.0
  H  H19  1  0.97847000  0.11082000  0.22187000  1.0
  H  H20  1  0.18881000  0.61069000  0.72194000  1.0
  H  H21  1  0.47847000  0.22188000  0.11083000  1.0
  H  H22  1  0.31119000  0.27806000  0.38931000  1.0
  H  H23  1  0.02152000  0.88918000  0.77813000  1.0
  H  H24  1  0.83195000  0.28496000  0.39174000  1.0
  H  H25  1  0.49124000  0.89187000  0.78494000  1.0
  H  H26  1  0.66804000  0.60826000  0.71504000  1.0
  H  H27  1  0.00876000  0.21506000  0.10813000  1.0
  H  H28  1  0.16804000  0.71504000  0.60826000  1.0
  H  H29  1  0.50876000  0.10814000  0.21507000  1.0
  H  H30  1  0.33195000  0.39174000  0.28496000  1.0
  H  H31  1  0.99124000  0.78494000  0.89188000  1.0
  H  H32  1  0.90277000  0.43436000  0.47962000  1.0
  H  H33  1  0.18327000  0.97957000  0.93456000  1.0
  H  H34  1  0.59724000  0.52037000  0.56563000  1.0
  H  H35  1  0.31673000  0.06545000  0.02043000  1.0
  H  H36  1  0.09723000  0.56564000  0.52037000  1.0
  H  H37  1  0.81673000  0.02043000  0.06544000  1.0
  H  H38  1  0.40277000  0.47962000  0.43436000  1.0
  H  H39  1  0.68327000  0.93455000  0.97957000  1.0
  H  H40  1  0.88063000  0.53871000  0.36617000  1.0
  H  H41  1  0.21473000  0.86607000  0.03875000  1.0
  H  H42  1  0.61938000  0.63383000  0.46129000  1.0
  H  H43  1  0.28527000  0.96126000  0.13393000  1.0
  H  H44  1  0.11938000  0.46128000  0.63382000  1.0
  H  H45  1  0.78527000  0.13393000  0.96125000  1.0
  H  H46  1  0.38062000  0.36617000  0.53871000  1.0
  H  H47  1  0.71473000  0.03875000  0.86607000  1.0
  H  H48  1  0.65812000  0.31405000  0.65792000  1.0
  H  H49  1  0.36990000  0.15801000  0.81402000  1.0
  H  H50  1  0.84188000  0.34208000  0.68594000  1.0
  H  H51  1  0.13009000  0.18597000  0.84200000  1.0
  H  H52  1  0.34188000  0.68595000  0.34209000  1.0
  H  H53  1  0.63010000  0.84200000  0.18597000  1.0
  H  H54  1  0.15812000  0.65792000  0.31405000  1.0
  H  H55  1  0.86991000  0.81402000  0.15801000  1.0
  H  H56  1  0.68183000  0.25841000  0.57884000  1.0
  H  H57  1  0.48088000  0.07897000  0.75841000  1.0
  H  H58  1  0.81817000  0.42116000  0.74159000  1.0
  H  H59  1  0.01912000  0.24159000  0.92103000  1.0
  H  H60  1  0.31817000  0.74159000  0.42116000  1.0
  H  H61  1  0.51912000  0.92103000  0.24159000  1.0
  H  H62  1  0.18183000  0.57884000  0.25841000  1.0
  H  H63  1  0.98088000  0.75841000  0.07897000  1.0
  H  H64  1  0.68181000  0.35822000  0.55639000  1.0
  H  H65  1  0.40360000  0.05652000  0.85824000  1.0
  H  H66  1  0.81819000  0.44361000  0.64177000  1.0
  H  H67  1  0.09639000  0.14176000  0.94348000  1.0
  H  H68  1  0.31819000  0.64178000  0.44362000  1.0
  H  H69  1  0.59640000  0.94348000  0.14176000  1.0
  H  H70  1  0.18181000  0.55639000  0.35822000  1.0
  H  H71  1  0.90360000  0.85823000  0.05652000  1.0
  H  H72  1  0.11998000  0.17560000  0.44984000  1.0
  H  H73  1  0.25455000  0.94981000  0.67554000  1.0
  H  H74  1  0.38002000  0.55016000  0.82440000  1.0
  H  H75  1  0.24545000  0.32445000  0.05019000  1.0
  H  H76  1  0.88002000  0.82439000  0.55016000  1.0
  H  H77  1  0.74544000  0.05019000  0.32446000  1.0
  H  H78  1  0.61998000  0.44984000  0.17560000  1.0
  H  H79  1  0.75455000  0.67555000  0.94981000  1.0
  H  H80  1  0.09278000  0.25574000  0.50619000  1.0
  H  H81  1  0.14535000  0.00616000  0.75567000  1.0
  H  H82  1  0.40723000  0.49380000  0.74426000  1.0
  H  H83  1  0.35465000  0.24432000  0.99384000  1.0
  H  H84  1  0.90723000  0.74426000  0.49380000  1.0
  H  H85  1  0.85465000  0.99384000  0.24433000  1.0
  H  H86  1  0.59277000  0.50620000  0.25574000  1.0
  H  H87  1  0.64535000  0.75568000  0.00616000  1.0
  H  H88  1  0.06810000  0.27964000  0.41678000  1.0
  H  H89  1  0.23561000  0.91686000  0.77960000  1.0
  H  H90  1  0.43191000  0.58322000  0.72035000  1.0
  H  H91  1  0.26439000  0.22040000  0.08314000  1.0
  H  H92  1  0.93190000  0.72035000  0.58322000  1.0
  H  H93  1  0.76439000  0.08314000  0.22041000  1.0
  H  H94  1  0.56810000  0.41678000  0.27964000  1.0
  H  H95  1  0.73561000  0.77960000  0.91686000  1.0
  H  H96  1  0.91341000  0.45346000  0.06620000  1.0
  H  H97  1  0.56665000  0.56623000  0.95343000  1.0
  H  H98  1  0.58659000  0.93381000  0.54654000  1.0
  H  H99  1  0.93335000  0.04657000  0.43377000  1.0
  H  H100  1  0.08659000  0.54654000  0.93381000  1.0
  H  H101  1  0.43334000  0.43377000  0.04657000  1.0
  H  H102  1  0.41341000  0.06619000  0.45347000  1.0
  H  H103  1  0.06665000  0.95343000  0.56623000  1.0
  H  H104  1  0.96287000  0.48422000  0.96099000  1.0
  H  H105  1  0.59161000  0.46101000  0.98416000  1.0
  H  H106  1  0.53713000  0.03901000  0.51578000  1.0
  H  H107  1  0.90839000  0.01585000  0.53899000  1.0
  H  H108  1  0.03713000  0.51579000  0.03901000  1.0
  H  H109  1  0.40839000  0.53899000  0.01585000  1.0
  H  H110  1  0.46287000  0.96099000  0.48422000  1.0
  H  H111  1  0.09161000  0.98415000  0.46101000  1.0
  H  H112  1  0.96364000  0.38481000  0.98763000  1.0
  H  H113  1  0.66365000  0.48765000  0.88477000  1.0
  H  H114  1  0.53635000  0.01238000  0.61519000  1.0
  H  H115  1  0.83636000  0.11523000  0.51234000  1.0
  H  H116  1  0.03636000  0.61520000  0.01237000  1.0
  H  H117  1  0.33635000  0.51234000  0.11523000  1.0
  H  H118  1  0.46364000  0.98762000  0.38481000  1.0
  H  H119  1  0.16364000  0.88477000  0.48765000  1.0
  H  H120  1  0.76322000  0.32679000  0.94402000  1.0
  H  H121  1  0.96544000  0.44413000  0.82696000  1.0
  H  H122  1  0.73678000  0.05598000  0.67320000  1.0
  H  H123  1  0.53455000  0.17305000  0.55588000  1.0
  H  H124  1  0.23678000  0.67320000  0.05598000  1.0
  H  H125  1  0.03456000  0.55587000  0.17305000  1.0
  H  H126  1  0.26321000  0.94403000  0.32679000  1.0
  H  H127  1  0.46544000  0.82696000  0.44412000  1.0
  H  H128  1  0.86877000  0.22169000  0.83901000  1.0
  H  H129  1  0.07004000  0.33924000  0.72175000  1.0
  H  H130  1  0.63124000  0.16098000  0.77830000  1.0
  H  H131  1  0.42996000  0.27825000  0.66076000  1.0
  H  H132  1  0.13124000  0.77831000  0.16098000  1.0
  H  H133  1  0.92995000  0.66076000  0.27825000  1.0
  H  H134  1  0.36876000  0.83902000  0.22169000  1.0
  H  H135  1  0.57004000  0.72175000  0.33924000  1.0
  C  C136  1  0.82983000  0.53317000  0.24834000  1.0
  C  C137  1  0.38873000  0.74827000  0.03314000  1.0
  C  C138  1  0.67017000  0.75166000  0.46683000  1.0
  C  C139  1  0.11127000  0.96686000  0.25173000  1.0
  C  C140  1  0.17017000  0.46683000  0.75166000  1.0
  C  C141  1  0.61127000  0.25174000  0.96687000  1.0
  C  C142  1  0.32983000  0.24834000  0.53317000  1.0
  C  C143  1  0.88873000  0.03313000  0.74827000  1.0
  C  C144  1  0.84507000  0.46995000  0.31525000  1.0
  C  C145  1  0.36985000  0.81516000  0.96989000  1.0
  C  C146  1  0.65493000  0.68475000  0.53005000  1.0
  C  C147  1  0.13015000  0.03011000  0.18483000  1.0
  C  C148  1  0.15493000  0.53005000  0.68475000  1.0
  C  C149  1  0.63014000  0.18484000  0.03011000  1.0
  C  C150  1  0.34507000  0.31525000  0.46995000  1.0
  C  C151  1  0.86985000  0.96989000  0.81517000  1.0
  C  C152  1  0.83084000  0.39856000  0.32287000  1.0
  C  C153  1  0.44778000  0.82282000  0.89845000  1.0
  C  C154  1  0.66916000  0.67713000  0.60145000  1.0
  C  C155  1  0.05221000  0.10155000  0.17718000  1.0
  C  C156  1  0.16916000  0.60145000  0.67713000  1.0
  C  C157  1  0.55221000  0.17719000  0.10155000  1.0
  C  C158  1  0.33084000  0.32287000  0.39856000  1.0
  C  C159  1  0.94778000  0.89845000  0.82282000  1.0
  C  C160  1  0.84211000  0.34089000  0.38631000  1.0
  C  C161  1  0.43066000  0.88634000  0.84085000  1.0
  C  C162  1  0.65788000  0.61369000  0.65911000  1.0
  C  C163  1  0.06934000  0.15915000  0.11366000  1.0
  C  C164  1  0.15789000  0.65911000  0.61369000  1.0
  C  C165  1  0.56934000  0.11367000  0.15916000  1.0
  C  C166  1  0.34211000  0.38631000  0.34088000  1.0
  C  C167  1  0.93066000  0.84085000  0.88634000  1.0
  C  C168  1  0.86842000  0.35292000  0.44338000  1.0
  C  C169  1  0.33527000  0.94340000  0.85291000  1.0
  C  C170  1  0.63158000  0.55662000  0.64708000  1.0
  C  C171  1  0.16473000  0.14709000  0.05660000  1.0
  C  C172  1  0.13158000  0.64708000  0.55662000  1.0
  C  C173  1  0.66473000  0.05661000  0.14709000  1.0
  C  C174  1  0.36842000  0.44337000  0.35291000  1.0
  C  C175  1  0.83527000  0.85292000  0.94340000  1.0
  C  C176  1  0.88332000  0.42425000  0.43503000  1.0
  C  C177  1  0.25745000  0.93499000  0.92427000  1.0
  C  C178  1  0.61669000  0.56496000  0.57574000  1.0
  C  C179  1  0.24254000  0.07572000  0.06501000  1.0
  C  C180  1  0.11669000  0.57574000  0.56496000  1.0
  C  C181  1  0.74255000  0.06501000  0.07572000  1.0
  C  C182  1  0.38332000  0.43503000  0.42425000  1.0
  C  C183  1  0.75745000  0.92428000  0.93499000  1.0
  C  C184  1  0.87133000  0.48238000  0.37188000  1.0
  C  C185  1  0.27455000  0.87183000  0.98236000  1.0
  C  C186  1  0.62868000  0.62812000  0.51762000  1.0
  C  C187  1  0.22544000  0.01764000  0.12817000  1.0
  C  C188  1  0.12868000  0.51762000  0.62811000  1.0
  C  C189  1  0.72544000  0.12817000  0.01764000  1.0
  C  C190  1  0.37133000  0.37188000  0.48238000  1.0
  C  C191  1  0.77456000  0.98236000  0.87183000  1.0
  C  C192  1  0.88042000  0.29087000  0.50964000  1.0
  C  C193  1  0.31903000  0.00970000  0.79087000  1.0
  C  C194  1  0.61958000  0.49036000  0.70914000  1.0
  C  C195  1  0.18097000  0.20913000  0.99029000  1.0
  C  C196  1  0.11958000  0.70913000  0.49036000  1.0
  C  C197  1  0.68097000  0.99030000  0.20913000  1.0
  C  C198  1  0.38042000  0.50964000  0.29086000  1.0
  C  C199  1  0.81903000  0.79087000  0.00970000  1.0
  C  C200  1  0.80782000  0.26728000  0.57278000  1.0
  C  C201  1  0.35205000  0.07290000  0.76732000  1.0
  C  C202  1  0.69218000  0.42721000  0.73272000  1.0
  C  C203  1  0.14795000  0.23268000  0.92711000  1.0
  C  C204  1  0.19218000  0.73272000  0.42722000  1.0
  C  C205  1  0.64795000  0.92711000  0.23268000  1.0
  C  C206  1  0.30782000  0.57279000  0.26728000  1.0
  C  C207  1  0.85205000  0.76732000  0.07289000  1.0
  C  C208  1  0.96747000  0.24009000  0.52076000  1.0
  C  C209  1  0.27163000  0.02088000  0.74005000  1.0
  C  C210  1  0.53253000  0.47924000  0.75990000  1.0
  C  C211  1  0.22837000  0.25995000  0.97912000  1.0
  C  C212  1  0.03253000  0.75990000  0.47924000  1.0
  C  C213  1  0.72836000  0.97912000  0.25995000  1.0
  C  C214  1  0.46747000  0.52076000  0.24009000  1.0
  C  C215  1  0.77164000  0.74005000  0.02088000  1.0
  C  C216  1  0.70176000  0.30105000  0.59267000  1.0
  C  C217  1  0.40452000  0.09276000  0.80105000  1.0
  C  C218  1  0.79825000  0.40733000  0.69895000  1.0
  C  C219  1  0.09548000  0.19895000  0.90725000  1.0
  C  C220  1  0.29824000  0.69895000  0.40733000  1.0
  C  C221  1  0.59547000  0.90725000  0.19895000  1.0
  C  C222  1  0.20175000  0.59267000  0.30105000  1.0
  C  C223  1  0.90453000  0.80105000  0.09276000  1.0
  C  C224  1  0.06750000  0.23768000  0.47068000  1.0
  C  C225  1  0.22418000  0.97072000  0.73760000  1.0
  C  C226  1  0.43251000  0.52932000  0.76231000  1.0
  C  C227  1  0.27582000  0.26239000  0.02928000  1.0
  C  C228  1  0.93250000  0.76231000  0.52932000  1.0
  C  C229  1  0.77582000  0.02929000  0.26240000  1.0
  C  C230  1  0.56750000  0.47068000  0.23768000  1.0
  C  C231  1  0.72418000  0.73760000  0.97072000  1.0
  C  C232  1  0.82306000  0.47956000  0.00295000  1.0
  C  C233  1  0.69406000  0.50297000  0.97963000  1.0
  C  C234  1  0.67694000  0.99705000  0.52044000  1.0
  C  C235  1  0.80593000  0.02038000  0.49703000  1.0
  C  C236  1  0.17694000  0.52044000  0.99705000  1.0
  C  C237  1  0.30593000  0.49703000  0.02038000  1.0
  C  C238  1  0.32306000  0.00295000  0.47956000  1.0
  C  C239  1  0.19406000  0.97962000  0.50297000  1.0
  C  C240  1  0.92077000  0.44907000  0.00466000  1.0
  C  C241  1  0.62519000  0.50469000  0.94905000  1.0
  C  C242  1  0.57923000  0.99535000  0.55093000  1.0
  C  C243  1  0.87481000  0.05095000  0.49531000  1.0
  C  C244  1  0.07923000  0.55093000  0.99534000  1.0
  C  C245  1  0.37481000  0.49531000  0.05095000  1.0
  C  C246  1  0.42077000  0.00465000  0.44908000  1.0
  C  C247  1  0.12518000  0.94905000  0.50469000  1.0
  C  C248  1  0.79477000  0.45501000  0.95506000  1.0
  C  C249  1  0.70523000  0.04495000  0.54499000  1.0
  C  C250  1  0.20523000  0.54499000  0.04495000  1.0
  C  C251  1  0.29477000  0.95505000  0.45502000  1.0
  C  C252  1  0.85674000  0.39303000  0.89305000  1.0
  C  C253  1  0.64326000  0.10695000  0.60696000  1.0
  C  C254  1  0.14326000  0.60696000  0.10695000  1.0
  C  C255  1  0.35674000  0.89305000  0.39304000  1.0
  C  C256  1  0.83033000  0.32980000  0.89540000  1.0
  C  C257  1  0.94399000  0.39548000  0.82987000  1.0
  C  C258  1  0.66967000  0.10460000  0.67019000  1.0
  C  C259  1  0.55600000  0.17013000  0.60452000  1.0
  C  C260  1  0.16967000  0.67019000  0.10460000  1.0
  C  C261  1  0.05601000  0.60451000  0.17013000  1.0
  C  C262  1  0.33033000  0.89540000  0.32981000  1.0
  C  C263  1  0.44399000  0.82987000  0.39548000  1.0
  C  C264  1  0.88970000  0.27037000  0.83690000  1.0
  C  C265  1  0.00260000  0.33705000  0.77040000  1.0
  C  C266  1  0.61030000  0.16311000  0.72962000  1.0
  C  C267  1  0.49740000  0.22961000  0.66295000  1.0
  C  C268  1  0.11030000  0.72962000  0.16310000  1.0
  C  C269  1  0.99740000  0.66295000  0.22961000  1.0
  C  C270  1  0.38969000  0.83690000  0.27037000  1.0
  C  C271  1  0.50260000  0.77039000  0.33705000  1.0
  C  C272  1  0.97599000  0.27391000  0.77388000  1.0
  C  C273  1  0.52401000  0.22612000  0.72610000  1.0
  C  C274  1  0.02401000  0.72610000  0.22612000  1.0
  C  C275  1  0.47599000  0.77389000  0.27390000  1.0
  C  C276  1  0.03895000  0.21108000  0.71106000  1.0
  C  C277  1  0.46105000  0.28895000  0.78893000  1.0
  C  C278  1  0.96105000  0.78893000  0.28894000  1.0
  C  C279  1  0.53895000  0.71106000  0.21107000  1.0
  N  N280  1  0.85159000  0.20637000  0.61747000  1.0
  N  N281  1  0.32455000  0.11757000  0.70638000  1.0
  N  N282  1  0.64841000  0.38253000  0.79363000  1.0
  N  N283  1  0.17545000  0.29361000  0.88243000  1.0
  N  N284  1  0.14841000  0.79363000  0.38253000  1.0
  N  N285  1  0.67544000  0.88243000  0.29361000  1.0
  N  N286  1  0.35159000  0.61747000  0.20636000  1.0
  N  N287  1  0.82455000  0.70639000  0.11757000  1.0
  N  N288  1  0.94820000  0.18875000  0.58643000  1.0
  N  N289  1  0.27662000  0.08653000  0.68870000  1.0
  N  N290  1  0.55180000  0.41357000  0.81125000  1.0
  N  N291  1  0.22338000  0.31129000  0.91347000  1.0
  N  N292  1  0.05180000  0.81125000  0.41357000  1.0
  N  N293  1  0.72338000  0.91347000  0.31129000  1.0
  N  N294  1  0.44820000  0.58644000  0.18875000  1.0
  N  N295  1  0.77662000  0.68870000  0.08653000  1.0
  N  N296  1  0.74365000  0.53795000  0.05304000  1.0
  N  N297  1  0.66516000  0.55301000  0.03803000  1.0
  N  N298  1  0.75634000  0.94697000  0.46205000  1.0
  N  N299  1  0.83484000  0.96197000  0.44699000  1.0
  N  N300  1  0.25634000  0.46205000  0.94697000  1.0
  N  N301  1  0.33484000  0.44699000  0.96197000  1.0
  N  N302  1  0.24365000  0.05303000  0.53795000  1.0
  N  N303  1  0.16515000  0.03803000  0.55301000  1.0
  O  O304  1  0.80591000  0.51485000  0.19964000  1.0
  O  O305  1  0.47957000  0.69944000  0.01484000  1.0
  O  O306  1  0.69408000  0.80037000  0.48515000  1.0
  O  O307  1  0.02043000  0.98516000  0.30057000  1.0
  O  O308  1  0.19408000  0.48515000  0.80037000  1.0
  O  O309  1  0.52043000  0.30057000  0.98516000  1.0
  O  O310  1  0.30591000  0.19964000  0.51486000  1.0
  O  O311  1  0.97957000  0.01484000  0.69944000  1.0
  O  O312  1  0.84044000  0.59790000  0.24345000  1.0
  O  O313  1  0.31829000  0.74348000  0.09790000  1.0
  O  O314  1  0.65956000  0.75655000  0.40210000  1.0
  O  O315  1  0.18171000  0.90210000  0.25652000  1.0
  O  O316  1  0.15956000  0.40210000  0.75655000  1.0
  O  O317  1  0.68172000  0.25652000  0.90210000  1.0
  O  O318  1  0.34044000  0.24346000  0.59790000  1.0
  O  O319  1  0.81829000  0.09790000  0.74348000  1.0
  O  O320  1  0.10552000  0.22529000  0.64619000  1.0
  O  O321  1  0.02328000  0.14609000  0.72518000  1.0
  O  O322  1  0.39447000  0.35381000  0.77472000  1.0
  O  O323  1  0.47673000  0.27482000  0.85391000  1.0
  O  O324  1  0.89447000  0.77472000  0.35381000  1.0
  O  O325  1  0.97673000  0.85391000  0.27482000  1.0
  O  O326  1  0.60552000  0.64619000  0.22529000  1.0
  O  O327  1  0.52327000  0.72518000  0.14609000  1.0
