# generated using pymatgen
data_CoH13PtC19N7O
_symmetry_space_group_name_H-M   'P 1'
_cell_length_a   9.63902000
_cell_length_b   9.63903000
_cell_length_c   11.55530000
_cell_angle_alpha   81.01220000
_cell_angle_beta   81.01180000
_cell_angle_gamma   70.94750000
_symmetry_Int_Tables_number   1
_chemical_formula_structural   CoH13PtC19N7O
_chemical_formula_sum   'Co2 H26 Pt2 C38 N14 O2'
_cell_volume   995.95172052
_cell_formula_units_Z   2
loop_
 _symmetry_equiv_pos_site_id
 _symmetry_equiv_pos_as_xyz
  1  'x, y, z'
loop_
 _atom_site_type_symbol
 _atom_site_label
 _atom_site_symmetry_multiplicity
 _atom_site_fract_x
 _atom_site_fract_y
 _atom_site_fract_z
 _atom_site_occupancy
  Co  Co0  1  0.24291000  0.75709000  0.75000000  1.0
  Co  Co1  1  0.75709000  0.24291000  0.25000000  1.0
  H  H2  1  0.52328000  0.58263000  0.72645000  1.0
  H  H3  1  0.41737000  0.47672000  0.77354000  1.0
  H  H4  1  0.47672000  0.41738000  0.27355000  1.0
  H  H5  1  0.58262000  0.52328000  0.22645000  1.0
  H  H6  1  0.76093000  0.06593000  0.91939000  1.0
  H  H7  1  0.93407000  0.23907000  0.58061000  1.0
  H  H8  1  0.23908000  0.93407000  0.08062000  1.0
  H  H9  1  0.06593000  0.76092000  0.41939000  1.0
  H  H10  1  0.16131000  0.46200000  0.14833000  1.0
  H  H11  1  0.53800000  0.83869000  0.35167000  1.0
  H  H12  1  0.83871000  0.53799000  0.85168000  1.0
  H  H13  1  0.46200000  0.16129000  0.64832000  1.0
  H  H14  1  0.81278000  0.86050000  0.05438000  1.0
  H  H15  1  0.13950000  0.18722000  0.44562000  1.0
  H  H16  1  0.18723000  0.13949000  0.94562000  1.0
  H  H17  1  0.86050000  0.81277000  0.55438000  1.0
  H  H18  1  0.90444000  0.63366000  0.19444000  1.0
  H  H19  1  0.36634000  0.09556000  0.30556000  1.0
  H  H20  1  0.09556000  0.36632000  0.80556000  1.0
  H  H21  1  0.63367000  0.90444000  0.69444000  1.0
  H  H22  1  0.30951000  0.51671000  0.95913000  1.0
  H  H23  1  0.48329000  0.69049000  0.54087000  1.0
  H  H24  1  0.69051000  0.48329000  0.04087000  1.0
  H  H25  1  0.51670000  0.30949000  0.45913000  1.0
  H  H26  1  0.73530000  0.26470000  0.75000000  1.0
  H  H27  1  0.26470000  0.73530000  0.25000000  1.0
  Pt  Pt28  1  0.99999000  0.50000000  0.50000000  1.0
  Pt  Pt29  1  0.49999000  0.00001000  0.99999000  1.0
  C  C30  1  0.08642000  0.57558000  0.61147000  1.0
  C  C31  1  0.42442000  0.91358000  0.88853000  1.0
  C  C32  1  0.91356000  0.42442000  0.38853000  1.0
  C  C33  1  0.57557000  0.08644000  0.11146000  1.0
  C  C34  1  0.19040000  0.45373000  0.39742000  1.0
  C  C35  1  0.54627000  0.80960000  0.10258000  1.0
  C  C36  1  0.80958000  0.54628000  0.60259000  1.0
  C  C37  1  0.45372000  0.19042000  0.89741000  1.0
  C  C38  1  0.01115000  0.80625000  0.93304000  1.0
  C  C39  1  0.19375000  0.98886000  0.56695000  1.0
  C  C40  1  0.98886000  0.19376000  0.06696000  1.0
  C  C41  1  0.80624000  0.01114000  0.43304000  1.0
  C  C42  1  0.84687000  0.05659000  0.84502000  1.0
  C  C43  1  0.94341000  0.15313000  0.65498000  1.0
  C  C44  1  0.15314000  0.94341000  0.15499000  1.0
  C  C45  1  0.05659000  0.84686000  0.34501000  1.0
  C  C46  1  0.11516000  0.55969000  0.08833000  1.0
  C  C47  1  0.44031000  0.88484000  0.41167000  1.0
  C  C48  1  0.88485000  0.44031000  0.91167000  1.0
  C  C49  1  0.55969000  0.11515000  0.58833000  1.0
  C  C50  1  0.92200000  0.78204000  0.03637000  1.0
  C  C51  1  0.21795000  0.07800000  0.46363000  1.0
  C  C52  1  0.07801000  0.21796000  0.96363000  1.0
  C  C53  1  0.78204000  0.92200000  0.53637000  1.0
  C  C54  1  0.97242000  0.93275000  0.84323000  1.0
  C  C55  1  0.06725000  0.02758000  0.65678000  1.0
  C  C56  1  0.02759000  0.06725000  0.15678000  1.0
  C  C57  1  0.93275000  0.97241000  0.34323000  1.0
  C  C58  1  0.97375000  0.65621000  0.11452000  1.0
  C  C59  1  0.34379000  0.02625000  0.38548000  1.0
  C  C60  1  0.02626000  0.34379000  0.88548000  1.0
  C  C61  1  0.65621000  0.97374000  0.61452000  1.0
  C  C62  1  0.19931000  0.58963000  0.98362000  1.0
  C  C63  1  0.41037000  0.80069000  0.51638000  1.0
  C  C64  1  0.80070000  0.41037000  0.01639000  1.0
  C  C65  1  0.58962000  0.19930000  0.48361000  1.0
  C  C66  1  0.83269000  0.16732000  0.75000000  1.0
  C  C67  1  0.16732000  0.83268000  0.25000000  1.0
  N  N68  1  0.13601000  0.62460000  0.67574000  1.0
  N  N69  1  0.37540000  0.86398000  0.82426000  1.0
  N  N70  1  0.86397000  0.37540000  0.32427000  1.0
  N  N71  1  0.62460000  0.13602000  0.17573000  1.0
  N  N72  1  0.30166000  0.42690000  0.33497000  1.0
  N  N73  1  0.57311000  0.69834000  0.16503000  1.0
  N  N74  1  0.69832000  0.57312000  0.66505000  1.0
  N  N75  1  0.42688000  0.30168000  0.83495000  1.0
  N  N76  1  0.07906000  0.92094000  0.75000000  1.0
  N  N77  1  0.92094000  0.07906000  0.25000000  1.0
  N  N78  1  0.14829000  0.70861000  0.90613000  1.0
  N  N79  1  0.29139000  0.85171000  0.59387000  1.0
  N  N80  1  0.85172000  0.29140000  0.09387000  1.0
  N  N81  1  0.70860000  0.14828000  0.40613000  1.0
  O  O82  1  0.41967000  0.58033000  0.74998000  1.0
  O  O83  1  0.58033000  0.41967000  0.25000000  1.0
