# generated using pymatgen
data_CuH8(C3N5)2
_symmetry_space_group_name_H-M   'P 1'
_cell_length_a   6.56085000
_cell_length_b   8.92663000
_cell_length_c   8.92656000
_cell_angle_alpha   85.63590000
_cell_angle_beta   89.99990000
_cell_angle_gamma   89.99980000
_symmetry_Int_Tables_number   1
_chemical_formula_structural   CuH8(C3N5)2
_chemical_formula_sum   'Cu2 H16 C12 N20'
_cell_volume   521.27963715
_cell_formula_units_Z   2
loop_
 _symmetry_equiv_pos_site_id
 _symmetry_equiv_pos_as_xyz
  1  'x, y, z'
loop_
 _atom_site_type_symbol
 _atom_site_label
 _atom_site_symmetry_multiplicity
 _atom_site_fract_x
 _atom_site_fract_y
 _atom_site_fract_z
 _atom_site_occupancy
  Cu  Cu0  1  0.86772000  0.87729000  0.12271000  1.0
  Cu  Cu1  1  0.36771000  0.12271000  0.87729000  1.0
  H  H2  1  0.67047000  0.55470000  0.08328000  1.0
  H  H3  1  0.17048000  0.44531000  0.91671000  1.0
  H  H4  1  0.67047000  0.91673000  0.44530000  1.0
  H  H5  1  0.17048000  0.08328000  0.55469000  1.0
  H  H6  1  0.71773000  0.41596000  0.81618000  1.0
  H  H7  1  0.21775000  0.58404000  0.18382000  1.0
  H  H8  1  0.71773000  0.18383000  0.58404000  1.0
  H  H9  1  0.21775000  0.81618000  0.41596000  1.0
  H  H10  1  0.92395000  0.60141000  0.64565000  1.0
  H  H11  1  0.42396000  0.39858000  0.35435000  1.0
  H  H12  1  0.92395000  0.35435000  0.39859000  1.0
  H  H13  1  0.42395000  0.64565000  0.60141000  1.0
  H  H14  1  0.01940000  0.83751000  0.78239000  1.0
  H  H15  1  0.51942000  0.16247000  0.21760000  1.0
  H  H16  1  0.01942000  0.21761000  0.16249000  1.0
  H  H17  1  0.51941000  0.78239000  0.83752000  1.0
  C  C18  1  0.75014000  0.59204000  0.98108000  1.0
  C  C19  1  0.25016000  0.40797000  0.01894000  1.0
  C  C20  1  0.75015000  0.01894000  0.40796000  1.0
  C  C21  1  0.25015000  0.98106000  0.59203000  1.0
  C  C22  1  0.76957000  0.52407000  0.84884000  1.0
  C  C23  1  0.26959000  0.47592000  0.15116000  1.0
  C  C24  1  0.76957000  0.15115000  0.47592000  1.0
  C  C25  1  0.26959000  0.84884000  0.52407000  1.0
  C  C26  1  0.93282000  0.74206000  0.82959000  1.0
  C  C27  1  0.43282000  0.25794000  0.17040000  1.0
  C  C28  1  0.93283000  0.17041000  0.25794000  1.0
  C  C29  1  0.43282000  0.82959000  0.74206000  1.0
  N  N30  1  0.83706000  0.10754000  0.89245000  1.0
  N  N31  1  0.33706000  0.89245000  0.10754000  1.0
  N  N32  1  0.85228000  0.72813000  0.96759000  1.0
  N  N33  1  0.35229000  0.27185000  0.03239000  1.0
  N  N34  1  0.85228000  0.03241000  0.27186000  1.0
  N  N35  1  0.35228000  0.96760000  0.72814000  1.0
  N  N36  1  0.96676000  0.03822000  0.96178000  1.0
  N  N37  1  0.46678000  0.96179000  0.03821000  1.0
  N  N38  1  0.75015000  0.71931000  0.28069000  1.0
  N  N39  1  0.25015000  0.28068000  0.71931000  1.0
  N  N40  1  0.71155000  0.17678000  0.82322000  1.0
  N  N41  1  0.21157000  0.82322000  0.17677000  1.0
  N  N42  1  0.88569000  0.61996000  0.75556000  1.0
  N  N43  1  0.38569000  0.38005000  0.24444000  1.0
  N  N44  1  0.88569000  0.24444000  0.38004000  1.0
  N  N45  1  0.38569000  0.75556000  0.61995000  1.0
  N  N46  1  0.94700000  0.55529000  0.44471000  1.0
  N  N47  1  0.44699000  0.44471000  0.55529000  1.0
  N  N48  1  0.85131000  0.63821000  0.36178000  1.0
  N  N49  1  0.35131000  0.36178000  0.63822000  1.0
