# generated using pymatgen
data_NdH11C16N2(ClO)6
_symmetry_space_group_name_H-M   'P 1'
_cell_length_a   8.83413000
_cell_length_b   12.18210000
_cell_length_c   12.29200000
_cell_angle_alpha   109.26600000
_cell_angle_beta   104.97000000
_cell_angle_gamma   102.44700000
_symmetry_Int_Tables_number   1
_chemical_formula_structural   NdH11C16N2(ClO)6
_chemical_formula_sum   'Nd2 H22 C32 N4 Cl12 O12'
_cell_volume   1138.88112307
_cell_formula_units_Z   2
loop_
 _symmetry_equiv_pos_site_id
 _symmetry_equiv_pos_as_xyz
  1  'x, y, z'
loop_
 _atom_site_type_symbol
 _atom_site_label
 _atom_site_symmetry_multiplicity
 _atom_site_fract_x
 _atom_site_fract_y
 _atom_site_fract_z
 _atom_site_occupancy
  Nd  Nd0  1  0.34831000  0.11720000  0.00862000  1.0
  Nd  Nd1  1  0.65168000  0.88280000  0.99138000  1.0
  H  H2  1  0.91581000  0.15460000  0.95886000  1.0
  H  H3  1  0.08419000  0.84540000  0.04114000  1.0
  H  H4  1  0.05418000  0.87028000  0.69283000  1.0
  H  H5  1  0.94582000  0.12972000  0.30717000  1.0
  H  H6  1  0.50273000  0.11223000  0.39518000  1.0
  H  H7  1  0.49728000  0.88777000  0.60482000  1.0
  H  H8  1  0.49473000  0.33034000  0.30214000  1.0
  H  H9  1  0.50526000  0.66966000  0.69786000  1.0
  H  H10  1  0.54805000  0.54983000  0.43967000  1.0
  H  H11  1  0.45195000  0.45017000  0.56034000  1.0
  H  H12  1  0.47087000  0.69108000  0.34031000  1.0
  H  H13  1  0.52913000  0.30892000  0.65969000  1.0
  H  H14  1  0.35694000  0.61044000  0.11278000  1.0
  H  H15  1  0.64306000  0.38956000  0.88722000  1.0
  H  H16  1  0.29427000  0.54287000  0.93016000  1.0
  H  H17  1  0.70572000  0.45713000  0.06984000  1.0
  H  H18  1  0.14245000  0.43960000  0.70406000  1.0
  H  H19  1  0.85755000  0.56040000  0.29594000  1.0
  H  H20  1  0.05706000  0.20806000  0.59916000  1.0
  H  H21  1  0.94294000  0.79194000  0.40084000  1.0
  H  H22  1  0.13877000  0.09364000  0.72678000  1.0
  H  H23  1  0.86124000  0.90636000  0.27321000  1.0
  C  C24  1  0.68438000  0.17990000  0.97781000  1.0
  C  C25  1  0.31562000  0.82010000  0.02219000  1.0
  C  C26  1  0.83387000  0.20659000  0.93781000  1.0
  C  C27  1  0.16613000  0.79341000  0.06219000  1.0
  C  C28  1  0.92796000  0.91416000  0.82491000  1.0
  C  C29  1  0.07204000  0.08584000  0.17509000  1.0
  C  C30  1  0.93978000  0.82929000  0.70424000  1.0
  C  C31  1  0.06022000  0.17071000  0.29577000  1.0
  C  C32  1  0.61283000  0.08927000  0.25424000  1.0
  C  C33  1  0.38717000  0.91074000  0.74576000  1.0
  C  C34  1  0.62712000  0.12233000  0.39079000  1.0
  C  C35  1  0.37289000  0.87767000  0.60921000  1.0
  C  C36  1  0.46532000  0.39551000  0.26404000  1.0
  C  C37  1  0.53468000  0.60449000  0.73596000  1.0
  C  C38  1  0.49392000  0.51734000  0.33985000  1.0
  C  C39  1  0.50608000  0.48266000  0.66015000  1.0
  C  C40  1  0.45258000  0.59540000  0.28482000  1.0
  C  C41  1  0.54742000  0.40460000  0.71518000  1.0
  C  C42  1  0.38746000  0.55000000  0.15688000  1.0
  C  C43  1  0.61254000  0.45000000  0.84312000  1.0
  C  C44  1  0.36273000  0.42639000  0.08626000  1.0
  C  C45  1  0.63727000  0.57361000  0.91374000  1.0
  C  C46  1  0.28824000  0.37167000  0.94979000  1.0
  C  C47  1  0.71175000  0.62833000  0.05021000  1.0
  C  C48  1  0.25557000  0.44317000  0.88346000  1.0
  C  C49  1  0.74443000  0.55683000  0.11654000  1.0
  C  C50  1  0.17113000  0.38522000  0.75650000  1.0
  C  C51  1  0.82887000  0.61478000  0.24350000  1.0
  C  C52  1  0.12477000  0.25760000  0.69791000  1.0
  C  C53  1  0.87522000  0.74240000  0.30208000  1.0
  C  C54  1  0.16782000  0.19309000  0.76900000  1.0
  C  C55  1  0.83219000  0.80691000  0.23100000  1.0
  N  N56  1  0.40051000  0.35033000  0.14024000  1.0
  N  N57  1  0.59949000  0.64967000  0.85976000  1.0
  N  N58  1  0.24685000  0.24783000  0.89187000  1.0
  N  N59  1  0.75315000  0.75217000  0.10812000  1.0
  Cl  Cl60  1  0.95111000  0.36516000  0.01136000  1.0
  Cl  Cl61  1  0.04889000  0.63484000  0.98864000  1.0
  Cl  Cl62  1  0.75570000  0.15386000  0.77347000  1.0
  Cl  Cl63  1  0.24429000  0.84614000  0.22653000  1.0
  Cl  Cl64  1  0.77173000  0.81152000  0.57479000  1.0
  Cl  Cl65  1  0.22826000  0.18848000  0.42521000  1.0
  Cl  Cl66  1  0.94168000  0.68473000  0.70730000  1.0
  Cl  Cl67  1  0.05832000  0.31526000  0.29271000  1.0
  Cl  Cl68  1  0.70653000  0.02633000  0.45465000  1.0
  Cl  Cl69  1  0.29348000  0.97368000  0.54534000  1.0
  Cl  Cl70  1  0.74902000  0.28099000  0.48286000  1.0
  Cl  Cl71  1  0.25099000  0.71901000  0.51715000  1.0
  O  O72  1  0.65209000  0.08259000  0.99702000  1.0
  O  O73  1  0.34791000  0.91741000  0.00298000  1.0
  O  O74  1  0.59767000  0.24969000  0.98620000  1.0
  O  O75  1  0.40234000  0.75032000  0.01381000  1.0
  O  O76  1  0.05157000  0.01157000  0.88944000  1.0
  O  O77  1  0.94843000  0.98843000  0.11056000  1.0
  O  O78  1  0.79841000  0.88075000  0.84663000  1.0
  O  O79  1  0.20160000  0.11925000  0.15338000  1.0
  O  O80  1  0.54564000  0.15265000  0.20764000  1.0
  O  O81  1  0.45437000  0.84736000  0.79236000  1.0
  O  O82  1  0.66399000  0.00400000  0.20369000  1.0
  O  O83  1  0.33602000  0.99600000  0.79631000  1.0
