# generated using pymatgen
data_CdH10C12(N3O)4
_symmetry_space_group_name_H-M   'P 1'
_cell_length_a   10.03330000
_cell_length_b   12.53060000
_cell_length_c   15.34880000
_cell_angle_alpha   90.00000000
_cell_angle_beta   90.00000000
_cell_angle_gamma   89.99990000
_symmetry_Int_Tables_number   1
_chemical_formula_structural   CdH10C12(N3O)4
_chemical_formula_sum   'Cd4 H40 C48 N48 O16'
_cell_volume   1929.70131092
_cell_formula_units_Z   4
loop_
 _symmetry_equiv_pos_site_id
 _symmetry_equiv_pos_as_xyz
  1  'x, y, z'
loop_
 _atom_site_type_symbol
 _atom_site_label
 _atom_site_symmetry_multiplicity
 _atom_site_fract_x
 _atom_site_fract_y
 _atom_site_fract_z
 _atom_site_occupancy
  Cd  Cd0  1  0.00000000  0.50000000  0.00000000  1.0
  Cd  Cd1  1  0.50000000  0.50000000  0.50000000  1.0
  Cd  Cd2  1  0.00000000  0.00000000  0.50000000  1.0
  Cd  Cd3  1  0.50000000  0.00000000  0.00000000  1.0
  H  H4  1  0.62992000  0.24026000  0.93223000  1.0
  H  H5  1  0.87008000  0.75974000  0.43223000  1.0
  H  H6  1  0.37008000  0.74026000  0.56777000  1.0
  H  H7  1  0.12992000  0.25974000  0.06777000  1.0
  H  H8  1  0.37008000  0.75974000  0.06777000  1.0
  H  H9  1  0.12992000  0.24026000  0.56777000  1.0
  H  H10  1  0.62992000  0.25974000  0.43223000  1.0
  H  H11  1  0.87008000  0.74026000  0.93223000  1.0
  H  H12  1  0.35072000  0.21817000  0.13531000  1.0
  H  H13  1  0.14928000  0.78183000  0.63531000  1.0
  H  H14  1  0.64928000  0.71817000  0.36469000  1.0
  H  H15  1  0.85072000  0.28183000  0.86469000  1.0
  H  H16  1  0.64928000  0.78183000  0.86469000  1.0
  H  H17  1  0.85072000  0.21817000  0.36469000  1.0
  H  H18  1  0.35072000  0.28183000  0.63531000  1.0
  H  H19  1  0.14928000  0.71817000  0.13531000  1.0
  H  H20  1  0.48911000  0.50778000  0.11065000  1.0
  H  H21  1  0.01089000  0.49222000  0.61065000  1.0
  H  H22  1  0.51089000  0.00778000  0.38935000  1.0
  H  H23  1  0.98911000  0.99222000  0.88935000  1.0
  H  H24  1  0.51089000  0.49222000  0.88935000  1.0
  H  H25  1  0.98911000  0.50778000  0.38935000  1.0
  H  H26  1  0.48911000  0.99222000  0.61065000  1.0
  H  H27  1  0.01089000  0.00778000  0.11065000  1.0
  H  H28  1  0.56960000  0.52806000  0.27011000  1.0
  H  H29  1  0.93040000  0.47194000  0.77011000  1.0
  H  H30  1  0.43040000  0.02806000  0.22989000  1.0
  H  H31  1  0.06960000  0.97194000  0.72989000  1.0
  H  H32  1  0.43040000  0.47194000  0.72989000  1.0
  H  H33  1  0.06960000  0.52806000  0.22989000  1.0
  H  H34  1  0.56960000  0.97194000  0.77011000  1.0
  H  H35  1  0.93040000  0.02806000  0.27011000  1.0
  H  H36  1  0.26926000  0.34493000  0.38842000  1.0
  H  H37  1  0.23074000  0.65507000  0.88842000  1.0
  H  H38  1  0.73074000  0.84493000  0.11158000  1.0
  H  H39  1  0.76926000  0.15507000  0.61158000  1.0
  H  H40  1  0.73074000  0.65507000  0.61158000  1.0
  H  H41  1  0.76926000  0.34493000  0.11158000  1.0
  H  H42  1  0.26926000  0.15507000  0.88842000  1.0
  H  H43  1  0.23074000  0.84493000  0.38842000  1.0
  C  C44  1  0.56320000  0.26157000  0.98495000  1.0
  C  C45  1  0.93680000  0.73843000  0.48495000  1.0
  C  C46  1  0.43680000  0.76157000  0.51505000  1.0
  C  C47  1  0.06320000  0.23843000  0.01505000  1.0
  C  C48  1  0.43680000  0.73843000  0.01505000  1.0
  C  C49  1  0.06320000  0.26157000  0.51505000  1.0
  C  C50  1  0.56320000  0.23843000  0.48495000  1.0
  C  C51  1  0.93680000  0.76157000  0.98495000  1.0
  C  C52  1  0.42199000  0.24810000  0.08819000  1.0
  C  C53  1  0.07801000  0.75190000  0.58819000  1.0
  C  C54  1  0.57801000  0.74810000  0.41181000  1.0
  C  C55  1  0.92199000  0.25190000  0.91181000  1.0
  C  C56  1  0.57801000  0.75190000  0.91181000  1.0
  C  C57  1  0.92199000  0.24810000  0.41181000  1.0
  C  C58  1  0.42199000  0.25190000  0.58819000  1.0
  C  C59  1  0.07801000  0.74810000  0.08819000  1.0
  C  C60  1  0.41537000  0.44575000  0.12520000  1.0
  C  C61  1  0.08463000  0.55425000  0.62520000  1.0
  C  C62  1  0.58463000  0.94575000  0.37480000  1.0
  C  C63  1  0.91537000  0.05425000  0.87480000  1.0
  C  C64  1  0.58463000  0.55425000  0.87480000  1.0
  C  C65  1  0.91537000  0.44575000  0.37480000  1.0
  C  C66  1  0.41537000  0.05425000  0.62520000  1.0
  C  C67  1  0.08463000  0.94575000  0.12520000  1.0
  C  C68  1  0.27642000  0.49126000  0.09609000  1.0
  C  C69  1  0.22358000  0.50874000  0.59609000  1.0
  C  C70  1  0.72358000  0.99126000  0.40391000  1.0
  C  C71  1  0.77642000  0.00874000  0.90391000  1.0
  C  C72  1  0.72358000  0.50874000  0.90391000  1.0
  C  C73  1  0.77642000  0.49126000  0.40391000  1.0
  C  C74  1  0.27642000  0.00874000  0.59609000  1.0
  C  C75  1  0.22358000  0.99126000  0.09609000  1.0
  C  C76  1  0.48385000  0.47683000  0.28094000  1.0
  C  C77  1  0.01615000  0.52317000  0.78094000  1.0
  C  C78  1  0.51615000  0.97683000  0.21906000  1.0
  C  C79  1  0.98385000  0.02317000  0.71906000  1.0
  C  C80  1  0.51615000  0.52317000  0.71906000  1.0
  C  C81  1  0.98385000  0.47683000  0.21906000  1.0
  C  C82  1  0.48385000  0.02317000  0.78094000  1.0
  C  C83  1  0.01615000  0.97683000  0.28094000  1.0
  C  C84  1  0.33134000  0.38200000  0.33905000  1.0
  C  C85  1  0.16866000  0.61800000  0.83905000  1.0
  C  C86  1  0.66866000  0.88200000  0.16095000  1.0
  C  C87  1  0.83134000  0.11800000  0.66095000  1.0
  C  C88  1  0.66866000  0.61800000  0.66095000  1.0
  C  C89  1  0.83134000  0.38200000  0.16095000  1.0
  C  C90  1  0.33134000  0.11800000  0.83905000  1.0
  C  C91  1  0.16866000  0.88200000  0.33905000  1.0
  N  N92  1  0.45984000  0.35073000  0.07944000  1.0
  N  N93  1  0.04016000  0.64927000  0.57944000  1.0
  N  N94  1  0.54016000  0.85073000  0.42056000  1.0
  N  N95  1  0.95984000  0.14927000  0.92056000  1.0
  N  N96  1  0.54016000  0.64927000  0.92056000  1.0
  N  N97  1  0.95984000  0.35073000  0.42056000  1.0
  N  N98  1  0.45984000  0.14927000  0.57944000  1.0
  N  N99  1  0.04016000  0.85073000  0.07944000  1.0
  N  N100  1  0.54993000  0.36100000  0.01339000  1.0
  N  N101  1  0.95007000  0.63900000  0.51339000  1.0
  N  N102  1  0.45007000  0.86100000  0.48661000  1.0
  N  N103  1  0.04993000  0.13900000  0.98662000  1.0
  N  N104  1  0.45007000  0.63900000  0.98662000  1.0
  N  N105  1  0.04993000  0.36100000  0.48662000  1.0
  N  N106  1  0.54993000  0.13900000  0.51339000  1.0
  N  N107  1  0.95007000  0.86100000  0.01338000  1.0
  N  N108  1  0.48692000  0.18933000  0.02930000  1.0
  N  N109  1  0.01308000  0.81067000  0.52930000  1.0
  N  N110  1  0.51308000  0.68933000  0.47070000  1.0
  N  N111  1  0.98692000  0.31067000  0.97070000  1.0
  N  N112  1  0.51308000  0.81067000  0.97070000  1.0
  N  N113  1  0.98692000  0.18933000  0.47070000  1.0
  N  N114  1  0.48692000  0.31067000  0.52930000  1.0
  N  N115  1  0.01308000  0.68933000  0.02930000  1.0
  N  N116  1  0.41199000  0.42827000  0.21835000  1.0
  N  N117  1  0.08801000  0.57173000  0.71835000  1.0
  N  N118  1  0.58801000  0.92827000  0.28165000  1.0
  N  N119  1  0.91199000  0.07173000  0.78165000  1.0
  N  N120  1  0.58801000  0.57173000  0.78165000  1.0
  N  N121  1  0.91199000  0.42827000  0.28165000  1.0
  N  N122  1  0.41199000  0.07173000  0.71835000  1.0
  N  N123  1  0.08801000  0.92827000  0.21835000  1.0
  N  N124  1  0.31287000  0.36769000  0.25437000  1.0
  N  N125  1  0.18713000  0.63231000  0.75437000  1.0
  N  N126  1  0.68713000  0.86769000  0.24563000  1.0
  N  N127  1  0.81287000  0.13231000  0.74563000  1.0
  N  N128  1  0.68713000  0.63231000  0.74563000  1.0
  N  N129  1  0.81287000  0.36769000  0.24563000  1.0
  N  N130  1  0.31287000  0.13231000  0.75437000  1.0
  N  N131  1  0.18713000  0.86769000  0.25437000  1.0
  N  N132  1  0.43501000  0.44891000  0.35836000  1.0
  N  N133  1  0.06499000  0.55109000  0.85836000  1.0
  N  N134  1  0.56499000  0.94891000  0.14164000  1.0
  N  N135  1  0.93501000  0.05109000  0.64164000  1.0
  N  N136  1  0.56499000  0.55109000  0.64164000  1.0
  N  N137  1  0.93501000  0.44891000  0.14164000  1.0
  N  N138  1  0.43501000  0.05109000  0.85836000  1.0
  N  N139  1  0.06499000  0.94891000  0.35836000  1.0
  O  O140  1  0.22178000  0.44731000  0.03103000  1.0
  O  O141  1  0.27822000  0.55268000  0.53103000  1.0
  O  O142  1  0.77822000  0.94732000  0.46897000  1.0
  O  O143  1  0.72178000  0.05269000  0.96897000  1.0
  O  O144  1  0.77822000  0.55268000  0.96897000  1.0
  O  O145  1  0.72178000  0.44732000  0.46897000  1.0
  O  O146  1  0.22178000  0.05268000  0.53103000  1.0
  O  O147  1  0.27822000  0.94732000  0.03103000  1.0
  O  O148  1  0.23711000  0.56711000  0.14234000  1.0
  O  O149  1  0.26289000  0.43289000  0.64234000  1.0
  O  O150  1  0.76289000  0.06711000  0.35766000  1.0
  O  O151  1  0.73711000  0.93289000  0.85766000  1.0
  O  O152  1  0.76289000  0.43289000  0.85766000  1.0
  O  O153  1  0.73711000  0.56711000  0.35766000  1.0
  O  O154  1  0.23711000  0.93289000  0.64234000  1.0
  O  O155  1  0.26289000  0.06711000  0.14234000  1.0
