# generated using pymatgen
data_HgH8C9S(NO)2
_symmetry_space_group_name_H-M   'P 1'
_cell_length_a   8.42209000
_cell_length_b   8.61789000
_cell_length_c   8.86026000
_cell_angle_alpha   112.71200000
_cell_angle_beta   107.12600000
_cell_angle_gamma   98.86620000
_symmetry_Int_Tables_number   1
_chemical_formula_structural   HgH8C9S(NO)2
_chemical_formula_sum   'Hg2 H16 C18 S2 N4 O4'
_cell_volume   540.11719255
_cell_formula_units_Z   2
loop_
 _symmetry_equiv_pos_site_id
 _symmetry_equiv_pos_as_xyz
  1  'x, y, z'
loop_
 _atom_site_type_symbol
 _atom_site_label
 _atom_site_symmetry_multiplicity
 _atom_site_fract_x
 _atom_site_fract_y
 _atom_site_fract_z
 _atom_site_occupancy
  Hg  Hg0  1  0.67490000  0.20735000  0.25461000  1.0
  Hg  Hg1  1  0.32511000  0.79266000  0.74541000  1.0
  H  H2  1  0.42465000  0.85229000  0.17333000  1.0
  H  H3  1  0.57537000  0.14772000  0.82667000  1.0
  H  H4  1  0.17689000  0.74541000  0.24733000  1.0
  H  H5  1  0.82312000  0.25459000  0.75266000  1.0
  H  H6  1  0.26543000  0.29237000  0.60470000  1.0
  H  H7  1  0.73457000  0.70762000  0.39530000  1.0
  H  H8  1  0.50585000  0.37323000  0.52095000  1.0
  H  H9  1  0.49415000  0.62677000  0.47905000  1.0
  H  H10  1  0.14955000  0.27824000  0.87990000  1.0
  H  H11  1  0.85044000  0.72174000  0.12011000  1.0
  H  H12  1  0.31201000  0.47877000  0.95012000  1.0
  H  H13  1  0.68796000  0.52121000  0.04986000  1.0
  H  H14  1  0.21750000  0.45698000  0.09860000  1.0
  H  H15  1  0.78249000  0.54301000  0.90140000  1.0
  H  H16  1  0.00412000  0.80702000  0.42498000  1.0
  H  H17  1  0.99588000  0.19296000  0.57501000  1.0
  C  C18  1  0.38158000  0.94288000  0.26641000  1.0
  C  C19  1  0.61843000  0.05712000  0.73358000  1.0
  C  C20  1  0.24410000  0.88603000  0.30736000  1.0
  C  C21  1  0.75590000  0.11396000  0.69263000  1.0
  C  C22  1  0.19286000  0.00942000  0.42661000  1.0
  C  C23  1  0.80714000  0.99057000  0.57338000  1.0
  C  C24  1  0.29014000  0.18838000  0.50484000  1.0
  C  C25  1  0.70986000  0.81161000  0.49516000  1.0
  C  C26  1  0.42691000  0.23608000  0.45928000  1.0
  C  C27  1  0.57309000  0.76391000  0.54072000  1.0
  C  C28  1  0.04444000  0.94810000  0.46335000  1.0
  C  C29  1  0.95557000  0.05189000  0.53664000  1.0
  C  C30  1  0.40237000  0.31345000  0.06329000  1.0
  C  C31  1  0.59763000  0.68656000  0.93672000  1.0
  C  C32  1  0.26003000  0.38549000  0.99313000  1.0
  C  C33  1  0.73995000  0.61449000  0.00687000  1.0
  C  C34  1  0.05185000  0.40241000  0.31067000  1.0
  C  C35  1  0.94815000  0.59762000  0.68936000  1.0
  S  S36  1  0.92723000  0.19572000  0.17625000  1.0
  S  S37  1  0.07278000  0.80430000  0.82377000  1.0
  N  N38  1  0.47058000  0.11535000  0.34071000  1.0
  N  N39  1  0.52943000  0.88466000  0.65930000  1.0
  N  N40  1  0.14692000  0.54768000  0.40281000  1.0
  N  N41  1  0.85308000  0.45234000  0.59720000  1.0
  O  O42  1  0.52229000  0.41621000  0.21712000  1.0
  O  O43  1  0.47770000  0.58379000  0.78288000  1.0
  O  O44  1  0.39919000  0.15756000  0.96912000  1.0
  O  O45  1  0.60082000  0.84245000  0.03088000  1.0
