# generated using pymatgen
data_ReH7C7N(ClO)2
_symmetry_space_group_name_H-M   'P 1'
_cell_length_a   12.49310000
_cell_length_b   12.49310000
_cell_length_c   19.39050000
_cell_angle_alpha   76.95530000
_cell_angle_beta   76.95600000
_cell_angle_gamma   60.79740000
_symmetry_Int_Tables_number   1
_chemical_formula_structural   ReH7C7N(ClO)2
_chemical_formula_sum   'Re8 H56 C56 N8 Cl16 O16'
_cell_volume   2549.71055967
_cell_formula_units_Z   8
loop_
 _symmetry_equiv_pos_site_id
 _symmetry_equiv_pos_as_xyz
  1  'x, y, z'
loop_
 _atom_site_type_symbol
 _atom_site_label
 _atom_site_symmetry_multiplicity
 _atom_site_fract_x
 _atom_site_fract_y
 _atom_site_fract_z
 _atom_site_occupancy
  Re  Re0  1  0.27079000  0.01469000  0.93388000  1.0
  Re  Re1  1  0.98530000  0.72921000  0.56612000  1.0
  Re  Re2  1  0.72921000  0.98530000  0.06611000  1.0
  Re  Re3  1  0.01469000  0.27079000  0.43389000  1.0
  Re  Re4  1  0.31390000  0.04361000  0.81625000  1.0
  Re  Re5  1  0.95639000  0.68609000  0.68374000  1.0
  Re  Re6  1  0.68610000  0.95639000  0.18374000  1.0
  Re  Re7  1  0.04361000  0.31390000  0.31626000  1.0
  H  H8  1  0.10349000  0.89700000  0.04741000  1.0
  H  H9  1  0.10300000  0.89651000  0.45259000  1.0
  H  H10  1  0.89651000  0.10300000  0.95259000  1.0
  H  H11  1  0.89700000  0.10350000  0.54741000  1.0
  H  H12  1  0.04713000  0.82693000  0.17384000  1.0
  H  H13  1  0.17306000  0.95287000  0.32616000  1.0
  H  H14  1  0.95287000  0.17307000  0.82616000  1.0
  H  H15  1  0.82693000  0.04714000  0.67384000  1.0
  H  H16  1  0.33352000  0.88407000  0.22606000  1.0
  H  H17  1  0.11593000  0.66648000  0.27395000  1.0
  H  H18  1  0.66649000  0.11593000  0.77394000  1.0
  H  H19  1  0.88407000  0.33352000  0.72606000  1.0
  H  H20  1  0.38077000  0.94731000  0.09646000  1.0
  H  H21  1  0.05269000  0.61923000  0.40355000  1.0
  H  H22  1  0.61923000  0.05269000  0.90354000  1.0
  H  H23  1  0.94731000  0.38078000  0.59646000  1.0
  H  H24  1  0.56644000  0.87967000  0.70410000  1.0
  H  H25  1  0.12033000  0.43356000  0.79590000  1.0
  H  H26  1  0.43356000  0.12033000  0.29590000  1.0
  H  H27  1  0.87967000  0.56644000  0.20410000  1.0
  H  H28  1  0.65215000  0.86524000  0.57772000  1.0
  H  H29  1  0.13476000  0.34785000  0.92229000  1.0
  H  H30  1  0.34785000  0.13477000  0.42228000  1.0
  H  H31  1  0.86524000  0.65215000  0.07771000  1.0
  H  H32  1  0.28388000  0.12997000  0.52632000  1.0
  H  H33  1  0.87004000  0.71612000  0.97368000  1.0
  H  H34  1  0.71611000  0.87004000  0.47368000  1.0
  H  H35  1  0.12997000  0.28388000  0.02632000  1.0
  H  H36  1  0.21398000  0.12903000  0.65571000  1.0
  H  H37  1  0.87097000  0.78602000  0.84428000  1.0
  H  H38  1  0.78602000  0.87098000  0.34429000  1.0
  H  H39  1  0.12902000  0.21398000  0.15571000  1.0
  H  H40  1  0.61499000  0.63059000  0.91519000  1.0
  H  H41  1  0.36940000  0.38501000  0.58481000  1.0
  H  H42  1  0.38500000  0.36941000  0.08481000  1.0
  H  H43  1  0.63059000  0.61499000  0.41519000  1.0
  H  H44  1  0.68702000  0.72030000  0.91925000  1.0
  H  H45  1  0.27970000  0.31298000  0.58075000  1.0
  H  H46  1  0.31298000  0.27970000  0.08075000  1.0
  H  H47  1  0.72030000  0.68702000  0.41925000  1.0
  H  H48  1  0.68279000  0.69022000  0.83392000  1.0
  H  H49  1  0.30978000  0.31721000  0.66608000  1.0
  H  H50  1  0.31721000  0.30977000  0.16609000  1.0
  H  H51  1  0.69022000  0.68279000  0.33391000  1.0
  H  H52  1  0.21168000  0.71474000  0.84236000  1.0
  H  H53  1  0.28526000  0.78832000  0.65764000  1.0
  H  H54  1  0.78832000  0.28526000  0.15764000  1.0
  H  H55  1  0.71475000  0.21168000  0.34236000  1.0
  H  H56  1  0.07654000  0.84856000  0.81773000  1.0
  H  H57  1  0.15144000  0.92346000  0.68228000  1.0
  H  H58  1  0.92345000  0.15144000  0.18227000  1.0
  H  H59  1  0.84856000  0.07655000  0.31772000  1.0
  H  H60  1  0.08726000  0.78667000  0.91034000  1.0
  H  H61  1  0.21332000  0.91274000  0.58966000  1.0
  H  H62  1  0.91274000  0.21333000  0.08965000  1.0
  H  H63  1  0.78667000  0.08726000  0.41034000  1.0
  C  C64  1  0.51188000  0.82387000  0.88302000  1.0
  C  C65  1  0.17612000  0.48812000  0.61698000  1.0
  C  C66  1  0.48812000  0.17612000  0.11698000  1.0
  C  C67  1  0.82388000  0.51189000  0.38302000  1.0
  C  C68  1  0.63176000  0.70905000  0.88729000  1.0
  C  C69  1  0.29095000  0.36824000  0.61272000  1.0
  C  C70  1  0.36824000  0.29095000  0.11272000  1.0
  C  C71  1  0.70905000  0.63176000  0.38728000  1.0
  C  C72  1  0.19404000  0.88290000  0.86461000  1.0
  C  C73  1  0.11710000  0.80596000  0.63540000  1.0
  C  C74  1  0.80596000  0.11709000  0.13539000  1.0
  C  C75  1  0.88291000  0.19404000  0.36460000  1.0
  C  C76  1  0.13850000  0.80365000  0.85892000  1.0
  C  C77  1  0.19635000  0.86150000  0.64109000  1.0
  C  C78  1  0.86150000  0.19635000  0.14108000  1.0
  C  C79  1  0.80365000  0.13850000  0.35891000  1.0
  C  C80  1  0.15324000  0.89173000  0.08854000  1.0
  C  C81  1  0.10826000  0.84676000  0.41146000  1.0
  C  C82  1  0.84676000  0.10826000  0.91146000  1.0
  C  C83  1  0.89174000  0.15324000  0.58854000  1.0
  C  C84  1  0.12217000  0.85224000  0.15960000  1.0
  C  C85  1  0.14776000  0.87783000  0.34039000  1.0
  C  C86  1  0.87783000  0.14776000  0.84040000  1.0
  C  C87  1  0.85224000  0.12217000  0.65961000  1.0
  C  C88  1  0.18512000  0.85004000  0.21175000  1.0
  C  C89  1  0.14996000  0.81488000  0.28825000  1.0
  C  C90  1  0.81488000  0.14996000  0.78825000  1.0
  C  C91  1  0.85004000  0.18512000  0.71175000  1.0
  C  C92  1  0.27967000  0.88533000  0.18857000  1.0
  C  C93  1  0.11466000  0.72033000  0.31143000  1.0
  C  C94  1  0.72033000  0.11467000  0.81143000  1.0
  C  C95  1  0.88534000  0.27967000  0.68858000  1.0
  C  C96  1  0.30654000  0.92113000  0.11603000  1.0
  C  C97  1  0.07886000  0.69345000  0.38397000  1.0
  C  C98  1  0.69346000  0.07887000  0.88397000  1.0
  C  C99  1  0.92114000  0.30655000  0.61604000  1.0
  C  C100  1  0.50645000  0.93267000  0.66291000  1.0
  C  C101  1  0.06733000  0.49354000  0.83709000  1.0
  C  C102  1  0.49354000  0.06734000  0.33708000  1.0
  C  C103  1  0.93267000  0.50646000  0.16291000  1.0
  C  C104  1  0.55414000  0.92603000  0.59108000  1.0
  C  C105  1  0.07398000  0.44586000  0.90892000  1.0
  C  C106  1  0.44586000  0.07398000  0.40892000  1.0
  C  C107  1  0.92603000  0.55414000  0.09108000  1.0
  C  C108  1  0.47650000  0.99931000  0.53862000  1.0
  C  C109  1  0.00070000  0.52350000  0.96138000  1.0
  C  C110  1  0.52350000  0.00070000  0.46138000  1.0
  C  C111  1  0.99931000  0.47650000  0.03862000  1.0
  C  C112  1  0.35119000  0.07208000  0.56302000  1.0
  C  C113  1  0.92792000  0.64881000  0.93698000  1.0
  C  C114  1  0.64880000  0.92793000  0.43698000  1.0
  C  C115  1  0.07208000  0.35119000  0.06302000  1.0
  C  C116  1  0.31070000  0.07189000  0.63579000  1.0
  C  C117  1  0.92811000  0.68930000  0.86421000  1.0
  C  C118  1  0.68930000  0.92811000  0.36421000  1.0
  C  C119  1  0.07189000  0.31070000  0.13579000  1.0
  N  N120  1  0.24357000  0.92584000  0.06663000  1.0
  N  N121  1  0.07415000  0.75643000  0.43337000  1.0
  N  N122  1  0.75643000  0.07416000  0.93337000  1.0
  N  N123  1  0.92585000  0.24357000  0.56663000  1.0
  N  N124  1  0.38687000  0.00524000  0.68550000  1.0
  N  N125  1  0.99476000  0.61312000  0.81450000  1.0
  N  N126  1  0.61313000  0.99477000  0.31450000  1.0
  N  N127  1  0.00524000  0.38687000  0.18550000  1.0
  Cl  Cl128  1  0.34746000  0.12472000  0.97109000  1.0
  Cl  Cl129  1  0.87527000  0.65254000  0.52892000  1.0
  Cl  Cl130  1  0.65254000  0.87527000  0.02891000  1.0
  Cl  Cl131  1  0.12473000  0.34745000  0.47109000  1.0
  Cl  Cl132  1  0.06740000  0.16478000  0.95734000  1.0
  Cl  Cl133  1  0.83522000  0.93261000  0.54267000  1.0
  Cl  Cl134  1  0.93260000  0.83522000  0.04266000  1.0
  Cl  Cl135  1  0.16477000  0.06740000  0.45734000  1.0
  Cl  Cl136  1  0.41452000  0.16398000  0.79475000  1.0
  Cl  Cl137  1  0.83602000  0.58548000  0.70526000  1.0
  Cl  Cl138  1  0.58548000  0.83602000  0.20525000  1.0
  Cl  Cl139  1  0.16398000  0.41452000  0.29475000  1.0
  Cl  Cl140  1  0.13738000  0.21489000  0.77871000  1.0
  Cl  Cl141  1  0.78512000  0.86261000  0.72130000  1.0
  Cl  Cl142  1  0.86261000  0.78511000  0.22129000  1.0
  Cl  Cl143  1  0.21489000  0.13738000  0.27871000  1.0
  O  O144  1  0.43813000  0.85972000  0.94073000  1.0
  O  O145  1  0.14028000  0.56187000  0.55928000  1.0
  O  O146  1  0.56187000  0.14028000  0.05927000  1.0
  O  O147  1  0.85972000  0.43813000  0.44072000  1.0
  O  O148  1  0.48158000  0.88729000  0.82200000  1.0
  O  O149  1  0.11271000  0.51842000  0.67801000  1.0
  O  O150  1  0.51843000  0.11271000  0.17800000  1.0
  O  O151  1  0.88729000  0.48158000  0.32199000  1.0
  O  O152  1  0.19877000  0.90045000  0.92655000  1.0
  O  O153  1  0.09955000  0.80123000  0.57345000  1.0
  O  O154  1  0.80123000  0.09954000  0.07345000  1.0
  O  O155  1  0.90045000  0.19877000  0.42655000  1.0
  O  O156  1  0.23741000  0.93302000  0.80758000  1.0
  O  O157  1  0.06698000  0.76260000  0.69242000  1.0
  O  O158  1  0.76259000  0.06698000  0.19242000  1.0
  O  O159  1  0.93302000  0.23740000  0.30758000  1.0
