# generated using pymatgen
data_Ni4H31C39N5O16
_symmetry_space_group_name_H-M   'P 1'
_cell_length_a   13.13100000
_cell_length_b   18.25400000
_cell_length_c   21.78820000
_cell_angle_alpha   90.00000000
_cell_angle_beta   103.95400000
_cell_angle_gamma   90.00000000
_symmetry_Int_Tables_number   1
_chemical_formula_structural   Ni4H31C39N5O16
_chemical_formula_sum   'Ni16 H124 C156 N20 O64'
_cell_volume   5068.36758499
_cell_formula_units_Z   4
loop_
 _symmetry_equiv_pos_site_id
 _symmetry_equiv_pos_as_xyz
  1  'x, y, z'
loop_
 _atom_site_type_symbol
 _atom_site_label
 _atom_site_symmetry_multiplicity
 _atom_site_fract_x
 _atom_site_fract_y
 _atom_site_fract_z
 _atom_site_occupancy
  Ni  Ni0  1  0.76898000  0.71159000  0.12885000  1.0
  Ni  Ni1  1  0.73102000  0.21159000  0.37115000  1.0
  Ni  Ni2  1  0.23102000  0.28841000  0.87115000  1.0
  Ni  Ni3  1  0.26898000  0.78841000  0.62885000  1.0
  Ni  Ni4  1  0.98258000  0.77199000  0.21112000  1.0
  Ni  Ni5  1  0.51742000  0.27199000  0.28888000  1.0
  Ni  Ni6  1  0.01742000  0.22801000  0.78888000  1.0
  Ni  Ni7  1  0.48258000  0.72801000  0.71112000  1.0
  Ni  Ni8  1  0.99348000  0.61234000  0.23399000  1.0
  Ni  Ni9  1  0.50652000  0.11234000  0.26601000  1.0
  Ni  Ni10  1  0.00651000  0.38766000  0.76601000  1.0
  Ni  Ni11  1  0.49348000  0.88766000  0.73399000  1.0
  Ni  Ni12  1  0.10468000  0.64575000  0.12463000  1.0
  Ni  Ni13  1  0.39532000  0.14575000  0.37537000  1.0
  Ni  Ni14  1  0.89532000  0.35425000  0.87537000  1.0
  Ni  Ni15  1  0.60468000  0.85425000  0.62463000  1.0
  H  H16  1  0.84701000  0.96642000  0.28079000  1.0
  H  H17  1  0.65299000  0.46642000  0.21921000  1.0
  H  H18  1  0.15298000  0.03358000  0.71921000  1.0
  H  H19  1  0.34702000  0.53358000  0.78079000  1.0
  H  H20  1  0.73545000  0.06865000  0.30679000  1.0
  H  H21  1  0.76456000  0.56865000  0.19321000  1.0
  H  H22  1  0.26455000  0.93135000  0.69321000  1.0
  H  H23  1  0.23544000  0.43135000  0.80679000  1.0
  H  H24  1  0.47500000  0.99697000  0.17344000  1.0
  H  H25  1  0.02500000  0.49697000  0.32656000  1.0
  H  H26  1  0.52500000  0.00303000  0.82656000  1.0
  H  H27  1  0.97500000  0.50303000  0.67344000  1.0
  H  H28  1  0.57526000  0.89008000  0.14322000  1.0
  H  H29  1  0.92474000  0.39008000  0.35678000  1.0
  H  H30  1  0.42474000  0.10992000  0.85678000  1.0
  H  H31  1  0.07526000  0.60992000  0.64322000  1.0
  H  H32  1  0.37777000  0.64554000  0.08103000  1.0
  H  H33  1  0.12223000  0.14554000  0.41896000  1.0
  H  H34  1  0.62223000  0.35446000  0.91896000  1.0
  H  H35  1  0.87777000  0.85446000  0.58104000  1.0
  H  H36  1  0.56097000  0.63411000  0.06760000  1.0
  H  H37  1  0.93904000  0.13412000  0.43240000  1.0
  H  H38  1  0.43904000  0.36588000  0.93240000  1.0
  H  H39  1  0.06096000  0.86588000  0.56760000  1.0
  H  H40  1  0.68507000  0.71753000  0.24679000  1.0
  H  H41  1  0.81493000  0.21753000  0.25321000  1.0
  H  H42  1  0.31493000  0.28248000  0.75321000  1.0
  H  H43  1  0.18507000  0.78248000  0.74679000  1.0
  H  H44  1  0.50741000  0.72326000  0.26997000  1.0
  H  H45  1  0.99259000  0.22326000  0.23002000  1.0
  H  H46  1  0.49258000  0.27674000  0.73002000  1.0
  H  H47  1  0.00741000  0.77674000  0.76998000  1.0
  H  H48  1  0.08682000  0.84331000  0.39814000  1.0
  H  H49  1  0.41318000  0.34331000  0.10186000  1.0
  H  H50  1  0.91318000  0.15669000  0.60186000  1.0
  H  H51  1  0.58683000  0.65669000  0.89814000  1.0
  H  H52  1  0.17486000  0.86849000  0.51264000  1.0
  H  H53  1  0.32514000  0.36850000  0.98736000  1.0
  H  H54  1  0.82514000  0.13151000  0.48736000  1.0
  H  H55  1  0.67487000  0.63151000  0.01264000  1.0
  H  H56  1  0.19586000  0.64881000  0.55603000  1.0
  H  H57  1  0.30414000  0.14882000  0.94397000  1.0
  H  H58  1  0.80414000  0.35119000  0.44397000  1.0
  H  H59  1  0.69585000  0.85119000  0.05603000  1.0
  H  H60  1  0.11060000  0.61379000  0.44320000  1.0
  H  H61  1  0.38939000  0.11379000  0.05680000  1.0
  H  H62  1  0.88939000  0.38621000  0.55680000  1.0
  H  H63  1  0.61060000  0.88621000  0.94320000  1.0
  H  H64  1  0.18771000  0.41529000  0.31460000  1.0
  H  H65  1  0.31229000  0.91529000  0.18540000  1.0
  H  H66  1  0.81229000  0.58470000  0.68540000  1.0
  H  H67  1  0.68771000  0.08470000  0.81460000  1.0
  H  H68  1  0.32438000  0.31622000  0.34155000  1.0
  H  H69  1  0.17561000  0.81623000  0.15845000  1.0
  H  H70  1  0.67561000  0.68377000  0.65845000  1.0
  H  H71  1  0.82438000  0.18378000  0.84155000  1.0
  H  H72  1  0.49018000  0.40337000  0.21997000  1.0
  H  H73  1  0.00982000  0.90337000  0.28003000  1.0
  H  H74  1  0.50982000  0.59663000  0.78003000  1.0
  H  H75  1  0.99018000  0.09663000  0.71997000  1.0
  H  H76  1  0.36148000  0.50633000  0.18877000  1.0
  H  H77  1  0.13852000  0.00634000  0.31123000  1.0
  H  H78  1  0.63852000  0.49367000  0.81123000  1.0
  H  H79  1  0.86148000  0.99366000  0.68877000  1.0
  H  H80  1  0.72932000  0.54778000  0.98680000  1.0
  H  H81  1  0.77068000  0.04778000  0.51320000  1.0
  H  H82  1  0.27068000  0.45221000  0.01320000  1.0
  H  H83  1  0.22932000  0.95222000  0.48680000  1.0
  H  H84  1  0.74244000  0.45729000  0.90341000  1.0
  H  H85  1  0.75756000  0.95729000  0.59660000  1.0
  H  H86  1  0.25756000  0.54271000  0.09659000  1.0
  H  H87  1  0.24244000  0.04271000  0.40340000  1.0
  H  H88  1  0.01229000  0.36659000  0.01451000  1.0
  H  H89  1  0.48771000  0.86659000  0.48549000  1.0
  H  H90  1  0.98771000  0.63341000  0.98549000  1.0
  H  H91  1  0.51229000  0.13341000  0.51451000  1.0
  H  H92  1  0.01489000  0.45809000  0.10196000  1.0
  H  H93  1  0.48511000  0.95809000  0.39804000  1.0
  H  H94  1  0.98511000  0.54191000  0.89804000  1.0
  H  H95  1  0.51489000  0.04191000  0.60196000  1.0
  H  H96  1  0.84986000  0.69853000  0.25017000  1.0
  H  H97  1  0.65014000  0.19853000  0.24983000  1.0
  H  H98  1  0.15013000  0.30147000  0.74983000  1.0
  H  H99  1  0.34986000  0.80147000  0.75017000  1.0
  H  H100  1  0.15639000  0.69727000  0.22925000  1.0
  H  H101  1  0.34361000  0.19727000  0.27075000  1.0
  H  H102  1  0.84361000  0.30273000  0.77075000  1.0
  H  H103  1  0.65639000  0.80273000  0.72925000  1.0
  H  H104  1  0.81876000  0.82612000  0.85166000  1.0
  H  H105  1  0.68124000  0.32612000  0.64834000  1.0
  H  H106  1  0.18124000  0.17388000  0.14834000  1.0
  H  H107  1  0.31876000  0.67388000  0.35166000  1.0
  H  H108  1  0.80594000  0.95653000  0.87705000  1.0
  H  H109  1  0.69407000  0.45653000  0.62295000  1.0
  H  H110  1  0.19406000  0.04347000  0.12295000  1.0
  H  H111  1  0.30593000  0.54347000  0.37705000  1.0
  H  H112  1  0.86148000  0.00142000  0.98743000  1.0
  H  H113  1  0.63852000  0.50142000  0.51257000  1.0
  H  H114  1  0.13852000  0.99858000  0.01257000  1.0
  H  H115  1  0.36148000  0.49858000  0.48743000  1.0
  H  H116  1  0.76237000  0.71023000  0.85628000  1.0
  H  H117  1  0.73763000  0.21023000  0.64372000  1.0
  H  H118  1  0.23763000  0.28977000  0.14372000  1.0
  H  H119  1  0.26237000  0.78977000  0.35628000  1.0
  H  H120  1  0.84946000  0.63433000  0.87939000  1.0
  H  H121  1  0.65054000  0.13433000  0.62061000  1.0
  H  H122  1  0.15054000  0.36567000  0.12061000  1.0
  H  H123  1  0.34946000  0.86567000  0.37939000  1.0
  H  H124  1  0.89291000  0.71493000  0.84553000  1.0
  H  H125  1  0.60709000  0.21494000  0.65447000  1.0
  H  H126  1  0.10709000  0.28507000  0.15447000  1.0
  H  H127  1  0.39291000  0.78507000  0.34553000  1.0
  H  H128  1  0.96314000  0.02693000  0.08277000  1.0
  H  H129  1  0.53687000  0.52693000  0.41723000  1.0
  H  H130  1  0.03687000  0.97307000  0.91723000  1.0
  H  H131  1  0.46313000  0.47308000  0.58277000  1.0
  H  H132  1  0.95248000  0.98905000  0.15688000  1.0
  H  H133  1  0.54753000  0.48905000  0.34311000  1.0
  H  H134  1  0.04753000  0.01095000  0.84311000  1.0
  H  H135  1  0.45247000  0.51095000  0.65689000  1.0
  H  H136  1  0.83691000  0.99909000  0.09375000  1.0
  H  H137  1  0.66310000  0.49909000  0.40625000  1.0
  H  H138  1  0.16310000  0.00091000  0.90625000  1.0
  H  H139  1  0.33690000  0.50091000  0.59375000  1.0
  C  C140  1  0.77839000  0.85468000  0.19594000  1.0
  C  C141  1  0.72161000  0.35468000  0.30406000  1.0
  C  C142  1  0.22161000  0.14533000  0.80406000  1.0
  C  C143  1  0.27839000  0.64532000  0.69594000  1.0
  C  C144  1  0.71848000  0.91994000  0.21051000  1.0
  C  C145  1  0.78152000  0.41994000  0.28949000  1.0
  C  C146  1  0.28152000  0.08007000  0.78949000  1.0
  C  C147  1  0.21848000  0.58006000  0.71051000  1.0
  C  C148  1  0.76464000  0.97139000  0.25626000  1.0
  C  C149  1  0.73536000  0.47139000  0.24374000  1.0
  C  C150  1  0.23536000  0.02861000  0.74374000  1.0
  C  C151  1  0.26464000  0.52861000  0.75626000  1.0
  C  C152  1  0.70343000  0.02788000  0.27081000  1.0
  C  C153  1  0.79657000  0.52788000  0.22919000  1.0
  C  C154  1  0.29657000  0.97212000  0.72919000  1.0
  C  C155  1  0.20343000  0.47212000  0.77081000  1.0
  C  C156  1  0.55737000  0.98751000  0.19583000  1.0
  C  C157  1  0.94263000  0.48751000  0.30417000  1.0
  C  C158  1  0.44263000  0.01249000  0.80417000  1.0
  C  C159  1  0.05737000  0.51249000  0.69583000  1.0
  C  C160  1  0.61300000  0.92920000  0.17929000  1.0
  C  C161  1  0.88700000  0.42920000  0.32071000  1.0
  C  C162  1  0.38700000  0.07080000  0.82071000  1.0
  C  C163  1  0.11300000  0.57080000  0.67929000  1.0
  C  C164  1  0.31694000  0.69472000  0.18453000  1.0
  C  C165  1  0.18307000  0.19472000  0.31547000  1.0
  C  C166  1  0.68306000  0.30528000  0.81547000  1.0
  C  C167  1  0.81694000  0.80528000  0.68453000  1.0
  C  C168  1  0.42802000  0.68649000  0.17637000  1.0
  C  C169  1  0.07197000  0.18649000  0.32363000  1.0
  C  C170  1  0.57197000  0.31351000  0.82363000  1.0
  C  C171  1  0.92803000  0.81350000  0.67637000  1.0
  C  C172  1  0.44479000  0.66008000  0.11930000  1.0
  C  C173  1  0.05520000  0.16008000  0.38070000  1.0
  C  C174  1  0.55520000  0.33992000  0.88070000  1.0
  C  C175  1  0.94480000  0.83992000  0.61930000  1.0
  C  C176  1  0.54650000  0.65468000  0.11160000  1.0
  C  C177  1  0.95350000  0.15468000  0.38840000  1.0
  C  C178  1  0.45350000  0.34532000  0.88840000  1.0
  C  C179  1  0.04650000  0.84532000  0.61160000  1.0
  C  C180  1  0.61541000  0.70012000  0.21154000  1.0
  C  C181  1  0.88459000  0.20012000  0.28846000  1.0
  C  C182  1  0.38459000  0.29988000  0.78846000  1.0
  C  C183  1  0.11541000  0.79988000  0.71154000  1.0
  C  C184  1  0.51650000  0.70449000  0.22411000  1.0
  C  C185  1  0.98350000  0.20449000  0.27589000  1.0
  C  C186  1  0.48350000  0.29552000  0.77589000  1.0
  C  C187  1  0.01650000  0.79551000  0.72411000  1.0
  C  C188  1  0.04650000  0.71094000  0.34340000  1.0
  C  C189  1  0.45350000  0.21094000  0.15660000  1.0
  C  C190  1  0.95350000  0.28905000  0.65660000  1.0
  C  C191  1  0.54650000  0.78905000  0.84340000  1.0
  C  C192  1  0.09177000  0.72645000  0.41240000  1.0
  C  C193  1  0.40823000  0.22645000  0.08760000  1.0
  C  C194  1  0.90823000  0.27355000  0.58760000  1.0
  C  C195  1  0.59177000  0.77355000  0.91240000  1.0
  C  C196  1  0.10909000  0.79909000  0.43226000  1.0
  C  C197  1  0.39091000  0.29909000  0.06774000  1.0
  C  C198  1  0.89091000  0.20091000  0.56774000  1.0
  C  C199  1  0.60910000  0.70091000  0.93226000  1.0
  C  C200  1  0.15707000  0.81318000  0.49491000  1.0
  C  C201  1  0.34293000  0.31318000  0.00509000  1.0
  C  C202  1  0.84293000  0.18682000  0.50509000  1.0
  C  C203  1  0.65707000  0.68682000  0.99491000  1.0
  C  C204  1  0.16961000  0.68989000  0.51947000  1.0
  C  C205  1  0.33039000  0.18990000  0.98053000  1.0
  C  C206  1  0.83039000  0.31011000  0.48053000  1.0
  C  C207  1  0.66961000  0.81011000  0.01947000  1.0
  C  C208  1  0.12172000  0.67099000  0.45730000  1.0
  C  C209  1  0.37828000  0.17099000  0.04270000  1.0
  C  C210  1  0.87828000  0.32901000  0.54270000  1.0
  C  C211  1  0.62171000  0.82901000  0.95730000  1.0
  C  C212  1  0.18265000  0.52774000  0.22668000  1.0
  C  C213  1  0.31736000  0.02774000  0.27333000  1.0
  C  C214  1  0.81735000  0.47226000  0.77332000  1.0
  C  C215  1  0.68264000  0.97226000  0.72668000  1.0
  C  C216  1  0.26334000  0.46844000  0.24870000  1.0
  C  C217  1  0.23666000  0.96844000  0.25130000  1.0
  C  C218  1  0.73666000  0.53156000  0.75130000  1.0
  C  C219  1  0.76334000  0.03156000  0.74870000  1.0
  C  C220  1  0.25419000  0.41474000  0.29286000  1.0
  C  C221  1  0.24581000  0.91474000  0.20714000  1.0
  C  C222  1  0.74581000  0.58526000  0.70714000  1.0
  C  C223  1  0.75419000  0.08526000  0.79287000  1.0
  C  C224  1  0.32989000  0.35965000  0.30809000  1.0
  C  C225  1  0.17011000  0.85965000  0.19191000  1.0
  C  C226  1  0.67011000  0.64035000  0.69191000  1.0
  C  C227  1  0.82989000  0.14035000  0.80809000  1.0
  C  C228  1  0.42206000  0.40850000  0.23972000  1.0
  C  C229  1  0.07794000  0.90850000  0.26028000  1.0
  C  C230  1  0.57794000  0.59150000  0.76028000  1.0
  C  C231  1  0.92206000  0.09150000  0.73972000  1.0
  C  C232  1  0.35055000  0.46496000  0.22256000  1.0
  C  C233  1  0.14945000  0.96496000  0.27744000  1.0
  C  C234  1  0.64945000  0.53504000  0.77745000  1.0
  C  C235  1  0.85054000  0.03504000  0.72256000  1.0
  C  C236  1  0.87768000  0.57200000  0.09806000  1.0
  C  C237  1  0.62233000  0.07200000  0.40194000  1.0
  C  C238  1  0.12232000  0.42800000  0.90194000  1.0
  C  C239  1  0.37767000  0.92800000  0.59806000  1.0
  C  C240  1  0.87352000  0.51160000  0.05073000  1.0
  C  C241  1  0.62648000  0.01160000  0.44927000  1.0
  C  C242  1  0.12647000  0.48840000  0.94927000  1.0
  C  C243  1  0.37352000  0.98840000  0.55073000  1.0
  C  C244  1  0.79382000  0.50897000  0.99509000  1.0
  C  C245  1  0.70618000  0.00897000  0.50491000  1.0
  C  C246  1  0.20618000  0.49103000  0.00491000  1.0
  C  C247  1  0.29382000  0.99103000  0.49509000  1.0
  C  C248  1  0.79989000  0.45849000  0.94860000  1.0
  C  C249  1  0.70012000  0.95849000  0.55140000  1.0
  C  C250  1  0.20011000  0.54151000  0.05140000  1.0
  C  C251  1  0.29989000  0.04151000  0.44860000  1.0
  C  C252  1  0.95231000  0.40878000  0.01028000  1.0
  C  C253  1  0.54769000  0.90878000  0.48972000  1.0
  C  C254  1  0.04769000  0.59122000  0.98972000  1.0
  C  C255  1  0.45231000  0.09122000  0.51028000  1.0
  C  C256  1  0.95226000  0.45839000  0.05887000  1.0
  C  C257  1  0.54774000  0.95839000  0.44113000  1.0
  C  C258  1  0.04774000  0.54161000  0.94113000  1.0
  C  C259  1  0.45226000  0.04161000  0.55887000  1.0
  C  C260  1  0.95267000  0.76544000  0.06725000  1.0
  C  C261  1  0.54733000  0.26544000  0.43274000  1.0
  C  C262  1  0.04733000  0.23456000  0.93275000  1.0
  C  C263  1  0.45267000  0.73456000  0.56725000  1.0
  C  C264  1  0.91169000  0.81763000  0.01349000  1.0
  C  C265  1  0.58830000  0.31763000  0.48651000  1.0
  C  C266  1  0.08831000  0.18237000  0.98651000  1.0
  C  C267  1  0.41169000  0.68237000  0.51349000  1.0
  C  C268  1  0.87938000  0.79399000  0.95002000  1.0
  C  C269  1  0.62062000  0.29399000  0.54998000  1.0
  C  C270  1  0.12062000  0.20601000  0.04998000  1.0
  C  C271  1  0.37939000  0.70601000  0.45002000  1.0
  C  C272  1  0.84262000  0.84398000  0.90072000  1.0
  C  C273  1  0.65739000  0.34397000  0.59928000  1.0
  C  C274  1  0.15738000  0.15602000  0.09928000  1.0
  C  C275  1  0.34261000  0.65603000  0.40072000  1.0
  C  C276  1  0.83572000  0.91786000  0.91529000  1.0
  C  C277  1  0.66428000  0.41786000  0.58472000  1.0
  C  C278  1  0.16428000  0.08214000  0.08472000  1.0
  C  C279  1  0.33572000  0.58214000  0.41528000  1.0
  C  C280  1  0.90473000  0.89320000  0.02631000  1.0
  C  C281  1  0.59527000  0.39320000  0.47369000  1.0
  C  C282  1  0.09527000  0.10680000  0.97369000  1.0
  C  C283  1  0.40473000  0.60680000  0.52631000  1.0
  C  C284  1  0.86587000  0.94327000  0.97742000  1.0
  C  C285  1  0.63413000  0.44327000  0.52258000  1.0
  C  C286  1  0.13413000  0.05673000  0.02258000  1.0
  C  C287  1  0.36586000  0.55673000  0.47742000  1.0
  C  C288  1  0.84435000  0.69417000  0.87640000  1.0
  C  C289  1  0.65565000  0.19418000  0.62360000  1.0
  C  C290  1  0.15565000  0.30583000  0.12360000  1.0
  C  C291  1  0.34435000  0.80583000  0.37640000  1.0
  C  C292  1  0.92160000  0.98673000  0.10552000  1.0
  C  C293  1  0.57841000  0.48673000  0.39448000  1.0
  C  C294  1  0.07841000  0.01327000  0.89448000  1.0
  C  C295  1  0.42160000  0.51327000  0.60552000  1.0
  N  N296  1  0.60096000  0.03522000  0.24193000  1.0
  N  N297  1  0.89904000  0.53522000  0.25808000  1.0
  N  N298  1  0.39904000  0.96478000  0.75807000  1.0
  N  N299  1  0.10096000  0.46478000  0.74192000  1.0
  N  N300  1  0.63133000  0.67668000  0.15589000  1.0
  N  N301  1  0.86867000  0.17668000  0.34411000  1.0
  N  N302  1  0.36867000  0.32332000  0.84411000  1.0
  N  N303  1  0.13133000  0.82332000  0.65589000  1.0
  N  N304  1  0.18776000  0.76006000  0.53826000  1.0
  N  N305  1  0.31224000  0.26006000  0.96174000  1.0
  N  N306  1  0.81224000  0.23994000  0.46174000  1.0
  N  N307  1  0.68776000  0.73994000  0.03826000  1.0
  N  N308  1  0.41245000  0.35606000  0.28165000  1.0
  N  N309  1  0.08755000  0.85606000  0.21835000  1.0
  N  N310  1  0.58755000  0.64394000  0.71835000  1.0
  N  N311  1  0.91245000  0.14394000  0.78165000  1.0
  N  N312  1  0.87963000  0.41051000  0.95475000  1.0
  N  N313  1  0.62037000  0.91051000  0.54525000  1.0
  N  N314  1  0.12037000  0.58949000  0.04525000  1.0
  N  N315  1  0.37963000  0.08949000  0.45475000  1.0
  O  O316  1  0.87426000  0.68963000  0.21212000  1.0
  O  O317  1  0.62574000  0.18963000  0.28788000  1.0
  O  O318  1  0.12574000  0.31037000  0.78788000  1.0
  O  O319  1  0.37426000  0.81037000  0.71212000  1.0
  O  O320  1  0.08300000  0.69023000  0.20472000  1.0
  O  O321  1  0.41700000  0.19023000  0.29528000  1.0
  O  O322  1  0.91700000  0.30977000  0.79528000  1.0
  O  O323  1  0.58300000  0.80977000  0.70472000  1.0
  O  O324  1  0.72474000  0.80997000  0.15613000  1.0
  O  O325  1  0.77526000  0.30997000  0.34387000  1.0
  O  O326  1  0.27526000  0.19003000  0.84387000  1.0
  O  O327  1  0.22474000  0.69003000  0.65613000  1.0
  O  O328  1  0.87376000  0.84925000  0.22492000  1.0
  O  O329  1  0.62624000  0.34925000  0.27508000  1.0
  O  O330  1  0.12624000  0.15075000  0.77508000  1.0
  O  O331  1  0.37376000  0.65075000  0.72492000  1.0
  O  O332  1  0.30275000  0.70247000  0.23921000  1.0
  O  O333  1  0.19725000  0.20246000  0.26078000  1.0
  O  O334  1  0.69725000  0.29755000  0.76078000  1.0
  O  O335  1  0.80275000  0.79754000  0.73922000  1.0
  O  O336  1  0.24707000  0.69272000  0.13188000  1.0
  O  O337  1  0.25292000  0.19272000  0.36812000  1.0
  O  O338  1  0.75292000  0.30728000  0.86811000  1.0
  O  O339  1  0.74708000  0.80728000  0.63189000  1.0
  O  O340  1  0.02826000  0.76741000  0.30828000  1.0
  O  O341  1  0.47175000  0.26741000  0.19173000  1.0
  O  O342  1  0.97174000  0.23259000  0.69172000  1.0
  O  O343  1  0.52825000  0.73259000  0.80828000  1.0
  O  O344  1  0.03231000  0.64427000  0.32701000  1.0
  O  O345  1  0.46769000  0.14427000  0.17299000  1.0
  O  O346  1  0.96769000  0.35573000  0.67299000  1.0
  O  O347  1  0.53231000  0.85573000  0.82701000  1.0
  O  O348  1  0.11567000  0.53855000  0.25899000  1.0
  O  O349  1  0.38433000  0.03854000  0.24101000  1.0
  O  O350  1  0.88433000  0.46145000  0.74101000  1.0
  O  O351  1  0.61567000  0.96145000  0.75899000  1.0
  O  O352  1  0.18978000  0.56069000  0.17662000  1.0
  O  O353  1  0.31022000  0.06069000  0.32338000  1.0
  O  O354  1  0.81022000  0.43931000  0.82338000  1.0
  O  O355  1  0.68978000  0.93931000  0.67662000  1.0
  O  O356  1  0.79437000  0.60870000  0.09447000  1.0
  O  O357  1  0.70564000  0.10870000  0.40553000  1.0
  O  O358  1  0.20563000  0.39129000  0.90553000  1.0
  O  O359  1  0.29437000  0.89129000  0.59447000  1.0
  O  O360  1  0.96583000  0.58174000  0.13780000  1.0
  O  O361  1  0.53417000  0.08174000  0.36220000  1.0
  O  O362  1  0.03417000  0.41826000  0.86220000  1.0
  O  O363  1  0.46583000  0.91826000  0.63780000  1.0
  O  O364  1  0.90820000  0.76615000  0.11393000  1.0
  O  O365  1  0.59180000  0.26615000  0.38607000  1.0
  O  O366  1  0.09180000  0.23385000  0.88607000  1.0
  O  O367  1  0.40820000  0.73385000  0.61393000  1.0
  O  O368  1  0.03005000  0.72568000  0.06413000  1.0
  O  O369  1  0.46995000  0.22568000  0.43587000  1.0
  O  O370  1  0.96995000  0.27432000  0.93587000  1.0
  O  O371  1  0.53005000  0.77432000  0.56413000  1.0
  O  O372  1  0.94002000  0.91330000  0.08812000  1.0
  O  O373  1  0.55998000  0.41330000  0.41187000  1.0
  O  O374  1  0.05998000  0.08671000  0.91188000  1.0
  O  O375  1  0.44002000  0.58671000  0.58812000  1.0
  O  O376  1  0.88120000  0.71997000  0.94009000  1.0
  O  O377  1  0.61880000  0.21997000  0.55991000  1.0
  O  O378  1  0.11880000  0.28003000  0.05991000  1.0
  O  O379  1  0.38120000  0.78003000  0.44009000  1.0
