# generated using pymatgen
data_MnH21C24SN4O7
_symmetry_space_group_name_H-M   'P 1'
_cell_length_a   8.51376000
_cell_length_b   13.08422682
_cell_length_c   27.48640000
_cell_angle_alpha   87.52268423
_cell_angle_beta   89.97360000
_cell_angle_gamma   71.03329559
_symmetry_Int_Tables_number   1
_chemical_formula_structural   MnH21C24SN4O7
_chemical_formula_sum   'Mn4 H84 C96 S4 N16 O28'
_cell_volume   2892.63223835
_cell_formula_units_Z   4
loop_
 _symmetry_equiv_pos_site_id
 _symmetry_equiv_pos_as_xyz
  1  'x, y, z'
loop_
 _atom_site_type_symbol
 _atom_site_label
 _atom_site_symmetry_multiplicity
 _atom_site_fract_x
 _atom_site_fract_y
 _atom_site_fract_z
 _atom_site_occupancy
  Mn  Mn0  1  0.87360000  0.45917000  0.20271000  1.0
  Mn  Mn1  1  0.33273000  0.54083000  0.29718000  1.0
  Mn  Mn2  1  0.12637000  0.54083000  0.79728000  1.0
  Mn  Mn3  1  0.66727000  0.45916000  0.70283000  1.0
  H  H4  1  0.64390000  0.41784000  0.15338000  1.0
  H  H5  1  0.06190000  0.58194000  0.34671000  1.0
  H  H6  1  0.35611000  0.58215000  0.84662000  1.0
  H  H7  1  0.93810000  0.41806000  0.65329000  1.0
  H  H8  1  0.53736000  0.46854000  0.20049000  1.0
  H  H9  1  0.00596000  0.53124000  0.29959000  1.0
  H  H10  1  0.46264000  0.53146000  0.79951000  1.0
  H  H11  1  0.99404000  0.46876000  0.70041000  1.0
  H  H12  1  0.45216000  0.50281000  0.09897000  1.0
  H  H13  1  0.95455000  0.49714000  0.40113000  1.0
  H  H14  1  0.54784000  0.49719000  0.90103000  1.0
  H  H15  1  0.04546000  0.50285000  0.59887000  1.0
  H  H16  1  0.31394000  0.39438000  0.13417000  1.0
  H  H17  1  0.70843000  0.60580000  0.36576000  1.0
  H  H18  1  0.68606000  0.60562000  0.86584000  1.0
  H  H19  1  0.29157000  0.39419000  0.63425000  1.0
  H  H20  1  0.12446000  0.49934000  0.12381000  1.0
  H  H21  1  0.62349000  0.50099000  0.37606000  1.0
  H  H22  1  0.87555000  0.50065000  0.87619000  1.0
  H  H23  1  0.37651000  0.49900000  0.62394000  1.0
  H  H24  1  0.89902000  0.68785000  0.08555000  1.0
  H  H25  1  0.58507000  0.31277000  0.41458000  1.0
  H  H26  1  0.10097000  0.31214000  0.91445000  1.0
  H  H27  1  0.41495000  0.68722000  0.58542000  1.0
  H  H28  1  0.72533000  0.66672000  0.01575000  1.0
  H  H29  1  0.39075000  0.33383000  0.48455000  1.0
  H  H30  1  0.27460667  0.33333333  0.98425000  1.0
  H  H31  1  0.60927000  0.66616000  0.51545000  1.0
  H  H32  1  0.85551000  0.61991000  0.93462000  1.0
  H  H33  1  0.47506000  0.37999000  0.56566000  1.0
  H  H34  1  0.14449000  0.38009000  0.06538000  1.0
  H  H35  1  0.52495000  0.62001000  0.43434000  1.0
  H  H36  1  0.32655000  0.61477000  0.99250000  1.0
  H  H37  1  0.94054000  0.38521000  0.50742000  1.0
  H  H38  1  0.67345000  0.38523000  0.00750000  1.0
  H  H39  1  0.05946000  0.61480000  0.49258000  1.0
  H  H40  1  0.92680000  0.67358000  0.23918000  1.0
  H  H41  1  0.60066000  0.32666000  0.26090000  1.0
  H  H42  1  0.07320000  0.32642000  0.76082000  1.0
  H  H43  1  0.39933000  0.67334000  0.73910000  1.0
  H  H44  1  0.81356000  0.87141000  0.22415000  1.0
  H  H45  1  0.68482000  0.12883000  0.27590000  1.0
  H  H46  1  0.18644000  0.12859000  0.77585000  1.0
  H  H47  1  0.31518000  0.87117000  0.72411000  1.0
  H  H48  1  0.49648000  0.81395000  0.11219000  1.0
  H  H49  1  0.31002000  0.18641000  0.38785000  1.0
  H  H50  1  0.50352000  0.18605000  0.88781000  1.0
  H  H51  1  0.68997000  0.81359000  0.61215000  1.0
  H  H52  1  0.61905000  0.62120000  0.13288000  1.0
  H  H53  1  0.24005000  0.37914000  0.36715000  1.0
  H  H54  1  0.38095000  0.37880000  0.86712000  1.0
  H  H55  1  0.75995000  0.62085000  0.63285000  1.0
  H  H56  1  0.75563000  0.02798000  0.19485000  1.0
  H  H57  1  0.78267000  0.97200000  0.30508000  1.0
  H  H58  1  0.24435000  0.97202000  0.80516000  1.0
  H  H59  1  0.21734000  0.02799000  0.69492000  1.0
  H  H60  1  0.62158000  0.22433000  0.17634000  1.0
  H  H61  1  0.84455000  0.77572000  0.32381000  1.0
  H  H62  1  0.37842000  0.77567000  0.82366000  1.0
  H  H63  1  0.15545000  0.22426000  0.67619000  1.0
  H  H64  1  0.24237000  0.17239000  0.09785000  1.0
  H  H65  1  0.41396000  0.82834000  0.40274000  1.0
  H  H66  1  0.75764000  0.82761000  0.90215000  1.0
  H  H67  1  0.58604000  0.17166000  0.59727000  1.0
  H  H68  1  0.35619000  0.97446000  0.11367000  1.0
  H  H69  1  0.33051000  0.02619000  0.38683000  1.0
  H  H70  1  0.64381000  0.02554000  0.88633000  1.0
  H  H71  1  0.66950000  0.97380000  0.61317000  1.0
  H  H72  1  0.03440000  0.30363000  0.29045000  1.0
  H  H73  1  0.33810000  0.69586000  0.20936000  1.0
  H  H74  1  0.96558000  0.69638000  0.70955000  1.0
  H  H75  1  0.66190000  0.30414000  0.79064000  1.0
  H  H76  1  0.12416000  0.10872000  0.31573000  1.0
  H  H77  1  0.23284000  0.89067000  0.18396000  1.0
  H  H78  1  0.87584000  0.89128000  0.68427000  1.0
  H  H79  1  0.76716000  0.10934000  0.81604000  1.0
  H  H80  1  0.02920000  0.04371000  0.16734000  1.0
  H  H81  1  0.07280000  0.95595000  0.33237000  1.0
  H  H82  1  0.97080000  0.95629000  0.83266000  1.0
  H  H83  1  0.92720000  0.04405000  0.66762000  1.0
  H  H84  1  0.94265000  0.24214000  0.14876000  1.0
  H  H85  1  0.18511000  0.75762000  0.35106000  1.0
  H  H86  1  0.05735000  0.75787000  0.85124000  1.0
  H  H87  1  0.81487000  0.24239000  0.64893000  1.0
  C  C88  1  0.23202000  0.49218000  0.19466000  1.0
  C  C89  1  0.72449000  0.50780000  0.30528000  1.0
  C  C90  1  0.76798000  0.50782000  0.80535000  1.0
  C  C91  1  0.27551000  0.49220000  0.69472000  1.0
  C  C92  1  0.24949000  0.48122000  0.13975000  1.0
  C  C93  1  0.73063000  0.51900000  0.36018000  1.0
  C  C94  1  0.75051000  0.51878000  0.86025000  1.0
  C  C95  1  0.26937000  0.48100000  0.63982000  1.0
  C  C96  1  0.12207000  0.65122000  0.04313000  1.0
  C  C97  1  0.77204000  0.34903000  0.45689000  1.0
  C  C98  1  0.87793000  0.34878000  0.95687000  1.0
  C  C99  1  0.22796000  0.65097000  0.54311000  1.0
  C  C100  1  0.95343000  0.66634000  0.05006000  1.0
  C  C101  1  0.61834000  0.33414000  0.45004000  1.0
  C  C102  1  0.04658000  0.33365000  0.94994000  1.0
  C  C103  1  0.38167000  0.66586000  0.54996000  1.0
  C  C104  1  0.85718000  0.65489000  0.01079000  1.0
  C  C105  1  0.51093000  0.34550000  0.48941000  1.0
  C  C106  1  0.14282000  0.34511000  0.98921000  1.0
  C  C107  1  0.48909000  0.65450000  0.51060000  1.0
  C  C108  1  0.92946000  0.62858000  0.96551000  1.0
  C  C109  1  0.55733000  0.37153000  0.53468000  1.0
  C  C110  1  0.07054000  0.37142000  0.03449000  1.0
  C  C111  1  0.44268000  0.62847000  0.46532000  1.0
  C  C112  1  0.09899000  0.61316000  0.95888000  1.0
  C  C113  1  0.71160000  0.38682000  0.54119000  1.0
  C  C114  1  0.90101000  0.38684000  0.04112000  1.0
  C  C115  1  0.28841000  0.61318000  0.45881000  1.0
  C  C116  1  0.19566000  0.62483000  0.99797000  1.0
  C  C117  1  0.81965000  0.37524000  0.50201000  1.0
  C  C118  1  0.80434000  0.37517000  0.00203000  1.0
  C  C119  1  0.18037000  0.62476000  0.49799000  1.0
  C  C120  1  0.17798000  0.58584000  0.91011000  1.0
  C  C121  1  0.76358000  0.41402000  0.58993000  1.0
  C  C122  1  0.82203000  0.41416000  0.08989000  1.0
  C  C123  1  0.23643000  0.58598000  0.41007000  1.0
  C  C124  1  0.83037000  0.70849000  0.21143000  1.0
  C  C125  1  0.53892000  0.29176000  0.28863000  1.0
  C  C126  1  0.16964000  0.29151000  0.78857000  1.0
  C  C127  1  0.46107000  0.70824000  0.71137000  1.0
  C  C128  1  0.76593000  0.81985000  0.20256000  1.0
  C  C129  1  0.58553000  0.18038000  0.29746000  1.0
  C  C130  1  0.23407000  0.18015000  0.79744000  1.0
  C  C131  1  0.41449000  0.81961000  0.70255000  1.0
  C  C132  1  0.64171000  0.86353000  0.16676000  1.0
  C  C133  1  0.50488000  0.13675000  0.33329000  1.0
  C  C134  1  0.35829000  0.13647000  0.83324000  1.0
  C  C135  1  0.49513000  0.86324000  0.66666667  1.0
  C  C136  1  0.58984000  0.78922000  0.14120000  1.0
  C  C137  1  0.37871000  0.21112000  0.35883000  1.0
  C  C138  1  0.41017000  0.21078000  0.85880000  1.0
  C  C139  1  0.62130000  0.78887000  0.64117000  1.0
  C  C140  1  0.65954000  0.67911000  0.15246000  1.0
  C  C141  1  0.33853000  0.32122000  0.34760000  1.0
  C  C142  1  0.34047000  0.32089000  0.84754000  1.0
  C  C143  1  0.66146000  0.67878000  0.65240000  1.0
  C  C144  1  0.56776000  0.98165000  0.15636000  1.0
  C  C145  1  0.54888000  0.01868000  0.34381000  1.0
  C  C146  1  0.43223000  0.01835000  0.84364000  1.0
  C  C147  1  0.45113000  0.98131000  0.65620000  1.0
  C  C148  1  0.64019000  0.05566000  0.17368000  1.0
  C  C149  1  0.69500000  0.94449000  0.32640000  1.0
  C  C150  1  0.35978000  0.94435000  0.82632000  1.0
  C  C151  1  0.30502000  0.05550000  0.67360000  1.0
  C  C152  1  0.56593000  0.16613000  0.16304000  1.0
  C  C153  1  0.73090000  0.83406000  0.33715000  1.0
  C  C154  1  0.43407000  0.83387000  0.83696000  1.0
  C  C155  1  0.26911000  0.16593000  0.66285000  1.0
  C  C156  1  0.35617000  0.13752000  0.11965000  1.0
  C  C157  1  0.49292000  0.86304000  0.38080000  1.0
  C  C158  1  0.64382000  0.86248000  0.88035000  1.0
  C  C159  1  0.50708000  0.13696000  0.61920000  1.0
  C  C160  1  0.42095000  0.02587000  0.12852000  1.0
  C  C161  1  0.44640000  0.97466000  0.37187000  1.0
  C  C162  1  0.57905000  0.97413000  0.87147000  1.0
  C  C163  1  0.55361000  0.02533000  0.62813000  1.0
  C  C164  1  0.03656000  0.24303000  0.26430000  1.0
  C  C165  1  0.27964000  0.75652000  0.23547000  1.0
  C  C166  1  0.96343000  0.75698000  0.73570000  1.0
  C  C167  1  0.72036000  0.24348000  0.76452000  1.0
  C  C168  1  0.08497000  0.13383000  0.27817000  1.0
  C  C169  1  0.21877000  0.86567000  0.22154000  1.0
  C  C170  1  0.91503000  0.86617000  0.72183000  1.0
  C  C171  1  0.78124000  0.13433000  0.77846000  1.0
  C  C172  1  0.08615000  0.05816000  0.24346000  1.0
  C  C173  1  0.14436000  0.94142000  0.25624000  1.0
  C  C174  1  0.91386000  0.94184000  0.75653000  1.0
  C  C175  1  0.85563000  0.05859000  0.74376000  1.0
  C  C176  1  0.03340000  0.09804000  0.19590000  1.0
  C  C177  1  0.13139000  0.90162000  0.30382000  1.0
  C  C178  1  0.96660000  0.90197000  0.80410000  1.0
  C  C179  1  0.86860000  0.09839000  0.69617000  1.0
  C  C180  1  0.98482000  0.20863000  0.18527000  1.0
  C  C181  1  0.19359000  0.79105000  0.31452000  1.0
  C  C182  1  0.01519000  0.79137000  0.81473000  1.0
  C  C183  1  0.80640000  0.20895000  0.68548000  1.0
  S  S184  1  0.24843000  0.66480000  0.09232000  1.0
  S  S185  1  0.91196000  0.33528000  0.40761000  1.0
  S  S186  1  0.75156000  0.33520000  0.90768000  1.0
  S  S187  1  0.08805000  0.66471000  0.59239000  1.0
  N  N188  1  0.34301000  0.54384000  0.11564000  1.0
  N  N189  1  0.88643000  0.45624000  0.38438000  1.0
  N  N190  1  0.65698000  0.45616000  0.88436000  1.0
  N  N191  1  0.11358000  0.54375000  0.61562000  1.0
  N  N192  1  0.77793000  0.63825000  0.18704000  1.0
  N  N193  1  0.41646000  0.36205000  0.31307000  1.0
  N  N194  1  0.22207000  0.36176000  0.81296000  1.0
  N  N195  1  0.58354000  0.63794000  0.68693000  1.0
  N  N196  1  0.42554000  0.20794000  0.13641000  1.0
  N  N197  1  0.63234000  0.79245000  0.36394000  1.0
  N  N198  1  0.57446000  0.79206000  0.86359000  1.0
  N  N199  1  0.36767000  0.20754000  0.63606000  1.0
  N  N200  1  0.98753000  0.28032000  0.21855000  1.0
  N  N201  1  0.26815000  0.71934000  0.28127000  1.0
  N  N202  1  0.01247000  0.71968000  0.78145000  1.0
  N  N203  1  0.73184000  0.28067000  0.71872000  1.0
  O  O204  1  0.11548000  0.46791000  0.21506000  1.0
  O  O205  1  0.58380000  0.53199000  0.28485000  1.0
  O  O206  1  0.88451000  0.53210000  0.78494000  1.0
  O  O207  1  0.41619000  0.46802000  0.71515000  1.0
  O  O208  1  0.33920000  0.52085000  0.21822000  1.0
  O  O209  1  0.86050000  0.47899000  0.28177000  1.0
  O  O210  1  0.66080000  0.47915000  0.78178000  1.0
  O  O211  1  0.13950000  0.52101000  0.71823000  1.0
  O  O212  1  0.13784000  0.72539000  0.12867000  1.0
  O  O213  1  0.86128000  0.27513000  0.37122000  1.0
  O  O214  1  0.86215000  0.27460000  0.87133000  1.0
  O  O215  1  0.13873000  0.72487000  0.62878000  1.0
  O  O216  1  0.37768000  0.70256000  0.07181000  1.0
  O  O217  1  0.07897000  0.29698000  0.42806000  1.0
  O  O218  1  0.62230000  0.29745000  0.92820000  1.0
  O  O219  1  0.92105000  0.70301000  0.57195000  1.0
  O  O220  1  0.32646000  0.58674000  0.90496000  1.0
  O  O221  1  0.91286000  0.41338000  0.59496000  1.0
  O  O222  1  0.67354000  0.41326000  0.09504000  1.0
  O  O223  1  0.08714000  0.58663000  0.40504000  1.0
  O  O224  1  0.08953000  0.56603000  0.87668000  1.0
  O  O225  1  0.65561000  0.43354000  0.62347000  1.0
  O  O226  1  0.91047000  0.43397000  0.12332000  1.0
  O  O227  1  0.34440000  0.56646000  0.37653000  1.0
  O  O228  1  0.64842000  0.42098000  0.18998000  1.0
  O  O229  1  0.06956000  0.57879000  0.31011000  1.0
  O  O230  1  0.35158000  0.57902000  0.81002000  1.0
  O  O231  1  0.93045000  0.42120000  0.68989000  1.0
