# generated using pymatgen
data_CuAg2H15C18(SN2)3
_symmetry_space_group_name_H-M   'P 1'
_cell_length_a   8.23467000
_cell_length_b   8.94581000
_cell_length_c   14.59960000
_cell_angle_alpha   89.99890000
_cell_angle_beta   89.99950000
_cell_angle_gamma   86.83620000
_symmetry_Int_Tables_number   1
_chemical_formula_structural   CuAg2H15C18(SN2)3
_chemical_formula_sum   'Cu2 Ag4 H30 C36 S6 N12'
_cell_volume   1073.85188706
_cell_formula_units_Z   2
loop_
 _symmetry_equiv_pos_site_id
 _symmetry_equiv_pos_as_xyz
  1  'x, y, z'
loop_
 _atom_site_type_symbol
 _atom_site_label
 _atom_site_symmetry_multiplicity
 _atom_site_fract_x
 _atom_site_fract_y
 _atom_site_fract_z
 _atom_site_occupancy
  Cu  Cu0  1  0.13961000  0.32392000  0.74729000  1.0
  Cu  Cu1  1  0.63961000  0.32392000  0.25270000  1.0
  Ag  Ag2  1  0.61951000  0.64484000  0.92272000  1.0
  Ag  Ag3  1  0.11951000  0.64484000  0.07727000  1.0
  Ag  Ag4  1  0.61904000  0.66408000  0.58476000  1.0
  Ag  Ag5  1  0.11905000  0.66408000  0.41524000  1.0
  H  H6  1  0.78490000  0.88383000  0.80559000  1.0
  H  H7  1  0.28489000  0.88381000  0.19442000  1.0
  H  H8  1  0.81955000  0.16106000  0.79717000  1.0
  H  H9  1  0.31954000  0.16105000  0.20284000  1.0
  H  H10  1  0.67314000  0.32823000  0.91082000  1.0
  H  H11  1  0.17312000  0.32822000  0.08918000  1.0
  H  H12  1  0.50246000  0.21322000  0.03125000  1.0
  H  H13  1  0.00245000  0.21321000  0.96875000  1.0
  H  H14  1  0.48016000  0.93470000  0.03051000  1.0
  H  H15  1  0.98016000  0.93470000  0.96949000  1.0
  H  H16  1  0.47160000  0.94216000  0.69500000  1.0
  H  H17  1  0.97161000  0.94217000  0.30500000  1.0
  H  H18  1  0.47814000  0.22197000  0.70090000  1.0
  H  H19  1  0.97814000  0.22198000  0.29910000  1.0
  H  H20  1  0.65483000  0.34980000  0.58835000  1.0
  H  H21  1  0.15483000  0.34980000  0.41165000  1.0
  H  H22  1  0.81637000  0.19244000  0.47479000  1.0
  H  H23  1  0.31636000  0.19244000  0.52522000  1.0
  H  H24  1  0.79841000  0.91367000  0.47951000  1.0
  H  H25  1  0.29841000  0.91366000  0.52049000  1.0
  H  H26  1  0.29784000  0.07853000  0.86068000  1.0
  H  H27  1  0.79784000  0.07853000  0.13933000  1.0
  H  H28  1  0.30576000  0.79838000  0.87120000  1.0
  H  H29  1  0.80575000  0.79838000  0.12881000  1.0
  H  H30  1  0.15046000  0.65468000  0.75466000  1.0
  H  H31  1  0.65045000  0.65468000  0.24534000  1.0
  H  H32  1  0.99229000  0.80166000  0.63369000  1.0
  H  H33  1  0.49228000  0.80167000  0.36631000  1.0
  H  H34  1  0.99621000  0.08060000  0.63426000  1.0
  H  H35  1  0.49621000  0.08060000  0.36574000  1.0
  C  C36  1  0.30894000  0.44263000  0.92010000  1.0
  C  C37  1  0.80895000  0.44263000  0.07989000  1.0
  C  C38  1  0.79095000  0.47249000  0.75014000  1.0
  C  C39  1  0.29095000  0.47249000  0.24985000  1.0
  C  C40  1  0.29932000  0.47645000  0.58213000  1.0
  C  C41  1  0.79932000  0.47645000  0.41787000  1.0
  C  C42  1  0.72482000  0.96093000  0.85444000  1.0
  C  C43  1  0.22481000  0.96093000  0.14556000  1.0
  C  C44  1  0.74316000  0.11445000  0.84960000  1.0
  C  C45  1  0.24315000  0.11444000  0.15041000  1.0
  C  C46  1  0.66183000  0.20752000  0.91321000  1.0
  C  C47  1  0.16183000  0.20751000  0.08680000  1.0
  C  C48  1  0.56618000  0.14388000  0.97994000  1.0
  C  C49  1  0.06618000  0.14387000  0.02006000  1.0
  C  C50  1  0.55425000  0.98936000  0.97994000  1.0
  C  C51  1  0.05425000  0.98935000  0.02006000  1.0
  C  C52  1  0.54670000  0.00249000  0.64758000  1.0
  C  C53  1  0.04670000  0.00249000  0.35242000  1.0
  C  C54  1  0.55117000  0.15775000  0.65091000  1.0
  C  C55  1  0.05117000  0.15775000  0.34909000  1.0
  C  C56  1  0.64907000  0.22841000  0.58821000  1.0
  C  C57  1  0.14907000  0.22841000  0.41179000  1.0
  C  C58  1  0.73958000  0.14132000  0.52517000  1.0
  C  C59  1  0.23958000  0.14132000  0.47483000  1.0
  C  C60  1  0.72904000  0.98667000  0.52695000  1.0
  C  C61  1  0.22904000  0.98667000  0.47305000  1.0
  C  C62  1  0.23195000  0.01208000  0.81190000  1.0
  C  C63  1  0.73195000  0.01209000  0.18810000  1.0
  C  C64  1  0.23571000  0.85631000  0.81718000  1.0
  C  C65  1  0.73571000  0.85632000  0.18282000  1.0
  C  C66  1  0.14948000  0.77668000  0.75277000  1.0
  C  C67  1  0.64947000  0.77669000  0.24724000  1.0
  C  C68  1  0.06193000  0.85794000  0.68560000  1.0
  C  C69  1  0.56192000  0.85794000  0.31441000  1.0
  C  C70  1  0.06384000  0.01361000  0.68533000  1.0
  C  C71  1  0.56384000  0.01361000  0.31467000  1.0
  S  S72  1  0.38735000  0.53128000  0.00729000  1.0
  S  S73  1  0.88735000  0.53129000  0.99270000  1.0
  S  S74  1  0.61203000  0.56415000  0.75087000  1.0
  S  S75  1  0.11204000  0.56415000  0.24913000  1.0
  S  S76  1  0.38414000  0.55946000  0.49507000  1.0
  S  S77  1  0.88413000  0.55948000  0.50492000  1.0
  N  N78  1  0.25358000  0.37573000  0.85898000  1.0
  N  N79  1  0.75359000  0.37573000  0.14101000  1.0
  N  N80  1  0.91697000  0.40299000  0.75028000  1.0
  N  N81  1  0.41698000  0.40298000  0.24971000  1.0
  N  N82  1  0.24076000  0.41141000  0.64298000  1.0
  N  N83  1  0.74077000  0.41141000  0.35702000  1.0
  N  N84  1  0.63188000  0.89881000  0.91839000  1.0
  N  N85  1  0.13187000  0.89880000  0.08161000  1.0
  N  N86  1  0.63379000  0.91784000  0.58691000  1.0
  N  N87  1  0.13379000  0.91784000  0.41309000  1.0
  N  N88  1  0.14745000  0.09119000  0.74722000  1.0
  N  N89  1  0.64745000  0.09119000  0.25278000  1.0
