# generated using pymatgen
data_PrH14C14N3O9F4
_symmetry_space_group_name_H-M   'P 1'
_cell_length_a   11.54370000
_cell_length_b   12.46515323
_cell_length_c   20.40210000
_cell_angle_alpha   73.23105510
_cell_angle_beta   73.56900000
_cell_angle_gamma   62.42472958
_symmetry_Int_Tables_number   1
_chemical_formula_structural   PrH14C14N3O9F4
_chemical_formula_sum   'Pr4 H56 C56 N12 O36 F16'
_cell_volume   2452.73456842
_cell_formula_units_Z   4
loop_
 _symmetry_equiv_pos_site_id
 _symmetry_equiv_pos_as_xyz
  1  'x, y, z'
loop_
 _atom_site_type_symbol
 _atom_site_label
 _atom_site_symmetry_multiplicity
 _atom_site_fract_x
 _atom_site_fract_y
 _atom_site_fract_z
 _atom_site_occupancy
  Pr  Pr0  1  0.14118000  0.10643000  0.69415000  1.0
  Pr  Pr1  1  0.94169000  0.39368000  0.80585000  1.0
  Pr  Pr2  1  0.85883000  0.89356000  0.30585000  1.0
  Pr  Pr3  1  0.05831000  0.60632000  0.19415000  1.0
  H  H4  1  0.96394000  0.01882000  0.61132000  1.0
  H  H5  1  0.59403000  0.48114000  0.88876000  1.0
  H  H6  1  0.03606000  0.98118000  0.38868000  1.0
  H  H7  1  0.40597000  0.51886000  0.11124000  1.0
  H  H8  1  0.24260000  0.73466000  0.65557000  1.0
  H  H9  1  0.63277000  0.76531000  0.84445000  1.0
  H  H10  1  0.75740000  0.26534000  0.34443000  1.0
  H  H11  1  0.36723000  0.23469000  0.15555000  1.0
  H  H12  1  0.24959000  0.68040000  0.58147000  1.0
  H  H13  1  0.51139000  0.81964000  0.91853000  1.0
  H  H14  1  0.75042000  0.31959000  0.41853000  1.0
  H  H15  1  0.48861000  0.18036000  0.08147000  1.0
  H  H16  1  0.14524000  0.65310000  0.66122000  1.0
  H  H17  1  0.45952000  0.84684000  0.83879000  1.0
  H  H18  1  0.85476000  0.34690000  0.33878000  1.0
  H  H19  1  0.54048000  0.15316000  0.16121000  1.0
  H  H20  1  0.92339000  0.92914000  0.54815000  1.0
  H  H21  1  0.40070000  0.57077000  0.95190000  1.0
  H  H22  1  0.07661000  0.07086000  0.45185000  1.0
  H  H23  1  0.59930000  0.42923000  0.04810000  1.0
  H  H24  1  0.96828000  0.76784000  0.57587000  1.0
  H  H25  1  0.31199000  0.73207000  0.92418000  1.0
  H  H26  1  0.03172000  0.23216000  0.42413000  1.0
  H  H27  1  0.68801000  0.26793000  0.07582000  1.0
  H  H28  1  0.07362000  0.82114000  0.50676000  1.0
  H  H29  1  0.40150000  0.67884000  0.99328000  1.0
  H  H30  1  0.92638000  0.17886000  0.49324000  1.0
  H  H31  1  0.59850000  0.32116000  0.00672000  1.0
  H  H32  1  0.48570000  0.00425000  0.68355000  1.0
  H  H33  1  0.17357000  0.49570000  0.81655000  1.0
  H  H34  1  0.51430000  0.99575000  0.31645000  1.0
  H  H35  1  0.82643000  0.50430000  0.18345000  1.0
  H  H36  1  0.69571000  0.90910000  0.68420000  1.0
  H  H37  1  0.28907000  0.59094000  0.81581000  1.0
  H  H38  1  0.30429000  0.09090000  0.31580000  1.0
  H  H39  1  0.71093000  0.40906000  0.18419000  1.0
  H  H40  1  0.77929000  0.78722000  0.63499000  1.0
  H  H41  1  0.20160000  0.71281000  0.86502000  1.0
  H  H42  1  0.22071000  0.21278000  0.36501000  1.0
  H  H43  1  0.79840000  0.28719000  0.13498000  1.0
  H  H44  1  0.75208000  0.75062000  0.72750000  1.0
  H  H45  1  0.23026000  0.74941000  0.77251000  1.0
  H  H46  1  0.24792000  0.24938000  0.27250000  1.0
  H  H47  1  0.76974000  0.25059000  0.22749000  1.0
  H  H48  1  0.64529000  0.62838000  0.71404000  1.0
  H  H49  1  0.98783000  0.87160000  0.78595000  1.0
  H  H50  1  0.35471000  0.37162000  0.28596000  1.0
  H  H51  1  0.01217000  0.12840000  0.21405000  1.0
  H  H52  1  0.62008000  0.68551000  0.62584000  1.0
  H  H53  1  0.93149000  0.81452000  0.87415000  1.0
  H  H54  1  0.37992000  0.31449000  0.37416000  1.0
  H  H55  1  0.06851000  0.18548000  0.12585000  1.0
  H  H56  1  0.47972000  0.71205000  0.69508000  1.0
  H  H57  1  0.88698000  0.78792000  0.80491000  1.0
  H  H58  1  0.52028000  0.28795000  0.30492000  1.0
  H  H59  1  0.11302000  0.21208000  0.19509000  1.0
  C  C60  1  0.28509000  0.25002000  0.75001000  1.0
  C  C61  1  0.71491000  0.74998000  0.24999000  1.0
  C  C62  1  0.41601000  0.25002000  0.75007000  1.0
  C  C63  1  0.58399000  0.74998000  0.24993000  1.0
  C  C64  1  0.51885000  0.14453000  0.77713000  1.0
  C  C65  1  0.44048000  0.35550000  0.72301000  1.0
  C  C66  1  0.48114000  0.85547000  0.22287000  1.0
  C  C67  1  0.55952000  0.64450000  0.27699000  1.0
  C  C68  1  0.63987000  0.14422000  0.77666000  1.0
  C  C69  1  0.56072000  0.35579000  0.72348000  1.0
  C  C70  1  0.36013000  0.85578000  0.22334000  1.0
  C  C71  1  0.43929000  0.64420000  0.27652000  1.0
  C  C72  1  0.66380000  0.25001000  0.75007000  1.0
  C  C73  1  0.33620000  0.74999000  0.24993000  1.0
  C  C74  1  0.79512000  0.25000000  0.74998000  1.0
  C  C75  1  0.20488000  0.75000000  0.25002000  1.0
  C  C76  1  0.98379000  0.44512000  0.65062000  1.0
  C  C77  1  0.07966000  0.05491000  0.84939000  1.0
  C  C78  1  0.01621000  0.55488000  0.34938000  1.0
  C  C79  1  0.92034000  0.94509000  0.15061000  1.0
  C  C80  1  0.99275000  0.47269000  0.57287000  1.0
  C  C81  1  0.03846000  0.02721000  0.92712000  1.0
  C  C82  1  0.00725000  0.52731000  0.42713000  1.0
  C  C83  1  0.96155000  0.97279000  0.07288000  1.0
  C  C84  1  0.90725000  0.45810000  0.54319000  1.0
  C  C85  1  0.90864000  0.04193000  0.95677000  1.0
  C  C86  1  0.09275000  0.54190000  0.45681000  1.0
  C  C87  1  0.09135000  0.95808000  0.04323000  1.0
  C  C88  1  0.91431000  0.48542000  0.47145000  1.0
  C  C89  1  0.87112000  0.01472000  0.02850000  1.0
  C  C90  1  0.08569000  0.51458000  0.52854000  1.0
  C  C91  1  0.12888000  0.98528000  0.97150000  1.0
  C  C92  1  0.04707000  0.93545000  0.63119000  1.0
  C  C93  1  0.61365000  0.56453000  0.86886000  1.0
  C  C94  1  0.95293000  0.06455000  0.36881000  1.0
  C  C95  1  0.38635000  0.43547000  0.13114000  1.0
  C  C96  1  0.18546000  0.71889000  0.62766000  1.0
  C  C97  1  0.53195000  0.78108000  0.87236000  1.0
  C  C98  1  0.81454000  0.28111000  0.37234000  1.0
  C  C99  1  0.46805000  0.21892000  0.12764000  1.0
  C  C100  1  0.00686000  0.83892000  0.55668000  1.0
  C  C101  1  0.40245000  0.66102000  0.94337000  1.0
  C  C102  1  0.99314000  0.16108000  0.44332000  1.0
  C  C103  1  0.59755000  0.33898000  0.05663000  1.0
  C  C104  1  0.47299000  0.92274000  0.68211000  1.0
  C  C105  1  0.07792000  0.57720000  0.81801000  1.0
  C  C106  1  0.52701000  0.07726000  0.31789000  1.0
  C  C107  1  0.92208000  0.42280000  0.18199000  1.0
  C  C108  1  0.71005000  0.81655000  0.68231000  1.0
  C  C109  1  0.20898000  0.68349000  0.81770000  1.0
  C  C110  1  0.28995000  0.18345000  0.31769000  1.0
  C  C111  1  0.79102000  0.31651000  0.18230000  1.0
  C  C112  1  0.58186000  0.70384000  0.67913000  1.0
  C  C113  1  0.96494000  0.79615000  0.82087000  1.0
  C  C114  1  0.41814000  0.29616000  0.32087000  1.0
  C  C115  1  0.03506000  0.20385000  0.17913000  1.0
  N  N116  1  0.07758000  0.83577000  0.60646000  1.0
  N  N117  1  0.51977000  0.66419000  0.89359000  1.0
  N  N118  1  0.92242000  0.16423000  0.39354000  1.0
  N  N119  1  0.48023000  0.33581000  0.10641000  1.0
  N  N120  1  0.58295000  0.81873000  0.68218000  1.0
  N  N121  1  0.08394000  0.68126000  0.81785000  1.0
  N  N122  1  0.41705000  0.18127000  0.31782000  1.0
  N  N123  1  0.91606000  0.31874000  0.18215000  1.0
  N  N124  1  0.20362000  0.19147000  0.54024000  1.0
  N  N125  1  0.93535000  0.30851000  0.95974000  1.0
  N  N126  1  0.79638000  0.80853000  0.45976000  1.0
  N  N127  1  0.06465000  0.69149000  0.04026000  1.0
  O  O128  1  0.29183000  0.16218000  0.72783000  1.0
  O  O129  1  0.18180000  0.33787000  0.77214000  1.0
  O  O130  1  0.70816000  0.83783000  0.27217000  1.0
  O  O131  1  0.81820000  0.66213000  0.22786000  1.0
  O  O132  1  0.89745000  0.16799000  0.72215000  1.0
  O  O133  1  0.78782000  0.33202000  0.77774000  1.0
  O  O134  1  0.10255000  0.83201000  0.27785000  1.0
  O  O135  1  0.21218000  0.66798000  0.22226000  1.0
  O  O136  1  0.02906000  0.33217000  0.68063000  1.0
  O  O137  1  0.04189000  0.16788000  0.81943000  1.0
  O  O138  1  0.97094000  0.66783000  0.31937000  1.0
  O  O139  1  0.95811000  0.83212000  0.18057000  1.0
  O  O140  1  0.93132000  0.53263000  0.68335000  1.0
  O  O141  1  0.14743000  0.96745000  0.81661000  1.0
  O  O142  1  0.06868000  0.46737000  0.31665000  1.0
  O  O143  1  0.85257000  0.03255000  0.18338000  1.0
  O  O144  1  0.10643000  0.93680000  0.67365000  1.0
  O  O145  1  0.71679000  0.56319000  0.82638000  1.0
  O  O146  1  0.89357000  0.06320000  0.32635000  1.0
  O  O147  1  0.28321000  0.43681000  0.17362000  1.0
  O  O148  1  0.36045000  0.93051000  0.68160000  1.0
  O  O149  1  0.97264000  0.56938000  0.81856000  1.0
  O  O150  1  0.63955000  0.06949000  0.31840000  1.0
  O  O151  1  0.02736000  0.43062000  0.18144000  1.0
  O  O152  1  0.27313000  0.18414000  0.58174000  1.0
  O  O153  1  0.03904000  0.31583000  0.91827000  1.0
  O  O154  1  0.72687000  0.81586000  0.41827000  1.0
  O  O155  1  0.96096000  0.68417000  0.08173000  1.0
  O  O156  1  0.22715000  0.22788000  0.47690000  1.0
  O  O157  1  0.93196000  0.27197000  0.02307000  1.0
  O  O158  1  0.77285000  0.77212000  0.52310000  1.0
  O  O159  1  0.06804000  0.72803000  0.97693000  1.0
  O  O160  1  0.10601000  0.15932000  0.56819000  1.0
  O  O161  1  0.83351000  0.34082000  0.93178000  1.0
  O  O162  1  0.89399000  0.84068000  0.43181000  1.0
  O  O163  1  0.16649000  0.65918000  0.06822000  1.0
  F  F164  1  0.50212000  0.03899000  0.80618000  1.0
  F  F165  1  0.34741000  0.46097000  0.69381000  1.0
  F  F166  1  0.49788000  0.96101000  0.19382000  1.0
  F  F167  1  0.65259000  0.53903000  0.30620000  1.0
  F  F168  1  0.73379000  0.03820000  0.80438000  1.0
  F  F169  1  0.57643000  0.46177000  0.69566000  1.0
  F  F170  1  0.26621000  0.96180000  0.19562000  1.0
  F  F171  1  0.42357000  0.53823000  0.30434000  1.0
  F  F172  1  0.81456000  0.41856000  0.58440000  1.0
  F  F173  1  0.81767000  0.08152000  0.91553000  1.0
  F  F174  1  0.18544000  0.58144000  0.41560000  1.0
  F  F175  1  0.18232000  0.91849000  0.08447000  1.0
  F  F176  1  0.82791000  0.47213000  0.44449000  1.0
  F  F177  1  0.74443000  0.02814000  0.05540000  1.0
  F  F178  1  0.17209000  0.52787000  0.55551000  1.0
  F  F179  1  0.25557000  0.97186000  0.94460000  1.0
