# generated using pymatgen
data_Zn4H14C32O13
_symmetry_space_group_name_H-M   'P 1'
_cell_length_a   16.10280000
_cell_length_b   16.13020000
_cell_length_c   16.10770000
_cell_angle_alpha   89.85160000
_cell_angle_beta   83.47920000
_cell_angle_gamma   84.17490000
_symmetry_Int_Tables_number   1
_chemical_formula_structural   Zn4H14C32O13
_chemical_formula_sum   'Zn4 H14 C32 O13'
_cell_volume   4135.13665034
_cell_formula_units_Z   1
loop_
 _symmetry_equiv_pos_site_id
 _symmetry_equiv_pos_as_xyz
  1  'x, y, z'
loop_
 _atom_site_type_symbol
 _atom_site_label
 _atom_site_symmetry_multiplicity
 _atom_site_fract_x
 _atom_site_fract_y
 _atom_site_fract_z
 _atom_site_occupancy
  Zn  Zn0  1  0.57079000  0.57095000  0.42914000  1.0
  Zn  Zn1  1  0.57174000  0.42272000  0.56368000  1.0
  Zn  Zn2  1  0.43616000  0.43757000  0.42904000  1.0
  Zn  Zn3  1  0.42030000  0.57094000  0.57832000  1.0
  H  H4  1  0.42769000  0.00806000  0.57316000  1.0
  H  H5  1  0.94003000  0.33294000  0.37975000  1.0
  H  H6  1  0.93921000  0.41920000  0.31122000  1.0
  H  H7  1  0.02216000  0.33736000  0.29687000  1.0
  H  H8  1  0.07357000  0.45889000  0.36287000  1.0
  H  H9  1  0.07413000  0.37406000  0.43072000  1.0
  H  H10  1  0.57140000  0.99236000  0.42760000  1.0
  H  H11  1  0.57361000  0.54541000  0.98719000  1.0
  H  H12  1  0.98089000  0.55757000  0.57149000  1.0
  H  H13  1  0.30754000  0.48654000  0.95293000  1.0
  H  H14  1  0.19489000  0.40857000  0.02444000  1.0
  H  H15  1  0.22955000  0.29952000  0.12851000  1.0
  H  H16  1  0.37714000  0.26969000  0.16139000  1.0
  H  H17  1  0.48879000  0.34984000  0.09230000  1.0
  C  C18  1  0.48756000  0.48856000  0.72521000  1.0
  C  C19  1  0.51912000  0.51361000  0.18554000  1.0
  C  C20  1  0.81683000  0.48307000  0.48054000  1.0
  C  C21  1  0.51330000  0.51082000  0.27489000  1.0
  C  C22  1  0.98166000  0.47431000  0.46875000  1.0
  C  C23  1  0.01968000  0.51882000  0.52346000  1.0
  C  C24  1  0.10704000  0.51675000  0.52029000  1.0
  C  C25  1  0.89330000  0.47960000  0.47584000  1.0
  C  C26  1  0.18341000  0.51452000  0.51735000  1.0
  C  C27  1  0.72647000  0.48817000  0.48701000  1.0
  C  C28  1  0.27315000  0.51059000  0.51258000  1.0
  C  C29  1  0.47983000  0.88986000  0.52045000  1.0
  C  C30  1  0.51305000  0.27623000  0.48730000  1.0
  C  C31  1  0.48807000  0.72468000  0.51284000  1.0
  C  C32  1  0.51802000  0.18656000  0.48210000  1.0
  C  C33  1  0.52467000  0.02361000  0.47496000  1.0
  C  C34  1  0.47445000  0.97699000  0.52577000  1.0
  C  C35  1  0.40515000  0.42418000  0.01911000  1.0
  C  C36  1  0.32240000  0.43920000  0.99894000  1.0
  C  C37  1  0.25938000  0.39521000  0.03901000  1.0
  C  C38  1  0.27878000  0.33432000  0.09765000  1.0
  C  C39  1  0.36144000  0.31775000  0.11642000  1.0
  C  C40  1  0.52046000  0.11072000  0.47936000  1.0
  C  C41  1  0.42432000  0.36275000  0.07782000  1.0
  C  C42  1  0.03176000  0.41952000  0.40038000  1.0
  C  C43  1  0.98011000  0.37488000  0.34406000  1.0
  C  C44  1  0.48304000  0.81399000  0.51752000  1.0
  C  C45  1  0.48142000  0.48394000  0.81504000  1.0
  C  C46  1  0.47158000  0.47309000  0.97882000  1.0
  C  C47  1  0.52607000  0.51126000  0.02227000  1.0
  C  C48  1  0.52230000  0.51178000  0.10943000  1.0
  C  C49  1  0.47709000  0.48035000  0.89106000  1.0
  O  O50  1  0.50043000  0.49968000  0.50060000  1.0
  O  O51  1  0.55879000  0.30578000  0.53729000  1.0
  O  O52  1  0.43647000  0.68939000  0.56413000  1.0
  O  O53  1  0.46334000  0.31613000  0.44165000  1.0
  O  O54  1  0.54380000  0.68946000  0.45772000  1.0
  O  O55  1  0.69091000  0.54292000  0.44196000  1.0
  O  O56  1  0.30326000  0.55662000  0.56388000  1.0
  O  O57  1  0.54440000  0.43827000  0.68520000  1.0
  O  O58  1  0.46259000  0.46189000  0.31038000  1.0
  O  O59  1  0.43575000  0.54232000  0.69528000  1.0
  O  O60  1  0.55918000  0.55693000  0.31043000  1.0
  O  O61  1  0.69175000  0.43728000  0.53723000  1.0
  O  O62  1  0.31450000  0.46105000  0.45717000  1.0
