# generated using pymatgen
data_MnH16C18(N7O)2
_symmetry_space_group_name_H-M   'P 1'
_cell_length_a   7.23314000
_cell_length_b   7.45510000
_cell_length_c   9.47604000
_cell_angle_alpha   100.29700000
_cell_angle_beta   96.92520000
_cell_angle_gamma   109.98600000
_symmetry_Int_Tables_number   1
_chemical_formula_structural   MnH16C18(N7O)2
_chemical_formula_sum   'Mn1 H16 C18 N14 O2'
_cell_volume   463.26730695
_cell_formula_units_Z   1
loop_
 _symmetry_equiv_pos_site_id
 _symmetry_equiv_pos_as_xyz
  1  'x, y, z'
loop_
 _atom_site_type_symbol
 _atom_site_label
 _atom_site_symmetry_multiplicity
 _atom_site_fract_x
 _atom_site_fract_y
 _atom_site_fract_z
 _atom_site_occupancy
  Mn  Mn0  1  0.50000000  0.50000000  0.50000000  1.0
  H  H1  1  0.72581000  0.87536000  0.47664000  1.0
  H  H2  1  0.27419000  0.12465000  0.52336000  1.0
  H  H3  1  0.81623000  0.72102000  0.39789000  1.0
  H  H4  1  0.18377000  0.27898000  0.60211000  1.0
  H  H5  1  0.07161000  0.19654000  0.36753000  1.0
  H  H6  1  0.92839000  0.80347000  0.63247000  1.0
  H  H7  1  0.88388000  0.89073000  0.17905000  1.0
  H  H8  1  0.11613000  0.10927000  0.82096000  1.0
  H  H9  1  0.67471000  0.22066000  0.91162000  1.0
  H  H10  1  0.32528000  0.77933000  0.08838000  1.0
  H  H11  1  0.86280000  0.52566000  0.10032000  1.0
  H  H12  1  0.13719000  0.47434000  0.89968000  1.0
  H  H13  1  0.52169000  0.40116000  0.81236000  1.0
  H  H14  1  0.47831000  0.59884000  0.18765000  1.0
  H  H15  1  0.62718000  0.95367000  0.71986000  1.0
  H  H16  1  0.37282000  0.04633000  0.28014000  1.0
  C  C17  1  0.10644000  0.56902000  0.35327000  1.0
  C  C18  1  0.89356000  0.43098000  0.64673000  1.0
  C  C19  1  0.98587000  0.38413000  0.24726000  1.0
  C  C20  1  0.01413000  0.61587000  0.75274000  1.0
  C  C21  1  0.98518000  0.20242000  0.26792000  1.0
  C  C22  1  0.01482000  0.79758000  0.73208000  1.0
  C  C23  1  0.87905000  0.02985000  0.16242000  1.0
  C  C24  1  0.12095000  0.97015000  0.83758000  1.0
  C  C25  1  0.77107000  0.03708000  0.03236000  1.0
  C  C26  1  0.22893000  0.96292000  0.96764000  1.0
  C  C27  1  0.76313000  0.21548000  0.01116000  1.0
  C  C28  1  0.23687000  0.78452000  0.98884000  1.0
  C  C29  1  0.86893000  0.38732000  0.11820000  1.0
  C  C30  1  0.13106000  0.61268000  0.88180000  1.0
  C  C31  1  0.56909000  0.55845000  0.82630000  1.0
  C  C32  1  0.43091000  0.44155000  0.17370000  1.0
  C  C33  1  0.61670000  0.83755000  0.77603000  1.0
  C  C34  1  0.38331000  0.16245000  0.22397000  1.0
  N  N35  1  0.28396000  0.61549000  0.44777000  1.0
  N  N36  1  0.71603000  0.38451000  0.55223000  1.0
  N  N37  1  0.34189000  0.80813000  0.51248000  1.0
  N  N38  1  0.65811000  0.19187000  0.48752000  1.0
  N  N39  1  0.20802000  0.87430000  0.46206000  1.0
  N  N40  1  0.79198000  0.12570000  0.53794000  1.0
  N  N41  1  0.05749000  0.72961000  0.36304000  1.0
  N  N42  1  0.94251000  0.27039000  0.63696000  1.0
  N  N43  1  0.67463000  0.86197000  0.92182000  1.0
  N  N44  1  0.32538000  0.13803000  0.07818000  1.0
  N  N45  1  0.64398000  0.68425000  0.95476000  1.0
  N  N46  1  0.35602000  0.31575000  0.04524000  1.0
  N  N47  1  0.55169000  0.64566000  0.71184000  1.0
  N  N48  1  0.44831000  0.35434000  0.28817000  1.0
  O  O49  1  0.69579000  0.73124000  0.43562000  1.0
  O  O50  1  0.30421000  0.26877000  0.56438000  1.0
