# generated using pymatgen
data_Co2H18C18S3N8O9
_symmetry_space_group_name_H-M   'P 1'
_cell_length_a   16.64340000
_cell_length_b   16.74600000
_cell_length_c   20.25710000
_cell_angle_alpha   89.99970000
_cell_angle_beta   90.00000000
_cell_angle_gamma   89.99980000
_symmetry_Int_Tables_number   1
_chemical_formula_structural   Co2H18C18S3N8O9
_chemical_formula_sum   'Co16 H144 C144 S24 N64 O72'
_cell_volume   5645.86396566
_cell_formula_units_Z   8
loop_
 _symmetry_equiv_pos_site_id
 _symmetry_equiv_pos_as_xyz
  1  'x, y, z'
loop_
 _atom_site_type_symbol
 _atom_site_label
 _atom_site_symmetry_multiplicity
 _atom_site_fract_x
 _atom_site_fract_y
 _atom_site_fract_z
 _atom_site_occupancy
  Co  Co0  1  0.30141000  0.85295000  0.50115000  1.0
  Co  Co1  1  0.69859000  0.64705000  0.00115000  1.0
  Co  Co2  1  0.80142000  0.14705000  0.99884000  1.0
  Co  Co3  1  0.19859000  0.35295000  0.49885000  1.0
  Co  Co4  1  0.39181000  0.95506000  0.24434000  1.0
  Co  Co5  1  0.60819000  0.54494000  0.74434000  1.0
  Co  Co6  1  0.89181000  0.04494000  0.25566000  1.0
  Co  Co7  1  0.10819000  0.45506000  0.75566000  1.0
  Co  Co8  1  0.26027000  0.87081000  0.99493000  1.0
  Co  Co9  1  0.73972000  0.62919000  0.49494000  1.0
  Co  Co10  1  0.76028000  0.12919000  0.50506000  1.0
  Co  Co11  1  0.23973000  0.37081000  0.00507000  1.0
  Co  Co12  1  0.37142000  0.96390000  0.75869000  1.0
  Co  Co13  1  0.62859000  0.53610000  0.25868000  1.0
  Co  Co14  1  0.87142000  0.03611000  0.74131000  1.0
  Co  Co15  1  0.12858000  0.46390000  0.24132000  1.0
  H  H16  1  0.04871000  0.01860000  0.53958000  1.0
  H  H17  1  0.95128000  0.48140000  0.03958000  1.0
  H  H18  1  0.54872000  0.98140000  0.96042000  1.0
  H  H19  1  0.45128000  0.51860000  0.46043000  1.0
  H  H20  1  0.16465000  0.91231000  0.21870000  1.0
  H  H21  1  0.83534000  0.58768000  0.71870000  1.0
  H  H22  1  0.66465000  0.08769000  0.28130000  1.0
  H  H23  1  0.33534000  0.41232000  0.78130000  1.0
  H  H24  1  0.21486000  0.19447000  0.27827000  1.0
  H  H25  1  0.78514000  0.30552000  0.77827000  1.0
  H  H26  1  0.71486000  0.80552000  0.22173000  1.0
  H  H27  1  0.28514000  0.69448000  0.72172000  1.0
  H  H28  1  0.35667000  0.10005000  0.95916000  1.0
  H  H29  1  0.64334000  0.39996000  0.45917000  1.0
  H  H30  1  0.85666000  0.89995000  0.54084000  1.0
  H  H31  1  0.14334000  0.60004000  0.04083000  1.0
  H  H32  1  0.21103000  0.21305000  0.79524000  1.0
  H  H33  1  0.78897000  0.28695000  0.29524000  1.0
  H  H34  1  0.71103000  0.78696000  0.70476000  1.0
  H  H35  1  0.28897000  0.71305000  0.20476000  1.0
  H  H36  1  0.32238000  0.07619000  0.47853000  1.0
  H  H37  1  0.67761000  0.42381000  0.97853000  1.0
  H  H38  1  0.82239000  0.92381000  0.02147000  1.0
  H  H39  1  0.17761000  0.57619000  0.52147000  1.0
  H  H40  1  0.64030000  0.10830000  0.78775000  1.0
  H  H41  1  0.35970000  0.39171000  0.28775000  1.0
  H  H42  1  0.14029000  0.89170000  0.71224000  1.0
  H  H43  1  0.85971000  0.60829000  0.21224000  1.0
  H  H44  1  0.52259000  0.95577000  0.47890000  1.0
  H  H45  1  0.47741000  0.54423000  0.97890000  1.0
  H  H46  1  0.02259000  0.04422000  0.02110000  1.0
  H  H47  1  0.97741000  0.45577000  0.52110000  1.0
  H  H48  1  0.17496000  0.95197000  0.58278000  1.0
  H  H49  1  0.82504000  0.54803000  0.08278000  1.0
  H  H50  1  0.67496000  0.04802000  0.91722000  1.0
  H  H51  1  0.32504000  0.45198000  0.41722000  1.0
  H  H52  1  0.03339000  0.97756000  0.17143000  1.0
  H  H53  1  0.96660000  0.52244000  0.67143000  1.0
  H  H54  1  0.53339000  0.02244000  0.32857000  1.0
  H  H55  1  0.46660000  0.47756000  0.82857000  1.0
  H  H56  1  0.27066000  0.06323000  0.31895000  1.0
  H  H57  1  0.72934000  0.43676000  0.81895000  1.0
  H  H58  1  0.77066000  0.93676000  0.18106000  1.0
  H  H59  1  0.22934000  0.56323000  0.68104000  1.0
  H  H60  1  0.31193000  0.23784000  0.91789000  1.0
  H  H61  1  0.68808000  0.26217000  0.41788000  1.0
  H  H62  1  0.81192000  0.76216000  0.58212000  1.0
  H  H63  1  0.18807000  0.73783000  0.08210000  1.0
  H  H64  1  0.26832000  0.08706000  0.84294000  1.0
  H  H65  1  0.73168000  0.41294000  0.34295000  1.0
  H  H66  1  0.76832000  0.91295000  0.65706000  1.0
  H  H67  1  0.23167000  0.58706000  0.15706000  1.0
  H  H68  1  0.26249000  0.20412000  0.42554000  1.0
  H  H69  1  0.73751000  0.29588000  0.92554000  1.0
  H  H70  1  0.76249000  0.79588000  0.07446000  1.0
  H  H71  1  0.23750000  0.70413000  0.57447000  1.0
  H  H72  1  0.50754000  0.05527000  0.84207000  1.0
  H  H73  1  0.49246000  0.44474000  0.34207000  1.0
  H  H74  1  0.00753000  0.94473000  0.65793000  1.0
  H  H75  1  0.99246000  0.55526000  0.15792000  1.0
  H  H76  1  0.64806000  0.01277000  0.43184000  1.0
  H  H77  1  0.35194000  0.48723000  0.93183000  1.0
  H  H78  1  0.14807000  0.98723000  0.06816000  1.0
  H  H79  1  0.85194000  0.51277000  0.56816000  1.0
  H  H80  1  0.23061000  0.88712000  0.34527000  1.0
  H  H81  1  0.76938000  0.61288000  0.84527000  1.0
  H  H82  1  0.73062000  0.11288000  0.15472000  1.0
  H  H83  1  0.26937000  0.38713000  0.65473000  1.0
  H  H84  1  0.97313000  0.03419000  0.40896000  1.0
  H  H85  1  0.02687000  0.46580000  0.90896000  1.0
  H  H86  1  0.47313000  0.96580000  0.09104000  1.0
  H  H87  1  0.52687000  0.53420000  0.59104000  1.0
  H  H88  1  0.35860000  0.01982000  0.08554000  1.0
  H  H89  1  0.64140000  0.48018000  0.58554000  1.0
  H  H90  1  0.85859000  0.98018000  0.41447000  1.0
  H  H91  1  0.14139000  0.51982000  0.91445000  1.0
  H  H92  1  0.21875000  0.27990000  0.15122000  1.0
  H  H93  1  0.78126000  0.22009000  0.65123000  1.0
  H  H94  1  0.71874000  0.72010000  0.34878000  1.0
  H  H95  1  0.28125000  0.77990000  0.84877000  1.0
  H  H96  1  0.33079000  0.01247000  0.60795000  1.0
  H  H97  1  0.66921000  0.48754000  0.10795000  1.0
  H  H98  1  0.83079000  0.98753000  0.89205000  1.0
  H  H99  1  0.16922000  0.51246000  0.39206000  1.0
  H  H100  1  0.18739000  0.27562000  0.65960000  1.0
  H  H101  1  0.81262000  0.22437000  0.15960000  1.0
  H  H102  1  0.68738000  0.72438000  0.84040000  1.0
  H  H103  1  0.31263000  0.77562000  0.34041000  1.0
  H  H104  1  0.70922000  0.10528000  0.66245000  1.0
  H  H105  1  0.29078000  0.39473000  0.16245000  1.0
  H  H106  1  0.20922000  0.89472000  0.83755000  1.0
  H  H107  1  0.79078000  0.60528000  0.33755000  1.0
  H  H108  1  0.45421000  0.94460000  0.61428000  1.0
  H  H109  1  0.54579000  0.55540000  0.11427000  1.0
  H  H110  1  0.95421000  0.05540000  0.88572000  1.0
  H  H111  1  0.04579000  0.44460000  0.38572000  1.0
  H  H112  1  0.57800000  0.83267000  0.46052000  1.0
  H  H113  1  0.42200000  0.66733000  0.96051000  1.0
  H  H114  1  0.07800000  0.16732000  0.03948000  1.0
  H  H115  1  0.92200000  0.33267000  0.53948000  1.0
  H  H116  1  0.59628000  0.72923000  0.47900000  1.0
  H  H117  1  0.40371000  0.77077000  0.97899000  1.0
  H  H118  1  0.09629000  0.27076000  0.02101000  1.0
  H  H119  1  0.90372000  0.22923000  0.52101000  1.0
  H  H120  1  0.58507000  0.79913000  0.54570000  1.0
  H  H121  1  0.41492000  0.70087000  0.04569000  1.0
  H  H122  1  0.08507000  0.20087000  0.95430000  1.0
  H  H123  1  0.91493000  0.29913000  0.45430000  1.0
  H  H124  1  0.48944000  0.63161000  0.52250000  1.0
  H  H125  1  0.51056000  0.86839000  0.02250000  1.0
  H  H126  1  0.98944000  0.36839000  0.97750000  1.0
  H  H127  1  0.01056000  0.13160000  0.47750000  1.0
  H  H128  1  0.40019000  0.66826000  0.56333000  1.0
  H  H129  1  0.59980000  0.83173000  0.06333000  1.0
  H  H130  1  0.90020000  0.33173000  0.93668000  1.0
  H  H131  1  0.09980000  0.16826000  0.43667000  1.0
  H  H132  1  0.49805000  0.69560000  0.59351000  1.0
  H  H133  1  0.50195000  0.80439000  0.09350000  1.0
  H  H134  1  0.99805000  0.30440000  0.90650000  1.0
  H  H135  1  0.00195000  0.19560000  0.40650000  1.0
  H  H136  1  0.57503000  0.82686000  0.33781000  1.0
  H  H137  1  0.42496000  0.67313000  0.83781000  1.0
  H  H138  1  0.07503000  0.17313000  0.16218000  1.0
  H  H139  1  0.92497000  0.32687000  0.66219000  1.0
  H  H140  1  0.60022000  0.73295000  0.29837000  1.0
  H  H141  1  0.39978000  0.76704000  0.79837000  1.0
  H  H142  1  0.10022000  0.26704000  0.20163000  1.0
  H  H143  1  0.89978000  0.23295000  0.70163000  1.0
  H  H144  1  0.51051000  0.74123000  0.34765000  1.0
  H  H145  1  0.48949000  0.75876000  0.84765000  1.0
  H  H146  1  0.01050000  0.25877000  0.15235000  1.0
  H  H147  1  0.98950000  0.24123000  0.65235000  1.0
  H  H148  1  0.42364000  0.71479000  0.17573000  1.0
  H  H149  1  0.57635000  0.78521000  0.67574000  1.0
  H  H150  1  0.92365000  0.28521000  0.32427000  1.0
  H  H151  1  0.07636000  0.21479000  0.82426000  1.0
  H  H152  1  0.43974000  0.67331000  0.25727000  1.0
  H  H153  1  0.56025000  0.82668000  0.75727000  1.0
  H  H154  1  0.93974000  0.32668000  0.24273000  1.0
  H  H155  1  0.06026000  0.17332000  0.74273000  1.0
  H  H156  1  0.52100000  0.67550000  0.19780000  1.0
  H  H157  1  0.47900000  0.82450000  0.69781000  1.0
  H  H158  1  0.02100000  0.32449000  0.30220000  1.0
  H  H159  1  0.97900000  0.17550000  0.80220000  1.0
  C  C160  1  0.15688000  0.95265000  0.53140000  1.0
  C  C161  1  0.84312000  0.54736000  0.03140000  1.0
  C  C162  1  0.65688000  0.04735000  0.96859000  1.0
  C  C163  1  0.34312000  0.45265000  0.46860000  1.0
  C  C164  1  0.04915000  0.97179000  0.22327000  1.0
  C  C165  1  0.95085000  0.52821000  0.72327000  1.0
  C  C166  1  0.54915000  0.02821000  0.27672000  1.0
  C  C167  1  0.45085000  0.47179000  0.77673000  1.0
  C  C168  1  0.27492000  0.08388000  0.26836000  1.0
  C  C169  1  0.72509000  0.41611000  0.76837000  1.0
  C  C170  1  0.77491000  0.91611000  0.23164000  1.0
  C  C171  1  0.22509000  0.58388000  0.73162000  1.0
  C  C172  1  0.30693000  0.21693000  0.96833000  1.0
  C  C173  1  0.69309000  0.28308000  0.46833000  1.0
  C  C174  1  0.80691000  0.78308000  0.53167000  1.0
  C  C175  1  0.19308000  0.71692000  0.03166000  1.0
  C  C176  1  0.26600000  0.10038000  0.79053000  1.0
  C  C177  1  0.73400000  0.39962000  0.29053000  1.0
  C  C178  1  0.76600000  0.89962000  0.70947000  1.0
  C  C179  1  0.23400000  0.60038000  0.20947000  1.0
  C  C180  1  0.26200000  0.19029000  0.47795000  1.0
  C  C181  1  0.73800000  0.30971000  0.97795000  1.0
  C  C182  1  0.76200000  0.80971000  0.02205000  1.0
  C  C183  1  0.23800000  0.69029000  0.52206000  1.0
  C  C184  1  0.52572000  0.04681000  0.79113000  1.0
  C  C185  1  0.47429000  0.45319000  0.29112000  1.0
  C  C186  1  0.02571000  0.95318000  0.70887000  1.0
  C  C187  1  0.97428000  0.54681000  0.20887000  1.0
  C  C188  1  0.63227000  0.01540000  0.48375000  1.0
  C  C189  1  0.36773000  0.48460000  0.98374000  1.0
  C  C190  1  0.13227000  0.98460000  0.01625000  1.0
  C  C191  1  0.86772000  0.51540000  0.51625000  1.0
  C  C192  1  0.08466000  0.97702000  0.44177000  1.0
  C  C193  1  0.91534000  0.52298000  0.94177000  1.0
  C  C194  1  0.58466000  0.02297000  0.05823000  1.0
  C  C195  1  0.41534000  0.47703000  0.55823000  1.0
  C  C196  1  0.15662000  0.93483000  0.42482000  1.0
  C  C197  1  0.84338000  0.56517000  0.92482000  1.0
  C  C198  1  0.65662000  0.06517000  0.07518000  1.0
  C  C199  1  0.34338000  0.43484000  0.57518000  1.0
  C  C200  1  0.17524000  0.91701000  0.35924000  1.0
  C  C201  1  0.82475000  0.58299000  0.85923000  1.0
  C  C202  1  0.67525000  0.08299000  0.14076000  1.0
  C  C203  1  0.32475000  0.41702000  0.64076000  1.0
  C  C204  1  0.11821000  0.94273000  0.31360000  1.0
  C  C205  1  0.88178000  0.55727000  0.81359000  1.0
  C  C206  1  0.61821000  0.05727000  0.18640000  1.0
  C  C207  1  0.38178000  0.44274000  0.68641000  1.0
  C  C208  1  0.04534000  0.98283000  0.33061000  1.0
  C  C209  1  0.95465000  0.51717000  0.83062000  1.0
  C  C210  1  0.54535000  0.01716000  0.16938000  1.0
  C  C211  1  0.45465000  0.48284000  0.66939000  1.0
  C  C212  1  0.02712000  0.00132000  0.39608000  1.0
  C  C213  1  0.97287000  0.49868000  0.89608000  1.0
  C  C214  1  0.52713000  0.99868000  0.10392000  1.0
  C  C215  1  0.47287000  0.50132000  0.60392000  1.0
  C  C216  1  0.26316000  0.16243000  0.18122000  1.0
  C  C217  1  0.73684000  0.33757000  0.68123000  1.0
  C  C218  1  0.76316000  0.83757000  0.31879000  1.0
  C  C219  1  0.23684000  0.66243000  0.81877000  1.0
  C  C220  1  0.30514000  0.09063000  0.16403000  1.0
  C  C221  1  0.69486000  0.40937000  0.66403000  1.0
  C  C222  1  0.80514000  0.90937000  0.33597000  1.0
  C  C223  1  0.19486000  0.59063000  0.83596000  1.0
  C  C224  1  0.33037000  0.07574000  0.09955000  1.0
  C  C225  1  0.66964000  0.42426000  0.59955000  1.0
  C  C226  1  0.83035000  0.92426000  0.40046000  1.0
  C  C227  1  0.16964000  0.57574000  0.90045000  1.0
  C  C228  1  0.31482000  0.13746000  0.05548000  1.0
  C  C229  1  0.68519000  0.36254000  0.55549000  1.0
  C  C230  1  0.81481000  0.86254000  0.44453000  1.0
  C  C231  1  0.18519000  0.63746000  0.94451000  1.0
  C  C232  1  0.27690000  0.21081000  0.07338000  1.0
  C  C233  1  0.72312000  0.28919000  0.57338000  1.0
  C  C234  1  0.77688000  0.78919000  0.42663000  1.0
  C  C235  1  0.22311000  0.71080000  0.92662000  1.0
  C  C236  1  0.24892000  0.22479000  0.13722000  1.0
  C  C237  1  0.75109000  0.27521000  0.63722000  1.0
  C  C238  1  0.74891000  0.77521000  0.36279000  1.0
  C  C239  1  0.25109000  0.72479000  0.86277000  1.0
  C  C240  1  0.24226000  0.16593000  0.69720000  1.0
  C  C241  1  0.75775000  0.33406000  0.19720000  1.0
  C  C242  1  0.74226000  0.83407000  0.80280000  1.0
  C  C243  1  0.25775000  0.66593000  0.30281000  1.0
  C  C244  1  0.28229000  0.09210000  0.68362000  1.0
  C  C245  1  0.71771000  0.40790000  0.18362000  1.0
  C  C246  1  0.78229000  0.90790000  0.81638000  1.0
  C  C247  1  0.21772000  0.59210000  0.31638000  1.0
  C  C248  1  0.30178000  0.06900000  0.61942000  1.0
  C  C249  1  0.69823000  0.43100000  0.11942000  1.0
  C  C250  1  0.80178000  0.93100000  0.88059000  1.0
  C  C251  1  0.19824000  0.56900000  0.38058000  1.0
  C  C252  1  0.28062000  0.12431000  0.57106000  1.0
  C  C253  1  0.71939000  0.37569000  0.07106000  1.0
  C  C254  1  0.78062000  0.87569000  0.92894000  1.0
  C  C255  1  0.21939000  0.62431000  0.42894000  1.0
  C  C256  1  0.24141000  0.19883000  0.58432000  1.0
  C  C257  1  0.75859000  0.30117000  0.08432000  1.0
  C  C258  1  0.74141000  0.80117000  0.91568000  1.0
  C  C259  1  0.25860000  0.69883000  0.41568000  1.0
  C  C260  1  0.21984000  0.22074000  0.64867000  1.0
  C  C261  1  0.78018000  0.27927000  0.14867000  1.0
  C  C262  1  0.71983000  0.77927000  0.85133000  1.0
  C  C263  1  0.28018000  0.72073000  0.35134000  1.0
  C  C264  1  0.52519000  0.01105000  0.68709000  1.0
  C  C265  1  0.47481000  0.48895000  0.18708000  1.0
  C  C266  1  0.02519000  0.98895000  0.81292000  1.0
  C  C267  1  0.97481000  0.51106000  0.31292000  1.0
  C  C268  1  0.59718000  0.05509000  0.69934000  1.0
  C  C269  1  0.40282000  0.44491000  0.19933000  1.0
  C  C270  1  0.09717000  0.94491000  0.80066000  1.0
  C  C271  1  0.90282000  0.55509000  0.30066000  1.0
  C  C272  1  0.65449000  0.07243000  0.65147000  1.0
  C  C273  1  0.34551000  0.42757000  0.15146000  1.0
  C  C274  1  0.15449000  0.92756000  0.84853000  1.0
  C  C275  1  0.84551000  0.57244000  0.34853000  1.0
  C  C276  1  0.63520000  0.04400000  0.58886000  1.0
  C  C277  1  0.36480000  0.45601000  0.08886000  1.0
  C  C278  1  0.13519000  0.95600000  0.91114000  1.0
  C  C279  1  0.86481000  0.54401000  0.41114000  1.0
  C  C280  1  0.56360000  0.99922000  0.57629000  1.0
  C  C281  1  0.43640000  0.50079000  0.07629000  1.0
  C  C282  1  0.06360000  0.00079000  0.92370000  1.0
  C  C283  1  0.93640000  0.49922000  0.42371000  1.0
  C  C284  1  0.50710000  0.98058000  0.62454000  1.0
  C  C285  1  0.49290000  0.51942000  0.12454000  1.0
  C  C286  1  0.00710000  0.01941000  0.87546000  1.0
  C  C287  1  0.99290000  0.48058000  0.37546000  1.0
  C  C288  1  0.56635000  0.78417000  0.49528000  1.0
  C  C289  1  0.43365000  0.71584000  0.99528000  1.0
  C  C290  1  0.06635000  0.21583000  0.00472000  1.0
  C  C291  1  0.93365000  0.28416000  0.50472000  1.0
  C  C292  1  0.46242000  0.68126000  0.54965000  1.0
  C  C293  1  0.53758000  0.81874000  0.04965000  1.0
  C  C294  1  0.96242000  0.31874000  0.95035000  1.0
  C  C295  1  0.03758000  0.18126000  0.45035000  1.0
  C  C296  1  0.55179000  0.77273000  0.31436000  1.0
  C  C297  1  0.44821000  0.72727000  0.81437000  1.0
  C  C298  1  0.05178000  0.22727000  0.18563000  1.0
  C  C299  1  0.94821000  0.27273000  0.68563000  1.0
  C  C300  1  0.46683000  0.70584000  0.21584000  1.0
  C  C301  1  0.53316000  0.79416000  0.71585000  1.0
  C  C302  1  0.96683000  0.29415000  0.28416000  1.0
  C  C303  1  0.03317000  0.20584000  0.78416000  1.0
  S  S304  1  0.40036000  0.94814000  0.40419000  1.0
  S  S305  1  0.59965000  0.55186000  0.90419000  1.0
  S  S306  1  0.90036000  0.05186000  0.09581000  1.0
  S  S307  1  0.09964000  0.44814000  0.59581000  1.0
  S  S308  1  0.30004000  0.85393000  0.14556000  1.0
  S  S309  1  0.69995000  0.64606000  0.64557000  1.0
  S  S310  1  0.80004000  0.14607000  0.35444000  1.0
  S  S311  1  0.19995000  0.35393000  0.85444000  1.0
  S  S312  1  0.29773000  0.83288000  0.66622000  1.0
  S  S313  1  0.70228000  0.66713000  0.16622000  1.0
  S  S314  1  0.79772000  0.16713000  0.83378000  1.0
  S  S315  1  0.20228000  0.33287000  0.33378000  1.0
  S  S316  1  0.40326000  0.94190000  0.90536000  1.0
  S  S317  1  0.59673000  0.55811000  0.40536000  1.0
  S  S318  1  0.90327000  0.05811000  0.59464000  1.0
  S  S319  1  0.09673000  0.44190000  0.09463000  1.0
  S  S320  1  0.46068000  0.76337000  0.49315000  1.0
  S  S321  1  0.53932000  0.73663000  0.99314000  1.0
  S  S322  1  0.96068000  0.23663000  0.00686000  1.0
  S  S323  1  0.03932000  0.26337000  0.50685000  1.0
  S  S324  1  0.49685000  0.80313000  0.24269000  1.0
  S  S325  1  0.50315000  0.69686000  0.74270000  1.0
  S  S326  1  0.99685000  0.19686000  0.25731000  1.0
  S  S327  1  0.00315000  0.30314000  0.75730000  1.0
  N  N328  1  0.19971000  0.91970000  0.48288000  1.0
  N  N329  1  0.80029000  0.58030000  0.98288000  1.0
  N  N330  1  0.69971000  0.08030000  0.01712000  1.0
  N  N331  1  0.30029000  0.41971000  0.51712000  1.0
  N  N332  1  0.08826000  0.98707000  0.50982000  1.0
  N  N333  1  0.91174000  0.51294000  0.00982000  1.0
  N  N334  1  0.58826000  0.01293000  0.99018000  1.0
  N  N335  1  0.41174000  0.48707000  0.49019000  1.0
  N  N336  1  0.00328000  0.99942000  0.27247000  1.0
  N  N337  1  0.99671000  0.50058000  0.77247000  1.0
  N  N338  1  0.50329000  0.00058000  0.22753000  1.0
  N  N339  1  0.49671000  0.49942000  0.72754000  1.0
  N  N340  1  0.11770000  0.93765000  0.24529000  1.0
  N  N341  1  0.88230000  0.56235000  0.74529000  1.0
  N  N342  1  0.61770000  0.06235000  0.25471000  1.0
  N  N343  1  0.38229000  0.43765000  0.75471000  1.0
  N  N344  1  0.31311000  0.04394000  0.22072000  1.0
  N  N345  1  0.68689000  0.45606000  0.72073000  1.0
  N  N346  1  0.81310000  0.95606000  0.27927000  1.0
  N  N347  1  0.18689000  0.54394000  0.77926000  1.0
  N  N348  1  0.24403000  0.15386000  0.24733000  1.0
  N  N349  1  0.75597000  0.34613000  0.74734000  1.0
  N  N350  1  0.74403000  0.84613000  0.25267000  1.0
  N  N351  1  0.25597000  0.65387000  0.75266000  1.0
  N  N352  1  0.27354000  0.25921000  0.01723000  1.0
  N  N353  1  0.72648000  0.24079000  0.51723000  1.0
  N  N354  1  0.77352000  0.74080000  0.48278000  1.0
  N  N355  1  0.22647000  0.75920000  0.98277000  1.0
  N  N356  1  0.33197000  0.14445000  0.98870000  1.0
  N  N357  1  0.66804000  0.35555000  0.48869000  1.0
  N  N358  1  0.83196000  0.85555000  0.51131000  1.0
  N  N359  1  0.16804000  0.64445000  0.01130000  1.0
  N  N360  1  0.29627000  0.05297000  0.74370000  1.0
  N  N361  1  0.70374000  0.44703000  0.24370000  1.0
  N  N362  1  0.79627000  0.94703000  0.75631000  1.0
  N  N363  1  0.20373000  0.55297000  0.25631000  1.0
  N  N364  1  0.23340000  0.16764000  0.76553000  1.0
  N  N365  1  0.76661000  0.33236000  0.26553000  1.0
  N  N366  1  0.73339000  0.83236000  0.73447000  1.0
  N  N367  1  0.26661000  0.66764000  0.23447000  1.0
  N  N368  1  0.23132000  0.23874000  0.52392000  1.0
  N  N369  1  0.76868000  0.26126000  0.02392000  1.0
  N  N370  1  0.73132000  0.76127000  0.97608000  1.0
  N  N371  1  0.26868000  0.73874000  0.47608000  1.0
  N  N372  1  0.29142000  0.12167000  0.50333000  1.0
  N  N373  1  0.70857000  0.37832000  0.00333000  1.0
  N  N374  1  0.79143000  0.87832000  0.99667000  1.0
  N  N375  1  0.20858000  0.62167000  0.49668000  1.0
  N  N376  1  0.48203000  0.00725000  0.74639000  1.0
  N  N377  1  0.51797000  0.49275000  0.24639000  1.0
  N  N378  1  0.98203000  0.99275000  0.75361000  1.0
  N  N379  1  0.01797000  0.50725000  0.25361000  1.0
  N  N380  1  0.59470000  0.07566000  0.76547000  1.0
  N  N381  1  0.40530000  0.42434000  0.26547000  1.0
  N  N382  1  0.09470000  0.92434000  0.73453000  1.0
  N  N383  1  0.90530000  0.57566000  0.23453000  1.0
  N  N384  1  0.67634000  0.05300000  0.52940000  1.0
  N  N385  1  0.32366000  0.44700000  0.02940000  1.0
  N  N386  1  0.17634000  0.94700000  0.97060000  1.0
  N  N387  1  0.82366000  0.55301000  0.47060000  1.0
  N  N388  1  0.56549000  0.98255000  0.50932000  1.0
  N  N389  1  0.43451000  0.51745000  0.00931000  1.0
  N  N390  1  0.06549000  0.01745000  0.99069000  1.0
  N  N391  1  0.93451000  0.48255000  0.49068000  1.0
  O  O392  1  0.34917000  0.87462000  0.40888000  1.0
  O  O393  1  0.65084000  0.62538000  0.90888000  1.0
  O  O394  1  0.84917000  0.12538000  0.09112000  1.0
  O  O395  1  0.15083000  0.37462000  0.59112000  1.0
  O  O396  1  0.38011000  0.99055000  0.34115000  1.0
  O  O397  1  0.61989000  0.50945000  0.84115000  1.0
  O  O398  1  0.88011000  0.00945000  0.15885000  1.0
  O  O399  1  0.11988000  0.49056000  0.65885000  1.0
  O  O400  1  0.38279000  0.00126000  0.46108000  1.0
  O  O401  1  0.61721000  0.49875000  0.96108000  1.0
  O  O402  1  0.88279000  0.99874000  0.03893000  1.0
  O  O403  1  0.11721000  0.50125000  0.53891000  1.0
  O  O404  1  0.48680000  0.92600000  0.40444000  1.0
  O  O405  1  0.51321000  0.57400000  0.90443000  1.0
  O  O406  1  0.98679000  0.07399000  0.09557000  1.0
  O  O407  1  0.01320000  0.42601000  0.59556000  1.0
  O  O408  1  0.37691000  0.89993000  0.14647000  1.0
  O  O409  1  0.62309000  0.60006000  0.64647000  1.0
  O  O410  1  0.87691000  0.10006000  0.35353000  1.0
  O  O411  1  0.12309000  0.39994000  0.85353000  1.0
  O  O412  1  0.24772000  0.88717000  0.09019000  1.0
  O  O413  1  0.75227000  0.61283000  0.59019000  1.0
  O  O414  1  0.74773000  0.11283000  0.40981000  1.0
  O  O415  1  0.25227000  0.38717000  0.90981000  1.0
  O  O416  1  0.25544000  0.86493000  0.20803000  1.0
  O  O417  1  0.74455000  0.63507000  0.70803000  1.0
  O  O418  1  0.75545000  0.13508000  0.29198000  1.0
  O  O419  1  0.24455000  0.36492000  0.79197000  1.0
  O  O420  1  0.31574000  0.76810000  0.13295000  1.0
  O  O421  1  0.68425000  0.73189000  0.63295000  1.0
  O  O422  1  0.81574000  0.23190000  0.36705000  1.0
  O  O423  1  0.18425000  0.26811000  0.86706000  1.0
  O  O424  1  0.36650000  0.90256000  0.96537000  1.0
  O  O425  1  0.63350000  0.59745000  0.46537000  1.0
  O  O426  1  0.86650000  0.09745000  0.53463000  1.0
  O  O427  1  0.13351000  0.40255000  0.03463000  1.0
  O  O428  1  0.36225000  0.90731000  0.84472000  1.0
  O  O429  1  0.63775000  0.59269000  0.34471000  1.0
  O  O430  1  0.86225000  0.09270000  0.65529000  1.0
  O  O431  1  0.13775000  0.40731000  0.15528000  1.0
  O  O432  1  0.48944000  0.92240000  0.90540000  1.0
  O  O433  1  0.51056000  0.57760000  0.40540000  1.0
  O  O434  1  0.98944000  0.07761000  0.59460000  1.0
  O  O435  1  0.01056000  0.42240000  0.09460000  1.0
  O  O436  1  0.38943000  0.02913000  0.90616000  1.0
  O  O437  1  0.61057000  0.47087000  0.40617000  1.0
  O  O438  1  0.88944000  0.97087000  0.59384000  1.0
  O  O439  1  0.11057000  0.52913000  0.09383000  1.0
  O  O440  1  0.36752000  0.88584000  0.68820000  1.0
  O  O441  1  0.63248000  0.61416000  0.18819000  1.0
  O  O442  1  0.86753000  0.11416000  0.81181000  1.0
  O  O443  1  0.13247000  0.38584000  0.31181000  1.0
  O  O444  1  0.27126000  0.86146000  0.59998000  1.0
  O  O445  1  0.72876000  0.63856000  0.09997000  1.0
  O  O446  1  0.77125000  0.13855000  0.90003000  1.0
  O  O447  1  0.22875000  0.36144000  0.40002000  1.0
  O  O448  1  0.32780000  0.74993000  0.66288000  1.0
  O  O449  1  0.67220000  0.75008000  0.16289000  1.0
  O  O450  1  0.82780000  0.25008000  0.83712000  1.0
  O  O451  1  0.17220000  0.24993000  0.33711000  1.0
  O  O452  1  0.23139000  0.84112000  0.71406000  1.0
  O  O453  1  0.76861000  0.65889000  0.21407000  1.0
  O  O454  1  0.73139000  0.15889000  0.78594000  1.0
  O  O455  1  0.26860000  0.34112000  0.28593000  1.0
  O  O456  1  0.41919000  0.83182000  0.53103000  1.0
  O  O457  1  0.58081000  0.66818000  0.03103000  1.0
  O  O458  1  0.91920000  0.16818000  0.96897000  1.0
  O  O459  1  0.08081000  0.33181000  0.46897000  1.0
  O  O460  1  0.42078000  0.84225000  0.27163000  1.0
  O  O461  1  0.57922000  0.65774000  0.77163000  1.0
  O  O462  1  0.92078000  0.15774000  0.22837000  1.0
  O  O463  1  0.07922000  0.34226000  0.72836000  1.0
