# generated using pymatgen
data_ZnH28C30(BrN2)2
_symmetry_space_group_name_H-M   'P 1'
_cell_length_a   9.97600000
_cell_length_b   14.62290000
_cell_length_c   22.64170000
_cell_angle_alpha   90.00000000
_cell_angle_beta   89.99990000
_cell_angle_gamma   90.00000000
_symmetry_Int_Tables_number   1
_chemical_formula_structural   ZnH28C30(BrN2)2
_chemical_formula_sum   'Zn4 H112 C120 Br8 N16'
_cell_volume   3302.92705374
_cell_formula_units_Z   4
loop_
 _symmetry_equiv_pos_site_id
 _symmetry_equiv_pos_as_xyz
  1  'x, y, z'
loop_
 _atom_site_type_symbol
 _atom_site_label
 _atom_site_symmetry_multiplicity
 _atom_site_fract_x
 _atom_site_fract_y
 _atom_site_fract_z
 _atom_site_occupancy
  Zn  Zn0  1  0.25000000  0.67413000  0.25000000  1.0
  Zn  Zn1  1  0.25000000  0.82587000  0.75000000  1.0
  Zn  Zn2  1  0.75000000  0.32587000  0.75000000  1.0
  Zn  Zn3  1  0.75000000  0.17413000  0.25000000  1.0
  H  H4  1  0.14195000  0.74549000  0.13763000  1.0
  H  H5  1  0.14195000  0.75451000  0.86237000  1.0
  H  H6  1  0.35805000  0.75451000  0.63763000  1.0
  H  H7  1  0.35805000  0.74549000  0.36237000  1.0
  H  H8  1  0.85805000  0.25451000  0.86237000  1.0
  H  H9  1  0.85805000  0.24549000  0.13763000  1.0
  H  H10  1  0.64195000  0.24549000  0.36237000  1.0
  H  H11  1  0.64195000  0.25451000  0.63763000  1.0
  H  H12  1  0.85435000  0.95715000  0.17928000  1.0
  H  H13  1  0.85435000  0.54285000  0.82072000  1.0
  H  H14  1  0.64565000  0.54285000  0.67928000  1.0
  H  H15  1  0.64565000  0.95715000  0.32072000  1.0
  H  H16  1  0.14565000  0.04285000  0.82072000  1.0
  H  H17  1  0.14565000  0.45715000  0.17928000  1.0
  H  H18  1  0.35435000  0.45715000  0.32072000  1.0
  H  H19  1  0.35435000  0.04285000  0.67928000  1.0
  H  H20  1  0.05577000  0.79747000  0.31324000  1.0
  H  H21  1  0.05577000  0.70253000  0.68676000  1.0
  H  H22  1  0.44423000  0.70253000  0.81324000  1.0
  H  H23  1  0.44423000  0.79747000  0.18676000  1.0
  H  H24  1  0.94423000  0.20253000  0.68676000  1.0
  H  H25  1  0.94423000  0.29747000  0.31324000  1.0
  H  H26  1  0.55577000  0.29747000  0.18676000  1.0
  H  H27  1  0.55577000  0.20253000  0.81324000  1.0
  H  H28  1  0.89494000  0.92371000  0.28594000  1.0
  H  H29  1  0.89494000  0.57629000  0.71406000  1.0
  H  H30  1  0.60505000  0.57629000  0.78594000  1.0
  H  H31  1  0.60505000  0.92371000  0.21406000  1.0
  H  H32  1  0.10506000  0.07629000  0.71406000  1.0
  H  H33  1  0.10505000  0.42371000  0.28594000  1.0
  H  H34  1  0.39495000  0.42371000  0.21406000  1.0
  H  H35  1  0.39494000  0.07629000  0.78594000  1.0
  H  H36  1  0.15840000  0.88213000  0.95766000  1.0
  H  H37  1  0.15840000  0.61787000  0.04234000  1.0
  H  H38  1  0.34160000  0.61787000  0.45765000  1.0
  H  H39  1  0.34160000  0.88213000  0.54235000  1.0
  H  H40  1  0.84160000  0.11787000  0.04235000  1.0
  H  H41  1  0.84160000  0.38213000  0.95765000  1.0
  H  H42  1  0.65840000  0.38213000  0.54235000  1.0
  H  H43  1  0.65840000  0.11787000  0.45765000  1.0
  H  H44  1  0.76053000  0.87922000  0.08998000  1.0
  H  H45  1  0.76054000  0.62079000  0.91002000  1.0
  H  H46  1  0.73946000  0.62079000  0.58998000  1.0
  H  H47  1  0.73947000  0.87922000  0.41002000  1.0
  H  H48  1  0.23946000  0.12078000  0.91002000  1.0
  H  H49  1  0.23946000  0.37921000  0.08998000  1.0
  H  H50  1  0.26054000  0.37921000  0.41002000  1.0
  H  H51  1  0.26054000  0.12078000  0.58998000  1.0
  H  H52  1  0.73149000  0.89831000  0.98108000  1.0
  H  H53  1  0.73149000  0.60169000  0.01892000  1.0
  H  H54  1  0.76851000  0.60169000  0.48108000  1.0
  H  H55  1  0.76851000  0.89831000  0.51892000  1.0
  H  H56  1  0.26851000  0.10169000  0.01892000  1.0
  H  H57  1  0.26851000  0.39831000  0.98108000  1.0
  H  H58  1  0.23149000  0.39831000  0.51892000  1.0
  H  H59  1  0.23149000  0.10169000  0.48108000  1.0
  H  H60  1  0.18856000  0.86278000  0.06587000  1.0
  H  H61  1  0.18856000  0.63723000  0.93413000  1.0
  H  H62  1  0.31144000  0.63722000  0.56587000  1.0
  H  H63  1  0.31144000  0.86278000  0.43413000  1.0
  H  H64  1  0.81143000  0.13722000  0.93413000  1.0
  H  H65  1  0.81144000  0.36278000  0.06587000  1.0
  H  H66  1  0.68856000  0.36278000  0.43413000  1.0
  H  H67  1  0.68856000  0.13722000  0.56587000  1.0
  H  H68  1  0.02629000  0.90029000  0.87391000  1.0
  H  H69  1  0.02629000  0.59971000  0.12609000  1.0
  H  H70  1  0.47371000  0.59971000  0.37391000  1.0
  H  H71  1  0.47371000  0.90029000  0.62609000  1.0
  H  H72  1  0.97371000  0.09971000  0.12609000  1.0
  H  H73  1  0.97371000  0.40029000  0.87391000  1.0
  H  H74  1  0.52629000  0.40029000  0.62609000  1.0
  H  H75  1  0.52629000  0.09971000  0.37391000  1.0
  H  H76  1  0.92641000  0.90841000  0.79115000  1.0
  H  H77  1  0.92641000  0.59159000  0.20885000  1.0
  H  H78  1  0.57359000  0.59158000  0.29115000  1.0
  H  H79  1  0.57359000  0.90841000  0.70885000  1.0
  H  H80  1  0.07359000  0.09159000  0.20885000  1.0
  H  H81  1  0.07359000  0.40842000  0.79115000  1.0
  H  H82  1  0.42641000  0.40842000  0.70885000  1.0
  H  H83  1  0.42642000  0.09159000  0.29115000  1.0
  H  H84  1  0.80192000  0.76077000  0.80043000  1.0
  H  H85  1  0.80192000  0.73923000  0.19957000  1.0
  H  H86  1  0.69808000  0.73923000  0.30043000  1.0
  H  H87  1  0.69809000  0.76077000  0.69957000  1.0
  H  H88  1  0.19809000  0.23924000  0.19957000  1.0
  H  H89  1  0.19808000  0.26077000  0.80043000  1.0
  H  H90  1  0.30192000  0.26077000  0.69957000  1.0
  H  H91  1  0.30192000  0.23924000  0.30043000  1.0
  H  H92  1  0.64864000  0.82116000  0.80164000  1.0
  H  H93  1  0.64864000  0.67884000  0.19836000  1.0
  H  H94  1  0.85136000  0.67884000  0.30164000  1.0
  H  H95  1  0.85136000  0.82116000  0.69836000  1.0
  H  H96  1  0.35136000  0.17884000  0.19836000  1.0
  H  H97  1  0.35136000  0.32116000  0.80164000  1.0
  H  H98  1  0.14864000  0.32116000  0.69836000  1.0
  H  H99  1  0.14865000  0.17884000  0.30164000  1.0
  H  H100  1  0.64637000  0.99267000  0.80077000  1.0
  H  H101  1  0.64637000  0.50732000  0.19923000  1.0
  H  H102  1  0.85363000  0.50732000  0.30077000  1.0
  H  H103  1  0.85363000  0.99267000  0.69923000  1.0
  H  H104  1  0.35363000  0.00732000  0.19923000  1.0
  H  H105  1  0.35363000  0.49268000  0.80077000  1.0
  H  H106  1  0.14637000  0.49268000  0.69923000  1.0
  H  H107  1  0.14637000  0.00733000  0.30077000  1.0
  H  H108  1  0.79833000  0.05479000  0.80095000  1.0
  H  H109  1  0.79834000  0.44521000  0.19905000  1.0
  H  H110  1  0.70167000  0.44521000  0.30095000  1.0
  H  H111  1  0.70167000  0.05479000  0.69905000  1.0
  H  H112  1  0.20167000  0.94521000  0.19905000  1.0
  H  H113  1  0.20167000  0.55479000  0.80095000  1.0
  H  H114  1  0.29834000  0.55479000  0.69905000  1.0
  H  H115  1  0.29833000  0.94521000  0.30095000  1.0
  C  C116  1  0.08443000  0.78688000  0.16872000  1.0
  C  C117  1  0.08443000  0.71312000  0.83128000  1.0
  C  C118  1  0.41557000  0.71312000  0.66872000  1.0
  C  C119  1  0.41557000  0.78688000  0.33128000  1.0
  C  C120  1  0.91557000  0.21311000  0.83128000  1.0
  C  C121  1  0.91557000  0.28688000  0.16872000  1.0
  C  C122  1  0.58443000  0.28688000  0.33128000  1.0
  C  C123  1  0.58443000  0.21311000  0.66872000  1.0
  C  C124  1  0.92389000  0.90300000  0.19224000  1.0
  C  C125  1  0.92389000  0.59700000  0.80776000  1.0
  C  C126  1  0.57611000  0.59700000  0.69224000  1.0
  C  C127  1  0.57611000  0.90300000  0.30776000  1.0
  C  C128  1  0.07611000  0.09700000  0.80776000  1.0
  C  C129  1  0.07611000  0.40300000  0.19224000  1.0
  C  C130  1  0.42389000  0.40300000  0.30776000  1.0
  C  C131  1  0.42389000  0.09700000  0.69224000  1.0
  C  C132  1  0.99422000  0.85360000  0.14899000  1.0
  C  C133  1  0.99423000  0.64640000  0.85101000  1.0
  C  C134  1  0.50577000  0.64640000  0.64899000  1.0
  C  C135  1  0.50578000  0.85360000  0.35101000  1.0
  C  C136  1  0.00578000  0.14640000  0.85101000  1.0
  C  C137  1  0.00577000  0.35360000  0.14899000  1.0
  C  C138  1  0.49423000  0.35360000  0.35101000  1.0
  C  C139  1  0.49422000  0.14640000  0.64899000  1.0
  C  C140  1  0.03624000  0.81590000  0.26735000  1.0
  C  C141  1  0.03624000  0.68410000  0.73265000  1.0
  C  C142  1  0.46376000  0.68410000  0.76735000  1.0
  C  C143  1  0.46376000  0.81590000  0.23265000  1.0
  C  C144  1  0.96376000  0.18410000  0.73265000  1.0
  C  C145  1  0.96376000  0.31590000  0.26735000  1.0
  C  C146  1  0.53624000  0.31590000  0.23266000  1.0
  C  C147  1  0.53624000  0.18410000  0.76735000  1.0
  C  C148  1  0.94580000  0.88423000  0.25180000  1.0
  C  C149  1  0.94581000  0.61577000  0.74820000  1.0
  C  C150  1  0.55419000  0.61577000  0.75180000  1.0
  C  C151  1  0.55419000  0.88423000  0.24820000  1.0
  C  C152  1  0.05419000  0.11577000  0.74820000  1.0
  C  C153  1  0.05419000  0.38423000  0.25180000  1.0
  C  C154  1  0.44581000  0.38423000  0.24820000  1.0
  C  C155  1  0.44580000  0.11577000  0.75180000  1.0
  C  C156  1  0.97648000  0.86852000  0.08517000  1.0
  C  C157  1  0.97649000  0.63148000  0.91483000  1.0
  C  C158  1  0.52351000  0.63148000  0.58517000  1.0
  C  C159  1  0.52351000  0.86852000  0.41483000  1.0
  C  C160  1  0.02351000  0.13148000  0.91483000  1.0
  C  C161  1  0.02351000  0.36852000  0.08517000  1.0
  C  C162  1  0.47649000  0.36852000  0.41483000  1.0
  C  C163  1  0.47649000  0.13148000  0.58517000  1.0
  C  C164  1  0.94282000  0.89071000  0.96264000  1.0
  C  C165  1  0.94282000  0.60929000  0.03736000  1.0
  C  C166  1  0.55718000  0.60930000  0.46264000  1.0
  C  C167  1  0.55718000  0.89070000  0.53736000  1.0
  C  C168  1  0.05718000  0.10930000  0.03736000  1.0
  C  C169  1  0.05718000  0.39070000  0.96264000  1.0
  C  C170  1  0.44282000  0.39070000  0.53736000  1.0
  C  C171  1  0.44283000  0.10930000  0.46264000  1.0
  C  C172  1  0.07136000  0.88043000  0.98688000  1.0
  C  C173  1  0.07136000  0.61957000  0.01312000  1.0
  C  C174  1  0.42864000  0.61957000  0.48688000  1.0
  C  C175  1  0.42864000  0.88042000  0.51312000  1.0
  C  C176  1  0.92864000  0.11957000  0.01312000  1.0
  C  C177  1  0.92864000  0.38043000  0.98688000  1.0
  C  C178  1  0.57136000  0.38043000  0.51312000  1.0
  C  C179  1  0.57136000  0.11957000  0.48688000  1.0
  C  C180  1  0.84770000  0.88037000  0.06091000  1.0
  C  C181  1  0.84770000  0.61964000  0.93909000  1.0
  C  C182  1  0.65230000  0.61964000  0.56091000  1.0
  C  C183  1  0.65230000  0.88036000  0.43909000  1.0
  C  C184  1  0.15230000  0.11963000  0.93909000  1.0
  C  C185  1  0.15230000  0.38036000  0.06091000  1.0
  C  C186  1  0.34770000  0.38036000  0.43909000  1.0
  C  C187  1  0.34770000  0.11963000  0.56091000  1.0
  C  C188  1  0.83091000  0.89065000  0.00041000  1.0
  C  C189  1  0.83091000  0.60935000  0.99958000  1.0
  C  C190  1  0.66909000  0.60935000  0.50042000  1.0
  C  C191  1  0.66909000  0.89065000  0.49958000  1.0
  C  C192  1  0.16909000  0.10935000  0.99958000  1.0
  C  C193  1  0.16909000  0.39065000  0.00041000  1.0
  C  C194  1  0.33091000  0.39065000  0.49959000  1.0
  C  C195  1  0.33091000  0.10935000  0.50041000  1.0
  C  C196  1  0.08804000  0.86894000  0.04739000  1.0
  C  C197  1  0.08804000  0.63106000  0.95261000  1.0
  C  C198  1  0.41196000  0.63106000  0.54739000  1.0
  C  C199  1  0.41196000  0.86894000  0.45261000  1.0
  C  C200  1  0.91196000  0.13106000  0.95261000  1.0
  C  C201  1  0.91196000  0.36894000  0.04739000  1.0
  C  C202  1  0.58804000  0.36894000  0.45261000  1.0
  C  C203  1  0.58804000  0.13106000  0.54739000  1.0
  C  C204  1  0.93014000  0.89989000  0.89847000  1.0
  C  C205  1  0.93014000  0.60011000  0.10153000  1.0
  C  C206  1  0.56986000  0.60011000  0.39847000  1.0
  C  C207  1  0.56986000  0.89989000  0.60153000  1.0
  C  C208  1  0.06986000  0.10011000  0.10153000  1.0
  C  C209  1  0.06986000  0.39989000  0.89847000  1.0
  C  C210  1  0.43014000  0.39989000  0.60153000  1.0
  C  C211  1  0.43014000  0.10011000  0.39847000  1.0
  C  C212  1  0.82135000  0.90789000  0.80760000  1.0
  C  C213  1  0.82135000  0.59211000  0.19240000  1.0
  C  C214  1  0.67865000  0.59211000  0.30760000  1.0
  C  C215  1  0.67865000  0.90789000  0.69240000  1.0
  C  C216  1  0.17866000  0.09211000  0.19240000  1.0
  C  C217  1  0.17865000  0.40789000  0.80760000  1.0
  C  C218  1  0.32135000  0.40789000  0.69240000  1.0
  C  C219  1  0.32135000  0.09211000  0.30760000  1.0
  C  C220  1  0.75128000  0.82216000  0.78368000  1.0
  C  C221  1  0.75128000  0.67784000  0.21632000  1.0
  C  C222  1  0.74872000  0.67784000  0.28368000  1.0
  C  C223  1  0.74872000  0.82216000  0.71632000  1.0
  C  C224  1  0.24872000  0.17784000  0.21632000  1.0
  C  C225  1  0.24872000  0.32216000  0.78368000  1.0
  C  C226  1  0.25128000  0.32216000  0.71632000  1.0
  C  C227  1  0.25128000  0.17784000  0.28368000  1.0
  C  C228  1  0.74984000  0.99291000  0.78377000  1.0
  C  C229  1  0.74984000  0.50708000  0.21623000  1.0
  C  C230  1  0.75016000  0.50709000  0.28377000  1.0
  C  C231  1  0.75016000  0.99291000  0.71623000  1.0
  C  C232  1  0.25016000  0.00709000  0.21623000  1.0
  C  C233  1  0.25016000  0.49292000  0.78377000  1.0
  C  C234  1  0.24984000  0.49292000  0.71623000  1.0
  C  C235  1  0.24984000  0.00709000  0.28377000  1.0
  Br  Br236  1  0.17347000  0.59809000  0.33634000  1.0
  Br  Br237  1  0.17347000  0.90191000  0.66366000  1.0
  Br  Br238  1  0.32653000  0.90191000  0.83634000  1.0
  Br  Br239  1  0.32653000  0.59809000  0.16366000  1.0
  Br  Br240  1  0.82653000  0.40191000  0.66366000  1.0
  Br  Br241  1  0.82653000  0.09809000  0.33634000  1.0
  Br  Br242  1  0.67347000  0.09809000  0.16366000  1.0
  Br  Br243  1  0.67347000  0.40191000  0.83634000  1.0
  N  N244  1  0.10424000  0.76823000  0.22615000  1.0
  N  N245  1  0.10425000  0.73177000  0.77385000  1.0
  N  N246  1  0.39575000  0.73177000  0.72615000  1.0
  N  N247  1  0.39575000  0.76823000  0.27385000  1.0
  N  N248  1  0.89575000  0.23177000  0.77385000  1.0
  N  N249  1  0.89575000  0.26823000  0.22615000  1.0
  N  N250  1  0.60425000  0.26823000  0.27386000  1.0
  N  N251  1  0.60425000  0.23177000  0.72615000  1.0
  N  N252  1  0.81763000  0.90553000  0.87160000  1.0
  N  N253  1  0.81764000  0.59447000  0.12840000  1.0
  N  N254  1  0.68236000  0.59447000  0.37160000  1.0
  N  N255  1  0.68236000  0.90553000  0.62840000  1.0
  N  N256  1  0.18237000  0.09447000  0.12840000  1.0
  N  N257  1  0.18236000  0.40553000  0.87160000  1.0
  N  N258  1  0.31764000  0.40553000  0.62840000  1.0
  N  N259  1  0.31764000  0.09447000  0.37160000  1.0
