# generated using pymatgen
data_LaH28C42S3NO7
_symmetry_space_group_name_H-M   'P 1'
_cell_length_a   8.16601000
_cell_length_b   19.94050000
_cell_length_c   19.94060000
_cell_angle_alpha   73.64170000
_cell_angle_beta   81.88260000
_cell_angle_gamma   81.88260000
_symmetry_Int_Tables_number   1
_chemical_formula_structural   LaH28C42S3NO7
_chemical_formula_sum   'La2 H56 C84 S6 N2 O14'
_cell_volume   3066.72179562
_cell_formula_units_Z   2
loop_
 _symmetry_equiv_pos_site_id
 _symmetry_equiv_pos_as_xyz
  1  'x, y, z'
loop_
 _atom_site_type_symbol
 _atom_site_label
 _atom_site_symmetry_multiplicity
 _atom_site_fract_x
 _atom_site_fract_y
 _atom_site_fract_z
 _atom_site_occupancy
  La  La0  1  0.72839000  0.98496000  0.00935000  1.0
  La  La1  1  0.22839000  0.00935000  0.98496000  1.0
  H  H2  1  0.21654000  0.58603000  0.57626000  1.0
  H  H3  1  0.71654000  0.57626000  0.58604000  1.0
  H  H4  1  0.89675000  0.55233000  0.76940000  1.0
  H  H5  1  0.39675000  0.76940000  0.55233000  1.0
  H  H6  1  0.84985000  0.75127000  0.61506000  1.0
  H  H7  1  0.34985000  0.61507000  0.75127000  1.0
  H  H8  1  0.02519000  0.73451000  0.01729000  1.0
  H  H9  1  0.52519000  0.01729000  0.73451000  1.0
  H  H10  1  0.67392000  0.78577000  0.67512000  1.0
  H  H11  1  0.17392000  0.67512000  0.78577000  1.0
  H  H12  1  0.45732000  0.82905000  0.75393000  1.0
  H  H13  1  0.95732000  0.75393000  0.82905000  1.0
  H  H14  1  0.76044000  0.59295000  0.83740000  1.0
  H  H15  1  0.26044000  0.83740000  0.59295000  1.0
  H  H16  1  0.23539000  0.63986000  0.47435000  1.0
  H  H17  1  0.73538000  0.47435000  0.63987000  1.0
  H  H18  1  0.54332000  0.63677000  0.91631000  1.0
  H  H19  1  0.04331000  0.91631000  0.63677000  1.0
  H  H20  1  0.71755000  0.15404000  0.75522000  1.0
  H  H21  1  0.21755000  0.75523000  0.15405000  1.0
  H  H22  1  0.59024000  0.27736000  0.67900000  1.0
  H  H23  1  0.09023000  0.67900000  0.27736000  1.0
  H  H24  1  0.17903000  0.00445000  0.18363000  1.0
  H  H25  1  0.67903000  0.18363000  0.00445000  1.0
  H  H26  1  0.05023000  0.94636000  0.31372000  1.0
  H  H27  1  0.55024000  0.31372000  0.94637000  1.0
  H  H28  1  0.26794000  0.65975000  0.95767000  1.0
  H  H29  1  0.76794000  0.95767000  0.65975000  1.0
  H  H30  1  0.33303000  0.71924000  0.36281000  1.0
  H  H31  1  0.83303000  0.36281000  0.71924000  1.0
  H  H32  1  0.97231000  0.81678000  0.54203000  1.0
  H  H33  1  0.47231000  0.54203000  0.81678000  1.0
  H  H34  1  0.89403000  0.08691000  0.10458000  1.0
  H  H35  1  0.39403000  0.10457000  0.08691000  1.0
  H  H36  1  0.98763000  0.11327000  0.18847000  1.0
  H  H37  1  0.48763000  0.18846000  0.11327000  1.0
  H  H38  1  0.92476000  0.06383000  0.27584000  1.0
  H  H39  1  0.42475000  0.27584000  0.06383000  1.0
  H  H40  1  0.83201000  0.15170000  0.24340000  1.0
  H  H41  1  0.33201000  0.24340000  0.15170000  1.0
  H  H42  1  0.52955000  0.03337000  0.22150000  1.0
  H  H43  1  0.02955000  0.22150000  0.03337000  1.0
  H  H44  1  0.53896000  0.09863000  0.26690000  1.0
  H  H45  1  0.03896000  0.26690000  0.09863000  1.0
  H  H46  1  0.64634000  0.01272000  0.29541000  1.0
  H  H47  1  0.14635000  0.29541000  0.01272000  1.0
  H  H48  1  0.06824000  0.89578000  0.43031000  1.0
  H  H49  1  0.56824000  0.43031000  0.89578000  1.0
  H  H50  1  0.09569000  0.48338000  0.80973000  1.0
  H  H51  1  0.59569000  0.80973000  0.48339000  1.0
  H  H52  1  0.24113000  0.36550000  0.85027000  1.0
  H  H53  1  0.74113000  0.85027000  0.36550000  1.0
  H  H54  1  0.36600000  0.35612000  0.63568000  1.0
  H  H55  1  0.86598000  0.63569000  0.35612000  1.0
  H  H56  1  0.21876000  0.47402000  0.59498000  1.0
  H  H57  1  0.71875000  0.59499000  0.47402000  1.0
  C  C58  1  0.03510000  0.67373000  0.58607000  1.0
  C  C59  1  0.53511000  0.58608000  0.67373000  1.0
  C  C60  1  0.11113000  0.60470000  0.60864000  1.0
  C  C61  1  0.61114000  0.60864000  0.60470000  1.0
  C  C62  1  0.06285000  0.56073000  0.67482000  1.0
  C  C63  1  0.56285000  0.67482000  0.56073000  1.0
  C  C64  1  0.93762000  0.58738000  0.71914000  1.0
  C  C65  1  0.43762000  0.71914000  0.58738000  1.0
  C  C66  1  0.86134000  0.65654000  0.69946000  1.0
  C  C67  1  0.36134000  0.69946000  0.65654000  1.0
  C  C68  1  0.91013000  0.69811000  0.63208000  1.0
  C  C69  1  0.41013000  0.63208000  0.69811000  1.0
  C  C70  1  0.11223000  0.82763000  0.94268000  1.0
  C  C71  1  0.61223000  0.94268000  0.82763000  1.0
  C  C72  1  0.11504000  0.75596000  0.97341000  1.0
  C  C73  1  0.61504000  0.97341000  0.75595000  1.0
  C  C74  1  0.34068000  0.75868000  0.88672000  1.0
  C  C75  1  0.84068000  0.88672000  0.75868000  1.0
  C  C76  1  0.64721000  0.75191000  0.72780000  1.0
  C  C77  1  0.14721000  0.72780000  0.75191000  1.0
  C  C78  1  0.52380000  0.77704000  0.77269000  1.0
  C  C79  1  0.02380000  0.77269000  0.77704000  1.0
  C  C80  1  0.73366000  0.68438000  0.74814000  1.0
  C  C81  1  0.23366000  0.74814000  0.68438000  1.0
  C  C82  1  0.47868000  0.73551000  0.84085000  1.0
  C  C83  1  0.97868000  0.84085000  0.73551000  1.0
  C  C84  1  0.69370000  0.64456000  0.81762000  1.0
  C  C85  1  0.19369000  0.81762000  0.64456000  1.0
  C  C86  1  0.09219000  0.72108000  0.51764000  1.0
  C  C87  1  0.59219000  0.51764000  0.72108000  1.0
  C  C88  1  0.14612000  0.48875000  0.69893000  1.0
  C  C89  1  0.64611000  0.69893000  0.48876000  1.0
  C  C90  1  0.19721000  0.69599000  0.46555000  1.0
  C  C91  1  0.69721000  0.46555000  0.69599000  1.0
  C  C92  1  0.31647000  0.35168000  0.74624000  1.0
  C  C93  1  0.81646000  0.74625000  0.35168000  1.0
  C  C94  1  0.41040000  0.28310000  0.76987000  1.0
  C  C95  1  0.91039000  0.76987000  0.28310000  1.0
  C  C96  1  0.56945000  0.66914000  0.86273000  1.0
  C  C97  1  0.06944000  0.86274000  0.66914000  1.0
  C  C98  1  0.61130000  0.18680000  0.77272000  1.0
  C  C99  1  0.11130000  0.77272000  0.18680000  1.0
  C  C100  1  0.53065000  0.16733000  0.84021000  1.0
  C  C101  1  0.03065000  0.84021000  0.16734000  1.0
  C  C102  1  0.54242000  0.25198000  0.73262000  1.0
  C  C103  1  0.04241000  0.73263000  0.25198000  1.0
  C  C104  1  0.20608000  0.81383000  0.38701000  1.0
  C  C105  1  0.70608000  0.38701000  0.81384000  1.0
  C  C106  1  0.23200000  0.95663000  0.21892000  1.0
  C  C107  1  0.73200000  0.21892000  0.95663000  1.0
  C  C108  1  0.25204000  0.86174000  0.31894000  1.0
  C  C109  1  0.75204000  0.31894000  0.86174000  1.0
  C  C110  1  0.16491000  0.92572000  0.28800000  1.0
  C  C111  1  0.66491000  0.28800000  0.92572000  1.0
  C  C112  1  0.37226000  0.91700000  0.19737000  1.0
  C  C113  1  0.87226000  0.19737000  0.91699000  1.0
  C  C114  1  0.24523000  0.71687000  0.94205000  1.0
  C  C115  1  0.74523000  0.94205000  0.71687000  1.0
  C  C116  1  0.25376000  0.74096000  0.40216000  1.0
  C  C117  1  0.75376000  0.40216000  0.74096000  1.0
  C  C118  1  0.04847000  0.79423000  0.50273000  1.0
  C  C119  1  0.54847000  0.50273000  0.79423000  1.0
  C  C120  1  0.77430000  0.07224000  0.13470000  1.0
  C  C121  1  0.27430000  0.13470000  0.07224000  1.0
  C  C122  1  0.88156000  0.10276000  0.22887000  1.0
  C  C123  1  0.38156000  0.22887000  0.10276000  1.0
  C  C124  1  0.60884000  0.05424000  0.24906000  1.0
  C  C125  1  0.10884000  0.24906000  0.05424000  1.0
  C  C126  1  0.10371000  0.83937000  0.43935000  1.0
  C  C127  1  0.60371000  0.43935000  0.83937000  1.0
  C  C128  1  0.47238000  0.93229000  0.12877000  1.0
  C  C129  1  0.97238000  0.12877000  0.93229000  1.0
  C  C130  1  0.15221000  0.45551000  0.77096000  1.0
  C  C131  1  0.65222000  0.77096000  0.45551000  1.0
  C  C132  1  0.23462000  0.38877000  0.79407000  1.0
  C  C133  1  0.73461000  0.79407000  0.38877000  1.0
  C  C134  1  0.30796000  0.38423000  0.67410000  1.0
  C  C135  1  0.80795000  0.67410000  0.38423000  1.0
  C  C136  1  0.22481000  0.45097000  0.65121000  1.0
  C  C137  1  0.72480000  0.65121000  0.45097000  1.0
  C  C138  1  0.57444000  0.10404000  0.89606000  1.0
  C  C139  1  0.07444000  0.89606000  0.10404000  1.0
  C  C140  1  0.99748000  0.88309000  0.96430000  1.0
  C  C141  1  0.49748000  0.96430000  0.88308000  1.0
  S  S142  1  0.36960000  0.22937000  0.85343000  1.0
  S  S143  1  0.86959000  0.85343000  0.22937000  1.0
  S  S144  1  0.42134000  0.84204000  0.26251000  1.0
  S  S145  1  0.92134000  0.26251000  0.84205000  1.0
  S  S146  1  0.26860000  0.84629000  0.87496000  1.0
  S  S147  1  0.76860000  0.87496000  0.84629000  1.0
  N  N148  1  0.75521000  0.07656000  0.20166000  1.0
  N  N149  1  0.25520000  0.20165000  0.07656000  1.0
  O  O150  1  0.66499000  0.05380000  0.10783000  1.0
  O  O151  1  0.16499000  0.10783000  0.05380000  1.0
  O  O152  1  0.61124000  0.89702000  0.12006000  1.0
  O  O153  1  0.11124000  0.12006000  0.89702000  1.0
  O  O154  1  0.41720000  0.98451000  0.07944000  1.0
  O  O155  1  0.91720000  0.07944000  0.98451000  1.0
  O  O156  1  0.47977000  0.08956000  0.95501000  1.0
  O  O157  1  0.97978000  0.95502000  0.08957000  1.0
  O  O158  1  0.70806000  0.06556000  0.88545000  1.0
  O  O159  1  0.20807000  0.88545000  0.06556000  1.0
  O  O160  1  0.02823000  0.94814000  0.94087000  1.0
  O  O161  1  0.52823000  0.94087000  0.94814000  1.0
  O  O162  1  0.86830000  0.86583000  0.00584000  1.0
  O  O163  1  0.36830000  0.00583000  0.86583000  1.0
