# generated using pymatgen
data_ZnH26C30S(NO2)4
_symmetry_space_group_name_H-M   'P 1'
_cell_length_a   10.13960000
_cell_length_b   11.38130000
_cell_length_c   13.65680000
_cell_angle_alpha   74.22560000
_cell_angle_beta   72.08120000
_cell_angle_gamma   71.75390000
_symmetry_Int_Tables_number   1
_chemical_formula_structural   ZnH26C30S(NO2)4
_chemical_formula_sum   'Zn2 H52 C60 S2 N8 O16'
_cell_volume   1397.05178379
_cell_formula_units_Z   2
loop_
 _symmetry_equiv_pos_site_id
 _symmetry_equiv_pos_as_xyz
  1  'x, y, z'
loop_
 _atom_site_type_symbol
 _atom_site_label
 _atom_site_symmetry_multiplicity
 _atom_site_fract_x
 _atom_site_fract_y
 _atom_site_fract_z
 _atom_site_occupancy
  Zn  Zn0  1  0.35424000  0.25352000  0.46927000  1.0
  Zn  Zn1  1  0.64577000  0.74648000  0.53074000  1.0
  H  H2  1  0.56028000  0.15669000  0.91117000  1.0
  H  H3  1  0.43974000  0.84331000  0.08884000  1.0
  H  H4  1  0.98778000  0.21689000  0.36885000  1.0
  H  H5  1  0.01222000  0.78311000  0.63115000  1.0
  H  H6  1  0.39993000  0.06607000  0.66644000  1.0
  H  H7  1  0.60007000  0.93393000  0.33357000  1.0
  H  H8  1  0.47634000  0.05805000  0.82401000  1.0
  H  H9  1  0.52367000  0.94193000  0.17600000  1.0
  H  H10  1  0.49720000  0.44740000  0.70321000  1.0
  H  H11  1  0.50282000  0.55258000  0.29680000  1.0
  H  H12  1  0.41378000  0.44079000  0.55216000  1.0
  H  H13  1  0.58624000  0.55921000  0.44784000  1.0
  H  H14  1  0.61127000  0.37668000  0.01875000  1.0
  H  H15  1  0.38875000  0.62330000  0.98127000  1.0
  H  H16  1  0.61672000  0.21461000  0.03562000  1.0
  H  H17  1  0.38326000  0.78539000  0.96439000  1.0
  H  H18  1  0.43330000  0.35721000  0.17235000  1.0
  H  H19  1  0.56669000  0.64280000  0.82765000  1.0
  H  H20  1  0.33120000  0.41117000  0.07865000  1.0
  H  H21  1  0.66880000  0.58883000  0.92133000  1.0
  H  H22  1  0.43009000  0.13751000  0.18906000  1.0
  H  H23  1  0.56991000  0.86249000  0.81094000  1.0
  H  H24  1  0.34508000  0.17925000  0.08426000  1.0
  H  H25  1  0.65491000  0.82076000  0.91574000  1.0
  H  H26  1  0.21072000  0.27084000  0.29384000  1.0
  H  H27  1  0.78927000  0.72915000  0.70616000  1.0
  H  H28  1  0.12996000  0.31079000  0.18845000  1.0
  H  H29  1  0.87004000  0.68921000  0.81155000  1.0
  H  H30  1  0.77582000  0.17257000  0.48862000  1.0
  H  H31  1  0.22418000  0.82742000  0.51137000  1.0
  H  H32  1  0.62214000  0.02064000  0.56343000  1.0
  H  H33  1  0.37786000  0.97936000  0.43657000  1.0
  H  H34  1  0.91274000  0.75707000  0.39358000  1.0
  H  H35  1  0.08726000  0.24292000  0.60642000  1.0
  H  H36  1  0.07883000  0.89662000  0.31070000  1.0
  H  H37  1  0.92117000  0.10337000  0.68930000  1.0
  H  H38  1  0.94869000  0.45889000  0.36835000  1.0
  H  H39  1  0.05131000  0.54110000  0.63164000  1.0
  H  H40  1  0.83589000  0.56658000  0.21676000  1.0
  H  H41  1  0.16410000  0.43341000  0.78323000  1.0
  H  H42  1  0.12449000  0.81044000  0.10462000  1.0
  H  H43  1  0.87551000  0.18956000  0.89536000  1.0
  H  H44  1  0.23392000  0.70302000  0.25688000  1.0
  H  H45  1  0.76609000  0.29698000  0.74311000  1.0
  H  H46  1  0.07704000  0.57561000  0.92183000  1.0
  H  H47  1  0.92294000  0.42441000  0.07816000  1.0
  H  H48  1  0.29075000  0.58348000  0.77043000  1.0
  H  H49  1  0.70923000  0.41654000  0.22956000  1.0
  H  H50  1  0.25370000  0.96582000  0.78410000  1.0
  H  H51  1  0.74631000  0.03419000  0.21590000  1.0
  H  H52  1  0.03566000  0.96281000  0.92948000  1.0
  H  H53  1  0.96435000  0.03720000  0.07053000  1.0
  C  C54  1  0.41992000  0.14953000  0.67811000  1.0
  C  C55  1  0.58009000  0.85047000  0.32189000  1.0
  C  C56  1  0.46407000  0.14477000  0.76550000  1.0
  C  C57  1  0.53594000  0.85522000  0.23450000  1.0
  C  C58  1  0.49095000  0.25261000  0.77858000  1.0
  C  C59  1  0.50906000  0.74738000  0.22144000  1.0
  C  C60  1  0.47487000  0.36162000  0.69965000  1.0
  C  C61  1  0.52514000  0.63837000  0.30036000  1.0
  C  C62  1  0.43033000  0.35799000  0.61431000  1.0
  C  C63  1  0.56968000  0.64201000  0.38569000  1.0
  C  C64  1  0.51547000  0.34520000  0.91481000  1.0
  C  C65  1  0.48453000  0.65481000  0.08520000  1.0
  C  C66  1  0.55007000  0.31149000  0.02042000  1.0
  C  C67  1  0.44993000  0.68851000  0.97959000  1.0
  C  C68  1  0.41161000  0.33018000  0.10870000  1.0
  C  C69  1  0.58838000  0.66982000  0.89130000  1.0
  C  C70  1  0.35411000  0.21283000  0.14961000  1.0
  C  C71  1  0.64589000  0.78717000  0.85039000  1.0
  C  C72  1  0.20828000  0.23593000  0.22669000  1.0
  C  C73  1  0.79171000  0.76406000  0.77332000  1.0
  C  C74  1  0.15164000  0.11932000  0.26604000  1.0
  C  C75  1  0.84836000  0.88068000  0.73395000  1.0
  C  C76  1  0.94051000  0.04774000  0.39071000  1.0
  C  C77  1  0.05949000  0.95225000  0.60928000  1.0
  C  C78  1  0.81038000  0.08142000  0.46478000  1.0
  C  C79  1  0.18963000  0.91858000  0.53521000  1.0
  C  C80  1  0.72377000  0.99774000  0.50658000  1.0
  C  C81  1  0.27623000  0.00226000  0.49341000  1.0
  C  C82  1  0.88558000  0.85054000  0.41176000  1.0
  C  C83  1  0.11442000  0.14945000  0.58824000  1.0
  C  C84  1  0.97880000  0.92742000  0.36591000  1.0
  C  C85  1  0.02120000  0.07258000  0.63409000  1.0
  C  C86  1  0.17974000  0.50189000  0.40410000  1.0
  C  C87  1  0.82024000  0.49812000  0.59589000  1.0
  C  C88  1  0.10168000  0.57196000  0.31911000  1.0
  C  C89  1  0.89833000  0.42803000  0.68089000  1.0
  C  C90  1  0.98793000  0.53443000  0.30924000  1.0
  C  C91  1  0.01206000  0.46557000  0.69076000  1.0
  C  C92  1  0.92414000  0.59467000  0.22572000  1.0
  C  C93  1  0.07585000  0.40533000  0.77428000  1.0
  C  C94  1  0.97525000  0.69247000  0.15193000  1.0
  C  C95  1  0.02475000  0.30752000  0.84806000  1.0
  C  C96  1  0.08593000  0.73348000  0.16215000  1.0
  C  C97  1  0.91407000  0.26651000  0.83784000  1.0
  C  C98  1  0.14789000  0.67318000  0.24648000  1.0
  C  C99  1  0.85212000  0.32681000  0.75352000  1.0
  C  C100  1  0.04458000  0.76929000  0.93383000  1.0
  C  C101  1  0.95540000  0.23071000  0.06617000  1.0
  C  C102  1  0.11418000  0.66162000  0.88998000  1.0
  C  C103  1  0.88581000  0.33839000  0.11001000  1.0
  C  C104  1  0.23319000  0.66588000  0.80557000  1.0
  C  C105  1  0.76680000  0.33413000  0.19442000  1.0
  C  C106  1  0.28506000  0.77462000  0.76779000  1.0
  C  C107  1  0.71494000  0.22539000  0.23221000  1.0
  C  C108  1  0.21387000  0.88132000  0.81300000  1.0
  C  C109  1  0.78613000  0.11869000  0.18699000  1.0
  C  C110  1  0.09223000  0.87960000  0.89522000  1.0
  C  C111  1  0.90777000  0.12040000  0.10478000  1.0
  C  C112  1  0.41796000  0.77548000  0.68078000  1.0
  C  C113  1  0.58203000  0.22453000  0.31923000  1.0
  S  S114  1  0.89500000  0.76485000  0.04378000  1.0
  S  S115  1  0.10499000  0.23516000  0.95622000  1.0
  N  N116  1  0.40244000  0.25463000  0.60304000  1.0
  N  N117  1  0.59757000  0.74538000  0.39696000  1.0
  N  N118  1  0.53262000  0.24499000  0.86855000  1.0
  N  N119  1  0.46740000  0.75500000  0.13146000  1.0
  N  N120  1  0.02481000  0.13282000  0.34470000  1.0
  N  N121  1  0.97519000  0.86718000  0.65529000  1.0
  N  N122  1  0.75886000  0.88403000  0.48027000  1.0
  N  N123  1  0.24114000  0.11596000  0.51973000  1.0
  O  O124  1  0.47089000  0.45522000  0.87299000  1.0
  O  O125  1  0.52912000  0.54479000  0.12701000  1.0
  O  O126  1  0.21067000  0.02147000  0.23129000  1.0
  O  O127  1  0.78933000  0.97853000  0.76870000  1.0
  O  O128  1  0.23008000  0.55885000  0.44409000  1.0
  O  O129  1  0.76992000  0.44115000  0.55591000  1.0
  O  O130  1  0.18905000  0.38137000  0.42567000  1.0
  O  O131  1  0.81093000  0.61864000  0.57434000  1.0
  O  O132  1  0.81962000  0.67932000  0.03616000  1.0
  O  O133  1  0.18037000  0.32069000  0.96383000  1.0
  O  O134  1  0.81793000  0.89435000  0.05287000  1.0
  O  O135  1  0.18207000  0.10564000  0.94713000  1.0
  O  O136  1  0.47407000  0.67964000  0.63604000  1.0
  O  O137  1  0.52592000  0.32038000  0.36396000  1.0
  O  O138  1  0.47290000  0.86915000  0.65316000  1.0
  O  O139  1  0.52709000  0.13085000  0.34684000  1.0
