# generated using pymatgen
data_CoH12C17N3O4
_symmetry_space_group_name_H-M   'P 1'
_cell_length_a   10.12040000
_cell_length_b   14.21350000
_cell_length_c   15.21986328
_cell_angle_alpha   62.64727760
_cell_angle_beta   81.26326517
_cell_angle_gamma   88.48370000
_symmetry_Int_Tables_number   1
_chemical_formula_structural   CoH12C17N3O4
_chemical_formula_sum   'Co4 H48 C68 N12 O16'
_cell_volume   1919.63811077
_cell_formula_units_Z   4
loop_
 _symmetry_equiv_pos_site_id
 _symmetry_equiv_pos_as_xyz
  1  'x, y, z'
loop_
 _atom_site_type_symbol
 _atom_site_label
 _atom_site_symmetry_multiplicity
 _atom_site_fract_x
 _atom_site_fract_y
 _atom_site_fract_z
 _atom_site_occupancy
  Co  Co0  1  0.52000000  0.47988000  0.14790000  1.0
  Co  Co1  1  0.98319000  0.13056000  0.85223000  1.0
  Co  Co2  1  0.46661000  0.52330000  0.85631000  1.0
  Co  Co3  1  0.01729000  0.87082000  0.14783000  1.0
  H  H4  1  0.99724000  0.46771000  0.18775000  1.0
  H  H5  1  0.50166000  0.15367000  0.81449000  1.0
  H  H6  1  0.02189000  0.54051000  0.80848000  1.0
  H  H7  1  0.49599000  0.84532000  0.18740000  1.0
  H  H8  1  0.27684000  0.67661000  0.93264000  1.0
  H  H9  1  0.21972000  0.10436000  0.07441000  1.0
  H  H10  1  0.71789000  0.34193000  0.04972000  1.0
  H  H11  1  0.78030000  0.88991000  0.93017000  1.0
  H  H12  1  0.85304000  0.69033000  0.92028000  1.0
  H  H13  1  0.64415000  0.11001000  0.08180000  1.0
  H  H14  1  0.13431000  0.29761000  0.08216000  1.0
  H  H15  1  0.35646000  0.88468000  0.92036000  1.0
  H  H16  1  0.20557000  0.78553000  0.78008000  1.0
  H  H17  1  0.29203000  0.07179000  0.22488000  1.0
  H  H18  1  0.77351000  0.21390000  0.20378000  1.0
  H  H19  1  0.71087000  0.92464000  0.77938000  1.0
  H  H20  1  0.05056000  0.74868000  0.76035000  1.0
  H  H21  1  0.44596000  0.00810000  0.24458000  1.0
  H  H22  1  0.91542000  0.25430000  0.23493000  1.0
  H  H23  1  0.55570000  0.98571000  0.75881000  1.0
  H  H24  1  0.95608000  0.91609000  0.65575000  1.0
  H  H25  1  0.53747000  0.07014000  0.35115000  1.0
  H  H26  1  0.02989000  0.09541000  0.33666000  1.0
  H  H27  1  0.45909000  0.92424000  0.65634000  1.0
  H  H28  1  0.88772000  0.09705000  0.67865000  1.0
  H  H29  1  0.61017000  0.27113000  0.32558000  1.0
  H  H30  1  0.10949000  0.91367000  0.31840000  1.0
  H  H31  1  0.39890000  0.72435000  0.67473000  1.0
  H  H32  1  0.09775000  0.89810000  0.91126000  1.0
  H  H33  1  0.40745000  0.30763000  0.08958000  1.0
  H  H34  1  0.89360000  0.09948000  0.08473000  1.0
  H  H35  1  0.61005000  0.68584000  0.90750000  1.0
  H  H36  1  0.60763000  0.63850000  0.20349000  1.0
  H  H37  1  0.88808000  0.34308000  0.79928000  1.0
  H  H38  1  0.38953000  0.35844000  0.80285000  1.0
  H  H39  1  0.11075000  0.65831000  0.20145000  1.0
  H  H40  1  0.61429000  0.64929000  0.35869000  1.0
  H  H41  1  0.88171000  0.50916000  0.64652000  1.0
  H  H42  1  0.38169000  0.34892000  0.64739000  1.0
  H  H43  1  0.11685000  0.49248000  0.35432000  1.0
  H  H44  1  0.37346000  0.35315000  0.51597000  1.0
  H  H45  1  0.12773000  0.36585000  0.48444000  1.0
  H  H46  1  0.62777000  0.64225000  0.49151000  1.0
  H  H47  1  0.87306000  0.63687000  0.51642000  1.0
  H  H48  1  0.36857000  0.36152000  0.35002000  1.0
  H  H49  1  0.13314000  0.20826000  0.64887000  1.0
  H  H50  1  0.63370000  0.63237000  0.65790000  1.0
  H  H51  1  0.86864000  0.79470000  0.35187000  1.0
  C  C52  1  0.77272000  0.53055000  0.10759000  1.0
  C  C53  1  0.72644000  0.14001000  0.89218000  1.0
  C  C54  1  0.23916000  0.45258000  0.90765000  1.0
  C  C55  1  0.27250000  0.85946000  0.10819000  1.0
  C  C56  1  0.91062000  0.57732000  0.05980000  1.0
  C  C57  1  0.58702000  0.13548000  0.94249000  1.0
  C  C58  1  0.09446000  0.42078000  0.94098000  1.0
  C  C59  1  0.41213000  0.86126000  0.05950000  1.0
  C  C60  1  0.01696000  0.53269000  0.11193000  1.0
  C  C61  1  0.48104000  0.14194000  0.89125000  1.0
  C  C62  1  0.99489000  0.47506000  0.88355000  1.0
  C  C63  1  0.51744000  0.85527000  0.11124000  1.0
  C  C64  1  0.14843000  0.56875000  0.06629000  1.0
  C  C65  1  0.34912000  0.13108000  0.93861000  1.0
  C  C66  1  0.85877000  0.44608000  0.92220000  1.0
  C  C67  1  0.64972000  0.86500000  0.06492000  1.0
  C  C68  1  0.26109000  0.51458000  0.12078000  1.0
  C  C69  1  0.23765000  0.13269000  0.88376000  1.0
  C  C70  1  0.75167000  0.50623000  0.86026000  1.0
  C  C71  1  0.76086000  0.86540000  0.11928000  1.0
  C  C72  1  0.17352000  0.65069000  0.96797000  1.0
  C  C73  1  0.32324000  0.11438000  0.03787000  1.0
  C  C74  1  0.82357000  0.36287000  0.01921000  1.0
  C  C75  1  0.67652000  0.88021000  0.96618000  1.0
  C  C76  1  0.06813000  0.69459000  0.91491000  1.0
  C  C77  1  0.42848000  0.10681000  0.08987000  1.0
  C  C78  1  0.92168000  0.30976000  0.07723000  1.0
  C  C79  1  0.57206000  0.88737000  0.91365000  1.0
  C  C80  1  0.93654000  0.65844000  0.96128000  1.0
  C  C81  1  0.56045000  0.11789000  0.04182000  1.0
  C  C82  1  0.05654000  0.33769000  0.03753000  1.0
  C  C83  1  0.43964000  0.87712000  0.96071000  1.0
  C  C84  1  0.09713000  0.77534000  0.80633000  1.0
  C  C85  1  0.40037000  0.08220000  0.19843000  1.0
  C  C86  1  0.88264000  0.22700000  0.18447000  1.0
  C  C87  1  0.60240000  0.91228000  0.80514000  1.0
  C  C88  1  0.97603000  0.94124000  0.70993000  1.0
  C  C89  1  0.52067000  0.14927000  0.29514000  1.0
  C  C90  1  0.01326000  0.06758000  0.28365000  1.0
  C  C91  1  0.48208000  0.84528000  0.70912000  1.0
  C  C92  1  0.94418000  0.02995000  0.72133000  1.0
  C  C93  1  0.55510000  0.24822000  0.28213000  1.0
  C  C94  1  0.05087000  0.97851000  0.27447000  1.0
  C  C95  1  0.45360000  0.74676000  0.71868000  1.0
  C  C96  1  0.05158000  0.92930000  0.84386000  1.0
  C  C97  1  0.45197000  0.27156000  0.15783000  1.0
  C  C98  1  0.94010000  0.07191000  0.15177000  1.0
  C  C99  1  0.56341000  0.72277000  0.84035000  1.0
  C  C100  1  0.55617000  0.57729000  0.27469000  1.0
  C  C101  1  0.94098000  0.35229000  0.72766000  1.0
  C  C102  1  0.44078000  0.41994000  0.73184000  1.0
  C  C103  1  0.05836000  0.64947000  0.27309000  1.0
  C  C104  1  0.55986000  0.58161000  0.36342000  1.0
  C  C105  1  0.93710000  0.44528000  0.64013000  1.0
  C  C106  1  0.43678000  0.41617000  0.64287000  1.0
  C  C107  1  0.06180000  0.55650000  0.36067000  1.0
  C  C108  1  0.49630000  0.49967000  0.45485000  1.0
  C  C109  1  0.00231000  0.45344000  0.54820000  1.0
  C  C110  1  0.50152000  0.49756000  0.55170000  1.0
  C  C111  1  0.99708000  0.54863000  0.45261000  1.0
  C  C112  1  0.42644000  0.41887000  0.44898000  1.0
  C  C113  1  0.07372000  0.36559000  0.55207000  1.0
  C  C114  1  0.57311000  0.57718000  0.55813000  1.0
  C  C115  1  0.92656000  0.63687000  0.44876000  1.0
  C  C116  1  0.42428000  0.42147000  0.35727000  1.0
  C  C117  1  0.07624000  0.27656000  0.64285000  1.0
  C  C118  1  0.57545000  0.57410000  0.65006000  1.0
  C  C119  1  0.92472000  0.72603000  0.35792000  1.0
  N  N120  1  0.49090000  0.49807000  0.27088000  1.0
  N  N121  1  0.00836000  0.26834000  0.72977000  1.0
  N  N122  1  0.50699000  0.49846000  0.73641000  1.0
  N  N123  1  0.99207000  0.73383000  0.27101000  1.0
  N  N124  1  0.04325000  0.87845000  0.78801000  1.0
  N  N125  1  0.45624000  0.16543000  0.21588000  1.0
  N  N126  1  0.94371000  0.12570000  0.20550000  1.0
  N  N127  1  0.55067000  0.82886000  0.78632000  1.0
  N  N128  1  0.99199000  0.02138000  0.80493000  1.0
  N  N129  1  0.51178000  0.32362000  0.19630000  1.0
  N  N130  1  0.00459000  0.98243000  0.19205000  1.0
  N  N131  1  0.50518000  0.67136000  0.80047000  1.0
  O  O132  1  0.67485000  0.57466000  0.05860000  1.0
  O  O133  1  0.82313000  0.13549000  0.94137000  1.0
  O  O134  1  0.33105000  0.39239000  0.95041000  1.0
  O  O135  1  0.17624000  0.86345000  0.05891000  1.0
  O  O136  1  0.75214000  0.44940000  0.19161000  1.0
  O  O137  1  0.74945000  0.14587000  0.80625000  1.0
  O  O138  1  0.27995000  0.54543000  0.83613000  1.0
  O  O139  1  0.24890000  0.85670000  0.19295000  1.0
  O  O140  1  0.38011000  0.54421000  0.06773000  1.0
  O  O141  1  0.11759000  0.11851000  0.93432000  1.0
  O  O142  1  0.62892000  0.47798000  0.90803000  1.0
  O  O143  1  0.88070000  0.88034000  0.06826000  1.0
  O  O144  1  0.23860000  0.44505000  0.21050000  1.0
  O  O145  1  0.26167000  0.14613000  0.79534000  1.0
  O  O146  1  0.78615000  0.57526000  0.77180000  1.0
  O  O147  1  0.73634000  0.85323000  0.20725000  1.0
