# generated using pymatgen
data_H8PbC12(SN2)2
_symmetry_space_group_name_H-M   'P 1'
_cell_length_a   6.72216000
_cell_length_b   10.63394341
_cell_length_c   10.63408011
_cell_angle_alpha   69.92042190
_cell_angle_beta   73.54538215
_cell_angle_gamma   73.54547255
_symmetry_Int_Tables_number   1
_chemical_formula_structural   H8PbC12(SN2)2
_chemical_formula_sum   'H16 Pb2 C24 S4 N8'
_cell_volume   669.95356206
_cell_formula_units_Z   2
loop_
 _symmetry_equiv_pos_site_id
 _symmetry_equiv_pos_as_xyz
  1  'x, y, z'
loop_
 _atom_site_type_symbol
 _atom_site_label
 _atom_site_symmetry_multiplicity
 _atom_site_fract_x
 _atom_site_fract_y
 _atom_site_fract_z
 _atom_site_occupancy
  H  H0  1  0.06266000  0.57411000  0.06419000  1.0
  H  H1  1  0.56266000  0.06417000  0.57413000  1.0
  H  H2  1  0.93733000  0.42589000  0.93582000  1.0
  H  H3  1  0.43733000  0.93583000  0.42588000  1.0
  H  H4  1  0.17422000  0.65218000  0.80796000  1.0
  H  H5  1  0.67421000  0.80794000  0.65221000  1.0
  H  H6  1  0.82576000  0.34782000  0.19205000  1.0
  H  H7  1  0.32577000  0.19206000  0.34779000  1.0
  H  H8  1  0.06571000  0.90188000  0.68726000  1.0
  H  H9  1  0.56571000  0.68725000  0.90190000  1.0
  H  H10  1  0.93428000  0.09812000  0.31274000  1.0
  H  H11  1  0.43429000  0.31275000  0.09810000  1.0
  H  H12  1  0.84145000  0.05851000  0.82169000  1.0
  H  H13  1  0.34145000  0.82169000  0.05852000  1.0
  H  H14  1  0.15855000  0.94149000  0.17831000  1.0
  H  H15  1  0.65856000  0.17831000  0.94147000  1.0
  Pb  Pb16  1  0.75001000  0.66604000  0.33397000  1.0
  Pb  Pb17  1  0.25000000  0.33397000  0.66603000  1.0
  C  C18  1  0.01228000  0.68020000  0.00601000  1.0
  C  C19  1  0.51228000  0.00600000  0.68022000  1.0
  C  C20  1  0.98770000  0.31980000  0.99399000  1.0
  C  C21  1  0.48772000  0.99400000  0.31978000  1.0
  C  C22  1  0.07571000  0.72409000  0.86436000  1.0
  C  C23  1  0.57571000  0.86434000  0.72411000  1.0
  C  C24  1  0.92427000  0.27591000  0.13565000  1.0
  C  C25  1  0.42427000  0.13567000  0.27589000  1.0
  C  C26  1  0.01445000  0.86248000  0.79775000  1.0
  C  C27  1  0.51445000  0.79774000  0.86250000  1.0
  C  C28  1  0.98553000  0.13752000  0.20226000  1.0
  C  C29  1  0.48554000  0.20226000  0.13750000  1.0
  C  C30  1  0.88788000  0.95045000  0.87383000  1.0
  C  C31  1  0.38787000  0.87383000  0.95046000  1.0
  C  C32  1  0.11212000  0.04955000  0.12617000  1.0
  C  C33  1  0.61213000  0.12617000  0.04954000  1.0
  C  C34  1  0.82237000  0.89792000  0.01571000  1.0
  C  C35  1  0.32235000  0.01571000  0.89793000  1.0
  C  C36  1  0.17764000  0.10208000  0.98429000  1.0
  C  C37  1  0.67765000  0.98429000  0.10207000  1.0
  C  C38  1  0.38162000  0.54879000  0.25125000  1.0
  C  C39  1  0.88158000  0.25124000  0.54879000  1.0
  C  C40  1  0.61838000  0.45122000  0.74875000  1.0
  C  C41  1  0.11842000  0.74876000  0.45121000  1.0
  S  S42  1  0.19392000  0.46176000  0.31653000  1.0
  S  S43  1  0.69389000  0.31652000  0.46176000  1.0
  S  S44  1  0.80608000  0.53825000  0.68347000  1.0
  S  S45  1  0.30612000  0.68348000  0.53824000  1.0
  N  N46  1  0.89001000  0.76466000  0.07976000  1.0
  N  N47  1  0.39000000  0.07975000  0.76466000  1.0
  N  N48  1  0.11000000  0.23534000  0.92024000  1.0
  N  N49  1  0.61000000  0.92025000  0.23534000  1.0
  N  N50  1  0.52179000  0.60979000  0.20412000  1.0
  N  N51  1  0.02175000  0.20412000  0.60978000  1.0
  N  N52  1  0.47822000  0.39023000  0.79588000  1.0
  N  N53  1  0.97826000  0.79588000  0.39023000  1.0
