# generated using pymatgen
data_ZnH14C23N3O5
_symmetry_space_group_name_H-M   'P 1'
_cell_length_a   16.24700000
_cell_length_b   17.21850000
_cell_length_c   19.17060000
_cell_angle_alpha   89.21490000
_cell_angle_beta   87.52680000
_cell_angle_gamma   87.78580000
_symmetry_Int_Tables_number   1
_chemical_formula_structural   ZnH14C23N3O5
_chemical_formula_sum   'Zn2 H28 C46 N6 O10'
_cell_volume   5353.57062690
_cell_formula_units_Z   2
loop_
 _symmetry_equiv_pos_site_id
 _symmetry_equiv_pos_as_xyz
  1  'x, y, z'
loop_
 _atom_site_type_symbol
 _atom_site_label
 _atom_site_symmetry_multiplicity
 _atom_site_fract_x
 _atom_site_fract_y
 _atom_site_fract_z
 _atom_site_occupancy
  Zn  Zn0  1  0.58403000  0.50544000  0.50183000  1.0
  Zn  Zn1  1  0.41436000  0.50140000  0.50714000  1.0
  H  H2  1  0.63046000  0.47938000  0.72049000  1.0
  H  H3  1  0.37028000  0.48279000  0.28766000  1.0
  H  H4  1  0.28447000  0.56337000  0.41999000  1.0
  H  H5  1  0.72016000  0.44096000  0.58763000  1.0
  H  H6  1  0.70899000  0.58860000  0.41574000  1.0
  H  H7  1  0.28363000  0.41096000  0.58776000  1.0
  H  H8  1  0.99196000  0.58517000  0.46852000  1.0
  H  H9  1  0.00598000  0.41785000  0.52620000  1.0
  H  H10  1  0.13112000  0.39652000  0.58365000  1.0
  H  H11  1  0.86278000  0.60256000  0.41081000  1.0
  H  H12  1  0.63405000  0.45372000  0.84921000  1.0
  H  H13  1  0.37149000  0.45091000  0.16019000  1.0
  H  H14  1  0.36912000  0.44838000  0.86127000  1.0
  H  H15  1  0.63625000  0.45942000  0.14956000  1.0
  H  H16  1  0.36642000  0.47388000  0.73228000  1.0
  H  H17  1  0.63386000  0.49027000  0.27729000  1.0
  H  H18  1  0.39408000  0.27069000  0.43142000  1.0
  H  H19  1  0.61125000  0.74787000  0.47450000  1.0
  H  H20  1  0.34816000  0.74611000  0.46455000  1.0
  H  H21  1  0.65099000  0.25815000  0.47469000  1.0
  H  H22  1  0.40817000  0.00632000  0.41994000  1.0
  H  H23  1  0.59783000  0.00396000  0.41654000  1.0
  H  H24  1  0.65886000  0.11817000  0.44201000  1.0
  H  H25  1  0.34492000  0.88590000  0.42864000  1.0
  H  H26  1  0.60957000  0.88671000  0.43995000  1.0
  H  H27  1  0.40081000  0.13196000  0.39703000  1.0
  H  H28  1  0.93861000  0.46953000  0.62631000  1.0
  H  H29  1  0.18475000  0.59136000  0.35419000  1.0
  C  C30  1  0.51472000  0.35373000  0.48328000  1.0
  C  C31  1  0.48336000  0.65458000  0.49416000  1.0
  C  C32  1  0.52118000  0.27186000  0.45809000  1.0
  C  C33  1  0.47993000  0.73834000  0.47225000  1.0
  C  C34  1  0.45152000  0.23617000  0.43413000  1.0
  C  C35  1  0.55328000  0.77877000  0.46388000  1.0
  C  C36  1  0.45570000  0.15857000  0.41522000  1.0
  C  C37  1  0.55179000  0.85652000  0.44419000  1.0
  C  C38  1  0.52964000  0.11354000  0.42086000  1.0
  C  C39  1  0.47661000  0.89736000  0.43208000  1.0
  C  C40  1  0.60060000  0.15170000  0.43960000  1.0
  C  C41  1  0.40361000  0.85555000  0.43855000  1.0
  C  C42  1  0.59655000  0.22950000  0.45824000  1.0
  C  C43  1  0.40504000  0.77754000  0.45858000  1.0
  C  C44  1  0.53505000  0.02925000  0.41590000  1.0
  C  C45  1  0.47103000  0.98105000  0.41982000  1.0
  C  C46  1  0.24702000  0.52894000  0.45664000  1.0
  C  C47  1  0.75415000  0.47525000  0.54861000  1.0
  C  C48  1  0.16161000  0.52637000  0.45003000  1.0
  C  C49  1  0.83991000  0.47982000  0.55088000  1.0
  C  C50  1  0.11617000  0.47960000  0.49890000  1.0
  C  C51  1  0.88152000  0.52546000  0.49955000  1.0
  C  C52  1  0.49719000  0.48956000  0.64094000  1.0
  C  C53  1  0.50083000  0.50407000  0.36635000  1.0
  C  C54  1  0.16243000  0.43541000  0.54678000  1.0
  C  C55  1  0.83324000  0.56657000  0.45109000  1.0
  C  C56  1  0.24702000  0.44287000  0.54966000  1.0
  C  C57  1  0.74856000  0.55877000  0.45297000  1.0
  C  C58  1  0.02679000  0.47353000  0.50530000  1.0
  C  C59  1  0.97072000  0.53099000  0.49157000  1.0
  C  C60  1  0.57366000  0.47243000  0.75185000  1.0
  C  C61  1  0.42788000  0.47797000  0.25653000  1.0
  C  C62  1  0.57568000  0.45839000  0.82329000  1.0
  C  C63  1  0.42861000  0.46030000  0.18605000  1.0
  C  C64  1  0.50180000  0.44899000  0.86301000  1.0
  C  C65  1  0.50397000  0.45342000  0.14720000  1.0
  C  C66  1  0.42605000  0.45527000  0.83003000  1.0
  C  C67  1  0.57823000  0.46500000  0.18007000  1.0
  C  C68  1  0.42459000  0.46921000  0.75850000  1.0
  C  C69  1  0.57696000  0.48229000  0.25067000  1.0
  C  C70  1  0.49829000  0.47727000  0.71864000  1.0
  C  C71  1  0.50191000  0.48883000  0.28946000  1.0
  C  C72  1  0.50488000  0.43535000  0.07274000  1.0
  C  C73  1  0.50374000  0.43351000  0.93828000  1.0
  C  C74  1  0.88050000  0.44277000  0.61151000  1.0
  C  C75  1  0.13242000  0.56787000  0.38673000  1.0
  N  N76  1  0.43227000  0.41974000  0.97464000  1.0
  N  N77  1  0.57830000  0.42652000  0.03686000  1.0
  N  N78  1  0.43286000  0.42071000  0.04324000  1.0
  N  N79  1  0.57769000  0.42563000  0.96828000  1.0
  N  N80  1  0.28859000  0.49045000  0.50581000  1.0
  N  N81  1  0.70986000  0.51336000  0.50092000  1.0
  O  O82  1  0.58155000  0.38653000  0.49557000  1.0
  O  O83  1  0.41538000  0.62092000  0.50578000  1.0
  O  O84  1  0.44238000  0.38509000  0.49063000  1.0
  O  O85  1  0.55503000  0.62229000  0.49884000  1.0
  O  O86  1  0.56639000  0.49863000  0.60872000  1.0
  O  O87  1  0.43050000  0.51164000  0.39806000  1.0
  O  O88  1  0.42734000  0.48934000  0.61286000  1.0
  O  O89  1  0.57045000  0.50648000  0.39426000  1.0
  O  O90  1  0.85193000  0.38879000  0.64559000  1.0
  O  O91  1  0.06184000  0.57639000  0.36732000  1.0
