# generated using pymatgen
data_PrH10(C3O2)4
_symmetry_space_group_name_H-M   'P 1'
_cell_length_a   13.33460000
_cell_length_b   13.70680000
_cell_length_c   18.06140000
_cell_angle_alpha   90.00000000
_cell_angle_beta   90.00000000
_cell_angle_gamma   92.97090000
_symmetry_Int_Tables_number   1
_chemical_formula_structural   PrH10(C3O2)4
_chemical_formula_sum   'Pr8 H80 C96 O64'
_cell_volume   3296.73006981
_cell_formula_units_Z   8
loop_
 _symmetry_equiv_pos_site_id
 _symmetry_equiv_pos_as_xyz
  1  'x, y, z'
loop_
 _atom_site_type_symbol
 _atom_site_label
 _atom_site_symmetry_multiplicity
 _atom_site_fract_x
 _atom_site_fract_y
 _atom_site_fract_z
 _atom_site_occupancy
  Pr  Pr0  1  0.64266000  0.09473000  0.98826000  1.0
  Pr  Pr1  1  0.85734000  0.40527000  0.48826000  1.0
  Pr  Pr2  1  0.35734000  0.90527000  0.01174000  1.0
  Pr  Pr3  1  0.14266000  0.59473000  0.51174000  1.0
  Pr  Pr4  1  0.90582000  0.35338000  0.03439000  1.0
  Pr  Pr5  1  0.59418000  0.14662000  0.53439000  1.0
  Pr  Pr6  1  0.09418000  0.64662000  0.96561000  1.0
  Pr  Pr7  1  0.40582000  0.85338000  0.46561000  1.0
  H  H8  1  0.63981000  0.26263000  0.76040000  1.0
  H  H9  1  0.86019000  0.23737000  0.26041000  1.0
  H  H10  1  0.36019000  0.73737000  0.23959000  1.0
  H  H11  1  0.13981000  0.76263000  0.73960000  1.0
  H  H12  1  0.76882000  0.51858000  0.65180000  1.0
  H  H13  1  0.73118000  0.98143000  0.15180000  1.0
  H  H14  1  0.23118000  0.48143000  0.34820000  1.0
  H  H15  1  0.26882000  0.01857000  0.84820000  1.0
  H  H16  1  0.55518000  0.14045000  0.26076000  1.0
  H  H17  1  0.94482000  0.35955000  0.76077000  1.0
  H  H18  1  0.44482000  0.85955000  0.73924000  1.0
  H  H19  1  0.05518000  0.64045000  0.23923000  1.0
  H  H20  1  0.80885000  0.47934000  0.88690000  1.0
  H  H21  1  0.69115000  0.02066000  0.38690000  1.0
  H  H22  1  0.19115000  0.52066000  0.11310000  1.0
  H  H23  1  0.30885000  0.97934000  0.61310000  1.0
  H  H24  1  0.48957000  0.38085000  0.11850000  1.0
  H  H25  1  0.01043000  0.11915000  0.61850000  1.0
  H  H26  1  0.51043000  0.61915000  0.88150000  1.0
  H  H27  1  0.98957000  0.88085000  0.38150000  1.0
  H  H28  1  0.83285000  0.58244000  0.77420000  1.0
  H  H29  1  0.66714000  0.91756000  0.27420000  1.0
  H  H30  1  0.16715000  0.41756000  0.22580000  1.0
  H  H31  1  0.33285000  0.08244000  0.72580000  1.0
  H  H32  1  0.44411000  0.47945000  0.22905000  1.0
  H  H33  1  0.05589000  0.02055000  0.72905000  1.0
  H  H34  1  0.55589000  0.52055000  0.77095000  1.0
  H  H35  1  0.94411000  0.97945000  0.27095000  1.0
  H  H36  1  0.46458000  0.41065000  0.35567000  1.0
  H  H37  1  0.03543000  0.08935000  0.85567000  1.0
  H  H38  1  0.53542000  0.58935000  0.64433000  1.0
  H  H39  1  0.96458000  0.91065000  0.14433000  1.0
  H  H40  1  0.20424000  0.21437000  0.01348000  1.0
  H  H41  1  0.29575000  0.28562000  0.51348000  1.0
  H  H42  1  0.79576000  0.78563000  0.98652000  1.0
  H  H43  1  0.70425000  0.71437000  0.48652000  1.0
  H  H44  1  0.30929000  0.51263000  0.97960000  1.0
  H  H45  1  0.19071000  0.98737000  0.47959000  1.0
  H  H46  1  0.69071000  0.48738000  0.02040000  1.0
  H  H47  1  0.80929000  0.01262000  0.52041000  1.0
  H  H48  1  0.50450000  0.27887000  0.93306000  1.0
  H  H49  1  0.99550000  0.22113000  0.43306000  1.0
  H  H50  1  0.49550000  0.72113000  0.06694000  1.0
  H  H51  1  0.00450000  0.77887000  0.56694000  1.0
  H  H52  1  0.47505000  0.45655000  0.93752000  1.0
  H  H53  1  0.02495000  0.04346000  0.43752000  1.0
  H  H54  1  0.52495000  0.54346000  0.06248000  1.0
  H  H55  1  0.97505000  0.95654000  0.56248000  1.0
  H  H56  1  0.87058000  0.48923000  0.16283000  1.0
  H  H57  1  0.62942000  0.01077000  0.66283000  1.0
  H  H58  1  0.12942000  0.51077000  0.83717000  1.0
  H  H59  1  0.37057000  0.98923000  0.33717000  1.0
  H  H60  1  0.97298000  0.53319000  0.13423000  1.0
  H  H61  1  0.52703000  0.96681000  0.63423000  1.0
  H  H62  1  0.02702000  0.46681000  0.86576000  1.0
  H  H63  1  0.47297000  0.03319000  0.36576000  1.0
  H  H64  1  0.74479000  0.34726000  0.16541000  1.0
  H  H65  1  0.75520000  0.15275000  0.66541000  1.0
  H  H66  1  0.25521000  0.65274000  0.83459000  1.0
  H  H67  1  0.24479000  0.84725000  0.33459000  1.0
  H  H68  1  0.68582000  0.33066000  0.09112000  1.0
  H  H69  1  0.81418000  0.16935000  0.59112000  1.0
  H  H70  1  0.31418000  0.66934000  0.90888000  1.0
  H  H71  1  0.18582000  0.83066000  0.40888000  1.0
  H  H72  1  0.82582000  0.00209000  0.93915000  1.0
  H  H73  1  0.67418000  0.49791000  0.43915000  1.0
  H  H74  1  0.17418000  0.99791000  0.06085000  1.0
  H  H75  1  0.32582000  0.50209000  0.56085000  1.0
  H  H76  1  0.86473000  0.11268000  0.93045000  1.0
  H  H77  1  0.63528000  0.38732000  0.43045000  1.0
  H  H78  1  0.13528000  0.88732000  0.06955000  1.0
  H  H79  1  0.36473000  0.61268000  0.56955000  1.0
  H  H80  1  0.53897000  0.97112000  0.86129000  1.0
  H  H81  1  0.96103000  0.52888000  0.36129000  1.0
  H  H82  1  0.46103000  0.02888000  0.13871000  1.0
  H  H83  1  0.03897000  0.47112000  0.63871000  1.0
  H  H84  1  0.58709000  0.06957000  0.82743000  1.0
  H  H85  1  0.91291000  0.43043000  0.32744000  1.0
  H  H86  1  0.41291000  0.93043000  0.17257000  1.0
  H  H87  1  0.08709000  0.56957000  0.67256000  1.0
  C  C88  1  0.71258000  0.30042000  0.89804000  1.0
  C  C89  1  0.78742000  0.19958000  0.39804000  1.0
  C  C90  1  0.28742000  0.69957000  0.10196000  1.0
  C  C91  1  0.21258000  0.80042000  0.60196000  1.0
  C  C92  1  0.72288000  0.36478000  0.83119000  1.0
  C  C93  1  0.77711000  0.13522000  0.33119000  1.0
  C  C94  1  0.27712000  0.63521000  0.16881000  1.0
  C  C95  1  0.22288000  0.86478000  0.66881000  1.0
  C  C96  1  0.70094000  0.38666000  0.69905000  1.0
  C  C97  1  0.79906000  0.11334000  0.19905000  1.0
  C  C98  1  0.29906000  0.61334000  0.30095000  1.0
  C  C99  1  0.20094000  0.88666000  0.80095000  1.0
  C  C100  1  0.68293000  0.33215000  0.76352000  1.0
  C  C101  1  0.81706000  0.16785000  0.26353000  1.0
  C  C102  1  0.31707000  0.66785000  0.23647000  1.0
  C  C103  1  0.18293000  0.83215000  0.73647000  1.0
  C  C104  1  0.56007000  0.19952000  0.11807000  1.0
  C  C105  1  0.93993000  0.30048000  0.61807000  1.0
  C  C106  1  0.43993000  0.80048000  0.88193000  1.0
  C  C107  1  0.06007000  0.69952000  0.38193000  1.0
  C  C108  1  0.66919000  0.34188000  0.62678000  1.0
  C  C109  1  0.83081000  0.15812000  0.12678000  1.0
  C  C110  1  0.33081000  0.65812000  0.37322000  1.0
  C  C111  1  0.16919000  0.84188000  0.87322000  1.0
  C  C112  1  0.75526000  0.47697000  0.70259000  1.0
  C  C113  1  0.74474000  0.02303000  0.20259000  1.0
  C  C114  1  0.24474000  0.52303000  0.29741000  1.0
  C  C115  1  0.25526000  0.97697000  0.79741000  1.0
  C  C116  1  0.53061000  0.21453000  0.25400000  1.0
  C  C117  1  0.96939000  0.28546000  0.75400000  1.0
  C  C118  1  0.46939000  0.78546000  0.74600000  1.0
  C  C119  1  0.03061000  0.71454000  0.24600000  1.0
  C  C120  1  0.52535000  0.25511000  0.18317000  1.0
  C  C121  1  0.97465000  0.24488000  0.68317000  1.0
  C  C122  1  0.47465000  0.74489000  0.81683000  1.0
  C  C123  1  0.02535000  0.75512000  0.31683000  1.0
  C  C124  1  0.77681000  0.45529000  0.83433000  1.0
  C  C125  1  0.72319000  0.04471000  0.33433000  1.0
  C  C126  1  0.22319000  0.54471000  0.16567000  1.0
  C  C127  1  0.27681000  0.95529000  0.66567000  1.0
  C  C128  1  0.49441000  0.35081000  0.17423000  1.0
  C  C129  1  0.00560000  0.14919000  0.67423000  1.0
  C  C130  1  0.50560000  0.64919000  0.82577000  1.0
  C  C131  1  0.99440000  0.85081000  0.32577000  1.0
  C  C132  1  0.79128000  0.51194000  0.77062000  1.0
  C  C133  1  0.70872000  0.98806000  0.27062000  1.0
  C  C134  1  0.20872000  0.48806000  0.22938000  1.0
  C  C135  1  0.29128000  0.01194000  0.72939000  1.0
  C  C136  1  0.51061000  0.27131000  0.31614000  1.0
  C  C137  1  0.98940000  0.22868000  0.81614000  1.0
  C  C138  1  0.48939000  0.72868000  0.68386000  1.0
  C  C139  1  0.01061000  0.77132000  0.18386000  1.0
  C  C140  1  0.46989000  0.40579000  0.23598000  1.0
  C  C141  1  0.03011000  0.09421000  0.73598000  1.0
  C  C142  1  0.53011000  0.59421000  0.76402000  1.0
  C  C143  1  0.96989000  0.90579000  0.26402000  1.0
  C  C144  1  0.48025000  0.36708000  0.30690000  1.0
  C  C145  1  0.01976000  0.13292000  0.80690000  1.0
  C  C146  1  0.51975000  0.63292000  0.69310000  1.0
  C  C147  1  0.98024000  0.86708000  0.19310000  1.0
  C  C148  1  0.24634000  0.36662000  0.99817000  1.0
  C  C149  1  0.25365000  0.13338000  0.49817000  1.0
  C  C150  1  0.75366000  0.63338000  0.00183000  1.0
  C  C151  1  0.74634000  0.86662000  0.50183000  1.0
  C  C152  1  0.26378000  0.26714000  0.99687000  1.0
  C  C153  1  0.23622000  0.23285000  0.49687000  1.0
  C  C154  1  0.73622000  0.73286000  0.00313000  1.0
  C  C155  1  0.76378000  0.76714000  0.50313000  1.0
  C  C156  1  0.32305000  0.43512000  0.97751000  1.0
  C  C157  1  0.17694000  0.06488000  0.47751000  1.0
  C  C158  1  0.67694000  0.56488000  0.02249000  1.0
  C  C159  1  0.82305000  0.93512000  0.52249000  1.0
  C  C160  1  0.14444000  0.39696000  0.01923000  1.0
  C  C161  1  0.35556000  0.10304000  0.51922000  1.0
  C  C162  1  0.85556000  0.60304000  0.98077000  1.0
  C  C163  1  0.64444000  0.89696000  0.48077000  1.0
  C  C164  1  0.35678000  0.23527000  0.97421000  1.0
  C  C165  1  0.14322000  0.26473000  0.47422000  1.0
  C  C166  1  0.64322000  0.76473000  0.02579000  1.0
  C  C167  1  0.85678000  0.73527000  0.52579000  1.0
  C  C168  1  0.52806000  0.23120000  0.39153000  1.0
  C  C169  1  0.97194000  0.26880000  0.89153000  1.0
  C  C170  1  0.47195000  0.76880000  0.60847000  1.0
  C  C171  1  0.02806000  0.73120000  0.10847000  1.0
  C  C172  1  0.43267000  0.30374000  0.95195000  1.0
  C  C173  1  0.06733000  0.19626000  0.45195000  1.0
  C  C174  1  0.56733000  0.69627000  0.04805000  1.0
  C  C175  1  0.93267000  0.80374000  0.54805000  1.0
  C  C176  1  0.41564000  0.40333000  0.95417000  1.0
  C  C177  1  0.08436000  0.09668000  0.45417000  1.0
  C  C178  1  0.58436000  0.59668000  0.04583000  1.0
  C  C179  1  0.91564000  0.90332000  0.54583000  1.0
  C  C180  1  0.37245000  0.12851000  0.97665000  1.0
  C  C181  1  0.12755000  0.37149000  0.47666000  1.0
  C  C182  1  0.62755000  0.87149000  0.02334000  1.0
  C  C183  1  0.87245000  0.62851000  0.52334000  1.0
  O  O184  1  0.76003000  0.32519000  0.95686000  1.0
  O  O185  1  0.73997000  0.17480000  0.45686000  1.0
  O  O186  1  0.23997000  0.67480000  0.04314000  1.0
  O  O187  1  0.26003000  0.82519000  0.54314000  1.0
  O  O188  1  0.59868000  0.24754000  0.06309000  1.0
  O  O189  1  0.90132000  0.25246000  0.56309000  1.0
  O  O190  1  0.40132000  0.75246000  0.93691000  1.0
  O  O191  1  0.09868000  0.74754000  0.43691000  1.0
  O  O192  1  0.71693000  0.36846000  0.56851000  1.0
  O  O193  1  0.78307000  0.13155000  0.06851000  1.0
  O  O194  1  0.28307000  0.63155000  0.43149000  1.0
  O  O195  1  0.21693000  0.86845000  0.93149000  1.0
  O  O196  1  0.59937000  0.27491000  0.62741000  1.0
  O  O197  1  0.90063000  0.22509000  0.12741000  1.0
  O  O198  1  0.40063000  0.72509000  0.37259000  1.0
  O  O199  1  0.09937000  0.77491000  0.87259000  1.0
  O  O200  1  0.55588000  0.10624000  0.11761000  1.0
  O  O201  1  0.94411000  0.39376000  0.61761000  1.0
  O  O202  1  0.44411000  0.89376000  0.88239000  1.0
  O  O203  1  0.05589000  0.60624000  0.38239000  1.0
  O  O204  1  0.65710000  0.22192000  0.89283000  1.0
  O  O205  1  0.84290000  0.27807000  0.39283000  1.0
  O  O206  1  0.34290000  0.77807000  0.10717000  1.0
  O  O207  1  0.15710000  0.72192000  0.60717000  1.0
  O  O208  1  0.08463000  0.33488000  0.05081000  1.0
  O  O209  1  0.41537000  0.16511000  0.55081000  1.0
  O  O210  1  0.91537000  0.66511000  0.94919000  1.0
  O  O211  1  0.58463000  0.83488000  0.44919000  1.0
  O  O212  1  0.12012000  0.48354000  0.00378000  1.0
  O  O213  1  0.37988000  0.01645000  0.50378000  1.0
  O  O214  1  0.87988000  0.51646000  0.99622000  1.0
  O  O215  1  0.62011000  0.98354000  0.49622000  1.0
  O  O216  1  0.52228000  0.13864000  0.40223000  1.0
  O  O217  1  0.97772000  0.36136000  0.90223000  1.0
  O  O218  1  0.47772000  0.86136000  0.59777000  1.0
  O  O219  1  0.02228000  0.63864000  0.09777000  1.0
  O  O220  1  0.55255000  0.28913000  0.44476000  1.0
  O  O221  1  0.94745000  0.21086000  0.94476000  1.0
  O  O222  1  0.44745000  0.71086000  0.55524000  1.0
  O  O223  1  0.05255000  0.78914000  0.05524000  1.0
  O  O224  1  0.93703000  0.46983000  0.14830000  1.0
  O  O225  1  0.56297000  0.03017000  0.64830000  1.0
  O  O226  1  0.06297000  0.53017000  0.85170000  1.0
  O  O227  1  0.43703000  0.96983000  0.35170000  1.0
  O  O228  1  0.74429000  0.36913000  0.11415000  1.0
  O  O229  1  0.75571000  0.13087000  0.61415000  1.0
  O  O230  1  0.25571000  0.63087000  0.88585000  1.0
  O  O231  1  0.24429000  0.86913000  0.38585000  1.0
  O  O232  1  0.29630000  0.06992000  0.98716000  1.0
  O  O233  1  0.20370000  0.43008000  0.48716000  1.0
  O  O234  1  0.70370000  0.93008000  0.01284000  1.0
  O  O235  1  0.79630000  0.56992000  0.51284000  1.0
  O  O236  1  0.80775000  0.06484000  0.91918000  1.0
  O  O237  1  0.69225000  0.43516000  0.41918000  1.0
  O  O238  1  0.19225000  0.93516000  0.08082000  1.0
  O  O239  1  0.30775000  0.56484000  0.58082000  1.0
  O  O240  1  0.46062000  0.09664000  0.96975000  1.0
  O  O241  1  0.03939000  0.40337000  0.46977000  1.0
  O  O242  1  0.53939000  0.90337000  0.03024000  1.0
  O  O243  1  0.96062000  0.59664000  0.53024000  1.0
  O  O244  1  0.59970000  0.01721000  0.86205000  1.0
  O  O245  1  0.90031000  0.48278000  0.36206000  1.0
  O  O246  1  0.40030000  0.98278000  0.13794000  1.0
  O  O247  1  0.09970000  0.51722000  0.63795000  1.0
