# generated using pymatgen
data_CuH6C6N5
_symmetry_space_group_name_H-M   'P 1'
_cell_length_a   5.33431000
_cell_length_b   7.50918000
_cell_length_c   10.66330000
_cell_angle_alpha   89.99810000
_cell_angle_beta   89.99930000
_cell_angle_gamma   89.94330000
_symmetry_Int_Tables_number   1
_chemical_formula_structural   CuH6C6N5
_chemical_formula_sum   'Cu2 H12 C12 N10'
_cell_volume   427.13207003
_cell_formula_units_Z   2
loop_
 _symmetry_equiv_pos_site_id
 _symmetry_equiv_pos_as_xyz
  1  'x, y, z'
loop_
 _atom_site_type_symbol
 _atom_site_label
 _atom_site_symmetry_multiplicity
 _atom_site_fract_x
 _atom_site_fract_y
 _atom_site_fract_z
 _atom_site_occupancy
  Cu  Cu0  1  0.36692000  0.74991000  0.75001000  1.0
  Cu  Cu1  1  0.63307000  0.25012000  0.25000000  1.0
  H  H2  1  0.57312000  0.75016000  0.97911000  1.0
  H  H3  1  0.57314000  0.75011000  0.52091000  1.0
  H  H4  1  0.42686000  0.24989000  0.02088000  1.0
  H  H5  1  0.42676000  0.24980000  0.47911000  1.0
  H  H6  1  0.74264000  0.86928000  0.09747000  1.0
  H  H7  1  0.74268000  0.63073000  0.40255000  1.0
  H  H8  1  0.25735000  0.36926000  0.90255000  1.0
  H  H9  1  0.25733000  0.13072000  0.59744000  1.0
  H  H10  1  0.25737000  0.13078000  0.90253000  1.0
  H  H11  1  0.25736000  0.36912000  0.59742000  1.0
  H  H12  1  0.74264000  0.63078000  0.09745000  1.0
  H  H13  1  0.74266000  0.86924000  0.40253000  1.0
  C  C14  1  0.68381000  0.39973000  0.75000000  1.0
  C  C15  1  0.68379000  0.09965000  0.75000000  1.0
  C  C16  1  0.31625000  0.90036000  0.25000000  1.0
  C  C17  1  0.31618000  0.60029000  0.25000000  1.0
  C  C18  1  0.74278000  0.75004000  0.03780000  1.0
  C  C19  1  0.74278000  0.74999000  0.46220000  1.0
  C  C20  1  0.25719000  0.25001000  0.96221000  1.0
  C  C21  1  0.25718000  0.24992000  0.53778000  1.0
  C  C22  1  0.96094000  0.74987000  0.95810000  1.0
  C  C23  1  0.96096000  0.74985000  0.54188000  1.0
  C  C24  1  0.03905000  0.25017000  0.04190000  1.0
  C  C25  1  0.03910000  0.25011000  0.45813000  1.0
  N  N26  1  0.80564000  0.24959000  0.75000000  1.0
  N  N27  1  0.19436000  0.75044000  0.25000000  1.0
  N  N28  1  0.58357000  0.53962000  0.75001000  1.0
  N  N29  1  0.58336000  0.95995000  0.75000000  1.0
  N  N30  1  0.41669000  0.04004000  0.25000000  1.0
  N  N31  1  0.41646000  0.46044000  0.25000000  1.0
  N  N32  1  0.13591000  0.74986000  0.89267000  1.0
  N  N33  1  0.13591000  0.74982000  0.60733000  1.0
  N  N34  1  0.86406000  0.25019000  0.10732000  1.0
  N  N35  1  0.86414000  0.25015000  0.39270000  1.0
