# generated using pymatgen
data_CdH28C28(N5O3)2
_symmetry_space_group_name_H-M   'P 1'
_cell_length_a   9.03695000
_cell_length_b   9.45220000
_cell_length_c   9.88780000
_cell_angle_alpha   79.46590000
_cell_angle_beta   62.92460000
_cell_angle_gamma   81.49470000
_symmetry_Int_Tables_number   1
_chemical_formula_structural   CdH28C28(N5O3)2
_chemical_formula_sum   'Cd1 H28 C28 N10 O6'
_cell_volume   737.34854015
_cell_formula_units_Z   1
loop_
 _symmetry_equiv_pos_site_id
 _symmetry_equiv_pos_as_xyz
  1  'x, y, z'
loop_
 _atom_site_type_symbol
 _atom_site_label
 _atom_site_symmetry_multiplicity
 _atom_site_fract_x
 _atom_site_fract_y
 _atom_site_fract_z
 _atom_site_occupancy
  Cd  Cd0  1  0.00000000  0.50000000  0.50000000  1.0
  H  H1  1  0.01041000  0.51359000  0.14361000  1.0
  H  H2  1  0.98960000  0.48642000  0.85639000  1.0
  H  H3  1  0.18880000  0.30472000  0.94664000  1.0
  H  H4  1  0.81120000  0.69528000  0.05336000  1.0
  H  H5  1  0.26222000  0.20748000  0.34879000  1.0
  H  H6  1  0.73777000  0.79252000  0.65121000  1.0
  H  H7  1  0.19816000  0.95829000  0.12976000  1.0
  H  H8  1  0.80184000  0.04171000  0.87024000  1.0
  H  H9  1  0.54427000  0.36996000  0.93355000  1.0
  H  H10  1  0.45573000  0.63004000  0.06645000  1.0
  H  H11  1  0.74049000  0.28813000  0.91869000  1.0
  H  H12  1  0.25951000  0.71187000  0.08132000  1.0
  H  H13  1  0.57195000  0.30780000  0.10087000  1.0
  H  H14  1  0.42805000  0.69220000  0.89913000  1.0
  H  H15  1  0.13574000  0.82440000  0.49990000  1.0
  H  H16  1  0.86426000  0.17560000  0.50011000  1.0
  H  H17  1  0.43464000  0.45628000  0.31675000  1.0
  H  H18  1  0.56536000  0.54371000  0.68324000  1.0
  H  H19  1  0.63364000  0.64175000  0.34170000  1.0
  H  H20  1  0.36636000  0.35825000  0.65830000  1.0
  H  H21  1  0.63102000  0.93616000  0.23638000  1.0
  H  H22  1  0.36899000  0.06384000  0.76362000  1.0
  H  H23  1  0.11002000  0.87237000  0.74024000  1.0
  H  H24  1  0.88998000  0.12763000  0.25976000  1.0
  H  H25  1  0.21007000  0.85829000  0.85869000  1.0
  H  H26  1  0.78993000  0.14170000  0.14131000  1.0
  H  H27  1  0.25030000  0.72049000  0.74185000  1.0
  H  H28  1  0.74970000  0.27951000  0.25815000  1.0
  C  C29  1  0.09076000  0.41968000  0.15525000  1.0
  C  C30  1  0.90924000  0.58032000  0.84475000  1.0
  C  C31  1  0.18007000  0.32017000  0.05609000  1.0
  C  C32  1  0.81993000  0.67983000  0.94390000  1.0
  C  C33  1  0.21968000  0.26570000  0.26614000  1.0
  C  C34  1  0.78032000  0.73430000  0.73386000  1.0
  C  C35  1  0.55248000  0.13852000  0.99141000  1.0
  C  C36  1  0.44752000  0.86148000  0.00860000  1.0
  C  C37  1  0.38365000  0.10933000  0.06218000  1.0
  C  C38  1  0.61635000  0.89067000  0.93782000  1.0
  C  C39  1  0.33101000  0.97497000  0.07165000  1.0
  C  C40  1  0.66899000  0.02503000  0.92834000  1.0
  C  C41  1  0.60549000  0.28370000  0.98530000  1.0
  C  C42  1  0.39451000  0.71630000  0.01470000  1.0
  C  C43  1  0.24170000  0.74710000  0.45483000  1.0
  C  C44  1  0.75830000  0.25290000  0.54518000  1.0
  C  C45  1  0.40256000  0.56144000  0.35584000  1.0
  C  C46  1  0.59745000  0.43856000  0.64416000  1.0
  C  C47  1  0.50312000  0.65102000  0.36511000  1.0
  C  C48  1  0.49688000  0.34898000  0.63489000  1.0
  C  C49  1  0.44655000  0.88677000  0.46802000  1.0
  C  C50  1  0.55345000  0.11323000  0.53199000  1.0
  C  C51  1  0.57478000  0.96540000  0.35205000  1.0
  C  C52  1  0.42523000  0.03460000  0.64795000  1.0
  C  C53  1  0.36752000  0.91919000  0.61963000  1.0
  C  C54  1  0.63248000  0.08081000  0.38037000  1.0
  C  C55  1  0.22830000  0.83733000  0.74664000  1.0
  C  C56  1  0.77170000  0.16267000  0.25336000  1.0
  N  N57  1  0.11656000  0.38411000  0.28515000  1.0
  N  N58  1  0.88344000  0.61589000  0.71485000  1.0
  N  N59  1  0.26113000  0.22324000  0.12816000  1.0
  N  N60  1  0.73887000  0.77676000  0.87184000  1.0
  N  N61  1  0.24059000  0.62255000  0.41131000  1.0
  N  N62  1  0.75941000  0.37745000  0.58870000  1.0
  N  N63  1  0.07746000  0.21058000  0.70118000  1.0
  N  N64  1  0.92254000  0.78942000  0.29882000  1.0
  N  N65  1  0.39845000  0.76827000  0.42967000  1.0
  N  N66  1  0.60155000  0.23173000  0.57034000  1.0
  O  O67  1  0.14781000  0.32759000  0.62133000  1.0
  O  O68  1  0.85219000  0.67241000  0.37867000  1.0
  O  O69  1  0.03918000  0.12704000  0.63846000  1.0
  O  O70  1  0.96082000  0.87296000  0.36154000  1.0
  O  O71  1  0.05035000  0.18374000  0.83962000  1.0
  O  O72  1  0.94965000  0.81626000  0.16038000  1.0
