# generated using pymatgen
data_AlH7C16Cl2O5
_symmetry_space_group_name_H-M   'P 1'
_cell_length_a   6.63486000
_cell_length_b   17.72566570
_cell_length_c   17.74649717
_cell_angle_alpha   90.58789035
_cell_angle_beta   98.70733278
_cell_angle_gamma   98.76668436
_symmetry_Int_Tables_number   1
_chemical_formula_structural   AlH7C16Cl2O5
_chemical_formula_sum   'Al2 H14 C32 Cl4 O10'
_cell_volume   2037.77309815
_cell_formula_units_Z   2
loop_
 _symmetry_equiv_pos_site_id
 _symmetry_equiv_pos_as_xyz
  1  'x, y, z'
loop_
 _atom_site_type_symbol
 _atom_site_label
 _atom_site_symmetry_multiplicity
 _atom_site_fract_x
 _atom_site_fract_y
 _atom_site_fract_z
 _atom_site_occupancy
  Al  Al0  1  0.99620000  0.49780000  0.50088000  1.0
  Al  Al1  1  0.49707000  0.49852000  0.50233000  1.0
  H  H2  1  0.68639000  0.45072000  0.41267000  1.0
  H  H3  1  0.30109000  0.58826000  0.54709000  1.0
  H  H4  1  0.10193000  0.72191000  0.44519000  1.0
  H  H5  1  0.18545000  0.86357000  0.44036000  1.0
  H  H6  1  0.66682000  0.88435000  0.55558000  1.0
  H  H7  1  0.33377000  0.11578000  0.44604000  1.0
  H  H8  1  0.88891000  0.27532000  0.55503000  1.0
  H  H9  1  0.80418000  0.13334000  0.55620000  1.0
  H  H10  1  0.89282000  0.55562000  0.27583000  1.0
  H  H11  1  0.81748000  0.56130000  0.13427000  1.0
  H  H12  1  0.32894000  0.44109000  0.11731000  1.0
  H  H13  1  0.68129000  0.55807000  0.88478000  1.0
  H  H14  1  0.11417000  0.44471000  0.72397000  1.0
  H  H15  1  0.20033000  0.44261000  0.86562000  1.0
  C  C16  1  0.18651000  0.49877000  0.36231000  1.0
  C  C17  1  0.20028333  0.36107000  0.50588000  1.0
  C  C18  1  0.80935000  0.49650000  0.63879000  1.0
  C  C19  1  0.79591000  0.63747000  0.49876000  1.0
  C  C20  1  0.83531000  0.72280000  0.49963000  1.0
  C  C21  1  0.00591000  0.75845000  0.46797000  1.0
  C  C22  1  0.05321000  0.83722000  0.46559000  1.0
  C  C23  1  0.93050000  0.88390000  0.49704000  1.0
  C  C24  1  0.76057000  0.84906000  0.52985000  1.0
  C  C25  1  0.71335000  0.76981000  0.53085000  1.0
  C  C26  1  0.97747000  0.96446000  0.49763000  1.0
  C  C27  1  0.01724000  0.03407000  0.49975000  1.0
  C  C28  1  0.06469000  0.11468000  0.50192000  1.0
  C  C29  1  0.23795000  0.15034000  0.47158000  1.0
  C  C30  1  0.28640000  0.22969000  0.47285000  1.0
  C  C31  1  0.16158000  0.27572000  0.50388000  1.0
  C  C32  1  0.98747000  0.23934000  0.53296000  1.0
  C  C33  1  0.93934000  0.16046000  0.53311000  1.0
  C  C34  1  0.15464000  0.49824000  0.27704000  1.0
  C  C35  1  0.98899000  0.53186000  0.24006000  1.0
  C  C36  1  0.94627000  0.53473000  0.16139000  1.0
  C  C37  1  0.06937000  0.50206000  0.11577000  1.0
  C  C38  1  0.23459000  0.46759000  0.15172000  1.0
  C  C39  1  0.27723000  0.46584000  0.23096000  1.0
  C  C40  1  0.02734000  0.50211000  0.03524000  1.0
  C  C41  1  0.99092000  0.50073000  0.96567000  1.0
  C  C42  1  0.94508000  0.49956000  0.88514000  1.0
  C  C43  1  0.77508000  0.53184000  0.84990000  1.0
  C  C44  1  0.72613000  0.53154000  0.77066000  1.0
  C  C45  1  0.84753000  0.49907000  0.72405000  1.0
  C  C46  1  0.01861000  0.46798000  0.76030000  1.0
  C  C47  1  0.06746000  0.46725000  0.83898000  1.0
  Cl  Cl48  1  0.50767000  0.73392000  0.57667000  1.0
  Cl  Cl49  1  0.49675000  0.26763000  0.43104000  1.0
  Cl  Cl50  1  0.47902000  0.41821000  0.26673000  1.0
  Cl  Cl51  1  0.51781000  0.57548000  0.73527000  1.0
  O  O52  1  0.03018000  0.50656000  0.39397000  1.0
  O  O53  1  0.38583000  0.39464000  0.51665000  1.0
  O  O54  1  0.63122000  0.50445000  0.60529000  1.0
  O  O55  1  0.95534000  0.60441000  0.50581000  1.0
  O  O56  1  0.96088000  0.48648000  0.60552000  1.0
  O  O57  1  0.60939000  0.60480000  0.49040000  1.0
  O  O58  1  0.36468000  0.49186000  0.39680000  1.0
  O  O59  1  0.04053000  0.39374000  0.49667000  1.0
  O  O60  1  0.71851000  0.46612000  0.46635000  1.0
  O  O61  1  0.27318000  0.53422000  0.53278000  1.0
