# generated using pymatgen
data_V2CoH8C10(NO3)2
_symmetry_space_group_name_H-M   'P 1'
_cell_length_a   8.11817000
_cell_length_b   8.50896000
_cell_length_c   10.08750000
_cell_angle_alpha   87.20700000
_cell_angle_beta   76.03040000
_cell_angle_gamma   75.17880000
_symmetry_Int_Tables_number   1
_chemical_formula_structural   V2CoH8C10(NO3)2
_chemical_formula_sum   'V4 Co2 H16 C20 N4 O12'
_cell_volume   653.64579880
_cell_formula_units_Z   2
loop_
 _symmetry_equiv_pos_site_id
 _symmetry_equiv_pos_as_xyz
  1  'x, y, z'
loop_
 _atom_site_type_symbol
 _atom_site_label
 _atom_site_symmetry_multiplicity
 _atom_site_fract_x
 _atom_site_fract_y
 _atom_site_fract_z
 _atom_site_occupancy
  V  V0  1  0.23098000  0.73092000  0.53067000  1.0
  V  V1  1  0.76902000  0.26908000  0.46934000  1.0
  V  V2  1  0.62874000  0.59090000  0.29895000  1.0
  V  V3  1  0.37126000  0.40910000  0.70105000  1.0
  Co  Co4  1  0.84195000  0.83794000  0.44291000  1.0
  Co  Co5  1  0.15805000  0.16206000  0.55709000  1.0
  H  H6  1  0.78646000  0.59449000  0.67112000  1.0
  H  H7  1  0.21354000  0.40552000  0.32889000  1.0
  H  H8  1  0.56920000  0.58153000  0.89149000  1.0
  H  H9  1  0.43080000  0.41848000  0.10852000  1.0
  H  H10  1  0.30957000  0.08089000  0.82890000  1.0
  H  H11  1  0.69042000  0.91911000  0.17110000  1.0
  H  H12  1  0.53348000  0.07065000  0.61196000  1.0
  H  H13  1  0.46651000  0.92935000  0.38803000  1.0
  H  H14  1  0.25392000  0.58902000  0.98401000  1.0
  H  H15  1  0.74608000  0.41098000  0.01599000  1.0
  H  H16  1  0.02128000  0.60963000  0.19961000  1.0
  H  H17  1  0.97872000  0.39036000  0.80040000  1.0
  H  H18  1  0.03714000  0.07800000  0.27703000  1.0
  H  H19  1  0.96286000  0.92200000  0.72297000  1.0
  H  H20  1  0.26592000  0.08062000  0.06472000  1.0
  H  H21  1  0.73408000  0.91938000  0.93528000  1.0
  C  C22  1  0.67824000  0.69916000  0.71061000  1.0
  C  C23  1  0.32175000  0.30085000  0.28939000  1.0
  C  C24  1  0.55632000  0.69282000  0.83279000  1.0
  C  C25  1  0.44369000  0.30718000  0.16721000  1.0
  C  C26  1  0.41897000  0.83061000  0.87950000  1.0
  C  C27  1  0.58103000  0.16940000  0.12050000  1.0
  C  C28  1  0.41266000  0.96992000  0.79940000  1.0
  C  C29  1  0.58734000  0.03007000  0.20059000  1.0
  C  C30  1  0.53765000  0.96556000  0.67781000  1.0
  C  C31  1  0.46234000  0.03444000  0.32219000  1.0
  C  C32  1  0.28283000  0.83299000  0.00661000  1.0
  C  C33  1  0.71717000  0.16701000  0.99339000  1.0
  C  C34  1  0.21175000  0.69945000  0.04694000  1.0
  C  C35  1  0.78826000  0.30055000  0.95305000  1.0
  C  C36  1  0.08124000  0.71034000  0.16674000  1.0
  C  C37  1  0.91876000  0.28966000  0.83326000  1.0
  C  C38  1  0.08761000  0.97222000  0.20916000  1.0
  C  C39  1  0.91238000  0.02779000  0.79085000  1.0
  C  C40  1  0.21623000  0.97268000  0.09022000  1.0
  C  C41  1  0.78377000  0.02732000  0.90978000  1.0
  N  N42  1  0.66908000  0.83361000  0.63320000  1.0
  N  N43  1  0.33092000  0.16639000  0.36680000  1.0
  N  N44  1  0.01965000  0.84389000  0.24806000  1.0
  N  N45  1  0.98035000  0.15611000  0.75194000  1.0
  O  O46  1  0.03649000  0.71429000  0.50990000  1.0
  O  O47  1  0.96352000  0.28570000  0.49010000  1.0
  O  O48  1  0.78158000  0.07051000  0.44910000  1.0
  O  O49  1  0.21841000  0.92949000  0.55090000  1.0
  O  O50  1  0.73359000  0.70000000  0.36965000  1.0
  O  O51  1  0.26641000  0.30000000  0.63035000  1.0
  O  O52  1  0.39696000  0.64630000  0.38472000  1.0
  O  O53  1  0.60304000  0.35369000  0.61528000  1.0
  O  O54  1  0.65178000  0.63235000  0.13700000  1.0
  O  O55  1  0.34822000  0.36765000  0.86300000  1.0
  O  O56  1  0.27899000  0.62295000  0.67907000  1.0
  O  O57  1  0.72101000  0.37705000  0.32093000  1.0
