# generated using pymatgen
data_LaH4(C3O4)2
_symmetry_space_group_name_H-M   'P 1'
_cell_length_a   7.03667000
_cell_length_b   7.14457000
_cell_length_c   17.02170000
_cell_angle_alpha   90.00000000
_cell_angle_beta   90.00000000
_cell_angle_gamma   100.64400000
_symmetry_Int_Tables_number   1
_chemical_formula_structural   LaH4(C3O4)2
_chemical_formula_sum   'La4 H16 C24 O32'
_cell_volume   841.02444241
_cell_formula_units_Z   4
loop_
 _symmetry_equiv_pos_site_id
 _symmetry_equiv_pos_as_xyz
  1  'x, y, z'
loop_
 _atom_site_type_symbol
 _atom_site_label
 _atom_site_symmetry_multiplicity
 _atom_site_fract_x
 _atom_site_fract_y
 _atom_site_fract_z
 _atom_site_occupancy
  La  La0  1  0.50840000  0.25652000  0.41906000  1.0
  La  La1  1  0.99160000  0.74347000  0.91906000  1.0
  La  La2  1  0.49160000  0.74348000  0.58094000  1.0
  La  La3  1  0.00840000  0.25652000  0.08095000  1.0
  H  H4  1  0.94893000  0.42070000  0.41184000  1.0
  H  H5  1  0.55108000  0.57930000  0.91184000  1.0
  H  H6  1  0.05108000  0.57930000  0.58816000  1.0
  H  H7  1  0.44892000  0.42070000  0.08816000  1.0
  H  H8  1  0.84838000  0.59417000  0.37996000  1.0
  H  H9  1  0.65162000  0.40583000  0.87996000  1.0
  H  H10  1  0.15162000  0.40583000  0.62004000  1.0
  H  H11  1  0.34838000  0.59417000  0.12004000  1.0
  H  H12  1  0.77452000  0.01015000  0.31998000  1.0
  H  H13  1  0.72548000  0.98985000  0.81998000  1.0
  H  H14  1  0.22548000  0.98985000  0.68002000  1.0
  H  H15  1  0.27452000  0.01015000  0.18002000  1.0
  H  H16  1  0.81112000  0.22106000  0.28457000  1.0
  H  H17  1  0.68889000  0.77894000  0.78457000  1.0
  H  H18  1  0.18888000  0.77894000  0.71543000  1.0
  H  H19  1  0.31112000  0.22106000  0.21543000  1.0
  C  C20  1  0.59686000  0.33498000  0.62951000  1.0
  C  C21  1  0.90314000  0.66502000  0.12951000  1.0
  C  C22  1  0.40314000  0.66502000  0.37049000  1.0
  C  C23  1  0.09686000  0.33497000  0.87049000  1.0
  C  C24  1  0.64993000  0.17190000  0.67064000  1.0
  C  C25  1  0.85007000  0.82810000  0.17064000  1.0
  C  C26  1  0.35007000  0.82810000  0.32936000  1.0
  C  C27  1  0.14993000  0.17190000  0.82936000  1.0
  C  C28  1  0.64758000  0.27456000  0.74636000  1.0
  C  C29  1  0.85242000  0.72544000  0.24636000  1.0
  C  C30  1  0.35241000  0.72544000  0.25364000  1.0
  C  C31  1  0.14758000  0.27455000  0.75364000  1.0
  C  C32  1  0.60094000  0.43970000  0.70294000  1.0
  C  C33  1  0.89906000  0.56030000  0.20295000  1.0
  C  C34  1  0.39906000  0.56030000  0.29705000  1.0
  C  C35  1  0.10094000  0.43970000  0.79705000  1.0
  C  C36  1  0.86074000  0.01754000  0.49063000  1.0
  C  C37  1  0.63926000  0.98246000  0.99063000  1.0
  C  C38  1  0.13927000  0.98247000  0.50937000  1.0
  C  C39  1  0.36073000  0.01753000  0.00937000  1.0
  C  C40  1  0.94855000  0.87699000  0.53280000  1.0
  C  C41  1  0.55145000  0.12302000  0.03280000  1.0
  C  C42  1  0.05146000  0.12302000  0.46720000  1.0
  C  C43  1  0.44854000  0.87698000  0.96720000  1.0
  O  O44  1  0.55058000  0.38288000  0.56086000  1.0
  O  O45  1  0.94942000  0.61713000  0.06086000  1.0
  O  O46  1  0.44943000  0.61713000  0.43914000  1.0
  O  O47  1  0.05057000  0.38287000  0.93914000  1.0
  O  O48  1  0.67828000  0.00868000  0.65331000  1.0
  O  O49  1  0.82173000  0.99132000  0.15331000  1.0
  O  O50  1  0.32172000  0.99132000  0.34669000  1.0
  O  O51  1  0.17828000  0.00868000  0.84669000  1.0
  O  O52  1  0.66622000  0.22780000  0.81674000  1.0
  O  O53  1  0.83377000  0.77221000  0.31674000  1.0
  O  O54  1  0.33377000  0.77220000  0.18326000  1.0
  O  O55  1  0.16623000  0.22779000  0.68326000  1.0
  O  O56  1  0.56314000  0.60370000  0.71612000  1.0
  O  O57  1  0.93687000  0.39629000  0.21612000  1.0
  O  O58  1  0.43687000  0.39630000  0.28388000  1.0
  O  O59  1  0.06314000  0.60371000  0.78388000  1.0
  O  O60  1  0.83125000  0.47856000  0.41440000  1.0
  O  O61  1  0.66875000  0.52144000  0.91440000  1.0
  O  O62  1  0.16875000  0.52144000  0.58560000  1.0
  O  O63  1  0.33125000  0.47855000  0.08560000  1.0
  O  O64  1  0.73553000  0.13621000  0.32373000  1.0
  O  O65  1  0.76447000  0.86379000  0.82373000  1.0
  O  O66  1  0.26447000  0.86379000  0.67627000  1.0
  O  O67  1  0.23553000  0.13621000  0.17627000  1.0
  O  O68  1  0.68294000  0.02425000  0.48329000  1.0
  O  O69  1  0.81706000  0.97575000  0.98329000  1.0
  O  O70  1  0.31707000  0.97576000  0.51671000  1.0
  O  O71  1  0.18293000  0.02425000  0.01671000  1.0
  O  O72  1  0.87194000  0.73069000  0.57069000  1.0
  O  O73  1  0.62806000  0.26931000  0.07069000  1.0
  O  O74  1  0.12806000  0.26932000  0.42931000  1.0
  O  O75  1  0.37194000  0.73068000  0.92931000  1.0
