# generated using pymatgen
data_Cd3H14(C3O4)4
_symmetry_space_group_name_H-M   'P 1'
_cell_length_a   6.13196000
_cell_length_b   9.81215000
_cell_length_c   15.23240000
_cell_angle_alpha   90.00010000
_cell_angle_beta   90.00000000
_cell_angle_gamma   102.23400000
_symmetry_Int_Tables_number   1
_chemical_formula_structural   Cd3H14(C3O4)4
_chemical_formula_sum   'Cd6 H28 C24 O32'
_cell_volume   895.68525443
_cell_formula_units_Z   2
loop_
 _symmetry_equiv_pos_site_id
 _symmetry_equiv_pos_as_xyz
  1  'x, y, z'
loop_
 _atom_site_type_symbol
 _atom_site_label
 _atom_site_symmetry_multiplicity
 _atom_site_fract_x
 _atom_site_fract_y
 _atom_site_fract_z
 _atom_site_occupancy
  Cd  Cd0  1  0.60553000  0.32085000  0.40265000  1.0
  Cd  Cd1  1  0.39447000  0.17915000  0.90265000  1.0
  Cd  Cd2  1  0.39447000  0.67915000  0.59735000  1.0
  Cd  Cd3  1  0.60553000  0.82085000  0.09735000  1.0
  Cd  Cd4  1  0.00000000  0.00000000  0.50000000  1.0
  Cd  Cd5  1  0.00000000  0.50000000  0.00000000  1.0
  H  H6  1  0.31354000  0.50873000  0.41750000  1.0
  H  H7  1  0.68646000  0.99127000  0.91750000  1.0
  H  H8  1  0.68646000  0.49127000  0.58250000  1.0
  H  H9  1  0.31354000  0.00873000  0.08250000  1.0
  H  H10  1  0.19669000  0.36885000  0.46154000  1.0
  H  H11  1  0.80331000  0.13115000  0.96154000  1.0
  H  H12  1  0.80331000  0.63115000  0.53846000  1.0
  H  H13  1  0.19669000  0.86885000  0.03846000  1.0
  H  H14  1  0.73049000  0.07732000  0.75625000  1.0
  H  H15  1  0.26952000  0.42268000  0.25625000  1.0
  H  H16  1  0.26951000  0.92268000  0.24375000  1.0
  H  H17  1  0.73048000  0.57732000  0.74375000  1.0
  H  H18  1  0.54218000  0.14429000  0.69123000  1.0
  H  H19  1  0.45782000  0.35571000  0.19123000  1.0
  H  H20  1  0.45782000  0.85571000  0.30877000  1.0
  H  H21  1  0.54218000  0.64429000  0.80877000  1.0
  H  H22  1  0.10932000  0.09024000  0.68759000  1.0
  H  H23  1  0.89068000  0.40976000  0.18759000  1.0
  H  H24  1  0.89068000  0.90976000  0.31241000  1.0
  H  H25  1  0.10932000  0.59024000  0.81241000  1.0
  H  H26  1  0.80337000  0.35497000  0.72767000  1.0
  H  H27  1  0.19663000  0.14503000  0.22768000  1.0
  H  H28  1  0.19663000  0.64503000  0.27232000  1.0
  H  H29  1  0.80337000  0.85497000  0.77232000  1.0
  H  H30  1  0.03126000  0.28770000  0.76523000  1.0
  H  H31  1  0.96874000  0.21230000  0.26523000  1.0
  H  H32  1  0.96874000  0.71230000  0.23477000  1.0
  H  H33  1  0.03126000  0.78770000  0.73477000  1.0
  C  C34  1  0.80524000  0.24368000  0.55623000  1.0
  C  C35  1  0.19476000  0.25632000  0.05623000  1.0
  C  C36  1  0.19476000  0.75632000  0.44377000  1.0
  C  C37  1  0.80524000  0.74368000  0.94377000  1.0
  C  C38  1  0.88382000  0.19505000  0.64447000  1.0
  C  C39  1  0.11618000  0.30495000  0.14446000  1.0
  C  C40  1  0.11618000  0.80495000  0.35554000  1.0
  C  C41  1  0.88382000  0.69505000  0.85554000  1.0
  C  C42  1  0.68596000  0.09377000  0.68771000  1.0
  C  C43  1  0.31404000  0.40623000  0.18771000  1.0
  C  C44  1  0.31404000  0.90623000  0.31229000  1.0
  C  C45  1  0.68596000  0.59377000  0.81229000  1.0
  C  C46  1  0.60400000  0.95152000  0.64634000  1.0
  C  C47  1  0.39600000  0.54848000  0.14634000  1.0
  C  C48  1  0.39600000  0.04848000  0.35366000  1.0
  C  C49  1  0.60400000  0.45152000  0.85366000  1.0
  C  C50  1  0.95406000  0.32086000  0.70601000  1.0
  C  C51  1  0.04594000  0.17914000  0.20601000  1.0
  C  C52  1  0.04593000  0.67914000  0.29399000  1.0
  C  C53  1  0.95406000  0.82086000  0.79399000  1.0
  C  C54  1  0.11219000  0.44547000  0.66719000  1.0
  C  C55  1  0.88781000  0.05453000  0.16719000  1.0
  C  C56  1  0.88780000  0.55453000  0.33281000  1.0
  C  C57  1  0.11219000  0.94547000  0.83281000  1.0
  O  O58  1  0.87439000  0.20311000  0.48341000  1.0
  O  O59  1  0.12561000  0.29689000  0.98341000  1.0
  O  O60  1  0.12561000  0.79689000  0.51659000  1.0
  O  O61  1  0.87439000  0.70311000  0.01658000  1.0
  O  O62  1  0.66057000  0.31877000  0.55833000  1.0
  O  O63  1  0.33943000  0.18123000  0.05833000  1.0
  O  O64  1  0.33943000  0.68122000  0.44167000  1.0
  O  O65  1  0.66057000  0.81877000  0.94167000  1.0
  O  O66  1  0.66654000  0.91849000  0.57054000  1.0
  O  O67  1  0.33346000  0.58151000  0.07053000  1.0
  O  O68  1  0.33345000  0.08151000  0.42947000  1.0
  O  O69  1  0.66654000  0.41849000  0.92946000  1.0
  O  O70  1  0.46481000  0.86432000  0.69141000  1.0
  O  O71  1  0.53518000  0.63569000  0.19141000  1.0
  O  O72  1  0.53518000  0.13568000  0.30859000  1.0
  O  O73  1  0.46481000  0.36431000  0.80859000  1.0
  O  O74  1  0.28388000  0.40577000  0.40940000  1.0
  O  O75  1  0.71612000  0.09423000  0.90940000  1.0
  O  O76  1  0.71612000  0.59423000  0.59060000  1.0
  O  O77  1  0.28388000  0.90577000  0.09060000  1.0
  O  O78  1  0.06801000  0.12875000  0.62934000  1.0
  O  O79  1  0.93199000  0.37126000  0.12934000  1.0
  O  O80  1  0.93199000  0.87125000  0.37066000  1.0
  O  O81  1  0.06801000  0.62874000  0.87066000  1.0
  O  O82  1  0.17701000  0.55362000  0.71573000  1.0
  O  O83  1  0.82300000  0.94638000  0.21573000  1.0
  O  O84  1  0.82299000  0.44638000  0.28427000  1.0
  O  O85  1  0.17700000  0.05362000  0.78427000  1.0
  O  O86  1  0.17536000  0.44513000  0.58802000  1.0
  O  O87  1  0.82464000  0.05487000  0.08803000  1.0
  O  O88  1  0.82464000  0.55486000  0.41197000  1.0
  O  O89  1  0.17536000  0.94513000  0.91198000  1.0
