# generated using pymatgen
data_CdH3C2N3
_symmetry_space_group_name_H-M   'P 1'
_cell_length_a   8.63572000
_cell_length_b   8.63563000
_cell_length_c   14.92010000
_cell_angle_alpha   91.07720000
_cell_angle_beta   91.07590000
_cell_angle_gamma   90.48360000
_symmetry_Int_Tables_number   1
_chemical_formula_structural   CdH3C2N3
_chemical_formula_sum   'Cd4 H12 C8 N12'
_cell_volume   1112.22890614
_cell_formula_units_Z   4
loop_
 _symmetry_equiv_pos_site_id
 _symmetry_equiv_pos_as_xyz
  1  'x, y, z'
loop_
 _atom_site_type_symbol
 _atom_site_label
 _atom_site_symmetry_multiplicity
 _atom_site_fract_x
 _atom_site_fract_y
 _atom_site_fract_z
 _atom_site_occupancy
  Cd  Cd0  1  0.50906000  0.49092000  0.25000000  1.0
  Cd  Cd1  1  0.49094000  0.50907000  0.75000000  1.0
  Cd  Cd2  1  0.00000000  0.50001000  0.00000000  1.0
  Cd  Cd3  1  0.50000000  0.99999000  0.50000000  1.0
  H  H4  1  0.90812000  0.81438000  0.04690000  1.0
  H  H5  1  0.18563000  0.09188000  0.45310000  1.0
  H  H6  1  0.09188000  0.18562000  0.95310000  1.0
  H  H7  1  0.81438000  0.90812000  0.54690000  1.0
  H  H8  1  0.10042000  0.81206000  0.05097000  1.0
  H  H9  1  0.18794000  0.89957000  0.44903000  1.0
  H  H10  1  0.89958000  0.18794000  0.94903000  1.0
  H  H11  1  0.81206000  0.10043000  0.55097000  1.0
  H  H12  1  0.00760000  0.82871000  0.95327000  1.0
  H  H13  1  0.17129000  0.99240000  0.54673000  1.0
  H  H14  1  0.99240000  0.17130000  0.04673000  1.0
  H  H15  1  0.82871000  0.00760000  0.45327000  1.0
  C  C16  1  0.71522000  0.49160000  0.16302000  1.0
  C  C17  1  0.50840000  0.28477000  0.33698000  1.0
  C  C18  1  0.28477000  0.50840000  0.83698000  1.0
  C  C19  1  0.49160000  0.71522000  0.66301000  1.0
  C  C20  1  0.50940000  0.69723000  0.34136000  1.0
  C  C21  1  0.30276000  0.49060000  0.15864000  1.0
  C  C22  1  0.49060000  0.30277000  0.65864000  1.0
  C  C23  1  0.69724000  0.50940000  0.84136000  1.0
  N  N24  1  0.81793000  0.49133000  0.11306000  1.0
  N  N25  1  0.50866000  0.18207000  0.38693000  1.0
  N  N26  1  0.18208000  0.50867000  0.88693000  1.0
  N  N27  1  0.49134000  0.81793000  0.61307000  1.0
  N  N28  1  0.80118000  0.50974000  0.89271000  1.0
  N  N29  1  0.49026000  0.19883000  0.60730000  1.0
  N  N30  1  0.19882000  0.49026000  0.10729000  1.0
  N  N31  1  0.50974000  0.80118000  0.39271000  1.0
  N  N32  1  0.00459000  0.77816000  0.01443000  1.0
  N  N33  1  0.22184000  0.99541000  0.48557000  1.0
  N  N34  1  0.99541000  0.22184000  0.98557000  1.0
  N  N35  1  0.77816000  0.00459000  0.51443000  1.0
