# generated using pymatgen
data_Zr3H23(C3O)16
_symmetry_space_group_name_H-M   'P 1'
_cell_length_a   18.25730000
_cell_length_b   22.47720000
_cell_length_c   22.58300000
_cell_angle_alpha   65.02100000
_cell_angle_beta   89.41390000
_cell_angle_gamma   88.78590000
_symmetry_Int_Tables_number   1
_chemical_formula_structural   Zr3H23(C3O)16
_chemical_formula_sum   'Zr6 H46 C96 O32'
_cell_volume   8398.70550473
_cell_formula_units_Z   2
loop_
 _symmetry_equiv_pos_site_id
 _symmetry_equiv_pos_as_xyz
  1  'x, y, z'
loop_
 _atom_site_type_symbol
 _atom_site_label
 _atom_site_symmetry_multiplicity
 _atom_site_fract_x
 _atom_site_fract_y
 _atom_site_fract_z
 _atom_site_occupancy
  Zr  Zr0  1  0.21067000  0.97215000  0.03928000  1.0
  Zr  Zr1  1  0.94726000  0.94634000  0.03101000  1.0
  Zr  Zr2  1  0.08611000  0.85645000  0.13865000  1.0
  Zr  Zr3  1  0.07318000  0.06244000  0.93246000  1.0
  Zr  Zr4  1  0.10287000  0.89413000  0.96353000  1.0
  Zr  Zr5  1  0.05460000  0.03008000  0.10016000  1.0
  H  H6  1  0.74008000  0.01774000  0.74134000  1.0
  H  H7  1  0.60823000  0.17323000  0.59932000  1.0
  H  H8  1  0.74759000  0.21420000  0.73023000  1.0
  H  H9  1  0.45204000  0.72497000  0.97637000  1.0
  H  H10  1  0.56801000  0.73166000  0.80616000  1.0
  H  H11  1  0.45082000  0.90371000  0.79854000  1.0
  H  H12  1  0.70770000  0.19424000  0.09629000  1.0
  H  H13  1  0.57611000  0.18351000  0.26036000  1.0
  H  H14  1  0.70457000  0.01488000  0.27340000  1.0
  H  H15  1  0.63060000  0.06508000  0.48733000  1.0
  H  H16  1  0.51346000  0.84749000  0.57959000  1.0
  H  H17  1  0.41023000  0.89140000  0.32142000  1.0
  H  H18  1  0.54085000  0.74049000  0.46973000  1.0
  H  H19  1  0.41143000  0.69291000  0.33740000  1.0
  H  H20  1  0.40388000  0.25729000  0.96455000  1.0
  H  H21  1  0.55231000  0.38811000  0.82076000  1.0
  H  H22  1  0.40557000  0.27053000  0.76801000  1.0
  H  H23  1  0.72196000  0.66272000  0.29453000  1.0
  H  H24  1  0.60495000  0.52197000  0.24982000  1.0
  H  H25  1  0.72011000  0.67881000  0.09715000  1.0
  H  H26  1  0.65703000  0.40204000  0.48082000  1.0
  H  H27  1  0.49837000  0.50910000  0.58922000  1.0
  H  H28  1  0.51828000  0.50370000  0.92447000  1.0
  H  H29  1  0.63064000  0.41290000  0.14480000  1.0
  H  H30  1  0.19140000  0.00016000  0.89873000  1.0
  H  H31  1  0.99877000  0.81022000  0.07136000  1.0
  H  H32  1  0.95015000  0.08629000  0.99271000  1.0
  H  H33  1  0.17351000  0.95123000  0.17195000  1.0
  H  H34  1  0.08170000  0.77794000  0.98505000  1.0
  H  H35  1  0.00803000  0.83339000  0.24194000  1.0
  H  H36  1  0.99484000  0.97923000  0.22421000  1.0
  H  H37  1  0.09678000  0.91750000  0.84296000  1.0
  H  H38  1  0.04236000  0.11326000  0.80191000  1.0
  H  H39  1  0.08681000  0.18970000  0.89637000  1.0
  H  H40  1  0.07181000  0.15877000  0.05823000  1.0
  H  H41  1  0.97455000  0.84967000  0.94204000  1.0
  H  H42  1  0.85530000  0.92015000  0.94083000  1.0
  H  H43  1  0.31426000  0.05295000  0.05526000  1.0
  H  H44  1  0.12933000  0.06199000  0.18234000  1.0
  H  H45  1  0.12460000  0.13509000  0.80432000  1.0
  H  H46  1  0.85999000  0.86152000  0.01110000  1.0
  H  H47  1  0.07760000  0.72736000  0.20850000  1.0
  H  H48  1  0.16911000  0.76824000  0.99694000  1.0
  H  H49  1  0.04300000  0.15580000  0.99024000  1.0
  H  H50  1  0.04630000  0.91727000  0.22306000  1.0
  H  H51  1  0.32392000  0.98274000  0.11499000  1.0
  C  C52  1  0.74940000  0.11367000  0.74132000  1.0
  C  C53  1  0.72146000  0.06880000  0.71926000  1.0
  C  C54  1  0.67074000  0.09027000  0.66770000  1.0
  C  C55  1  0.64749000  0.15650000  0.63930000  1.0
  C  C56  1  0.67437000  0.20128000  0.66188000  1.0
  C  C57  1  0.72576000  0.17975000  0.71287000  1.0
  C  C58  1  0.44652000  0.81788000  0.89098000  1.0
  C  C59  1  0.46957000  0.75216000  0.92595000  1.0
  C  C60  1  0.51359000  0.72080000  0.89573000  1.0
  C  C61  1  0.53460000  0.75587000  0.83002000  1.0
  C  C62  1  0.51269000  0.82201000  0.79484000  1.0
  C  C63  1  0.46890000  0.85292000  0.82576000  1.0
  C  C64  1  0.71157000  0.10115000  0.18163000  1.0
  C  C65  1  0.68734000  0.16634000  0.14566000  1.0
  C  C66  1  0.63833000  0.19634000  0.17376000  1.0
  C  C67  1  0.61342000  0.16033000  0.23816000  1.0
  C  C68  1  0.63661000  0.09470000  0.27417000  1.0
  C  C69  1  0.68556000  0.06527000  0.24550000  1.0
  C  C70  1  0.59457000  0.98490000  0.57528000  1.0
  C  C71  1  0.56092000  0.92219000  0.60230000  1.0
  C  C72  1  0.53949000  0.89514000  0.55954000  1.0
  C  C73  1  0.54931000  0.92779000  0.49153000  1.0
  C  C74  1  0.58287000  0.99052000  0.46463000  1.0
  C  C75  1  0.60438000  0.01753000  0.50738000  1.0
  C  C76  1  0.40551000  0.79420000  0.32353000  1.0
  C  C77  1  0.42986000  0.84069000  0.34513000  1.0
  C  C78  1  0.47834000  0.82129000  0.39828000  1.0
  C  C79  1  0.50313000  0.75556000  0.42871000  1.0
  C  C80  1  0.47987000  0.70927000  0.40665000  1.0
  C  C81  1  0.43059000  0.72867000  0.35421000  1.0
  C  C82  1  0.39885000  0.25858000  0.86816000  1.0
  C  C83  1  0.42623000  0.27795000  0.91522000  1.0
  C  C84  1  0.48131000  0.32512000  0.89808000  1.0
  C  C85  1  0.50965000  0.35157000  0.83411000  1.0
  C  C86  1  0.48298000  0.33186000  0.78719000  1.0
  C  C87  1  0.42715000  0.28548000  0.80431000  1.0
  C  C88  1  0.72595000  0.67699000  0.19369000  1.0
  C  C89  1  0.70395000  0.64470000  0.25938000  1.0
  C  C90  1  0.66004000  0.58897000  0.27979000  1.0
  C  C91  1  0.63842000  0.56554000  0.23413000  1.0
  C  C92  1  0.65958000  0.59777000  0.16817000  1.0
  C  C93  1  0.70304000  0.65389000  0.14796000  1.0
  C  C94  1  0.60224000  0.38981000  0.57003000  1.0
  C  C95  1  0.55671000  0.42050000  0.60111000  1.0
  C  C96  1  0.53343000  0.48576000  0.56557000  1.0
  C  C97  1  0.55338000  0.52141000  0.50013000  1.0
  C  C98  1  0.59862000  0.49067000  0.46881000  1.0
  C  C99  1  0.62209000  0.42548000  0.50446000  1.0
  C  C100  1  0.56304000  0.52745000  0.99945000  1.0
  C  C101  1  0.59505000  0.50095000  0.06305000  1.0
  C  C102  1  0.60559000  0.43266000  0.09657000  1.0
  C  C103  1  0.58610000  0.38917000  0.06973000  1.0
  C  C104  1  0.55374000  0.41572000  0.00630000  1.0
  C  C105  1  0.54339000  0.48400000  0.97267000  1.0
  C  C106  1  0.28653000  0.89078000  0.96939000  1.0
  C  C107  1  0.24388000  0.11775000  0.92129000  1.0
  C  C108  1  0.25828000  0.84765000  0.17471000  1.0
  C  C109  1  0.86689000  0.82840000  0.15058000  1.0
  C  C110  1  0.87700000  0.02553000  0.11050000  1.0
  C  C111  1  0.90181000  0.05630000  0.88643000  1.0
  C  C112  1  0.77275000  0.73158000  0.17543000  1.0
  C  C113  1  0.81437000  0.77684000  0.16395000  1.0
  C  C114  1  0.63745000  0.57051000  0.12497000  1.0
  C  C115  1  0.61668000  0.54104000  0.09378000  1.0
  C  C116  1  0.61983000  0.52553000  0.40287000  1.0
  C  C117  1  0.63850000  0.55546000  0.34608000  1.0
  C  C118  1  0.34273000  0.21160000  0.88467000  1.0
  C  C119  1  0.29520000  0.17069000  0.89824000  1.0
  C  C120  1  0.50742000  0.34936000  0.94251000  1.0
  C  C121  1  0.53080000  0.37623000  0.97526000  1.0
  C  C122  1  0.51079000  0.36030000  0.72252000  1.0
  C  C123  1  0.53370000  0.38643000  0.66666667  1.0
  C  C124  1  0.31094000  0.82474000  0.22721000  1.0
  C  C125  1  0.35497000  0.81208000  0.27124000  1.0
  C  C126  1  0.52825000  0.58696000  0.46597000  1.0
  C  C127  1  0.50552000  0.64336000  0.43803000  1.0
  C  C128  1  0.52539000  0.89681000  0.45233000  1.0
  C  C129  1  0.50235000  0.86515000  0.42413000  1.0
  C  C130  1  0.81359000  0.04888000  0.13384000  1.0
  C  C131  1  0.76492000  0.07248000  0.15493000  1.0
  C  C132  1  0.59694000  0.02543000  0.39685000  1.0
  C  C133  1  0.61339000  0.05821000  0.33981000  1.0
  C  C134  1  0.60053000  0.32092000  0.10515000  1.0
  C  C135  1  0.61643000  0.26311000  0.13741000  1.0
  C  C136  1  0.35073000  0.86874000  0.94561000  1.0
  C  C137  1  0.39717000  0.84687000  0.92066000  1.0
  C  C138  1  0.54918000  0.59571000  0.96384000  1.0
  C  C139  1  0.53424000  0.65370000  0.93152000  1.0
  C  C140  1  0.53259000  0.85722000  0.72804000  1.0
  C  C141  1  0.54741000  0.88797000  0.67026000  1.0
  C  C142  1  0.80234000  0.09293000  0.79190000  1.0
  C  C143  1  0.84836000  0.07653000  0.83478000  1.0
  C  C144  1  0.64362000  0.04761000  0.64173000  1.0
  C  C145  1  0.61921000  0.01580000  0.61427000  1.0
  C  C146  1  0.64994000  0.26772000  0.63201000  1.0
  C  C147  1  0.62733000  0.32420000  0.60428000  1.0
  O  O148  1  0.28922000  0.01894000  0.09228000  1.0
  O  O149  1  0.29460000  0.93342000  0.99255000  1.0
  O  O150  1  0.27840000  0.89695000  0.12304000  1.0
  O  O151  1  0.18203000  0.12625000  0.89319000  1.0
  O  O152  1  0.19685000  0.81976000  0.18435000  1.0
  O  O153  1  0.26641000  0.06609000  0.96979000  1.0
  O  O154  1  0.22695000  0.86593000  0.96366000  1.0
  O  O155  1  0.14868000  0.89627000  0.05220000  1.0
  O  O156  1  0.16398000  0.99311000  0.93827000  1.0
  O  O157  1  0.14775000  0.95273000  0.13392000  1.0
  O  O158  1  0.12438000  0.03938000  0.02042000  1.0
  O  O159  1  0.04835000  0.15909000  0.91923000  1.0
  O  O160  1  0.12327000  0.77823000  0.01358000  1.0
  O  O161  1  0.02808000  0.96834000  0.96041000  1.0
  O  O162  1  0.01719000  0.85454000  0.05662000  1.0
  O  O163  1  0.01497000  0.94011000  0.10221000  1.0
  O  O164  1  0.98620000  0.05065000  0.00601000  1.0
  O  O165  1  0.06072000  0.76239000  0.16793000  1.0
  O  O166  1  0.90256000  0.83212000  0.19514000  1.0
  O  O167  1  0.87223000  0.86764000  0.08801000  1.0
  O  O168  1  0.11568000  0.08140000  0.13657000  1.0
  O  O169  1  0.86686000  0.99369000  0.07640000  1.0
  O  O170  1  0.05588000  0.85404000  0.23026000  1.0
  O  O171  1  0.04306000  0.97005000  0.21093000  1.0
  O  O172  1  0.03443000  0.14149000  0.03935000  1.0
  O  O173  1  0.93857000  0.04062000  0.12647000  1.0
  O  O174  1  0.88816000  0.88612000  0.97068000  1.0
  O  O175  1  0.09139000  0.09813000  0.82006000  1.0
  O  O176  1  0.88107000  0.01342000  0.94211000  1.0
  O  O177  1  0.96432000  0.08272000  0.87232000  1.0
  O  O178  1  0.12789000  0.93393000  0.86720000  1.0
  O  O179  1  0.02650000  0.84359000  0.93536000  1.0
