# generated using pymatgen
data_CdH6(C2O3)2
_symmetry_space_group_name_H-M   'P 1'
_cell_length_a   9.54047000
_cell_length_b   9.72677000
_cell_length_c   13.67810000
_cell_angle_alpha   71.33270000
_cell_angle_beta   69.58790000
_cell_angle_gamma   60.62950000
_symmetry_Int_Tables_number   1
_chemical_formula_structural   CdH6(C2O3)2
_chemical_formula_sum   'Cd6 H36 C24 O36'
_cell_volume   1019.29398284
_cell_formula_units_Z   6
loop_
 _symmetry_equiv_pos_site_id
 _symmetry_equiv_pos_as_xyz
  1  'x, y, z'
loop_
 _atom_site_type_symbol
 _atom_site_label
 _atom_site_symmetry_multiplicity
 _atom_site_fract_x
 _atom_site_fract_y
 _atom_site_fract_z
 _atom_site_occupancy
  Cd  Cd0  1  0.48337000  0.74997000  0.25000000  1.0
  Cd  Cd1  1  0.51663000  0.25002000  0.75000000  1.0
  Cd  Cd2  1  0.98702000  0.80427000  0.70591000  1.0
  Cd  Cd3  1  0.49715000  0.69577000  0.79409000  1.0
  Cd  Cd4  1  0.01298000  0.19573000  0.29409000  1.0
  Cd  Cd5  1  0.50285000  0.30423000  0.20591000  1.0
  H  H6  1  0.90353000  0.53011000  0.78154000  1.0
  H  H7  1  0.21512000  0.96996000  0.71844000  1.0
  H  H8  1  0.09647000  0.46989000  0.21846000  1.0
  H  H9  1  0.78488000  0.03004000  0.28156000  1.0
  H  H10  1  0.09007000  0.46875000  0.78806000  1.0
  H  H11  1  0.34685000  0.03129000  0.71192000  1.0
  H  H12  1  0.90993000  0.53125000  0.21194000  1.0
  H  H13  1  0.65315000  0.96871000  0.28808000  1.0
  H  H14  1  0.30047000  0.61419000  0.58940000  1.0
  H  H15  1  0.50413000  0.88580000  0.91059000  1.0
  H  H16  1  0.69954000  0.38580000  0.41060000  1.0
  H  H17  1  0.49587000  0.11420000  0.08941000  1.0
  H  H18  1  0.22181000  0.75080000  0.50326000  1.0
  H  H19  1  0.47593000  0.74919000  0.99673000  1.0
  H  H20  1  0.77819000  0.24920000  0.49674000  1.0
  H  H21  1  0.52407000  0.25081000  0.00327000  1.0
  H  H22  1  0.93740000  0.13512000  0.65136000  1.0
  H  H23  1  0.72388000  0.36490000  0.84863000  1.0
  H  H24  1  0.06260000  0.86488000  0.34864000  1.0
  H  H25  1  0.27612000  0.63510000  0.15137000  1.0
  H  H26  1  0.09288000  0.04793000  0.56885000  1.0
  H  H27  1  0.70966000  0.45210000  0.93113000  1.0
  H  H28  1  0.90712000  0.95206000  0.43115000  1.0
  H  H29  1  0.29034000  0.54790000  0.06887000  1.0
  H  H30  1  0.99566000  0.96420000  0.90159000  1.0
  H  H31  1  0.86141000  0.53582000  0.59846000  1.0
  H  H32  1  0.00434000  0.03580000  0.09841000  1.0
  H  H33  1  0.13859000  0.46418000  0.40154000  1.0
  H  H34  1  0.82934000  0.04101000  0.00937000  1.0
  H  H35  1  0.87972000  0.45901000  0.49066000  1.0
  H  H36  1  0.17066000  0.95899000  0.99063000  1.0
  H  H37  1  0.12028000  0.54099000  0.50934000  1.0
  H  H38  1  0.03899000  0.55158000  0.03385000  1.0
  H  H39  1  0.62442000  0.94843000  0.46616000  1.0
  H  H40  1  0.96101000  0.44842000  0.96615000  1.0
  H  H41  1  0.37558000  0.05157000  0.53384000  1.0
  C  C42  1  0.74578000  0.78633000  0.08685000  1.0
  C  C43  1  0.61897000  0.71368000  0.41316000  1.0
  C  C44  1  0.25422000  0.21367000  0.91315000  1.0
  C  C45  1  0.38103000  0.28632000  0.58684000  1.0
  C  C46  1  0.89200000  0.80063000  0.00350000  1.0
  C  C47  1  0.69610000  0.69940000  0.49651000  1.0
  C  C48  1  0.10800000  0.19937000  0.99650000  1.0
  C  C49  1  0.30390000  0.30060000  0.50349000  1.0
  C  C50  1  0.75993000  0.05500000  0.87337000  1.0
  C  C51  1  0.68827000  0.44503000  0.62662000  1.0
  C  C52  1  0.24006000  0.94500000  0.12663000  1.0
  C  C53  1  0.31173000  0.55497000  0.37338000  1.0
  C  C54  1  0.87456000  0.96743000  0.94910000  1.0
  C  C55  1  0.79106000  0.53259000  0.55092000  1.0
  C  C56  1  0.12544000  0.03257000  0.05090000  1.0
  C  C57  1  0.20894000  0.46741000  0.44908000  1.0
  C  C58  1  0.18278000  0.66420000  0.90217000  1.0
  C  C59  1  0.74916000  0.83581000  0.59784000  1.0
  C  C60  1  0.81722000  0.33580000  0.09783000  1.0
  C  C61  1  0.25084000  0.16419000  0.40216000  1.0
  C  C62  1  0.03125000  0.66666667  0.98429000  1.0
  C  C63  1  0.68220000  0.83334000  0.51572000  1.0
  C  C64  1  0.96875000  0.33333333  0.01571000  1.0
  C  C65  1  0.31780000  0.16666000  0.48428000  1.0
  O  O66  1  0.60823000  0.90873000  0.09460000  1.0
  O  O67  1  0.61157000  0.59128000  0.40542000  1.0
  O  O68  1  0.39177000  0.09127000  0.90540000  1.0
  O  O69  1  0.38843000  0.40872000  0.59458000  1.0
  O  O70  1  0.76078000  0.65024000  0.14767000  1.0
  O  O71  1  0.55869000  0.84977000  0.35233000  1.0
  O  O72  1  0.23922000  0.34976000  0.85233000  1.0
  O  O73  1  0.44132000  0.15023000  0.64767000  1.0
  O  O74  1  0.66380000  0.20458000  0.87427000  1.0
  O  O75  1  0.74261000  0.29546000  0.62572000  1.0
  O  O76  1  0.33620000  0.79542000  0.12573000  1.0
  O  O77  1  0.25739000  0.70454000  0.37428000  1.0
  O  O78  1  0.76255000  0.98418000  0.80891000  1.0
  O  O79  1  0.55560000  0.51584000  0.69108000  1.0
  O  O80  1  0.23745000  0.01582000  0.19109000  1.0
  O  O81  1  0.44440000  0.48416000  0.30892000  1.0
  O  O82  1  0.31537000  0.60648000  0.93463000  1.0
  O  O83  1  0.85648000  0.89354000  0.56539000  1.0
  O  O84  1  0.68463000  0.39352000  0.06537000  1.0
  O  O85  1  0.14352000  0.10646000  0.43461000  1.0
  O  O86  1  0.00507000  0.54672000  0.74623000  1.0
  O  O87  1  0.29796000  0.95334000  0.75376000  1.0
  O  O88  1  0.99493000  0.45328000  0.25377000  1.0
  O  O89  1  0.70204000  0.04666000  0.24624000  1.0
  O  O90  1  0.23392000  0.73186000  0.57575000  1.0
  O  O91  1  0.54159000  0.76814000  0.92424000  1.0
  O  O92  1  0.76608000  0.26814000  0.42425000  1.0
  O  O93  1  0.45841000  0.23187000  0.07577000  1.0
  O  O94  1  0.17823000  0.72019000  0.80572000  1.0
  O  O95  1  0.70413000  0.77982000  0.69429000  1.0
  O  O96  1  0.82177000  0.27981000  0.19428000  1.0
  O  O97  1  0.29587000  0.22018000  0.30571000  1.0
  O  O98  1  0.04419000  0.03851000  0.64726000  1.0
  O  O99  1  0.72993000  0.46153000  0.85272000  1.0
  O  O100  1  0.95581000  0.96149000  0.35274000  1.0
  O  O101  1  0.27007000  0.53847000  0.14728000  1.0
