# generated using pymatgen
data_Zn3H26C24(NO4)4
_symmetry_space_group_name_H-M   'P 1'
_cell_length_a   14.14130000
_cell_length_b   14.69630000
_cell_length_c   14.69520000
_cell_angle_alpha   110.21100000
_cell_angle_beta   108.72100000
_cell_angle_gamma   108.70600000
_symmetry_Int_Tables_number   1
_chemical_formula_structural   Zn3H26C24(NO4)4
_chemical_formula_sum   'Zn9 H78 C72 N12 O48'
_cell_volume   2372.82117168
_cell_formula_units_Z   3
loop_
 _symmetry_equiv_pos_site_id
 _symmetry_equiv_pos_as_xyz
  1  'x, y, z'
loop_
 _atom_site_type_symbol
 _atom_site_label
 _atom_site_symmetry_multiplicity
 _atom_site_fract_x
 _atom_site_fract_y
 _atom_site_fract_z
 _atom_site_occupancy
  Zn  Zn0  1  0.25999000  0.74902000  0.46818000  1.0
  Zn  Zn1  1  0.79189000  0.53190000  0.28080000  1.0
  Zn  Zn2  1  0.51102000  0.71920000  0.25112000  1.0
  Zn  Zn3  1  0.74001000  0.25098000  0.53182000  1.0
  Zn  Zn4  1  0.20811000  0.46810000  0.71920000  1.0
  Zn  Zn5  1  0.48898000  0.28080000  0.74888000  1.0
  Zn  Zn6  1  0.00000000  0.00000000  0.50000000  1.0
  Zn  Zn7  1  0.50000000  0.50000000  0.50000000  1.0
  Zn  Zn8  1  0.00000000  0.50000000  0.00000000  1.0
  H  H9  1  0.60635000  0.13931000  0.85383000  1.0
  H  H10  1  0.75250000  0.14615000  0.28545000  1.0
  H  H11  1  0.46708000  0.71445000  0.86063000  1.0
  H  H12  1  0.39365000  0.86069000  0.14617000  1.0
  H  H13  1  0.24750000  0.85385000  0.71455000  1.0
  H  H14  1  0.53292000  0.28554000  0.13937000  1.0
  H  H15  1  0.84744000  0.05038000  0.78221000  1.0
  H  H16  1  0.06531000  0.21768000  0.26828000  1.0
  H  H17  1  0.79716000  0.73171000  0.94980000  1.0
  H  H18  1  0.15256000  0.94962000  0.21779000  1.0
  H  H19  1  0.93469000  0.78232000  0.73172000  1.0
  H  H20  1  0.20284000  0.26829000  0.05020000  1.0
  H  H21  1  0.69963000  0.92879000  0.58090000  1.0
  H  H22  1  0.11893000  0.41899000  0.34807000  1.0
  H  H23  1  0.77091000  0.65215000  0.07150000  1.0
  H  H24  1  0.30037000  0.07121000  0.41910000  1.0
  H  H25  1  0.88107000  0.58101000  0.65193000  1.0
  H  H26  1  0.22910000  0.34785000  0.92851000  1.0
  H  H27  1  0.50851000  0.91604000  0.51816000  1.0
  H  H28  1  0.99056000  0.48176000  0.39794000  1.0
  H  H29  1  0.59250000  0.60226000  0.08418000  1.0
  H  H30  1  0.49149000  0.08395000  0.48183000  1.0
  H  H31  1  0.00944000  0.51824000  0.60206000  1.0
  H  H32  1  0.40750000  0.39773000  0.91582000  1.0
  H  H33  1  0.87382000  0.24640000  0.10219000  1.0
  H  H34  1  0.77159000  0.89781000  0.14414000  1.0
  H  H35  1  0.62769000  0.85571000  0.75365000  1.0
  H  H36  1  0.12618000  0.75360000  0.89780000  1.0
  H  H37  1  0.22840000  0.10219000  0.85586000  1.0
  H  H38  1  0.37230000  0.14428000  0.24635000  1.0
  H  H39  1  0.73787000  0.12152000  0.02007000  1.0
  H  H40  1  0.71790000  0.98000000  0.10139000  1.0
  H  H41  1  0.61669000  0.89850000  0.87855000  1.0
  H  H42  1  0.26213000  0.87848000  0.97993000  1.0
  H  H43  1  0.28210000  0.02000000  0.89862000  1.0
  H  H44  1  0.38331000  0.10149000  0.12145000  1.0
  H  H45  1  0.75020000  0.24647000  0.01823000  1.0
  H  H46  1  0.73183000  0.98166000  0.22810000  1.0
  H  H47  1  0.50391000  0.77182000  0.75352000  1.0
  H  H48  1  0.24980000  0.75354000  0.98177000  1.0
  H  H49  1  0.26816000  0.01835000  0.77190000  1.0
  H  H50  1  0.49609000  0.22818000  0.24648000  1.0
  H  H51  1  0.29151000  0.85816000  0.35193000  1.0
  H  H52  1  0.93951000  0.64811000  0.50621000  1.0
  H  H53  1  0.43323000  0.49383000  0.14187000  1.0
  H  H54  1  0.70849000  0.14183000  0.64807000  1.0
  H  H55  1  0.06048000  0.35188000  0.49379000  1.0
  H  H56  1  0.56677000  0.50617000  0.85813000  1.0
  H  H57  1  0.29477000  0.74566000  0.29904000  1.0
  H  H58  1  0.99571000  0.70103000  0.44662000  1.0
  H  H59  1  0.54902000  0.55336000  0.25434000  1.0
  H  H60  1  0.70523000  0.25434000  0.70096000  1.0
  H  H61  1  0.00428000  0.29897000  0.55338000  1.0
  H  H62  1  0.45098000  0.44664000  0.74566000  1.0
  H  H63  1  0.15980000  0.56826000  0.26179000  1.0
  H  H64  1  0.89808000  0.73835000  0.30657000  1.0
  H  H65  1  0.59156000  0.69328000  0.43175000  1.0
  H  H66  1  0.84021000  0.43174000  0.73821000  1.0
  H  H67  1  0.10192000  0.26165000  0.69343000  1.0
  H  H68  1  0.40844000  0.30672000  0.56825000  1.0
  H  H69  1  0.06835000  0.56201000  0.30027000  1.0
  H  H70  1  0.76811000  0.69977000  0.26173000  1.0
  H  H71  1  0.50654000  0.73823000  0.43815000  1.0
  H  H72  1  0.93165000  0.43799000  0.69973000  1.0
  H  H73  1  0.23189000  0.30023000  0.73827000  1.0
  H  H74  1  0.49347000  0.26177000  0.56185000  1.0
  H  H75  1  0.92164000  0.81978000  0.52366000  1.0
  H  H76  1  0.39791000  0.47630000  0.29606000  1.0
  H  H77  1  0.10218000  0.70408000  0.18035000  1.0
  H  H78  1  0.07836000  0.18022000  0.47634000  1.0
  H  H79  1  0.60210000  0.52370000  0.70393000  1.0
  H  H80  1  0.89783000  0.29593000  0.81965000  1.0
  H  H81  1  0.99656000  0.92452000  0.64188000  1.0
  H  H82  1  0.35469000  0.35808000  0.28256000  1.0
  H  H83  1  0.07229000  0.71752000  0.07555000  1.0
  H  H84  1  0.00344000  0.07548000  0.35812000  1.0
  H  H85  1  0.64531000  0.64192000  0.71744000  1.0
  H  H86  1  0.92771000  0.28248000  0.92445000  1.0
  C  C87  1  0.12827000  0.86262000  0.47272000  1.0
  C  C88  1  0.65560000  0.52724000  0.38979000  1.0
  C  C89  1  0.26568000  0.61002000  0.13736000  1.0
  C  C90  1  0.87174000  0.13738000  0.52728000  1.0
  C  C91  1  0.34441000  0.47277000  0.61021000  1.0
  C  C92  1  0.73432000  0.38998000  0.86264000  1.0
  C  C93  1  0.24697000  0.95115000  0.55397000  1.0
  C  C94  1  0.69308000  0.44597000  0.39705000  1.0
  C  C95  1  0.29589000  0.60278000  0.04887000  1.0
  C  C96  1  0.75303000  0.04884000  0.44603000  1.0
  C  C97  1  0.30692000  0.55403000  0.60295000  1.0
  C  C98  1  0.70411000  0.39722000  0.95113000  1.0
  C  C99  1  0.29745000  0.06444000  0.62774000  1.0
  C  C100  1  0.66978000  0.37220000  0.43658000  1.0
  C  C101  1  0.23305000  0.56325000  0.93556000  1.0
  C  C102  1  0.70254000  0.93556000  0.37226000  1.0
  C  C103  1  0.33022000  0.62780000  0.56342000  1.0
  C  C104  1  0.76695000  0.43675000  0.06444000  1.0
  C  C105  1  0.25135000  0.13882000  0.66311000  1.0
  C  C106  1  0.58832000  0.33689000  0.47564000  1.0
  C  C107  1  0.11252000  0.52419000  0.86119000  1.0
  C  C108  1  0.74865000  0.86117000  0.33689000  1.0
  C  C109  1  0.41167000  0.66312000  0.52436000  1.0
  C  C110  1  0.88748000  0.47580000  0.13881000  1.0
  C  C111  1  0.43177000  0.01876000  0.64402000  1.0
  C  C112  1  0.78781000  0.35593000  0.37462000  1.0
  C  C113  1  0.41306000  0.62533000  0.98131000  1.0
  C  C114  1  0.56823000  0.98124000  0.35598000  1.0
  C  C115  1  0.21219000  0.64407000  0.62538000  1.0
  C  C116  1  0.58694000  0.37467000  0.01869000  1.0
  C  C117  1  0.54509000  0.02627000  0.68203000  1.0
  C  C118  1  0.86313000  0.31793000  0.34421000  1.0
  C  C119  1  0.51886000  0.65580000  0.97380000  1.0
  C  C120  1  0.45491000  0.97373000  0.31797000  1.0
  C  C121  1  0.13687000  0.68208000  0.65579000  1.0
  C  C122  1  0.48113000  0.34419000  0.02620000  1.0
  C  C123  1  0.62771000  0.09340000  0.79520000  1.0
  C  C124  1  0.83255000  0.20477000  0.29825000  1.0
  C  C125  1  0.53436000  0.70176000  0.90662000  1.0
  C  C126  1  0.37229000  0.90660000  0.20480000  1.0
  C  C127  1  0.16744000  0.79523000  0.70175000  1.0
  C  C128  1  0.46564000  0.29824000  0.09338000  1.0
  C  C129  1  0.73569000  0.10096000  0.82976000  1.0
  C  C130  1  0.90597000  0.17019000  0.27128000  1.0
  C  C131  1  0.63480000  0.72869000  0.89908000  1.0
  C  C132  1  0.26431000  0.89904000  0.17024000  1.0
  C  C133  1  0.09402000  0.82981000  0.72872000  1.0
  C  C134  1  0.36520000  0.27131000  0.10092000  1.0
  C  C135  1  0.76242000  0.04245000  0.75300000  1.0
  C  C136  1  0.00951000  0.24691000  0.28956000  1.0
  C  C137  1  0.72005000  0.71048000  0.95770000  1.0
  C  C138  1  0.23758000  0.95755000  0.24700000  1.0
  C  C139  1  0.99048000  0.75309000  0.71044000  1.0
  C  C140  1  0.27995000  0.28951000  0.04230000  1.0
  C  C141  1  0.68042000  0.97581000  0.64120000  1.0
  C  C142  1  0.03937000  0.35871000  0.33473000  1.0
  C  C143  1  0.70467000  0.66538000  0.02438000  1.0
  C  C144  1  0.31958000  0.02419000  0.35880000  1.0
  C  C145  1  0.96063000  0.64129000  0.66528000  1.0
  C  C146  1  0.29533000  0.33462000  0.97562000  1.0
  C  C147  1  0.57211000  0.96768000  0.60550000  1.0
  C  C148  1  0.96674000  0.39442000  0.36220000  1.0
  C  C149  1  0.60448000  0.63787000  0.03248000  1.0
  C  C150  1  0.42789000  0.03233000  0.39450000  1.0
  C  C151  1  0.03326000  0.60558000  0.63780000  1.0
  C  C152  1  0.39552000  0.36212000  0.96752000  1.0
  C  C153  1  0.79327000  0.19689000  0.02412000  1.0
  C  C154  1  0.76910000  0.97586000  0.17271000  1.0
  C  C155  1  0.59659000  0.82719000  0.80313000  1.0
  C  C156  1  0.20673000  0.80311000  0.97588000  1.0
  C  C157  1  0.23090000  0.02414000  0.82729000  1.0
  C  C158  1  0.40340000  0.17281000  0.19687000  1.0
  N  N159  1  0.33260000  0.92332000  0.56600000  1.0
  N  N160  1  0.76667000  0.43396000  0.35719000  1.0
  N  N161  1  0.40937000  0.64274000  0.07675000  1.0
  N  N162  1  0.66739000  0.07668000  0.43400000  1.0
  N  N163  1  0.23333000  0.56604000  0.64281000  1.0
  N  N164  1  0.59063000  0.35725000  0.92324000  1.0
  N  N165  1  0.41352000  0.10605000  0.68308000  1.0
  N  N166  1  0.73047000  0.31684000  0.42284000  1.0
  N  N167  1  0.30750000  0.57707000  0.89397000  1.0
  N  N168  1  0.58648000  0.89394000  0.31692000  1.0
  N  N169  1  0.26953000  0.68316000  0.57716000  1.0
  N  N170  1  0.69250000  0.42293000  0.10603000  1.0
  O  O171  1  0.11112000  0.76276000  0.44262000  1.0
  O  O172  1  0.66844000  0.55729000  0.31995000  1.0
  O  O173  1  0.34836000  0.67987000  0.23726000  1.0
  O  O174  1  0.88888000  0.23724000  0.55738000  1.0
  O  O175  1  0.33156000  0.44272000  0.68005000  1.0
  O  O176  1  0.65164000  0.32013000  0.76274000  1.0
  O  O177  1  0.04762000  0.88159000  0.43352000  1.0
  O  O178  1  0.61423000  0.56645000  0.44803000  1.0
  O  O179  1  0.16608000  0.55178000  0.11834000  1.0
  O  O180  1  0.95238000  0.11841000  0.56648000  1.0
  O  O181  1  0.38577000  0.43355000  0.55197000  1.0
  O  O182  1  0.83393000  0.44822000  0.88166000  1.0
  O  O183  1  0.14830000  0.10023000  0.64286000  1.0
  O  O184  1  0.50560000  0.35728000  0.45750000  1.0
  O  O185  1  0.04803000  0.54252000  0.89974000  1.0
  O  O186  1  0.85170000  0.89977000  0.35714000  1.0
  O  O187  1  0.49441000  0.64273000  0.54251000  1.0
  O  O188  1  0.95197000  0.45748000  0.10026000  1.0
  O  O189  1  0.32205000  0.24315000  0.72201000  1.0
  O  O190  1  0.60000000  0.27786000  0.52097000  1.0
  O  O191  1  0.07889000  0.47879000  0.75684000  1.0
  O  O192  1  0.67795000  0.75685000  0.27799000  1.0
  O  O193  1  0.40000000  0.72214000  0.47904000  1.0
  O  O194  1  0.92111000  0.52120000  0.24315000  1.0
  O  O195  1  0.82341000  0.16691000  0.93783000  1.0
  O  O196  1  0.88557000  0.06214000  0.22915000  1.0
  O  O197  1  0.65659000  0.77074000  0.83308000  1.0
  O  O198  1  0.17659000  0.83309000  0.06217000  1.0
  O  O199  1  0.11443000  0.93786000  0.77086000  1.0
  O  O200  1  0.34341000  0.22925000  0.16691000  1.0
  O  O201  1  0.25036000  0.77889000  0.32619000  1.0
  O  O202  1  0.92411000  0.67385000  0.45265000  1.0
  O  O203  1  0.47138000  0.54734000  0.22116000  1.0
  O  O204  1  0.74964000  0.22111000  0.67380000  1.0
  O  O205  1  0.07589000  0.32615000  0.54736000  1.0
  O  O206  1  0.52862000  0.45266000  0.77884000  1.0
  O  O207  1  0.15039000  0.58204000  0.32807000  1.0
  O  O208  1  0.82241000  0.67205000  0.25401000  1.0
  O  O209  1  0.56851000  0.74591000  0.41809000  1.0
  O  O210  1  0.84961000  0.41796000  0.67193000  1.0
  O  O211  1  0.17759000  0.32795000  0.74599000  1.0
  O  O212  1  0.43149000  0.25409000  0.58190000  1.0
  O  O213  1  0.93534000  0.89550000  0.56717000  1.0
  O  O214  1  0.36814000  0.43275000  0.32827000  1.0
  O  O215  1  0.04014000  0.67185000  0.10460000  1.0
  O  O216  1  0.06466000  0.10450000  0.43283000  1.0
  O  O217  1  0.63187000  0.56725000  0.67173000  1.0
  O  O218  1  0.95986000  0.32815000  0.89540000  1.0
