# generated using pymatgen
data_FeH13C20N2O9
_symmetry_space_group_name_H-M   'P 1'
_cell_length_a   9.10362000
_cell_length_b   9.78652000
_cell_length_c   10.42970000
_cell_angle_alpha   79.76190000
_cell_angle_beta   86.82560000
_cell_angle_gamma   75.18990000
_symmetry_Int_Tables_number   1
_chemical_formula_structural   FeH13C20N2O9
_chemical_formula_sum   'Fe2 H26 C40 N4 O18'
_cell_volume   883.98884467
_cell_formula_units_Z   2
loop_
 _symmetry_equiv_pos_site_id
 _symmetry_equiv_pos_as_xyz
  1  'x, y, z'
loop_
 _atom_site_type_symbol
 _atom_site_label
 _atom_site_symmetry_multiplicity
 _atom_site_fract_x
 _atom_site_fract_y
 _atom_site_fract_z
 _atom_site_occupancy
  Fe  Fe0  1  0.70288000  0.26347000  0.17534000  1.0
  Fe  Fe1  1  0.29712000  0.73651000  0.82466000  1.0
  H  H2  1  0.75167000  0.39349000  0.94679000  1.0
  H  H3  1  0.24832000  0.60651000  0.05320000  1.0
  H  H4  1  0.84308000  0.42813000  0.06817000  1.0
  H  H5  1  0.15692000  0.57188000  0.93183000  1.0
  H  H6  1  0.30958000  0.05127000  0.48072000  1.0
  H  H7  1  0.69042000  0.94874000  0.51927000  1.0
  H  H8  1  0.36843000  0.70708000  0.34292000  1.0
  H  H9  1  0.63156000  0.29293000  0.65708000  1.0
  H  H10  1  0.76895000  0.65130000  0.38533000  1.0
  H  H11  1  0.23104000  0.34871000  0.61468000  1.0
  H  H12  1  0.96037000  0.09679000  0.34536000  1.0
  H  H13  1  0.03963000  0.90320000  0.65463000  1.0
  H  H14  1  0.12290000  0.84456000  0.37063000  1.0
  H  H15  1  0.87711000  0.15543000  0.62937000  1.0
  H  H16  1  0.08517000  0.68710000  0.21551000  1.0
  H  H17  1  0.91486000  0.31288000  0.78450000  1.0
  H  H18  1  0.89677000  0.78839000  0.03814000  1.0
  H  H19  1  0.10325000  0.21159000  0.96187000  1.0
  H  H20  1  0.74247000  0.91722000  0.87299000  1.0
  H  H21  1  0.25753000  0.08277000  0.12700000  1.0
  H  H22  1  0.51022000  0.04739000  0.74650000  1.0
  H  H23  1  0.48978000  0.95260000  0.25349000  1.0
  H  H24  1  0.34230000  0.27029000  0.81943000  1.0
  H  H25  1  0.65770000  0.72970000  0.18055000  1.0
  H  H26  1  0.42275000  0.35669000  0.00835000  1.0
  H  H27  1  0.57725000  0.64330000  0.99164000  1.0
  C  C28  1  0.43602000  0.48401000  0.23427000  1.0
  C  C29  1  0.56396000  0.51600000  0.76572000  1.0
  C  C30  1  0.47258000  0.48139000  0.37318000  1.0
  C  C31  1  0.52740000  0.51862000  0.62682000  1.0
  C  C32  1  0.42614000  0.61553000  0.41285000  1.0
  C  C33  1  0.57385000  0.38447000  0.58717000  1.0
  C  C34  1  0.54805000  0.36162000  0.46262000  1.0
  C  C35  1  0.45194000  0.63839000  0.53739000  1.0
  C  C36  1  0.59564000  0.20882000  0.43839000  1.0
  C  C37  1  0.40436000  0.79118000  0.56161000  1.0
  C  C38  1  0.88588000  0.42772000  0.27283000  1.0
  C  C39  1  0.11411000  0.57229000  0.72716000  1.0
  C  C40  1  0.95075000  0.46008000  0.39004000  1.0
  C  C41  1  0.04925000  0.53993000  0.60997000  1.0
  C  C42  1  0.87108000  0.58456000  0.43524000  1.0
  C  C43  1  0.12892000  0.41545000  0.56477000  1.0
  C  C44  1  0.08200000  0.37374000  0.45551000  1.0
  C  C45  1  0.91800000  0.62626000  0.54449000  1.0
  C  C46  1  0.17225000  0.23958000  0.41039000  1.0
  C  C47  1  0.82775000  0.76044000  0.58961000  1.0
  C  C48  1  0.95085000  0.02412000  0.28065000  1.0
  C  C49  1  0.04915000  0.97587000  0.71935000  1.0
  C  C50  1  0.03974000  0.88417000  0.29297000  1.0
  C  C51  1  0.96027000  0.11582000  0.70703000  1.0
  C  C52  1  0.01935000  0.79780000  0.20601000  1.0
  C  C53  1  0.98066000  0.20219000  0.79400000  1.0
  C  C54  1  0.91372000  0.85464000  0.10671000  1.0
  C  C55  1  0.08629000  0.14535000  0.89329000  1.0
  C  C56  1  0.82748000  0.99577000  0.09934000  1.0
  C  C57  1  0.17251000  0.00422000  0.90066000  1.0
  C  C58  1  0.70229000  0.06562000  0.01034000  1.0
  C  C59  1  0.29772000  0.93436000  0.98966000  1.0
  C  C60  1  0.66834000  0.01330000  0.90230000  1.0
  C  C61  1  0.33167000  0.98669000  0.09770000  1.0
  C  C62  1  0.53840000  0.08627000  0.83119000  1.0
  C  C63  1  0.46161000  0.91373000  0.16881000  1.0
  C  C64  1  0.44631000  0.20991000  0.87030000  1.0
  C  C65  1  0.55369000  0.79009000  0.12969000  1.0
  C  C66  1  0.48774000  0.25873000  0.97675000  1.0
  C  C67  1  0.51226000  0.74127000  0.02325000  1.0
  N  N68  1  0.84697000  0.07776000  0.18657000  1.0
  N  N69  1  0.15302000  0.92225000  0.81343000  1.0
  N  N70  1  0.61408000  0.18907000  0.04483000  1.0
  N  N71  1  0.38592000  0.81093000  0.95518000  1.0
  O  O72  1  0.80936000  0.35010000  0.03169000  1.0
  O  O73  1  0.19062000  0.64990000  0.96831000  1.0
  O  O74  1  0.53768000  0.43069000  0.15354000  1.0
  O  O75  1  0.46231000  0.56931000  0.84647000  1.0
  O  O76  1  0.30518000  0.55339000  0.19638000  1.0
  O  O77  1  0.69481000  0.44661000  0.80363000  1.0
  O  O78  1  0.60156000  0.17779000  0.32170000  1.0
  O  O79  1  0.39842000  0.82222000  0.67831000  1.0
  O  O80  1  0.62450000  0.11096000  0.53616000  1.0
  O  O81  1  0.37552000  0.88906000  0.46382000  1.0
  O  O82  1  0.81749000  0.32529000  0.29727000  1.0
  O  O83  1  0.18251000  0.67472000  0.70273000  1.0
  O  O84  1  0.89232000  0.50739000  0.16487000  1.0
  O  O85  1  0.10768000  0.49261000  0.83515000  1.0
  O  O86  1  0.16408000  0.21637000  0.29900000  1.0
  O  O87  1  0.83593000  0.78366000  0.70100000  1.0
  O  O88  1  0.25891000  0.15035000  0.50459000  1.0
  O  O89  1  0.74108000  0.84965000  0.49540000  1.0
