# generated using pymatgen
data_ZnPH5C6NO3
_symmetry_space_group_name_H-M   'P 1'
_cell_length_a   7.97449000
_cell_length_b   8.49300000
_cell_length_c   12.29200000
_cell_angle_alpha   75.19020000
_cell_angle_beta   78.74670000
_cell_angle_gamma   67.99130000
_symmetry_Int_Tables_number   1
_chemical_formula_structural   ZnPH5C6NO3
_chemical_formula_sum   'Zn4 P4 H20 C24 N4 O12'
_cell_volume   741.59805674
_cell_formula_units_Z   4
loop_
 _symmetry_equiv_pos_site_id
 _symmetry_equiv_pos_as_xyz
  1  'x, y, z'
loop_
 _atom_site_type_symbol
 _atom_site_label
 _atom_site_symmetry_multiplicity
 _atom_site_fract_x
 _atom_site_fract_y
 _atom_site_fract_z
 _atom_site_occupancy
  Zn  Zn0  1  0.37260000  0.76983000  0.28888000  1.0
  Zn  Zn1  1  0.62740000  0.23017000  0.71112000  1.0
  Zn  Zn2  1  0.53826000  0.22950000  0.03670000  1.0
  Zn  Zn3  1  0.46174000  0.77050000  0.96330000  1.0
  P  P4  1  0.71598000  0.81133000  0.11936000  1.0
  P  P5  1  0.28402000  0.18867000  0.88064000  1.0
  P  P6  1  0.31102000  0.53121000  0.17772000  1.0
  P  P7  1  0.68898000  0.46879000  0.82229000  1.0
  H  H8  1  0.90405000  0.72334000  0.12578000  1.0
  H  H9  1  0.09594000  0.27666000  0.87422000  1.0
  H  H10  1  0.15082000  0.49309000  0.18593000  1.0
  H  H11  1  0.84918000  0.50691000  0.81407000  1.0
  H  H12  1  0.53445000  0.65809000  0.53028000  1.0
  H  H13  1  0.46555000  0.34191000  0.46972000  1.0
  H  H14  1  0.47063000  0.80590000  0.69204000  1.0
  H  H15  1  0.52937000  0.19410000  0.30796000  1.0
  H  H16  1  0.23889000  0.10162000  0.68260000  1.0
  H  H17  1  0.76111000  0.89839000  0.31739000  1.0
  H  H18  1  0.77671000  0.44717000  0.21613000  1.0
  H  H19  1  0.22329000  0.55283000  0.78387000  1.0
  H  H20  1  0.86685000  0.27013000  0.06524000  1.0
  H  H21  1  0.13315000  0.72987000  0.93476000  1.0
  H  H22  1  0.11478000  0.97943000  0.09457000  1.0
  H  H23  1  0.88522000  0.02057000  0.90543000  1.0
  H  H24  1  0.99053000  0.34848000  0.57633000  1.0
  H  H25  1  0.00948000  0.65153000  0.42367000  1.0
  H  H26  1  0.82892000  0.47531000  0.40420000  1.0
  H  H27  1  0.17108000  0.52469000  0.59580000  1.0
  C  C28  1  0.43249000  0.78750000  0.52717000  1.0
  C  C29  1  0.56751000  0.21250000  0.47283000  1.0
  C  C30  1  0.39820000  0.87202000  0.61764000  1.0
  C  C31  1  0.60180000  0.12798000  0.38236000  1.0
  C  C32  1  0.26699000  0.03499000  0.61275000  1.0
  C  C33  1  0.73301000  0.96502000  0.38725000  1.0
  C  C34  1  0.16944000  0.11375000  0.51734000  1.0
  C  C35  1  0.83056000  0.88625000  0.48266000  1.0
  C  C36  1  0.21412000  0.01960000  0.42936000  1.0
  C  C37  1  0.78588000  0.98039000  0.57065000  1.0
  C  C38  1  0.11958000  0.09377000  0.33003000  1.0
  C  C39  1  0.88043000  0.90623000  0.66997000  1.0
  C  C40  1  0.98047000  0.25830000  0.32169000  1.0
  C  C41  1  0.01953000  0.74171000  0.67831000  1.0
  C  C42  1  0.88736000  0.32250000  0.22393000  1.0
  C  C43  1  0.11264000  0.67750000  0.77607000  1.0
  C  C44  1  0.93565000  0.22481000  0.14148000  1.0
  C  C45  1  0.06435000  0.77519000  0.85852000  1.0
  C  C46  1  0.07514000  0.06239000  0.15636000  1.0
  C  C47  1  0.92486000  0.93762000  0.84364000  1.0
  C  C48  1  0.02821000  0.27996000  0.50654000  1.0
  C  C49  1  0.97179000  0.72004000  0.49346000  1.0
  C  C50  1  0.93756000  0.34931000  0.41234000  1.0
  C  C51  1  0.06244000  0.65069000  0.58765000  1.0
  N  N52  1  0.34274000  0.85869000  0.43583000  1.0
  N  N53  1  0.65726000  0.14131000  0.56417000  1.0
  N  N54  1  0.16484000  0.99915000  0.24772000  1.0
  N  N55  1  0.83516000  0.00085000  0.75228000  1.0
  O  O56  1  0.68643000  0.00199000  0.11374000  1.0
  O  O57  1  0.31357000  0.99801000  0.88627000  1.0
  O  O58  1  0.62593000  0.72911000  0.23126000  1.0
  O  O59  1  0.37407000  0.27089000  0.76873000  1.0
  O  O60  1  0.67577000  0.77390000  0.01347000  1.0
  O  O61  1  0.32422000  0.22611000  0.98652000  1.0
  O  O62  1  0.28943000  0.69769000  0.08615000  1.0
  O  O63  1  0.71057000  0.30231000  0.91386000  1.0
  O  O64  1  0.47240000  0.37304000  0.15021000  1.0
  O  O65  1  0.52759000  0.62695000  0.84979000  1.0
  O  O66  1  0.31506000  0.56360000  0.29560000  1.0
  O  O67  1  0.68494000  0.43640000  0.70440000  1.0
