# generated using pymatgen
data_CoH52C60S2N8(Cl2O)2
_symmetry_space_group_name_H-M   'P 1'
_cell_length_a   10.32710000
_cell_length_b   16.17833327
_cell_length_c   18.67410000
_cell_angle_alpha   89.99955317
_cell_angle_beta   89.99930000
_cell_angle_gamma   71.60704755
_symmetry_Int_Tables_number   1
_chemical_formula_structural   CoH52C60S2N8(Cl2O)2
_chemical_formula_sum   'Co2 H104 C120 S4 N16 Cl8 O4'
_cell_volume   2960.59549728
_cell_formula_units_Z   2
loop_
 _symmetry_equiv_pos_site_id
 _symmetry_equiv_pos_as_xyz
  1  'x, y, z'
loop_
 _atom_site_type_symbol
 _atom_site_label
 _atom_site_symmetry_multiplicity
 _atom_site_fract_x
 _atom_site_fract_y
 _atom_site_fract_z
 _atom_site_occupancy
  Co  Co0  1  0.00000000  0.00000000  0.50000000  1.0
  Co  Co1  1  0.50000000  0.50000000  0.00000000  1.0
  H  H2  1  0.30759000  0.91091000  0.45180000  1.0
  H  H3  1  0.19242000  0.58908000  0.95181000  1.0
  H  H4  1  0.69242000  0.08909000  0.54821000  1.0
  H  H5  1  0.80757000  0.41092000  0.04819000  1.0
  H  H6  1  0.51031000  0.79154000  0.49077000  1.0
  H  H7  1  0.98970000  0.70846000  0.99078000  1.0
  H  H8  1  0.48970000  0.20846000  0.50923000  1.0
  H  H9  1  0.01030000  0.29154000  0.00923000  1.0
  H  H10  1  0.24261000  0.69219000  0.61752000  1.0
  H  H11  1  0.25740000  0.80779000  0.11753000  1.0
  H  H12  1  0.75739000  0.30780000  0.38246000  1.0
  H  H13  1  0.74263000  0.19220000  0.88246000  1.0
  H  H14  1  0.04814000  0.81681000  0.57248000  1.0
  H  H15  1  0.45187000  0.68317000  0.07249000  1.0
  H  H16  1  0.95186000  0.18318000  0.42750000  1.0
  H  H17  1  0.54815000  0.31682000  0.92750000  1.0
  H  H18  1  0.64012000  0.65222000  0.49201000  1.0
  H  H19  1  0.85990000  0.84777000  0.99201000  1.0
  H  H20  1  0.35989000  0.34777000  0.50800000  1.0
  H  H21  1  0.14010000  0.15223000  0.00800000  1.0
  H  H22  1  0.81763000  0.49556000  0.67470000  1.0
  H  H23  1  0.68238000  0.00444000  0.17469000  1.0
  H  H24  1  0.18238000  0.50444000  0.32531000  1.0
  H  H25  1  0.31763000  0.99556000  0.82531000  1.0
  H  H26  1  0.36674000  0.57288000  0.74276000  1.0
  H  H27  1  0.13325000  0.92712000  0.24276000  1.0
  H  H28  1  0.63326000  0.42712000  0.25724000  1.0
  H  H29  1  0.86675000  0.07288000  0.75724000  1.0
  H  H30  1  0.33216000  0.53725000  0.86950000  1.0
  H  H31  1  0.16785000  0.96274000  0.36950000  1.0
  H  H32  1  0.66784000  0.46275000  0.13050000  1.0
  H  H33  1  0.83215000  0.03726000  0.63050000  1.0
  H  H34  1  0.74231000  0.48738000  0.91577000  1.0
  H  H35  1  0.75768000  0.01263000  0.41577000  1.0
  H  H36  1  0.25770000  0.51260000  0.08423000  1.0
  H  H37  1  0.24232000  0.98738000  0.58423000  1.0
  H  H38  1  0.79493000  0.51407000  0.79091000  1.0
  H  H39  1  0.70508000  0.98593000  0.29091000  1.0
  H  H40  1  0.20508000  0.48592000  0.20909000  1.0
  H  H41  1  0.29493000  0.01407000  0.70909000  1.0
  H  H42  1  0.13567000  0.34312000  0.50643000  1.0
  H  H43  1  0.36433000  0.15688000  0.00643000  1.0
  H  H44  1  0.86434000  0.65687000  0.49357000  1.0
  H  H45  1  0.63568000  0.84312000  0.99357000  1.0
  H  H46  1  0.00555000  0.27025000  0.53698000  1.0
  H  H47  1  0.49444000  0.22976000  0.03698000  1.0
  H  H48  1  0.99444000  0.72975000  0.46301000  1.0
  H  H49  1  0.50554000  0.77024000  0.96302000  1.0
  H  H50  1  0.06402000  0.29191000  0.62280000  1.0
  H  H51  1  0.43597000  0.20808000  0.12279000  1.0
  H  H52  1  0.93598000  0.70808000  0.37720000  1.0
  H  H53  1  0.56402000  0.79192000  0.87721000  1.0
  H  H54  1  0.78449000  0.27354000  0.58766000  1.0
  H  H55  1  0.71549000  0.22648000  0.08766000  1.0
  H  H56  1  0.21550000  0.72646000  0.41234000  1.0
  H  H57  1  0.28450000  0.77353000  0.91234000  1.0
  H  H58  1  0.91992000  0.18973000  0.62529000  1.0
  H  H59  1  0.58005000  0.31027000  0.12530000  1.0
  H  H60  1  0.08006000  0.81027000  0.37471000  1.0
  H  H61  1  0.41994000  0.68973000  0.87470000  1.0
  H  H62  1  0.80826000  0.36608000  0.70021000  1.0
  H  H63  1  0.69171000  0.13392000  0.20021000  1.0
  H  H64  1  0.19173000  0.63392000  0.29978000  1.0
  H  H65  1  0.30828000  0.86609000  0.79979000  1.0
  H  H66  1  0.90506000  0.26556000  0.73837000  1.0
  H  H67  1  0.59492000  0.23443000  0.23837000  1.0
  H  H68  1  0.09493000  0.73444000  0.26163000  1.0
  H  H69  1  0.40508000  0.76558000  0.76163000  1.0
  H  H70  1  0.70419000  0.21017000  0.72226000  1.0
  H  H71  1  0.79578000  0.28983000  0.22228000  1.0
  H  H72  1  0.29579000  0.78984000  0.27773000  1.0
  H  H73  1  0.20421000  0.71018000  0.77772000  1.0
  H  H74  1  0.67065000  0.30190000  0.77829000  1.0
  H  H75  1  0.82932000  0.19808000  0.27830000  1.0
  H  H76  1  0.32934000  0.69810000  0.22170000  1.0
  H  H77  1  0.17068000  0.80192000  0.72170000  1.0
  H  H78  1  0.47341000  0.32100000  0.69866000  1.0
  H  H79  1  0.02656000  0.17900000  0.19868000  1.0
  H  H80  1  0.52657000  0.67901000  0.30133000  1.0
  H  H81  1  0.97344000  0.82101000  0.80132000  1.0
  H  H82  1  0.57702000  0.30369000  0.62120000  1.0
  H  H83  1  0.92297000  0.19633000  0.12121000  1.0
  H  H84  1  0.42297000  0.69632000  0.37879000  1.0
  H  H85  1  0.07703000  0.80368000  0.87878000  1.0
  H  H86  1  0.55473000  0.39856000  0.67360000  1.0
  H  H87  1  0.94526000  0.10144000  0.17360000  1.0
  H  H88  1  0.44526000  0.60145000  0.32639000  1.0
  H  H89  1  0.05475000  0.89856000  0.82640000  1.0
  H  H90  1  0.56084000  0.82012000  0.14220000  1.0
  H  H91  1  0.93916000  0.67989000  0.64219000  1.0
  H  H92  1  0.43916000  0.17988000  0.85780000  1.0
  H  H93  1  0.06084000  0.32011000  0.35782000  1.0
  H  H94  1  0.35738000  0.94970000  0.11771000  1.0
  H  H95  1  0.14261000  0.55030000  0.61770000  1.0
  H  H96  1  0.64261000  0.05030000  0.88230000  1.0
  H  H97  1  0.85739000  0.44970000  0.38230000  1.0
  H  H98  1  0.25794000  0.05598000  0.21620000  1.0
  H  H99  1  0.24202000  0.44404000  0.71621000  1.0
  H  H100  1  0.74203000  0.94403000  0.78380000  1.0
  H  H101  1  0.75798000  0.55596000  0.28379000  1.0
  H  H102  1  0.36097000  0.03130000  0.33790000  1.0
  H  H103  1  0.13900000  0.46872000  0.83790000  1.0
  H  H104  1  0.63902000  0.96870000  0.66210000  1.0
  H  H105  1  0.86101000  0.53127000  0.16210000  1.0
  C  C106  1  0.81448000  0.89352000  0.54051000  1.0
  C  C107  1  0.68552000  0.60647000  0.04051000  1.0
  C  C108  1  0.18553000  0.10647000  0.45949000  1.0
  C  C109  1  0.31448000  0.39353000  0.95949000  1.0
  C  C110  1  0.29566000  0.85992000  0.48684000  1.0
  C  C111  1  0.20434000  0.64008000  0.98685000  1.0
  C  C112  1  0.70435000  0.14008000  0.51316000  1.0
  C  C113  1  0.79566000  0.35992000  0.01316000  1.0
  C  C114  1  0.40951000  0.79241000  0.50859000  1.0
  C  C115  1  0.09048000  0.70759000  0.00860000  1.0
  C  C116  1  0.59049000  0.20759000  0.49141000  1.0
  C  C117  1  0.90952000  0.29241000  0.99140000  1.0
  C  C118  1  0.39307000  0.73004000  0.55663000  1.0
  C  C119  1  0.10694000  0.76995000  0.05663000  1.0
  C  C120  1  0.60695000  0.26995000  0.44337000  1.0
  C  C121  1  0.89306000  0.23005000  0.94336000  1.0
  C  C122  1  0.26020000  0.73858000  0.57952000  1.0
  C  C123  1  0.23981000  0.76140000  0.07953000  1.0
  C  C124  1  0.73982000  0.26140000  0.42046000  1.0
  C  C125  1  0.76019000  0.23860000  0.92047000  1.0
  C  C126  1  0.15219000  0.80800000  0.55473000  1.0
  C  C127  1  0.34782000  0.69198000  0.05474000  1.0
  C  C128  1  0.84783000  0.19198000  0.44526000  1.0
  C  C129  1  0.65219000  0.30802000  0.94526000  1.0
  C  C130  1  0.51188000  0.66082000  0.58534000  1.0
  C  C131  1  0.98813000  0.83918000  0.08534000  1.0
  C  C132  1  0.48813000  0.33918000  0.41466000  1.0
  C  C133  1  0.01188000  0.16082000  0.91466000  1.0
  C  C134  1  0.63391000  0.62980000  0.54653000  1.0
  C  C135  1  0.86611000  0.87019000  0.04653000  1.0
  C  C136  1  0.36611000  0.37019000  0.45347000  1.0
  C  C137  1  0.13389000  0.12981000  0.95347000  1.0
  C  C138  1  0.74652000  0.56747000  0.57740000  1.0
  C  C139  1  0.75349000  0.93252000  0.07740000  1.0
  C  C140  1  0.25349000  0.43252000  0.42260000  1.0
  C  C141  1  0.24652000  0.06747000  0.92260000  1.0
  C  C142  1  0.73161000  0.54161000  0.64778000  1.0
  C  C143  1  0.76840000  0.95839000  0.14777000  1.0
  C  C144  1  0.26841000  0.45839000  0.35223000  1.0
  C  C145  1  0.23160000  0.04161000  0.85223000  1.0
  C  C146  1  0.60525000  0.57399000  0.68201000  1.0
  C  C147  1  0.89474000  0.92602000  0.18200000  1.0
  C  C148  1  0.39475000  0.42601000  0.31800000  1.0
  C  C149  1  0.10526000  0.07399000  0.81800000  1.0
  C  C150  1  0.58387000  0.54776000  0.75563000  1.0
  C  C151  1  0.91612000  0.95225000  0.25563000  1.0
  C  C152  1  0.41613000  0.45224000  0.24437000  1.0
  C  C153  1  0.08387000  0.04776000  0.74437000  1.0
  C  C154  1  0.45289000  0.55278000  0.77939000  1.0
  C  C155  1  0.04710000  0.94723000  0.27939000  1.0
  C  C156  1  0.54711000  0.44723000  0.22061000  1.0
  C  C157  1  0.95290000  0.05277000  0.72061000  1.0
  C  C158  1  0.43268000  0.53412000  0.85007000  1.0
  C  C159  1  0.06732000  0.96587000  0.35006000  1.0
  C  C160  1  0.56732000  0.46587000  0.14993000  1.0
  C  C161  1  0.93269000  0.03412000  0.64993000  1.0
  C  C162  1  0.66205000  0.50472000  0.87571000  1.0
  C  C163  1  0.83794000  0.99529000  0.37571000  1.0
  C  C164  1  0.33794000  0.49528000  0.12429000  1.0
  C  C165  1  0.16207000  0.00471000  0.62429000  1.0
  C  C166  1  0.69024000  0.52018000  0.80534000  1.0
  C  C167  1  0.80975000  0.97983000  0.30534000  1.0
  C  C168  1  0.30976000  0.47981000  0.19466000  1.0
  C  C169  1  0.19025000  0.02018000  0.69466000  1.0
  C  C170  1  0.87570000  0.53225000  0.53784000  1.0
  C  C171  1  0.62430000  0.96775000  0.03783000  1.0
  C  C172  1  0.12430000  0.46775000  0.46217000  1.0
  C  C173  1  0.37570000  0.03225000  0.96217000  1.0
  C  C174  1  0.95398000  0.44307000  0.54238000  1.0
  C  C175  1  0.54603000  0.05693000  0.04238000  1.0
  C  C176  1  0.04603000  0.55692000  0.45762000  1.0
  C  C177  1  0.45397000  0.94308000  0.95762000  1.0
  C  C178  1  0.07710000  0.41220000  0.50511000  1.0
  C  C179  1  0.42290000  0.08780000  0.00511000  1.0
  C  C180  1  0.92289000  0.58780000  0.49489000  1.0
  C  C181  1  0.57710000  0.91220000  0.99489000  1.0
  C  C182  1  0.97221000  0.30005000  0.58968000  1.0
  C  C183  1  0.52778000  0.19995000  0.08967000  1.0
  C  C184  1  0.02779000  0.69994000  0.41032000  1.0
  C  C185  1  0.47220000  0.80006000  0.91033000  1.0
  C  C186  1  0.87238000  0.26070000  0.62403000  1.0
  C  C187  1  0.62759000  0.23931000  0.12403000  1.0
  C  C188  1  0.12760000  0.73930000  0.37597000  1.0
  C  C189  1  0.37240000  0.76070000  0.87597000  1.0
  C  C190  1  0.82444000  0.29551000  0.69898000  1.0
  C  C191  1  0.67554000  0.20449000  0.19898000  1.0
  C  C192  1  0.17555000  0.70449000  0.30102000  1.0
  C  C193  1  0.32446000  0.79552000  0.80102000  1.0
  C  C194  1  0.69118000  0.28049000  0.72229000  1.0
  C  C195  1  0.80880000  0.21950000  0.22230000  1.0
  C  C196  1  0.30881000  0.71951000  0.27770000  1.0
  C  C197  1  0.19121000  0.78050000  0.77769000  1.0
  C  C198  1  0.56750000  0.32851000  0.67639000  1.0
  C  C199  1  0.93248000  0.17149000  0.17639000  1.0
  C  C200  1  0.43249000  0.67150000  0.32360000  1.0
  C  C201  1  0.06752000  0.82851000  0.82360000  1.0
  C  C202  1  0.51488000  0.91119000  0.30869000  1.0
  C  C203  1  0.98511000  0.58883000  0.80869000  1.0
  C  C204  1  0.48512000  0.08882000  0.69131000  1.0
  C  C205  1  0.01490000  0.41116000  0.19132000  1.0
  C  C206  1  0.57261000  0.85269000  0.25296000  1.0
  C  C207  1  0.92737000  0.64734000  0.75296000  1.0
  C  C208  1  0.42739000  0.14732000  0.74704000  1.0
  C  C209  1  0.07263000  0.35266000  0.24705000  1.0
  C  C210  1  0.51428000  0.86632000  0.18464000  1.0
  C  C211  1  0.98568000  0.63370000  0.68463000  1.0
  C  C212  1  0.48571000  0.13368000  0.81536000  1.0
  C  C213  1  0.01432000  0.36630000  0.31537000  1.0
  C  C214  1  0.40076000  0.93897000  0.17145000  1.0
  C  C215  1  0.09922000  0.56105000  0.67145000  1.0
  C  C216  1  0.59923000  0.06104000  0.82855000  1.0
  C  C217  1  0.90078000  0.43895000  0.32856000  1.0
  C  C218  1  0.34548000  0.99838000  0.22635000  1.0
  C  C219  1  0.15450000  0.50164000  0.72634000  1.0
  C  C220  1  0.65451000  0.00163000  0.77365000  1.0
  C  C221  1  0.84550000  0.49836000  0.27366000  1.0
  C  C222  1  0.40205000  0.98455000  0.29493000  1.0
  C  C223  1  0.09792000  0.51546000  0.79492000  1.0
  C  C224  1  0.59793000  0.01545000  0.70508000  1.0
  C  C225  1  0.90209000  0.48453000  0.20509000  1.0
  S  S226  1  0.73674000  0.82559000  0.56522000  1.0
  S  S227  1  0.76326000  0.67441000  0.06523000  1.0
  S  S228  1  0.26327000  0.17441000  0.43477000  1.0
  S  S229  1  0.23674000  0.32559000  0.93477000  1.0
  N  N230  1  0.16831000  0.86865000  0.50920000  1.0
  N  N231  1  0.33169000  0.63134000  0.00921000  1.0
  N  N232  1  0.83170000  0.13134000  0.49079000  1.0
  N  N233  1  0.66831000  0.36866000  0.99079000  1.0
  N  N234  1  0.49606000  0.63131000  0.65090000  1.0
  N  N235  1  0.00394000  0.86869000  0.15090000  1.0
  N  N236  1  0.50394000  0.36869000  0.34910000  1.0
  N  N237  1  0.99606000  0.13131000  0.84910000  1.0
  N  N238  1  0.53462000  0.51290000  0.89890000  1.0
  N  N239  1  0.96539000  0.98710000  0.39890000  1.0
  N  N240  1  0.46539000  0.48709000  0.10110000  1.0
  N  N241  1  0.03462000  0.01290000  0.60110000  1.0
  N  N242  1  0.87198000  0.94368000  0.52374000  1.0
  N  N243  1  0.62803000  0.55632000  0.02374000  1.0
  N  N244  1  0.12803000  0.05632000  0.47625000  1.0
  N  N245  1  0.37197000  0.44368000  0.97626000  1.0
  Cl  Cl246  1  0.58307000  0.89444000  0.39398000  1.0
  Cl  Cl247  1  0.91691000  0.60559000  0.89397000  1.0
  Cl  Cl248  1  0.41694000  0.10556000  0.60602000  1.0
  Cl  Cl249  1  0.08310000  0.39440000  0.10603000  1.0
  Cl  Cl250  1  0.71824000  0.76539000  0.26686000  1.0
  Cl  Cl251  1  0.78175000  0.73464000  0.76685000  1.0
  Cl  Cl252  1  0.28175000  0.23462000  0.73314000  1.0
  Cl  Cl253  1  0.21825000  0.26536000  0.23316000  1.0
  O  O254  1  0.89916000  0.39147000  0.58145000  1.0
  O  O255  1  0.60082000  0.10854000  0.08144000  1.0
  O  O256  1  0.10083000  0.60853000  0.41855000  1.0
  O  O257  1  0.39916000  0.89147000  0.91856000  1.0
