# generated using pymatgen
data_Zn2H25C36(BrN2)4
_symmetry_space_group_name_H-M   'P 1'
_cell_length_a   20.03816433
_cell_length_b   20.22190000
_cell_length_c   20.22710000
_cell_angle_alpha   107.34280000
_cell_angle_beta   107.71859848
_cell_angle_gamma   111.88527771
_symmetry_Int_Tables_number   1
_chemical_formula_structural   Zn2H25C36(BrN2)4
_chemical_formula_sum   'Zn4 H50 C72 Br8 N16'
_cell_volume   6411.64859254
_cell_formula_units_Z   2
loop_
 _symmetry_equiv_pos_site_id
 _symmetry_equiv_pos_as_xyz
  1  'x, y, z'
loop_
 _atom_site_type_symbol
 _atom_site_label
 _atom_site_symmetry_multiplicity
 _atom_site_fract_x
 _atom_site_fract_y
 _atom_site_fract_z
 _atom_site_occupancy
  Zn  Zn0  1  0.38758000  0.41300000  0.48556000  1.0
  Zn  Zn1  1  0.61066000  0.60437000  0.49638000  1.0
  Zn  Zn2  1  0.40663000  0.50554000  0.37509000  1.0
  Zn  Zn3  1  0.59996000  0.52136000  0.62370000  1.0
  H  H4  1  0.22387000  0.24221000  0.35499000  1.0
  H  H5  1  0.57028000  0.03155000  0.68226000  1.0
  H  H6  1  0.63455000  0.13143000  0.61843000  1.0
  H  H7  1  0.07168000  0.54359000  0.44702000  1.0
  H  H8  1  0.95382000  0.53559000  0.45199000  1.0
  H  H9  1  0.02420000  0.51276000  0.63392000  1.0
  H  H10  1  0.97507000  0.46142000  0.53044000  1.0
  H  H11  1  0.10021000  0.48146000  0.53680000  1.0
  H  H12  1  0.15114000  0.54226000  0.63933000  1.0
  H  H13  1  0.39440000  0.36296000  0.24629000  1.0
  H  H14  1  0.09208000  0.66520000  0.70375000  1.0
  H  H15  1  0.60329000  0.76542000  0.56828000  1.0
  H  H16  1  0.19046000  0.73588000  0.63297000  1.0
  H  H17  1  0.00170000  0.64146000  0.50100000  1.0
  H  H18  1  0.11548000  0.64893000  0.48627000  1.0
  H  H19  1  0.21378000  0.69512000  0.69669000  1.0
  H  H20  1  0.39143000  0.37311000  0.89914000  1.0
  H  H21  1  0.61792000  0.45724000  0.97711000  1.0
  H  H22  1  0.54332000  0.48303000  0.98000000  1.0
  H  H23  1  0.58019000  0.49024000  0.10322000  1.0
  H  H24  1  0.61700000  0.37182000  0.57575000  1.0
  H  H25  1  0.47333000  0.23297000  0.87285000  1.0
  H  H26  1  0.60352000  0.65779000  0.74798000  1.0
  H  H27  1  0.57707000  0.30914000  0.93260000  1.0
  H  H28  1  0.45455000  0.23135000  0.98209000  1.0
  H  H29  1  0.36662000  0.27247000  0.87306000  1.0
  H  H30  1  0.37698000  0.29831000  0.99735000  1.0
  H  H31  1  0.56185000  0.28476000  0.03510000  1.0
  H  H32  1  0.91028000  0.89280000  0.94171000  1.0
  H  H33  1  0.03167000  0.00795000  0.04073000  1.0
  H  H34  1  0.02731000  0.10947000  0.99521000  1.0
  H  H35  1  0.92175000  0.98505000  0.88973000  1.0
  H  H36  1  0.89863000  0.03960000  0.12067000  1.0
  H  H37  1  0.73632000  0.79629000  0.65703000  1.0
  H  H38  1  0.90073000  0.12221000  0.10539000  1.0
  H  H39  1  0.99532000  0.99607000  0.10811000  1.0
  H  H40  1  0.80475000  0.04036000  0.97201000  1.0
  H  H41  1  0.78775000  0.53708000  0.67860000  1.0
  H  H42  1  0.33258000  0.61136000  0.44116000  1.0
  H  H43  1  0.41568000  0.01133000  0.42962000  1.0
  H  H44  1  0.55430000  0.99245000  0.47077000  1.0
  H  H45  1  0.07541000  0.71728000  0.65022000  1.0
  H  H46  1  0.64923000  0.53575000  0.33990000  1.0
  H  H47  1  0.85983000  0.02863000  0.88431000  1.0
  H  H48  1  0.35914000  0.52250000  0.61243000  1.0
  H  H49  1  0.35903000  0.25073000  0.50612000  1.0
  H  H50  1  0.38938000  0.65809000  0.34721000  1.0
  H  H51  1  0.35185000  0.91143000  0.49427000  1.0
  H  H52  1  0.74179000  0.56452000  0.46772000  1.0
  H  H53  1  0.43259000  0.05029000  0.64137000  1.0
  C  C54  1  0.23783000  0.28257000  0.32949000  1.0
  C  C55  1  0.35887000  0.53823000  0.56558000  1.0
  C  C56  1  0.56829000  0.46196000  0.73834000  1.0
  C  C57  1  0.74025000  0.55766000  0.51854000  1.0
  C  C58  1  0.44329000  0.67275000  0.39656000  1.0
  C  C59  1  0.49951000  0.42339000  0.74752000  1.0
  C  C60  1  0.49454000  0.74309000  0.46924000  1.0
  C  C61  1  0.32639000  0.58138000  0.53862000  1.0
  C  C62  1  0.68599000  0.75869000  0.73387000  1.0
  C  C63  1  0.52722000  0.00650000  0.50850000  1.0
  C  C64  1  0.45001000  0.01446000  0.48518000  1.0
  C  C65  1  0.79829000  0.55466000  0.57618000  1.0
  C  C66  1  0.49408000  0.21999000  0.56004000  1.0
  C  C67  1  0.49063000  0.81346000  0.49740000  1.0
  C  C68  1  0.57175000  0.08182000  0.59022000  1.0
  C  C69  1  0.45719000  0.41192000  0.28177000  1.0
  C  C70  1  0.49488000  0.09252000  0.56680000  1.0
  C  C71  1  0.53606000  0.02738000  0.62600000  1.0
  C  C72  1  0.49142000  0.94994000  0.54366000  1.0
  C  C73  1  0.45936000  0.03689000  0.60306000  1.0
  C  C74  1  0.41459000  0.96084000  0.52148000  1.0
  C  C75  1  0.49561000  0.16379000  0.57000000  1.0
  C  C76  1  0.52168000  0.42908000  0.26307000  1.0
  C  C77  1  0.49003000  0.87586000  0.52410000  1.0
  C  C78  1  0.00879000  0.59035000  0.50200000  1.0
  C  C79  1  0.02618000  0.51795000  0.58191000  1.0
  C  C80  1  0.10826000  0.53311000  0.58368000  1.0
  C  C81  1  0.55308000  0.35289000  0.55579000  1.0
  C  C82  1  0.27434000  0.60509000  0.55847000  1.0
  C  C83  1  0.01284000  0.58786000  0.57898000  1.0
  C  C84  1  0.08635000  0.59759000  0.49639000  1.0
  C  C85  1  0.14808000  0.60878000  0.57310000  1.0
  C  C86  1  0.16592000  0.68305000  0.64251000  1.0
  C  C87  1  0.49011000  0.28313000  0.54654000  1.0
  C  C88  1  0.08710000  0.66812000  0.64916000  1.0
  C  C89  1  0.22084000  0.61458000  0.56814000  1.0
  C  C90  1  0.93751000  0.57572000  0.58121000  1.0
  C  C91  1  0.87327000  0.56422000  0.58093000  1.0
  C  C92  1  0.41316000  0.33547000  0.91623000  1.0
  C  C93  1  0.58754000  0.50102000  0.32990000  1.0
  C  C94  1  0.56225000  0.43908000  0.98326000  1.0
  C  C95  1  0.57678000  0.43844000  0.06174000  1.0
  C  C96  1  0.51842000  0.39206000  0.19013000  1.0
  C  C97  1  0.49442000  0.35482000  0.91375000  1.0
  C  C98  1  0.44434000  0.43969000  0.70181000  1.0
  C  C99  1  0.42498000  0.34866000  0.99877000  1.0
  C  C100  1  0.50840000  0.36007000  0.04965000  1.0
  C  C101  1  0.50982000  0.28634000  0.99869000  1.0
  C  C102  1  0.51543000  0.29159000  0.92552000  1.0
  C  C103  1  0.51513000  0.36792000  0.12575000  1.0
  C  C104  1  0.48910000  0.36070000  0.84256000  1.0
  C  C105  1  0.42114000  0.29091000  0.52057000  1.0
  C  C106  1  0.49199000  0.38694000  0.79588000  1.0
  C  C107  1  0.98124000  0.00227000  0.05430000  1.0
  C  C108  1  0.96958000  0.09237000  0.99723000  1.0
  C  C109  1  0.55283000  0.72728000  0.50940000  1.0
  C  C110  1  0.89842000  0.01532000  0.92318000  1.0
  C  C111  1  0.73121000  0.82814000  0.80713000  1.0
  C  C112  1  0.97713000  0.08042000  0.07058000  1.0
  C  C113  1  0.90027000  0.92861000  0.98599000  1.0
  C  C114  1  0.84404000  0.95515000  0.94443000  1.0
  C  C115  1  0.82408000  0.00718000  0.99970000  1.0
  C  C116  1  0.89939000  0.06540000  0.08002000  1.0
  C  C117  1  0.76447000  0.54379000  0.62651000  1.0
  C  C118  1  0.77549000  0.88725000  0.87120000  1.0
  C  C119  1  0.05152000  0.14782000  0.13919000  1.0
  C  C120  1  0.34561000  0.58309000  0.47736000  1.0
  C  C121  1  0.11727000  0.20350000  0.19298000  1.0
  C  C122  1  0.24058000  0.34244000  0.25451000  1.0
  C  C123  1  0.19250000  0.27015000  0.25401000  1.0
  C  C124  1  0.62859000  0.68003000  0.71339000  1.0
  C  C125  1  0.69684000  0.75039000  0.66666000  1.0
  Br  Br126  1  0.66846000  0.46690000  0.77934000  1.0
  Br  Br127  1  0.41164000  0.44021000  0.05020000  1.0
  Br  Br128  1  0.68527000  0.45205000  0.11762000  1.0
  Br  Br129  1  0.95756000  0.18720000  0.00563000  1.0
  Br  Br130  1  0.72828000  0.94687000  0.01037000  1.0
  Br  Br131  1  0.84857000  0.85098000  0.02051000  1.0
  Br  Br132  1  0.22160000  0.37015000  0.17320000  1.0
  Br  Br133  1  0.33610000  0.40501000  0.68345000  1.0
  N  N134  1  0.30573000  0.35583000  0.37067000  1.0
  N  N135  1  0.48270000  0.46972000  0.35355000  1.0
  N  N136  1  0.52449000  0.39952000  0.53826000  1.0
  N  N137  1  0.56310000  0.52470000  0.38264000  1.0
  N  N138  1  0.44307000  0.36043000  0.51644000  1.0
  N  N139  1  0.69320000  0.54213000  0.60076000  1.0
  N  N140  1  0.30737000  0.39317000  0.32405000  1.0
  N  N141  1  0.47579000  0.48301000  0.66947000  1.0
  N  N142  1  0.53783000  0.65421000  0.46447000  1.0
  N  N143  1  0.38449000  0.54241000  0.46743000  1.0
  N  N144  1  0.60799000  0.62917000  0.64022000  1.0
  N  N145  1  0.65020000  0.67311000  0.61179000  1.0
  N  N146  1  0.39296000  0.51489000  0.52181000  1.0
  N  N147  1  0.55420000  0.49737000  0.69322000  1.0
  N  N148  1  0.46948000  0.61986000  0.39393000  1.0
  N  N149  1  0.67789000  0.55043000  0.53396000  1.0
