# generated using pymatgen
data_CuP2H18C18(NO3)2
_symmetry_space_group_name_H-M   'P 1'
_cell_length_a   7.59388000
_cell_length_b   8.31992000
_cell_length_c   8.61808000
_cell_angle_alpha   94.84410000
_cell_angle_beta   110.10500000
_cell_angle_gamma   92.58650000
_symmetry_Int_Tables_number   1
_chemical_formula_structural   CuP2H18C18(NO3)2
_chemical_formula_sum   'Cu1 P2 H18 C18 N2 O6'
_cell_volume   507.88642518
_cell_formula_units_Z   1
loop_
 _symmetry_equiv_pos_site_id
 _symmetry_equiv_pos_as_xyz
  1  'x, y, z'
loop_
 _atom_site_type_symbol
 _atom_site_label
 _atom_site_symmetry_multiplicity
 _atom_site_fract_x
 _atom_site_fract_y
 _atom_site_fract_z
 _atom_site_occupancy
  Cu  Cu0  1  0.50000000  0.00000000  0.00000000  1.0
  P  P1  1  0.46112000  0.13978000  0.31592000  1.0
  P  P2  1  0.53889000  0.86021000  0.68408000  1.0
  H  H3  1  0.31054000  0.00666000  0.45080000  1.0
  H  H4  1  0.68946000  0.99334000  0.54919000  1.0
  H  H5  1  0.53784000  0.68482000  0.13939000  1.0
  H  H6  1  0.46215000  0.31518000  0.86061000  1.0
  H  H7  1  0.32306000  0.44946000  0.12883000  1.0
  H  H8  1  0.67694000  0.55054000  0.87118000  1.0
  H  H9  1  0.85970000  0.73734000  0.89670000  1.0
  H  H10  1  0.14029000  0.26266000  0.10331000  1.0
  H  H11  1  0.09373000  0.95552000  0.90836000  1.0
  H  H12  1  0.90626000  0.04447000  0.09163000  1.0
  H  H13  1  0.23506000  0.30481000  0.47893000  1.0
  H  H14  1  0.76494000  0.69519000  0.52107000  1.0
  H  H15  1  0.88617000  0.51182000  0.37309000  1.0
  H  H16  1  0.11383000  0.48818000  0.62690000  1.0
  H  H17  1  0.71831000  0.36739000  0.22677000  1.0
  H  H18  1  0.28169000  0.63261000  0.77322000  1.0
  H  H19  1  0.86240000  0.30684000  0.41601000  1.0
  H  H20  1  0.13760000  0.69317000  0.58399000  1.0
  C  C21  1  0.38609000  0.69026000  0.08598000  1.0
  C  C22  1  0.61390000  0.30974000  0.91401000  1.0
  C  C23  1  0.26361000  0.55892000  0.07962000  1.0
  C  C24  1  0.73640000  0.44109000  0.92038000  1.0
  C  C25  1  0.06836000  0.56921000  0.00760000  1.0
  C  C26  1  0.93164000  0.43079000  0.99241000  1.0
  C  C27  1  0.00793000  0.71672000  0.94921000  1.0
  C  C28  1  0.99207000  0.28328000  0.05080000  1.0
  C  C29  1  0.13876000  0.84214000  0.95793000  1.0
  C  C30  1  0.86123000  0.15786000  0.04208000  1.0
  C  C31  1  0.48758000  0.34219000  0.42209000  1.0
  C  C32  1  0.51243000  0.65780000  0.57792000  1.0
  C  C33  1  0.63955000  0.45254000  0.43322000  1.0
  C  C34  1  0.36045000  0.54745000  0.56678000  1.0
  C  C35  1  0.35161000  0.39142000  0.48846000  1.0
  C  C36  1  0.64840000  0.60857000  0.51155000  1.0
  C  C37  1  0.78568000  0.40828000  0.35941000  1.0
  C  C38  1  0.21432000  0.59172000  0.64059000  1.0
  N  N39  1  0.32494000  0.82871000  0.02363000  1.0
  N  N40  1  0.67505000  0.17129000  0.97637000  1.0
  O  O41  1  0.28190000  0.05220000  0.33521000  1.0
  O  O42  1  0.71811000  0.94780000  0.66478000  1.0
  O  O43  1  0.63806000  0.05176000  0.38444000  1.0
  O  O44  1  0.36194000  0.94823000  0.61554000  1.0
  O  O45  1  0.41035000  0.16395000  0.12967000  1.0
  O  O46  1  0.58965000  0.83606000  0.87033000  1.0
