# generated using pymatgen
data_HgH39C23Br2N3O2
_symmetry_space_group_name_H-M   'P 1'
_cell_length_a   8.76902000
_cell_length_b   11.78300000
_cell_length_c   13.82800000
_cell_angle_alpha   94.58000000
_cell_angle_beta   103.39300000
_cell_angle_gamma   91.66270000
_symmetry_Int_Tables_number   1
_chemical_formula_structural   HgH39C23Br2N3O2
_chemical_formula_sum   'Hg2 H78 C46 Br4 N6 O4'
_cell_volume   1383.82389107
_cell_formula_units_Z   2
loop_
 _symmetry_equiv_pos_site_id
 _symmetry_equiv_pos_as_xyz
  1  'x, y, z'
loop_
 _atom_site_type_symbol
 _atom_site_label
 _atom_site_symmetry_multiplicity
 _atom_site_fract_x
 _atom_site_fract_y
 _atom_site_fract_z
 _atom_site_occupancy
  Hg  Hg0  1  0.16451000  0.45282000  0.62313000  1.0
  Hg  Hg1  1  0.83549000  0.54718000  0.37686000  1.0
  H  H2  1  0.43717000  0.63521000  0.74365000  1.0
  H  H3  1  0.56282000  0.36479000  0.25635000  1.0
  H  H4  1  0.66553000  0.80875000  0.54871000  1.0
  H  H5  1  0.33446000  0.19125000  0.45129000  1.0
  H  H6  1  0.27659000  0.56222000  0.43874000  1.0
  H  H7  1  0.72341000  0.43778000  0.56126000  1.0
  H  H8  1  0.33453000  0.96113000  0.35944000  1.0
  H  H9  1  0.66547000  0.03887000  0.64056000  1.0
  H  H10  1  0.37638000  0.88419000  0.46674000  1.0
  H  H11  1  0.62362000  0.11581000  0.53326000  1.0
  H  H12  1  0.15445000  0.74502000  0.38970000  1.0
  H  H13  1  0.84555000  0.25498000  0.61029000  1.0
  H  H14  1  0.12041000  0.91187000  0.50303000  1.0
  H  H15  1  0.87960000  0.08812000  0.49697000  1.0
  H  H16  1  0.94500000  0.87568000  0.41129000  1.0
  H  H17  1  0.05501000  0.12431000  0.58871000  1.0
  H  H18  1  0.06643000  0.99504000  0.39966000  1.0
  H  H19  1  0.93357000  0.00496000  0.60034000  1.0
  H  H20  1  0.13830000  0.76183000  0.20910000  1.0
  H  H21  1  0.86171000  0.23817000  0.79090000  1.0
  H  H22  1  0.07943000  0.90473000  0.22186000  1.0
  H  H23  1  0.92057000  0.09527000  0.77814000  1.0
  H  H24  1  0.95609000  0.78783000  0.23813000  1.0
  H  H25  1  0.04392000  0.21217000  0.76187000  1.0
  H  H26  1  0.37027000  0.89410000  0.21225000  1.0
  H  H27  1  0.62973000  0.10590000  0.78775000  1.0
  H  H28  1  0.43012000  0.75305000  0.18903000  1.0
  H  H29  1  0.56988000  0.24694000  0.81097000  1.0
  H  H30  1  0.70250000  0.81136000  0.27602000  1.0
  H  H31  1  0.29750000  0.18863000  0.72399000  1.0
  H  H32  1  0.61122000  0.81859000  0.09210000  1.0
  H  H33  1  0.38879000  0.18141000  0.90791000  1.0
  H  H34  1  0.75873000  0.92739000  0.14362000  1.0
  H  H35  1  0.24128000  0.07260000  0.85639000  1.0
  H  H36  1  0.55894000  0.96241000  0.11019000  1.0
  H  H37  1  0.44107000  0.03759000  0.88981000  1.0
  H  H38  1  0.65460000  0.97033000  0.39442000  1.0
  H  H39  1  0.34540000  0.02967000  0.60558000  1.0
  H  H40  1  0.57924000  0.05217000  0.29332000  1.0
  H  H41  1  0.42077000  0.94782000  0.70668000  1.0
  H  H42  1  0.78130000  0.01952000  0.32215000  1.0
  H  H43  1  0.21870000  0.98048000  0.67785000  1.0
  H  H44  1  0.89623000  0.59183000  0.80971000  1.0
  H  H45  1  0.10376000  0.40817000  0.19030000  1.0
  H  H46  1  0.69276000  0.57625000  0.75781000  1.0
  H  H47  1  0.30724000  0.42375000  0.24220000  1.0
  H  H48  1  0.85466000  0.61079000  0.98004000  1.0
  H  H49  1  0.14534000  0.38921000  0.01996000  1.0
  H  H50  1  0.59740000  0.59320000  0.01755000  1.0
  H  H51  1  0.40259000  0.40681000  0.98245000  1.0
  H  H52  1  0.50106000  0.56851000  0.88966000  1.0
  H  H53  1  0.49893000  0.43149000  0.11034000  1.0
  H  H54  1  0.59023000  0.70531000  0.93841000  1.0
  H  H55  1  0.40976000  0.29469000  0.06159000  1.0
  H  H56  1  0.74930000  0.41150000  0.98017000  1.0
  H  H57  1  0.25069000  0.58850000  0.01983000  1.0
  H  H58  1  0.87749000  0.41899000  0.89763000  1.0
  H  H59  1  0.12250000  0.58101000  0.10237000  1.0
  H  H60  1  0.67032000  0.40741000  0.84922000  1.0
  H  H61  1  0.32968000  0.59260000  0.15078000  1.0
  H  H62  1  0.86097000  0.79427000  0.96973000  1.0
  H  H63  1  0.13903000  0.20573000  0.03026000  1.0
  H  H64  1  0.86100000  0.90066000  0.88550000  1.0
  H  H65  1  0.13900000  0.09934000  0.11450000  1.0
  H  H66  1  0.08128000  0.70185000  0.91351000  1.0
  H  H67  1  0.91872000  0.29815000  0.08649000  1.0
  H  H68  1  0.22165000  0.79916000  0.80307000  1.0
  H  H69  1  0.77835000  0.20084000  0.19693000  1.0
  H  H70  1  0.07461000  0.90139000  0.78312000  1.0
  H  H71  1  0.92539000  0.09861000  0.21688000  1.0
  H  H72  1  0.02707000  0.75636000  0.73858000  1.0
  H  H73  1  0.97293000  0.24365000  0.26142000  1.0
  H  H74  1  0.13409000  0.85186000  0.05807000  1.0
  H  H75  1  0.86590000  0.14814000  0.94193000  1.0
  H  H76  1  0.14677000  0.95785000  0.97547000  1.0
  H  H77  1  0.85323000  0.04215000  0.02454000  1.0
  H  H78  1  0.28681000  0.85114000  0.99327000  1.0
  H  H79  1  0.71319000  0.14886000  0.00673000  1.0
  C  C80  1  0.45319000  0.65161000  0.67001000  1.0
  C  C81  1  0.54681000  0.34839000  0.32999000  1.0
  C  C82  1  0.57281000  0.72645000  0.65796000  1.0
  C  C83  1  0.42719000  0.27355000  0.34203000  1.0
  C  C84  1  0.57801000  0.74714000  0.56051000  1.0
  C  C85  1  0.42199000  0.25285000  0.43949000  1.0
  C  C86  1  0.47189000  0.68896000  0.47948000  1.0
  C  C87  1  0.52811000  0.31104000  0.52052000  1.0
  C  C88  1  0.36096000  0.61194000  0.49889000  1.0
  C  C89  1  0.63904000  0.38806000  0.50110000  1.0
  C  C90  1  0.48274000  0.70623000  0.37455000  1.0
  C  C91  1  0.51726000  0.29377000  0.62545000  1.0
  C  C92  1  0.32797000  0.87603000  0.38567000  1.0
  C  C93  1  0.67203000  0.12397000  0.61433000  1.0
  C  C94  1  0.15607000  0.83089000  0.36315000  1.0
  C  C95  1  0.84394000  0.16911000  0.63685000  1.0
  C  C96  1  0.06715000  0.90773000  0.42270000  1.0
  C  C97  1  0.93286000  0.09227000  0.57730000  1.0
  C  C98  1  0.07829000  0.82088000  0.25161000  1.0
  C  C99  1  0.92171000  0.17912000  0.74839000  1.0
  C  C100  1  0.45425000  0.83053000  0.24076000  1.0
  C  C101  1  0.54576000  0.16947000  0.75924000  1.0
  C  C102  1  0.62177000  0.87751000  0.24744000  1.0
  C  C103  1  0.37823000  0.12249000  0.75256000  1.0
  C  C104  1  0.63852000  0.89737000  0.14232000  1.0
  C  C105  1  0.36149000  0.10262000  0.85768000  1.0
  C  C106  1  0.66174000  0.98616000  0.31825000  1.0
  C  C107  1  0.33826000  0.01384000  0.68175000  1.0
  C  C108  1  0.68689000  0.79492000  0.74222000  1.0
  C  C109  1  0.31311000  0.20509000  0.25778000  1.0
  C  C110  1  0.78137000  0.61776000  0.82092000  1.0
  C  C111  1  0.21862000  0.38224000  0.17908000  1.0
  C  C112  1  0.75668000  0.57545000  0.91861000  1.0
  C  C113  1  0.24331000  0.42456000  0.08139000  1.0
  C  C114  1  0.60281000  0.61306000  0.94217000  1.0
  C  C115  1  0.39719000  0.38694000  0.05783000  1.0
  C  C116  1  0.76455000  0.44567000  0.91122000  1.0
  C  C117  1  0.23544000  0.55433000  0.08879000  1.0
  C  C118  1  0.88568000  0.81153000  0.89761000  1.0
  C  C119  1  0.11432000  0.18847000  0.10239000  1.0
  C  C120  1  0.05869000  0.79144000  0.89982000  1.0
  C  C121  1  0.94130000  0.20856000  0.10018000  1.0
  C  C122  1  0.09756000  0.81318000  0.80064000  1.0
  C  C123  1  0.90243000  0.18682000  0.19936000  1.0
  C  C124  1  0.16216000  0.86711000  0.98665000  1.0
  C  C125  1  0.83784000  0.13289000  0.01335000  1.0
  Br  Br126  1  0.06568000  0.34970000  0.45095000  1.0
  Br  Br127  1  0.93431000  0.65029000  0.54905000  1.0
  Br  Br128  1  0.17265000  0.47841000  0.80544000  1.0
  Br  Br129  1  0.82734000  0.52159000  0.19455000  1.0
  N  N130  1  0.35073000  0.59637000  0.59204000  1.0
  N  N131  1  0.64928000  0.40363000  0.40795000  1.0
  N  N132  1  0.42746000  0.80335000  0.33755000  1.0
  N  N133  1  0.57254000  0.19665000  0.66245000  1.0
  N  N134  1  0.77437000  0.74161000  0.81807000  1.0
  N  N135  1  0.22563000  0.25840000  0.18193000  1.0
  O  O136  1  0.54541000  0.63372000  0.32700000  1.0
  O  O137  1  0.45458000  0.36628000  0.67300000  1.0
  O  O138  1  0.69734000  0.90027000  0.73752000  1.0
  O  O139  1  0.30266000  0.09973000  0.26248000  1.0
