# generated using pymatgen
data_ZnH22C34N5O4
_symmetry_space_group_name_H-M   'P 1'
_cell_length_a   10.89540000
_cell_length_b   16.50880000
_cell_length_c   17.66930000
_cell_angle_alpha   90.85060000
_cell_angle_beta   90.71740000
_cell_angle_gamma   90.25340000
_symmetry_Int_Tables_number   1
_chemical_formula_structural   ZnH22C34N5O4
_chemical_formula_sum   'Zn2 H44 C68 N10 O8'
_cell_volume   3177.54355006
_cell_formula_units_Z   2
loop_
 _symmetry_equiv_pos_site_id
 _symmetry_equiv_pos_as_xyz
  1  'x, y, z'
loop_
 _atom_site_type_symbol
 _atom_site_label
 _atom_site_symmetry_multiplicity
 _atom_site_fract_x
 _atom_site_fract_y
 _atom_site_fract_z
 _atom_site_occupancy
  Zn  Zn0  1  0.49821000  0.58630000  0.49950000  1.0
  Zn  Zn1  1  0.50178000  0.41370000  0.50050000  1.0
  H  H2  1  0.74797000  0.32474000  0.80858000  1.0
  H  H3  1  0.25203000  0.67525000  0.19139000  1.0
  H  H4  1  0.44712000  0.37595000  0.87418000  1.0
  H  H5  1  0.55287000  0.62404000  0.12582000  1.0
  H  H6  1  0.67047000  0.71354000  0.45017000  1.0
  H  H7  1  0.32953000  0.28646000  0.54984000  1.0
  H  H8  1  0.31513000  0.71280000  0.53044000  1.0
  H  H9  1  0.68487000  0.28720000  0.46956000  1.0
  H  H10  1  0.88766000  0.30463000  0.58195000  1.0
  H  H11  1  0.11234000  0.69539000  0.41802000  1.0
  H  H12  1  0.79584000  0.23991000  0.69443000  1.0
  H  H13  1  0.20417000  0.76008000  0.30553000  1.0
  H  H14  1  0.48191000  0.63829000  0.74019000  1.0
  H  H15  1  0.51809000  0.36171000  0.25983000  1.0
  H  H16  1  0.43452000  0.38003000  0.73230000  1.0
  H  H17  1  0.56547000  0.61998000  0.26770000  1.0
  H  H18  1  0.08054000  0.91950000  0.63839000  1.0
  H  H19  1  0.01990000  0.91449000  0.54475000  1.0
  H  H20  1  0.97987000  0.83911000  0.61084000  1.0
  H  H21  1  0.13650000  0.78590000  0.52012000  1.0
  H  H22  1  0.19407000  0.78763000  0.61392000  1.0
  H  H23  1  0.29953000  0.92118000  0.58937000  1.0
  H  H24  1  0.24325000  0.91976000  0.49683000  1.0
  H  H25  1  0.98010000  0.08552000  0.45524000  1.0
  H  H26  1  0.91944000  0.08048000  0.36161000  1.0
  H  H27  1  0.02011000  0.16087000  0.38913000  1.0
  H  H28  1  0.80591000  0.21236000  0.38606000  1.0
  H  H29  1  0.86350000  0.21411000  0.47986000  1.0
  H  H30  1  0.75676000  0.08026000  0.50318000  1.0
  H  H31  1  0.70046000  0.07881000  0.41065000  1.0
  H  H32  1  0.03764000  0.69869000  0.67376000  1.0
  H  H33  1  0.98034000  0.70509000  0.76731000  1.0
  H  H34  1  0.13858000  0.68596000  0.75257000  1.0
  H  H35  1  0.02850000  0.55714000  0.78589000  1.0
  H  H36  1  0.08758000  0.55050000  0.69367000  1.0
  H  H37  1  0.87915000  0.58929000  0.64088000  1.0
  H  H38  1  0.82189000  0.59394000  0.73366000  1.0
  H  H39  1  0.01964000  0.29491000  0.23270000  1.0
  H  H40  1  0.96235000  0.30131000  0.32624000  1.0
  H  H41  1  0.86140000  0.31404000  0.24743000  1.0
  H  H42  1  0.91240000  0.44950000  0.30633000  1.0
  H  H43  1  0.97149000  0.44286000  0.21411000  1.0
  H  H44  1  0.17810000  0.40605000  0.26635000  1.0
  H  H45  1  0.12083000  0.41071000  0.35912000  1.0
  C  C46  1  0.53551000  0.48960000  0.35594000  1.0
  C  C47  1  0.46448000  0.51041000  0.64407000  1.0
  C  C48  1  0.12603000  0.49261000  0.48772000  1.0
  C  C49  1  0.87396000  0.50740000  0.51227000  1.0
  C  C50  1  0.05603000  0.53834000  0.43718000  1.0
  C  C51  1  0.94397000  0.46167000  0.56282000  1.0
  C  C52  1  0.48093000  0.57989000  0.84897000  1.0
  C  C53  1  0.51907000  0.42011000  0.15104000  1.0
  C  C54  1  0.47405000  0.58127000  0.76996000  1.0
  C  C55  1  0.52595000  0.41873000  0.23005000  1.0
  C  C56  1  0.46028000  0.50909000  0.72837000  1.0
  C  C57  1  0.53971000  0.49091000  0.27163000  1.0
  C  C58  1  0.44831000  0.43519000  0.76596000  1.0
  C  C59  1  0.55168000  0.56481000  0.23404000  1.0
  C  C60  1  0.45481000  0.43297000  0.84431000  1.0
  C  C61  1  0.54519000  0.56703000  0.15569000  1.0
  C  C62  1  0.47414000  0.50470000  0.88718000  1.0
  C  C63  1  0.52586000  0.49530000  0.11282000  1.0
  C  C64  1  0.49069000  0.50159000  0.96600000  1.0
  C  C65  1  0.50931000  0.49840000  0.03401000  1.0
  C  C66  1  0.59743000  0.83417000  0.47166000  1.0
  C  C67  1  0.40257000  0.16583000  0.52835000  1.0
  C  C68  1  0.73685000  0.50926000  0.51893000  1.0
  C  C69  1  0.26314000  0.49075000  0.48106000  1.0
  C  C70  1  0.59281000  0.74957000  0.46932000  1.0
  C  C71  1  0.40719000  0.25043000  0.53068000  1.0
  C  C72  1  0.39236000  0.75049000  0.51396000  1.0
  C  C73  1  0.60765000  0.24951000  0.48604000  1.0
  C  C74  1  0.38588000  0.83485000  0.51726000  1.0
  C  C75  1  0.61412000  0.16515000  0.48274000  1.0
  C  C76  1  0.49268000  0.87795000  0.49600000  1.0
  C  C77  1  0.50732000  0.12205000  0.50401000  1.0
  C  C78  1  0.49686000  0.96313000  0.49894000  1.0
  C  C79  1  0.50314000  0.03688000  0.50106000  1.0
  C  C80  1  0.81170000  0.43537000  0.75838000  1.0
  C  C81  1  0.18829000  0.56463000  0.24161000  1.0
  C  C82  1  0.86130000  0.47383000  0.69441000  1.0
  C  C83  1  0.13869000  0.52616000  0.30558000  1.0
  C  C84  1  0.88817000  0.42477000  0.63091000  1.0
  C  C85  1  0.11183000  0.57524000  0.36908000  1.0
  C  C86  1  0.86525000  0.34121000  0.63174000  1.0
  C  C87  1  0.13476000  0.65879000  0.36823000  1.0
  C  C88  1  0.81392000  0.30489000  0.69471000  1.0
  C  C89  1  0.18608000  0.69510000  0.30526000  1.0
  C  C90  1  0.78703000  0.35182000  0.75838000  1.0
  C  C91  1  0.21296000  0.64817000  0.24160000  1.0
  C  C92  1  0.07062000  0.45357000  0.54917000  1.0
  C  C93  1  0.92938000  0.54644000  0.45082000  1.0
  C  C94  1  0.70706000  0.87555000  0.45161000  1.0
  C  C95  1  0.29294000  0.12445000  0.54839000  1.0
  C  C96  1  0.27299000  0.87928000  0.54268000  1.0
  C  C97  1  0.16491000  0.82681000  0.56710000  1.0
  C  C98  1  0.05522000  0.87785000  0.59161000  1.0
  C  C99  1  0.72701000  0.12072000  0.45733000  1.0
  C  C100  1  0.83509000  0.17319000  0.43288000  1.0
  C  C101  1  0.94477000  0.12214000  0.40838000  1.0
  C  C102  1  0.78876000  0.48244000  0.82513000  1.0
  C  C103  1  0.21123000  0.51754000  0.17486000  1.0
  C  C104  1  0.88936000  0.56321000  0.69749000  1.0
  C  C105  1  0.01918000  0.58205000  0.72866000  1.0
  C  C106  1  0.04559000  0.67296000  0.73073000  1.0
  C  C107  1  0.11063000  0.43679000  0.30251000  1.0
  C  C108  1  0.98081000  0.41795000  0.27134000  1.0
  C  C109  1  0.95439000  0.32704000  0.26928000  1.0
  C  C110  1  0.14195000  0.40434000  0.59886000  1.0
  C  C111  1  0.85806000  0.59567000  0.40113000  1.0
  C  C112  1  0.49759000  0.65353000  0.89109000  1.0
  C  C113  1  0.50242000  0.34646000  0.10892000  1.0
  N  N114  1  0.49233000  0.70966000  0.49096000  1.0
  N  N115  1  0.50767000  0.29035000  0.50905000  1.0
  N  N116  1  0.79744000  0.90971000  0.43654000  1.0
  N  N117  1  0.20256000  0.09030000  0.56346000  1.0
  N  N118  1  0.77210000  0.52127000  0.87986000  1.0
  N  N119  1  0.22789000  0.47869000  0.12014000  1.0
  N  N120  1  0.19676000  0.36170000  0.63907000  1.0
  N  N121  1  0.80324000  0.63831000  0.36092000  1.0
  N  N122  1  0.50988000  0.71448000  0.92487000  1.0
  N  N123  1  0.49014000  0.28551000  0.07514000  1.0
  O  O124  1  0.53179000  0.55810000  0.39004000  1.0
  O  O125  1  0.46820000  0.44191000  0.60997000  1.0
  O  O126  1  0.53325000  0.42063000  0.38749000  1.0
  O  O127  1  0.46674000  0.57938000  0.61252000  1.0
  O  O128  1  0.68598000  0.57792000  0.52302000  1.0
  O  O129  1  0.31401000  0.42209000  0.47698000  1.0
  O  O130  1  0.68623000  0.44000000  0.51673000  1.0
  O  O131  1  0.31377000  0.56001000  0.48327000  1.0
