# generated using pymatgen
data_Zn2H27C43(N4Cl)2
_symmetry_space_group_name_H-M   'P 1'
_cell_length_a   14.72410000
_cell_length_b   14.95830000
_cell_length_c   15.01957936
_cell_angle_alpha   103.51102955
_cell_angle_beta   113.31002434
_cell_angle_gamma   111.17200000
_symmetry_Int_Tables_number   1
_chemical_formula_structural   Zn2H27C43(N4Cl)2
_chemical_formula_sum   'Zn4 H54 C86 N16 Cl4'
_cell_volume   2544.40546358
_cell_formula_units_Z   2
loop_
 _symmetry_equiv_pos_site_id
 _symmetry_equiv_pos_as_xyz
  1  'x, y, z'
loop_
 _atom_site_type_symbol
 _atom_site_label
 _atom_site_symmetry_multiplicity
 _atom_site_fract_x
 _atom_site_fract_y
 _atom_site_fract_z
 _atom_site_occupancy
  Zn  Zn0  1  0.14213000  0.64946000  0.00321000  1.0
  Zn  Zn1  1  0.87787000  0.38257000  0.01231000  1.0
  Zn  Zn2  1  0.86344000  0.51216000  0.86919000  1.0
  Zn  Zn3  1  0.15433000  0.51197000  0.14813000  1.0
  H  H4  1  0.17318000  0.87352000  0.96923000  1.0
  H  H5  1  0.39572000  0.06371000  0.92142000  1.0
  H  H6  1  0.48236000  0.92466000  0.32407000  1.0
  H  H7  1  0.34926000  0.07961000  0.75067000  1.0
  H  H8  1  0.30485000  0.10005000  0.28872000  1.0
  H  H9  1  0.51327000  0.90713000  0.68793000  1.0
  H  H10  1  0.32780000  0.11714000  0.13809000  1.0
  H  H11  1  0.56296000  0.89284000  0.86042000  1.0
  H  H12  1  0.52110000  0.16894000  0.51023000  1.0
  H  H13  1  0.26861000  0.84348000  0.50763000  1.0
  H  H14  1  0.68782000  0.77727000  0.65063000  1.0
  H  H15  1  0.82539000  0.17881000  0.82826000  1.0
  H  H16  1  0.30286000  0.18156000  0.02887000  1.0
  H  H17  1  0.83330000  0.83247000  0.26505000  1.0
  H  H18  1  0.47234000  0.48872000  0.04317000  1.0
  H  H19  1  0.82628000  0.29131000  0.17607000  1.0
  H  H20  1  0.18175000  0.52732000  0.82161000  1.0
  H  H21  1  0.38810000  0.29790000  0.41821000  1.0
  H  H22  1  0.56431000  0.46126000  0.47347000  1.0
  H  H23  1  0.03896000  0.21673000  0.30767000  1.0
  H  H24  1  0.91459000  0.57436000  0.55819000  1.0
  H  H25  1  0.30640000  0.44232000  0.63772000  1.0
  H  H26  1  0.50542000  0.64543000  0.62348000  1.0
  H  H27  1  0.68596000  0.23929000  0.44327000  1.0
  H  H28  1  0.44904000  0.41631000  0.60325000  1.0
  H  H29  1  0.52986000  0.27519000  0.42601000  1.0
  H  H30  1  0.12885000  0.35479000  0.64480000  1.0
  H  H31  1  0.85441000  0.38860000  0.35200000  1.0
  H  H32  1  0.82993000  0.03452000  0.84604000  1.0
  H  H33  1  0.14320000  0.97575000  0.86385000  1.0
  H  H34  1  0.59885000  0.60079000  0.96444000  1.0
  H  H35  1  0.70882000  0.71799000  0.34326000  1.0
  H  H36  1  0.62631000  0.79388000  0.09576000  1.0
  H  H37  1  0.48094000  0.29646000  0.03815000  1.0
  H  H38  1  0.68127000  0.52782000  0.21436000  1.0
  H  H39  1  0.82363000  0.68583000  0.99486000  1.0
  H  H40  1  0.42479000  0.57009000  0.24690000  1.0
  H  H41  1  0.21265000  0.68240000  0.36194000  1.0
  H  H42  1  0.60362000  0.32673000  0.64819000  1.0
  H  H43  1  0.84064000  0.51208000  0.18937000  1.0
  H  H44  1  0.40807000  0.73976000  0.04920000  1.0
  H  H45  1  0.18672000  0.85685000  0.16849000  1.0
  H  H46  1  0.62990000  0.15771000  0.84678000  1.0
  H  H47  1  0.19718000  0.47706000  0.37525000  1.0
  H  H48  1  0.66589000  0.76351000  0.96883000  1.0
  H  H49  1  0.81187000  0.33669000  0.66094000  1.0
  H  H50  1  0.80274000  0.67451000  0.77318000  1.0
  H  H51  1  0.19689000  0.33625000  0.01862000  1.0
  H  H52  1  0.49449000  0.63849000  0.78390000  1.0
  H  H53  1  0.46601000  0.34345000  0.88574000  1.0
  H  H54  1  0.27302000  0.27820000  0.72842000  1.0
  H  H55  1  0.43077000  0.03930000  0.08011000  1.0
  H  H56  1  0.50562000  0.97265000  0.97921000  1.0
  H  H57  1  0.50816000  0.94301000  0.17451000  1.0
  C  C58  1  0.08374000  0.81013000  0.92256000  1.0
  C  C59  1  0.07443000  0.98918000  0.86173000  1.0
  C  C60  1  0.58008000  0.69947000  0.70487000  1.0
  C  C61  1  0.39708000  0.26785000  0.96853000  1.0
  C  C62  1  0.68229000  0.77348000  0.72006000  1.0
  C  C63  1  0.29739000  0.20358000  0.96343000  1.0
  C  C64  1  0.46321000  0.97755000  0.19898000  1.0
  C  C65  1  0.42205000  0.02912000  0.87082000  1.0
  C  C66  1  0.44965000  0.96776000  0.28373000  1.0
  C  C67  1  0.39494000  0.03766000  0.77406000  1.0
  C  C68  1  0.39334000  0.01275000  0.31747000  1.0
  C  C69  1  0.91728000  0.23239000  0.88383000  1.0
  C  C70  1  0.42789000  0.99406000  0.70759000  1.0
  C  C71  1  0.35061000  0.06682000  0.26434000  1.0
  C  C72  1  0.48719000  0.94080000  0.73941000  1.0
  C  C73  1  0.91791000  0.34049000  0.21079000  1.0
  C  C74  1  0.09237000  0.48795000  0.79829000  1.0
  C  C75  1  0.36312000  0.07568000  0.17887000  1.0
  C  C76  1  0.51553000  0.93331000  0.83669000  1.0
  C  C77  1  0.41989000  0.03149000  0.14614000  1.0
  C  C78  1  0.48317000  0.97792000  0.90286000  1.0
  C  C79  1  0.46223000  0.09854000  0.50950000  1.0
  C  C80  1  0.00950000  0.37760000  0.31519000  1.0
  C  C81  1  0.32353000  0.91551000  0.50727000  1.0
  C  C82  1  0.47702000  0.10083000  0.60845000  1.0
  C  C83  1  0.30963000  0.91326000  0.40845000  1.0
  C  C84  1  0.40710000  0.00513000  0.60642000  1.0
  C  C85  1  0.38429000  0.00744000  0.41160000  1.0
  C  C86  1  0.78047000  0.84301000  0.82358000  1.0
  C  C87  1  0.18750000  0.16507000  0.87543000  1.0
  C  C88  1  0.66965000  0.76480000  0.89826000  1.0
  C  C89  1  0.28102000  0.25900000  0.79585000  1.0
  C  C90  1  0.20974000  0.25110000  0.35354000  1.0
  C  C91  1  0.99339000  0.41193000  0.69626000  1.0
  C  C92  1  0.74149000  0.52760000  0.51842000  1.0
  C  C93  1  0.12840000  0.26081000  0.37340000  1.0
  C  C94  1  0.83071000  0.50864000  0.53018000  1.0
  C  C95  1  0.16237000  0.33209000  0.47540000  1.0
  C  C96  1  0.81151000  0.40454000  0.50377000  1.0
  C  C97  1  0.83530000  0.63555000  0.03490000  1.0
  C  C98  1  0.40284000  0.60875000  0.19549000  1.0
  C  C99  1  0.27848000  0.38631000  0.55829000  1.0
  C  C100  1  0.70243000  0.32087000  0.46631000  1.0
  C  C101  1  0.35886000  0.37272000  0.53842000  1.0
  C  C102  1  0.81048000  0.62004000  0.11332000  1.0
  C  C103  1  0.61461000  0.34147000  0.45676000  1.0
  C  C104  1  0.32569000  0.30639000  0.43539000  1.0
  C  C105  1  0.63310000  0.44493000  0.48275000  1.0
  C  C106  1  0.06927000  0.36335000  0.58029000  1.0
  C  C107  1  0.91308000  0.37776000  0.41487000  1.0
  C  C108  1  0.98673000  0.38206000  0.59253000  1.0
  C  C109  1  0.99985000  0.36671000  0.40592000  1.0
  C  C110  1  0.90383000  0.38428000  0.50463000  1.0
  C  C111  1  0.07649000  0.35371000  0.48843000  1.0
  C  C112  1  0.57398000  0.69524000  0.79436000  1.0
  C  C113  1  0.46684000  0.66665000  0.15934000  1.0
  C  C114  1  0.38878000  0.29481000  0.88376000  1.0
  C  C115  1  0.08423000  0.08747000  0.86814000  1.0
  C  C116  1  0.88775000  0.92317000  0.83825000  1.0
  C  C117  1  0.77182000  0.83738000  0.91224000  1.0
  C  C118  1  0.18162000  0.19551000  0.79229000  1.0
  C  C119  1  0.99728000  0.10770000  0.86742000  1.0
  C  C120  1  0.98014000  0.90673000  0.85150000  1.0
  C  C121  1  0.19628000  0.70970000  0.29932000  1.0
  C  C122  1  0.62604000  0.30036000  0.71113000  1.0
  C  C123  1  0.63814000  0.73358000  0.12069000  1.0
  C  C124  1  0.23033000  0.81399000  0.30874000  1.0
  C  C125  1  0.66841000  0.58637000  0.18689000  1.0
  C  C126  1  0.62136000  0.62749000  0.04844000  1.0
  C  C127  1  0.68427000  0.69206000  0.25870000  1.0
  C  C128  1  0.73671000  0.64824000  0.14205000  1.0
  C  C129  1  0.56892000  0.66998000  0.16340000  1.0
  C  C130  1  0.75292000  0.75552000  0.21529000  1.0
  C  C131  1  0.55439000  0.56401000  0.09195000  1.0
  C  C132  1  0.84423000  0.54682000  0.13405000  1.0
  C  C133  1  0.39417000  0.69501000  0.09464000  1.0
  C  C134  1  0.18456000  0.79906000  0.20094000  1.0
  C  C135  1  0.57138000  0.19858000  0.70628000  1.0
  C  C136  1  0.63858000  0.21405000  0.81218000  1.0
  C  C137  1  0.10702000  0.43460000  0.31203000  1.0
  C  C138  1  0.90346000  0.39166000  0.71548000  1.0
  C  C139  1  0.89476000  0.70972000  0.82433000  1.0
  C  C140  1  0.10690000  0.31306000  0.98008000  1.0
  C  C141  1  0.98425000  0.81334000  0.86234000  1.0
  C  C142  1  0.00837000  0.21320000  0.90109000  1.0
  C  C143  1  0.89867000  0.02179000  0.84716000  1.0
  N  N144  1  0.05546000  0.71315000  0.92057000  1.0
  N  N145  1  0.29455000  0.65670000  0.09225000  1.0
  N  N146  1  0.13155000  0.69484000  0.13430000  1.0
  N  N147  1  0.72590000  0.31571000  0.87337000  1.0
  N  N148  1  0.07527000  0.43123000  0.21350000  1.0
  N  N149  1  0.94609000  0.45270000  0.81946000  1.0
  N  N150  1  0.93765000  0.65071000  0.85900000  1.0
  N  N151  1  0.07519000  0.38369000  0.00874000  1.0
  N  N152  1  0.95868000  0.33396000  0.94941000  1.0
  N  N153  1  0.95766000  0.37235000  0.15056000  1.0
  N  N154  1  0.06228000  0.51237000  0.87056000  1.0
  N  N155  1  0.87799000  0.57424000  0.01024000  1.0
  N  N156  1  0.30033000  0.60302000  0.15505000  1.0
  N  N157  1  0.13875000  0.63987000  0.19485000  1.0
  N  N158  1  0.71820000  0.36976000  0.81076000  1.0
  N  N159  1  0.88367000  0.51978000  0.07104000  1.0
  Cl  Cl160  1  0.88961000  0.92174000  0.04236000  1.0
  Cl  Cl161  1  0.04982000  0.15052000  0.67989000  1.0
  Cl  Cl162  1  0.16496000  0.17325000  0.22235000  1.0
  Cl  Cl163  1  0.76519000  0.65589000  0.54485000  1.0
