# generated using pymatgen
data_H22Pb(C3O)4
_symmetry_space_group_name_H-M   'P 1'
_cell_length_a   4.69053000
_cell_length_b   7.22732000
_cell_length_c   20.83880000
_cell_angle_alpha   88.51890000
_cell_angle_beta   83.90040000
_cell_angle_gamma   88.41300000
_symmetry_Int_Tables_number   1
_chemical_formula_structural   H22Pb(C3O)4
_chemical_formula_sum   'H44 Pb2 C24 O8'
_cell_volume   701.97927514
_cell_formula_units_Z   2
loop_
 _symmetry_equiv_pos_site_id
 _symmetry_equiv_pos_as_xyz
  1  'x, y, z'
loop_
 _atom_site_type_symbol
 _atom_site_label
 _atom_site_symmetry_multiplicity
 _atom_site_fract_x
 _atom_site_fract_y
 _atom_site_fract_z
 _atom_site_occupancy
  H  H0  1  0.44366000  0.07765000  0.14046000  1.0
  H  H1  1  0.55633000  0.92236000  0.85953000  1.0
  H  H2  1  0.35230000  0.31818000  0.13654000  1.0
  H  H3  1  0.64770000  0.68183000  0.86346000  1.0
  H  H4  1  0.88679000  0.16421000  0.19500000  1.0
  H  H5  1  0.11321000  0.83579000  0.80500000  1.0
  H  H6  1  0.75040000  0.39475000  0.19793000  1.0
  H  H7  1  0.24960000  0.60525000  0.80207000  1.0
  H  H8  1  0.46107000  0.05082000  0.26213000  1.0
  H  H9  1  0.53892000  0.94917000  0.73786000  1.0
  H  H10  1  0.29543000  0.27224000  0.26281000  1.0
  H  H11  1  0.70456000  0.72776000  0.73719000  1.0
  H  H12  1  0.85972000  0.17496000  0.31956000  1.0
  H  H13  1  0.14027000  0.82504000  0.68044000  1.0
  H  H14  1  0.69184000  0.39544000  0.32032000  1.0
  H  H15  1  0.30814000  0.60456000  0.67968000  1.0
  H  H16  1  0.43261000  0.04370000  0.38716000  1.0
  H  H17  1  0.56738000  0.95630000  0.61284000  1.0
  H  H18  1  0.25582000  0.26325000  0.38715000  1.0
  H  H19  1  0.74418000  0.73675000  0.61285000  1.0
  H  H20  1  0.57129000  0.23072000  0.42666000  1.0
  H  H21  1  0.42870000  0.76928000  0.57334000  1.0
  H  H22  1  0.26368000  0.54204000  0.21809000  1.0
  H  H23  1  0.73632000  0.45795000  0.78192000  1.0
  H  H24  1  0.42869000  0.75553000  0.21462000  1.0
  H  H25  1  0.57133000  0.24445000  0.78538000  1.0
  H  H26  1  0.82156000  0.67600000  0.28091000  1.0
  H  H27  1  0.17845000  0.32400000  0.71909000  1.0
  H  H28  1  0.97571000  0.89502000  0.27713000  1.0
  H  H29  1  0.02431000  0.10498000  0.72287000  1.0
  H  H30  1  0.37777000  0.76911000  0.33750000  1.0
  H  H31  1  0.62224000  0.23088000  0.66250000  1.0
  H  H32  1  0.22701000  0.54869000  0.34128000  1.0
  H  H33  1  0.77299000  0.45131000  0.65872000  1.0
  H  H34  1  0.79236000  0.66626000  0.40730000  1.0
  H  H35  1  0.20764000  0.33373000  0.59269000  1.0
  H  H36  1  0.91641000  0.89421000  0.39941000  1.0
  H  H37  1  0.08359000  0.10579000  0.60059000  1.0
  H  H38  1  0.33587000  0.80541000  0.46025000  1.0
  H  H39  1  0.66412000  0.19460000  0.53975000  1.0
  H  H40  1  0.22253000  0.57311000  0.46726000  1.0
  H  H41  1  0.77747000  0.42690000  0.53274000  1.0
  H  H42  1  0.00868000  0.75135000  0.50678000  1.0
  H  H43  1  0.99130000  0.24866000  0.49322000  1.0
  Pb  Pb44  1  0.77733000  0.75089000  0.04188000  1.0
  Pb  Pb45  1  0.22266000  0.24909000  0.95813000  1.0
  C  C46  1  0.72901000  0.24118000  0.07670000  1.0
  C  C47  1  0.27100000  0.75883000  0.92330000  1.0
  C  C48  1  0.53169000  0.21702000  0.13850000  1.0
  C  C49  1  0.46831000  0.78297000  0.86150000  1.0
  C  C50  1  0.68749000  0.24911000  0.19822000  1.0
  C  C51  1  0.31250000  0.75090000  0.80178000  1.0
  C  C52  1  0.50624000  0.19984000  0.26121000  1.0
  C  C53  1  0.49375000  0.80016000  0.73879000  1.0
  C  C54  1  0.64834000  0.24620000  0.32129000  1.0
  C  C55  1  0.35165000  0.75381000  0.67871000  1.0
  C  C56  1  0.46809000  0.19347000  0.38406000  1.0
  C  C57  1  0.53190000  0.80653000  0.61594000  1.0
  C  C58  1  0.09093000  0.73649000  0.15543000  1.0
  C  C59  1  0.90909000  0.26351000  0.84457000  1.0
  C  C60  1  0.21683000  0.69230000  0.21790000  1.0
  C  C61  1  0.78318000  0.30769000  0.78210000  1.0
  C  C62  1  0.02815000  0.74562000  0.27905000  1.0
  C  C63  1  0.97187000  0.25438000  0.72095000  1.0
  C  C64  1  0.17168000  0.69796000  0.34000000  1.0
  C  C65  1  0.82834000  0.30203000  0.66000000  1.0
  C  C66  1  0.98872000  0.74805000  0.40255000  1.0
  C  C67  1  0.01128000  0.25195000  0.59745000  1.0
  C  C68  1  0.14694000  0.71778000  0.46249000  1.0
  C  C69  1  0.85305000  0.28224000  0.53751000  1.0
  O  O70  1  0.76632000  0.10734000  0.03686000  1.0
  O  O71  1  0.23372000  0.89267000  0.96314000  1.0
  O  O72  1  0.85726000  0.39278000  0.06500000  1.0
  O  O73  1  0.14274000  0.60723000  0.93500000  1.0
  O  O74  1  0.24022000  0.70501000  0.10136000  1.0
  O  O75  1  0.75980000  0.29499000  0.89864000  1.0
  O  O76  1  0.83354000  0.79940000  0.15709000  1.0
  O  O77  1  0.16648000  0.20060000  0.84291000  1.0
