# generated using pymatgen
data_CdH20C38(NO2)4
_symmetry_space_group_name_H-M   'P 1'
_cell_length_a   11.86550000
_cell_length_b   13.83520000
_cell_length_c   29.54030000
_cell_angle_alpha   89.99870000
_cell_angle_beta   89.99730000
_cell_angle_gamma   76.80700000
_symmetry_Int_Tables_number   1
_chemical_formula_structural   CdH20C38(NO2)4
_chemical_formula_sum   'Cd4 H80 C152 N16 O32'
_cell_volume   4721.39115499
_cell_formula_units_Z   4
loop_
 _symmetry_equiv_pos_site_id
 _symmetry_equiv_pos_as_xyz
  1  'x, y, z'
loop_
 _atom_site_type_symbol
 _atom_site_label
 _atom_site_symmetry_multiplicity
 _atom_site_fract_x
 _atom_site_fract_y
 _atom_site_fract_z
 _atom_site_occupancy
  Cd  Cd0  1  0.39490000  0.08484000  0.04304000  1.0
  Cd  Cd1  1  0.10508000  0.41517000  0.54304000  1.0
  Cd  Cd2  1  0.60510000  0.91517000  0.95696000  1.0
  Cd  Cd3  1  0.89492000  0.58483000  0.45696000  1.0
  H  H4  1  0.41403000  0.08462000  0.20288000  1.0
  H  H5  1  0.18627000  0.34794000  0.15223000  1.0
  H  H6  1  0.37102000  0.14396000  0.28214000  1.0
  H  H7  1  0.14535000  0.41111000  0.23125000  1.0
  H  H8  1  0.40414000  0.25042000  0.33347000  1.0
  H  H9  1  0.05319000  0.39270000  0.29739000  1.0
  H  H10  1  0.35740000  0.29477000  0.41427000  1.0
  H  H11  1  0.01259000  0.44417000  0.37657000  1.0
  H  H12  1  0.12858000  0.07238000  0.03889000  1.0
  H  H13  1  0.42448000  0.85401000  0.06369000  1.0
  H  H14  1  0.00300000  0.94986000  0.04195000  1.0
  H  H15  1  0.31161000  0.72065000  0.06631000  1.0
  H  H16  1  0.88344000  0.70930000  0.94434000  1.0
  H  H17  1  0.07069000  0.55567000  0.15375000  1.0
  H  H18  1  0.76698000  0.58214000  0.94167000  1.0
  H  H19  1  0.94610000  0.42980000  0.15201000  1.0
  H  H20  1  0.50960000  0.43494000  0.02701000  1.0
  H  H21  1  0.80166000  0.19960000  0.06489000  1.0
  H  H22  1  0.39159000  0.30721000  0.02270000  1.0
  H  H23  1  0.66798000  0.08315000  0.06225000  1.0
  H  H24  1  0.08597000  0.41537000  0.70288000  1.0
  H  H25  1  0.31375000  0.15207000  0.65223000  1.0
  H  H26  1  0.12899000  0.35602000  0.78215000  1.0
  H  H27  1  0.35466000  0.08889000  0.73125000  1.0
  H  H28  1  0.09585000  0.24957000  0.83348000  1.0
  H  H29  1  0.44681000  0.10730000  0.79739000  1.0
  H  H30  1  0.14258000  0.20521000  0.91428000  1.0
  H  H31  1  0.48741000  0.05583000  0.87657000  1.0
  H  H32  1  0.37142000  0.42761000  0.53891000  1.0
  H  H33  1  0.07553000  0.64600000  0.56369000  1.0
  H  H34  1  0.49700000  0.55012000  0.54196000  1.0
  H  H35  1  0.18841000  0.77935000  0.56630000  1.0
  H  H36  1  0.61654000  0.79070000  0.44434000  1.0
  H  H37  1  0.42934000  0.94430000  0.65376000  1.0
  H  H38  1  0.73301000  0.91785000  0.44166000  1.0
  H  H39  1  0.55389000  0.07019000  0.65201000  1.0
  H  H40  1  0.99042000  0.06504000  0.52702000  1.0
  H  H41  1  0.69834000  0.30040000  0.56487000  1.0
  H  H42  1  0.10843000  0.19278000  0.52270000  1.0
  H  H43  1  0.83202000  0.41684000  0.56222000  1.0
  H  H44  1  0.58599000  0.91537000  0.79712000  1.0
  H  H45  1  0.81376000  0.65205000  0.84777000  1.0
  H  H46  1  0.62898000  0.85601000  0.71786000  1.0
  H  H47  1  0.85466000  0.58888000  0.76876000  1.0
  H  H48  1  0.59587000  0.74960000  0.66653000  1.0
  H  H49  1  0.94682000  0.60729000  0.70260000  1.0
  H  H50  1  0.64257000  0.70524000  0.58573000  1.0
  H  H51  1  0.98739000  0.55581000  0.62342000  1.0
  H  H52  1  0.87141000  0.92763000  0.96110000  1.0
  H  H53  1  0.57552000  0.14602000  0.93631000  1.0
  H  H54  1  0.99699000  0.05014000  0.95804000  1.0
  H  H55  1  0.68840000  0.27937000  0.93370000  1.0
  H  H56  1  0.11658000  0.29069000  0.05566000  1.0
  H  H57  1  0.92935000  0.44431000  0.84625000  1.0
  H  H58  1  0.23305000  0.41785000  0.05834000  1.0
  H  H59  1  0.05392000  0.57019000  0.84799000  1.0
  H  H60  1  0.49042000  0.56503000  0.97296000  1.0
  H  H61  1  0.19834000  0.80039000  0.93513000  1.0
  H  H62  1  0.60843000  0.69277000  0.97729000  1.0
  H  H63  1  0.33201000  0.91684000  0.93778000  1.0
  H  H64  1  0.91400000  0.58463000  0.29712000  1.0
  H  H65  1  0.68625000  0.84795000  0.34777000  1.0
  H  H66  1  0.87102000  0.64398000  0.21786000  1.0
  H  H67  1  0.64535000  0.91112000  0.26875000  1.0
  H  H68  1  0.90413000  0.75040000  0.16652000  1.0
  H  H69  1  0.55319000  0.89271000  0.20260000  1.0
  H  H70  1  0.85743000  0.79476000  0.08572000  1.0
  H  H71  1  0.51260000  0.94418000  0.12342000  1.0
  H  H72  1  0.62858000  0.57239000  0.46111000  1.0
  H  H73  1  0.92448000  0.35400000  0.43631000  1.0
  H  H74  1  0.50301000  0.44986000  0.45806000  1.0
  H  H75  1  0.81160000  0.22065000  0.43369000  1.0
  H  H76  1  0.38342000  0.20931000  0.55566000  1.0
  H  H77  1  0.57068000  0.05570000  0.34625000  1.0
  H  H78  1  0.26697000  0.08214000  0.55834000  1.0
  H  H79  1  0.44610000  0.92983000  0.34799000  1.0
  H  H80  1  0.00957000  0.93497000  0.47299000  1.0
  H  H81  1  0.30164000  0.69962000  0.43513000  1.0
  H  H82  1  0.89155000  0.80725000  0.47730000  1.0
  H  H83  1  0.16797000  0.58318000  0.43777000  1.0
  C  C84  1  0.32814000  0.17381000  0.12593000  1.0
  C  C85  1  0.30219000  0.21243000  0.17302000  1.0
  C  C86  1  0.35505000  0.15583000  0.20980000  1.0
  C  C87  1  0.22601000  0.30419000  0.18118000  1.0
  C  C88  1  0.33164000  0.18997000  0.25377000  1.0
  C  C89  1  0.20291000  0.33860000  0.22527000  1.0
  C  C90  1  0.25520000  0.28195000  0.26243000  1.0
  C  C91  1  0.23090000  0.31577000  0.30953000  1.0
  C  C92  1  0.31703000  0.28991000  0.34305000  1.0
  C  C93  1  0.12159000  0.37206000  0.32263000  1.0
  C  C94  1  0.29234000  0.31541000  0.38796000  1.0
  C  C95  1  0.09733000  0.39909000  0.36762000  1.0
  C  C96  1  0.18211000  0.36886000  0.40099000  1.0
  C  C97  1  0.15720000  0.38823000  0.45009000  1.0
  C  C98  1  0.16586000  0.99389000  0.04513000  1.0
  C  C99  1  0.33084000  0.87144000  0.05920000  1.0
  C  C100  1  0.09613000  0.92555000  0.04675000  1.0
  C  C101  1  0.26825000  0.79792000  0.06085000  1.0
  C  C102  1  0.14911000  0.82585000  0.05374000  1.0
  C  C103  1  0.08553000  0.68968000  0.09090000  1.0
  C  C104  1  0.02004000  0.74436000  0.01197000  1.0
  C  C105  1  0.95042000  0.66858000  0.01119000  1.0
  C  C106  1  0.01720000  0.61280000  0.08799000  1.0
  C  C107  1  0.94978000  0.60621000  0.04912000  1.0
  C  C108  1  0.88539000  0.65956000  0.97302000  1.0
  C  C109  1  0.01687000  0.54928000  0.12447000  1.0
  C  C110  1  0.81769000  0.58867000  0.97179000  1.0
  C  C111  1  0.94757000  0.47964000  0.12354000  1.0
  C  C112  1  0.81362000  0.52770000  0.00891000  1.0
  C  C113  1  0.87860000  0.47325000  0.08604000  1.0
  C  C114  1  0.87960000  0.53545000  0.04814000  1.0
  C  C115  1  0.74163000  0.45367000  0.00687000  1.0
  C  C116  1  0.80356000  0.40131000  0.08647000  1.0
  C  C117  1  0.66588000  0.32604000  0.04550000  1.0
  C  C118  1  0.54920000  0.35747000  0.03399000  1.0
  C  C119  1  0.71105000  0.22642000  0.05601000  1.0
  C  C120  1  0.48282000  0.28678000  0.03201000  1.0
  C  C121  1  0.63718000  0.16154000  0.05404000  1.0
  C  C122  1  0.17185000  0.32619000  0.62594000  1.0
  C  C123  1  0.19780000  0.28756000  0.67302000  1.0
  C  C124  1  0.14494000  0.34416000  0.70980000  1.0
  C  C125  1  0.27399000  0.19581000  0.68117000  1.0
  C  C126  1  0.16835000  0.31002000  0.75377000  1.0
  C  C127  1  0.29710000  0.16139000  0.72527000  1.0
  C  C128  1  0.24480000  0.21803000  0.76243000  1.0
  C  C129  1  0.26908000  0.18421000  0.80953000  1.0
  C  C130  1  0.18295000  0.21007000  0.84305000  1.0
  C  C131  1  0.37840000  0.12793000  0.82263000  1.0
  C  C132  1  0.20764000  0.18457000  0.88796000  1.0
  C  C133  1  0.40266000  0.10090000  0.86762000  1.0
  C  C134  1  0.31787000  0.13113000  0.90099000  1.0
  C  C135  1  0.34279000  0.11174000  0.95009000  1.0
  C  C136  1  0.33415000  0.50610000  0.54515000  1.0
  C  C137  1  0.16916000  0.62856000  0.55920000  1.0
  C  C138  1  0.40387000  0.57443000  0.54676000  1.0
  C  C139  1  0.23176000  0.70208000  0.56085000  1.0
  C  C140  1  0.35091000  0.67413000  0.55376000  1.0
  C  C141  1  0.41447000  0.81032000  0.59091000  1.0
  C  C142  1  0.47995000  0.75564000  0.51198000  1.0
  C  C143  1  0.54959000  0.83141000  0.51120000  1.0
  C  C144  1  0.48280000  0.88719000  0.58800000  1.0
  C  C145  1  0.55023000  0.89378000  0.54913000  1.0
  C  C146  1  0.61460000  0.84044000  0.47302000  1.0
  C  C147  1  0.48314000  0.95069000  0.62447000  1.0
  C  C148  1  0.68231000  0.91133000  0.47178000  1.0
  C  C149  1  0.55242000  0.02035000  0.62354000  1.0
  C  C150  1  0.68638000  0.97230000  0.50891000  1.0
  C  C151  1  0.62139000  0.02674000  0.58604000  1.0
  C  C152  1  0.62039000  0.96455000  0.54814000  1.0
  C  C153  1  0.75836000  0.04634000  0.50686000  1.0
  C  C154  1  0.69644000  0.09868000  0.58647000  1.0
  C  C155  1  0.83413000  0.17396000  0.54550000  1.0
  C  C156  1  0.95082000  0.14251000  0.53399000  1.0
  C  C157  1  0.78895000  0.27357000  0.55600000  1.0
  C  C158  1  0.01720000  0.21321000  0.53200000  1.0
  C  C159  1  0.86283000  0.33845000  0.55402000  1.0
  C  C160  1  0.67187000  0.82620000  0.87407000  1.0
  C  C161  1  0.69782000  0.78756000  0.82699000  1.0
  C  C162  1  0.64495000  0.84416000  0.79020000  1.0
  C  C163  1  0.77400000  0.69579000  0.81883000  1.0
  C  C164  1  0.66836000  0.81001000  0.74623000  1.0
  C  C165  1  0.79710000  0.66138000  0.77474000  1.0
  C  C166  1  0.74480000  0.71802000  0.73757000  1.0
  C  C167  1  0.76910000  0.68421000  0.69047000  1.0
  C  C168  1  0.68297000  0.71010000  0.65696000  1.0
  C  C169  1  0.87841000  0.62793000  0.67736000  1.0
  C  C170  1  0.70764000  0.68460000  0.61204000  1.0
  C  C171  1  0.90265000  0.60090000  0.63237000  1.0
  C  C172  1  0.81785000  0.63114000  0.59900000  1.0
  C  C173  1  0.84275000  0.61176000  0.54991000  1.0
  C  C174  1  0.83414000  0.00612000  0.95486000  1.0
  C  C175  1  0.66915000  0.12858000  0.94080000  1.0
  C  C176  1  0.90386000  0.07446000  0.95325000  1.0
  C  C177  1  0.73175000  0.20210000  0.93916000  1.0
  C  C178  1  0.85089000  0.17416000  0.94626000  1.0
  C  C179  1  0.91450000  0.31031000  0.90910000  1.0
  C  C180  1  0.97998000  0.25564000  0.98802000  1.0
  C  C181  1  0.04962000  0.33140000  0.98880000  1.0
  C  C182  1  0.98282000  0.38719000  0.91201000  1.0
  C  C183  1  0.05025000  0.39378000  0.95088000  1.0
  C  C184  1  0.11464000  0.34042000  0.02698000  1.0
  C  C185  1  0.98315000  0.45069000  0.87553000  1.0
  C  C186  1  0.18234000  0.41133000  0.02821000  1.0
  C  C187  1  0.05244000  0.52035000  0.87645000  1.0
  C  C188  1  0.18640000  0.47229000  0.99109000  1.0
  C  C189  1  0.12141000  0.52674000  0.91395000  1.0
  C  C190  1  0.12043000  0.46454000  0.95186000  1.0
  C  C191  1  0.25839000  0.54632000  0.99313000  1.0
  C  C192  1  0.19648000  0.59866000  0.91352000  1.0
  C  C193  1  0.33414000  0.67395000  0.95449000  1.0
  C  C194  1  0.45083000  0.64251000  0.96600000  1.0
  C  C195  1  0.28895000  0.77356000  0.94400000  1.0
  C  C196  1  0.51720000  0.71321000  0.96798000  1.0
  C  C197  1  0.36282000  0.83845000  0.94598000  1.0
  C  C198  1  0.82814000  0.67383000  0.37407000  1.0
  C  C199  1  0.80218000  0.71244000  0.32698000  1.0
  C  C200  1  0.85504000  0.65584000  0.29020000  1.0
  C  C201  1  0.72600000  0.80420000  0.31882000  1.0
  C  C202  1  0.83164000  0.68998000  0.24623000  1.0
  C  C203  1  0.70290000  0.83861000  0.27473000  1.0
  C  C204  1  0.75520000  0.78197000  0.23757000  1.0
  C  C205  1  0.73091000  0.81578000  0.19046000  1.0
  C  C206  1  0.81704000  0.78990000  0.15695000  1.0
  C  C207  1  0.62160000  0.87207000  0.17736000  1.0
  C  C208  1  0.79236000  0.81541000  0.11204000  1.0
  C  C209  1  0.59734000  0.89910000  0.13237000  1.0
  C  C210  1  0.68213000  0.86886000  0.09900000  1.0
  C  C211  1  0.65722000  0.88825000  0.04991000  1.0
  C  C212  1  0.66586000  0.49389000  0.45486000  1.0
  C  C213  1  0.83084000  0.37143000  0.44080000  1.0
  C  C214  1  0.59614000  0.42555000  0.45325000  1.0
  C  C215  1  0.76824000  0.29791000  0.43915000  1.0
  C  C216  1  0.64910000  0.32586000  0.44625000  1.0
  C  C217  1  0.58552000  0.18970000  0.40910000  1.0
  C  C218  1  0.52002000  0.24438000  0.48802000  1.0
  C  C219  1  0.45038000  0.16861000  0.48880000  1.0
  C  C220  1  0.51719000  0.11282000  0.41201000  1.0
  C  C221  1  0.44975000  0.10623000  0.45088000  1.0
  C  C222  1  0.38537000  0.15958000  0.52698000  1.0
  C  C223  1  0.51687000  0.04931000  0.37553000  1.0
  C  C224  1  0.31768000  0.08867000  0.52822000  1.0
  C  C225  1  0.44756000  0.97966000  0.37646000  1.0
  C  C226  1  0.31361000  0.02771000  0.49110000  1.0
  C  C227  1  0.37860000  0.97327000  0.41396000  1.0
  C  C228  1  0.37959000  0.03546000  0.45187000  1.0
  C  C229  1  0.24163000  0.95367000  0.49314000  1.0
  C  C230  1  0.30355000  0.90133000  0.41353000  1.0
  C  C231  1  0.16585000  0.82607000  0.45449000  1.0
  C  C232  1  0.04916000  0.85750000  0.46602000  1.0
  C  C233  1  0.21103000  0.72645000  0.44401000  1.0
  C  C234  1  0.98278000  0.78681000  0.46799000  1.0
  C  C235  1  0.13716000  0.66157000  0.44598000  1.0
  N  N236  1  0.28126000  0.96703000  0.05062000  1.0
  N  N237  1  0.08171000  0.75177000  0.05235000  1.0
  N  N238  1  0.73865000  0.39606000  0.04622000  1.0
  N  N239  1  0.52571000  0.19059000  0.04170000  1.0
  N  N240  1  0.21875000  0.53297000  0.55063000  1.0
  N  N241  1  0.41831000  0.74821000  0.55237000  1.0
  N  N242  1  0.76135000  0.10394000  0.54622000  1.0
  N  N243  1  0.97431000  0.30940000  0.54168000  1.0
  N  N244  1  0.71874000  0.03298000  0.94938000  1.0
  N  N245  1  0.91830000  0.24823000  0.94765000  1.0
  N  N246  1  0.26137000  0.60393000  0.95377000  1.0
  N  N247  1  0.47430000  0.80940000  0.95831000  1.0
  N  N248  1  0.78126000  0.46703000  0.44937000  1.0
  N  N249  1  0.58170000  0.25178000  0.44764000  1.0
  N  N250  1  0.23864000  0.89608000  0.45379000  1.0
  N  N251  1  0.02568000  0.69062000  0.45831000  1.0
  O  O252  1  0.27790000  0.22319000  0.09233000  1.0
  O  O253  1  0.40169000  0.09081000  0.12156000  1.0
  O  O254  1  0.05984000  0.44426000  0.46228000  1.0
  O  O255  1  0.23146000  0.34684000  0.47932000  1.0
  O  O256  1  0.02652000  0.79834000  0.97939000  1.0
  O  O257  1  0.14044000  0.70224000  0.12470000  1.0
  O  O258  1  0.79488000  0.34944000  0.11929000  1.0
  O  O259  1  0.68692000  0.44148000  0.97265000  1.0
  O  O260  1  0.22209000  0.27683000  0.59233000  1.0
  O  O261  1  0.09828000  0.40918000  0.62157000  1.0
  O  O262  1  0.44017000  0.05574000  0.96226000  1.0
  O  O263  1  0.26853000  0.15311000  0.97932000  1.0
  O  O264  1  0.47345000  0.70168000  0.47939000  1.0
  O  O265  1  0.35952000  0.79777000  0.62471000  1.0
  O  O266  1  0.70510000  0.15056000  0.61928000  1.0
  O  O267  1  0.81308000  0.05852000  0.47264000  1.0
  O  O268  1  0.72209000  0.77684000  0.90768000  1.0
  O  O269  1  0.59832000  0.90920000  0.87843000  1.0
  O  O270  1  0.94012000  0.55573000  0.53772000  1.0
  O  O271  1  0.76849000  0.65315000  0.52068000  1.0
  O  O272  1  0.97348000  0.20168000  0.02062000  1.0
  O  O273  1  0.85956000  0.29776000  0.87531000  1.0
  O  O274  1  0.20517000  0.65052000  0.88070000  1.0
  O  O275  1  0.31313000  0.55849000  0.02734000  1.0
  O  O276  1  0.77789000  0.72319000  0.40767000  1.0
  O  O277  1  0.90170000  0.59083000  0.37843000  1.0
  O  O278  1  0.55986000  0.94428000  0.03773000  1.0
  O  O279  1  0.73147000  0.84686000  0.02068000  1.0
  O  O280  1  0.52649000  0.29835000  0.52061000  1.0
  O  O281  1  0.64046000  0.20225000  0.37530000  1.0
  O  O282  1  0.29489000  0.84946000  0.38072000  1.0
  O  O283  1  0.18691000  0.94148000  0.52736000  1.0
