# generated using pymatgen
data_CuH10C6(NO2)4
_symmetry_space_group_name_H-M   'P 1'
_cell_length_a   6.24135000
_cell_length_b   14.48090000
_cell_length_c   14.48130000
_cell_angle_alpha   90.00020000
_cell_angle_beta   90.00120000
_cell_angle_gamma   89.99870000
_symmetry_Int_Tables_number   1
_chemical_formula_structural   CuH10C6(NO2)4
_chemical_formula_sum   'Cu4 H40 C24 N16 O32'
_cell_volume   1308.82518216
_cell_formula_units_Z   4
loop_
 _symmetry_equiv_pos_site_id
 _symmetry_equiv_pos_as_xyz
  1  'x, y, z'
loop_
 _atom_site_type_symbol
 _atom_site_label
 _atom_site_symmetry_multiplicity
 _atom_site_fract_x
 _atom_site_fract_y
 _atom_site_fract_z
 _atom_site_occupancy
  Cu  Cu0  1  0.99999000  0.13378000  0.13378000  1.0
  Cu  Cu1  1  0.50001000  0.86621000  0.86622000  1.0
  Cu  Cu2  1  0.24998000  0.63379000  0.36621000  1.0
  Cu  Cu3  1  0.75001000  0.36621000  0.63378000  1.0
  H  H4  1  0.36231000  0.32512000  0.24368000  1.0
  H  H5  1  0.86235000  0.67488000  0.75632000  1.0
  H  H6  1  0.88765000  0.82512000  0.25633000  1.0
  H  H7  1  0.38770000  0.17489000  0.74368000  1.0
  H  H8  1  0.13770000  0.75632000  0.67489000  1.0
  H  H9  1  0.63767000  0.24368000  0.32512000  1.0
  H  H10  1  0.61229000  0.74368000  0.17489000  1.0
  H  H11  1  0.11234000  0.25633000  0.82512000  1.0
  H  H12  1  0.96700000  0.82850000  0.07203000  1.0
  H  H13  1  0.46703000  0.17150000  0.92797000  1.0
  H  H14  1  0.28298000  0.32850000  0.42796000  1.0
  H  H15  1  0.78298000  0.67150000  0.57203000  1.0
  H  H16  1  0.53296000  0.92797000  0.17149000  1.0
  H  H17  1  0.03298000  0.07204000  0.82851000  1.0
  H  H18  1  0.21703000  0.57203000  0.67149000  1.0
  H  H19  1  0.71702000  0.42797000  0.32851000  1.0
  H  H20  1  0.92257000  0.85682000  0.95657000  1.0
  H  H21  1  0.42256000  0.14318000  0.04343000  1.0
  H  H22  1  0.32744000  0.35682000  0.54343000  1.0
  H  H23  1  0.82743000  0.64318000  0.45657000  1.0
  H  H24  1  0.57742000  0.04343000  0.14317000  1.0
  H  H25  1  0.07743000  0.95657000  0.85683000  1.0
  H  H26  1  0.17256000  0.45656000  0.64317000  1.0
  H  H27  1  0.67256000  0.54343000  0.35683000  1.0
  H  H28  1  0.18873000  0.95083000  0.22963000  1.0
  H  H29  1  0.68873000  0.04916000  0.77037000  1.0
  H  H30  1  0.06124000  0.45083000  0.27037000  1.0
  H  H31  1  0.56124000  0.54919000  0.72962000  1.0
  H  H32  1  0.31126000  0.77036000  0.04915000  1.0
  H  H33  1  0.81124000  0.22963000  0.95082000  1.0
  H  H34  1  0.43873000  0.72963000  0.54915000  1.0
  H  H35  1  0.93875000  0.27036000  0.45083000  1.0
  H  H36  1  0.22396000  0.27435000  0.11446000  1.0
  H  H37  1  0.72400000  0.72565000  0.88554000  1.0
  H  H38  1  0.02602000  0.77434000  0.38554000  1.0
  H  H39  1  0.52603000  0.22566000  0.61446000  1.0
  H  H40  1  0.27605000  0.88554000  0.72566000  1.0
  H  H41  1  0.77603000  0.11446000  0.27434000  1.0
  H  H42  1  0.47395000  0.61446000  0.22566000  1.0
  H  H43  1  0.97397000  0.38554000  0.77434000  1.0
  C  C44  1  0.00584000  0.96679000  0.03947000  1.0
  C  C45  1  0.50586000  0.03321000  0.96053000  1.0
  C  C46  1  0.24413000  0.46678000  0.46053000  1.0
  C  C47  1  0.74413000  0.53321000  0.53947000  1.0
  C  C48  1  0.49413000  0.96053000  0.03321000  1.0
  C  C49  1  0.99414000  0.03947000  0.96679000  1.0
  C  C50  1  0.25585000  0.53946000  0.53321000  1.0
  C  C51  1  0.75587000  0.46054000  0.46679000  1.0
  C  C52  1  0.22712000  0.20014000  0.29534000  1.0
  C  C53  1  0.72716000  0.79986000  0.70466000  1.0
  C  C54  1  0.02285000  0.70014000  0.20465000  1.0
  C  C55  1  0.52291000  0.29986000  0.79535000  1.0
  C  C56  1  0.27293000  0.70465000  0.79986000  1.0
  C  C57  1  0.77286000  0.29535000  0.20014000  1.0
  C  C58  1  0.47709000  0.79535000  0.29986000  1.0
  C  C59  1  0.97715000  0.20465000  0.70014000  1.0
  C  C60  1  0.38319000  0.25120000  0.22892000  1.0
  C  C61  1  0.88323000  0.74880000  0.77108000  1.0
  C  C62  1  0.86679000  0.75120000  0.27108000  1.0
  C  C63  1  0.36683000  0.24881000  0.72893000  1.0
  C  C64  1  0.11684000  0.77107000  0.74881000  1.0
  C  C65  1  0.61680000  0.22893000  0.25120000  1.0
  C  C66  1  0.63317000  0.72893000  0.24881000  1.0
  C  C67  1  0.13322000  0.27108000  0.75120000  1.0
  N  N68  1  0.06568000  0.00186000  0.11959000  1.0
  N  N69  1  0.56568000  0.99813000  0.88041000  1.0
  N  N70  1  0.18430000  0.50186000  0.38040000  1.0
  N  N71  1  0.68431000  0.49813000  0.61959000  1.0
  N  N72  1  0.43430000  0.88041000  0.99814000  1.0
  N  N73  1  0.93430000  0.11960000  0.00186000  1.0
  N  N74  1  0.31567000  0.61959000  0.49813000  1.0
  N  N75  1  0.81568000  0.38040000  0.50187000  1.0
  N  N76  1  0.95737000  0.87945000  0.02175000  1.0
  N  N77  1  0.45737000  0.12055000  0.97825000  1.0
  N  N78  1  0.29263000  0.37945000  0.47824000  1.0
  N  N79  1  0.79261000  0.62055000  0.52175000  1.0
  N  N80  1  0.54262000  0.97825000  0.12054000  1.0
  N  N81  1  0.04262000  0.02175000  0.87946000  1.0
  N  N82  1  0.20737000  0.52175000  0.62054000  1.0
  N  N83  1  0.70737000  0.47825000  0.37946000  1.0
  O  O84  1  0.05979000  0.93813000  0.19234000  1.0
  O  O85  1  0.55980000  0.06187000  0.80766000  1.0
  O  O86  1  0.19018000  0.43813000  0.30766000  1.0
  O  O87  1  0.69020000  0.56187000  0.69234000  1.0
  O  O88  1  0.44018000  0.80766000  0.06187000  1.0
  O  O89  1  0.94019000  0.19234000  0.93813000  1.0
  O  O90  1  0.30980000  0.69233000  0.56187000  1.0
  O  O91  1  0.80980000  0.30766000  0.43813000  1.0
  O  O92  1  0.09650000  0.13899000  0.26335000  1.0
  O  O93  1  0.59653000  0.86101000  0.73665000  1.0
  O  O94  1  0.15349000  0.63899000  0.23664000  1.0
  O  O95  1  0.65353000  0.36102000  0.76336000  1.0
  O  O96  1  0.40353000  0.73663000  0.86102000  1.0
  O  O97  1  0.90348000  0.26336000  0.13899000  1.0
  O  O98  1  0.34648000  0.76337000  0.36102000  1.0
  O  O99  1  0.84651000  0.23664000  0.63899000  1.0
  O  O100  1  0.23250000  0.22250000  0.37885000  1.0
  O  O101  1  0.73253000  0.77751000  0.62116000  1.0
  O  O102  1  0.01746000  0.72250000  0.12116000  1.0
  O  O103  1  0.51756000  0.27750000  0.87885000  1.0
  O  O104  1  0.26758000  0.62115000  0.77749000  1.0
  O  O105  1  0.76749000  0.37885000  0.22250000  1.0
  O  O106  1  0.48245000  0.87885000  0.27750000  1.0
  O  O107  1  0.98253000  0.12116000  0.72250000  1.0
  O  O108  1  0.34312000  0.23409000  0.13288000  1.0
  O  O109  1  0.84317000  0.76590000  0.86713000  1.0
  O  O110  1  0.90686000  0.73409000  0.36712000  1.0
  O  O111  1  0.40688000  0.26592000  0.63288000  1.0
  O  O112  1  0.15690000  0.86712000  0.76592000  1.0
  O  O113  1  0.65686000  0.13288000  0.23409000  1.0
  O  O114  1  0.59312000  0.63288000  0.26592000  1.0
  O  O115  1  0.09314000  0.36713000  0.73409000  1.0
