# generated using pymatgen
data_ZnH14C20N3O4
_symmetry_space_group_name_H-M   'P 1'
_cell_length_a   8.48250000
_cell_length_b   9.02014000
_cell_length_c   11.37520000
_cell_angle_alpha   88.15580000
_cell_angle_beta   74.50310000
_cell_angle_gamma   72.24360000
_symmetry_Int_Tables_number   1
_chemical_formula_structural   ZnH14C20N3O4
_chemical_formula_sum   'Zn2 H28 C40 N6 O8'
_cell_volume   797.60445315
_cell_formula_units_Z   2
loop_
 _symmetry_equiv_pos_site_id
 _symmetry_equiv_pos_as_xyz
  1  'x, y, z'
loop_
 _atom_site_type_symbol
 _atom_site_label
 _atom_site_symmetry_multiplicity
 _atom_site_fract_x
 _atom_site_fract_y
 _atom_site_fract_z
 _atom_site_occupancy
  Zn  Zn0  1  0.53840000  0.08958000  0.85293000  1.0
  Zn  Zn1  1  0.46160000  0.91042000  0.14707000  1.0
  H  H2  1  0.12949000  0.07567000  0.88426000  1.0
  H  H3  1  0.87051000  0.92434000  0.11574000  1.0
  H  H4  1  0.90488000  0.23756000  0.79153000  1.0
  H  H5  1  0.09513000  0.76244000  0.20846000  1.0
  H  H6  1  0.69264000  0.48477000  0.90098000  1.0
  H  H7  1  0.30736000  0.51522000  0.09902000  1.0
  H  H8  1  0.92400000  0.39301000  0.19924000  1.0
  H  H9  1  0.07599000  0.60699000  0.80076000  1.0
  H  H10  1  0.31474000  0.82068000  0.90962000  1.0
  H  H11  1  0.68527000  0.17932000  0.09039000  1.0
  H  H12  1  0.40618000  0.59786000  0.71707000  1.0
  H  H13  1  0.59383000  0.40214000  0.28294000  1.0
  H  H14  1  0.74824000  0.87069000  0.41022000  1.0
  H  H15  1  0.25176000  0.12931000  0.58978000  1.0
  H  H16  1  0.90932000  0.05588000  0.31980000  1.0
  H  H17  1  0.09068000  0.94411000  0.68020000  1.0
  H  H18  1  0.90671000  0.27104000  0.45111000  1.0
  H  H19  1  0.09329000  0.72896000  0.54889000  1.0
  H  H20  1  0.73762000  0.29770000  0.67244000  1.0
  H  H21  1  0.26239000  0.70229000  0.32755000  1.0
  H  H22  1  0.57693000  0.56103000  0.51622000  1.0
  H  H23  1  0.42306000  0.43897000  0.48378000  1.0
  H  H24  1  0.62158000  0.71553000  0.43180000  1.0
  H  H25  1  0.37842000  0.28447000  0.56820000  1.0
  H  H26  1  0.90713000  0.57626000  0.31135000  1.0
  H  H27  1  0.09286000  0.42374000  0.68865000  1.0
  H  H28  1  0.78692000  0.56519000  0.70325000  1.0
  H  H29  1  0.21307000  0.43481000  0.29675000  1.0
  C  C30  1  0.16814000  0.13039000  0.11353000  1.0
  C  C31  1  0.83186000  0.86961000  0.88648000  1.0
  C  C32  1  0.04126000  0.22486000  0.04819000  1.0
  C  C33  1  0.95874000  0.77514000  0.95181000  1.0
  C  C34  1  0.03590000  0.18170000  0.93256000  1.0
  C  C35  1  0.96410000  0.81830000  0.06744000  1.0
  C  C36  1  0.90962000  0.27401000  0.88058000  1.0
  C  C37  1  0.09039000  0.72599000  0.11942000  1.0
  C  C38  1  0.79120000  0.41175000  0.94093000  1.0
  C  C39  1  0.20880000  0.58825000  0.05907000  1.0
  C  C40  1  0.79680000  0.45689000  0.05623000  1.0
  C  C41  1  0.20320000  0.54311000  0.94377000  1.0
  C  C42  1  0.92018000  0.36142000  0.10895000  1.0
  C  C43  1  0.07982000  0.63858000  0.89105000  1.0
  C  C44  1  0.67533000  0.60490000  0.12571000  1.0
  C  C45  1  0.32467000  0.39509000  0.87429000  1.0
  C  C46  1  0.39394000  0.81510000  0.81680000  1.0
  C  C47  1  0.60606000  0.18490000  0.18320000  1.0
  C  C48  1  0.43942000  0.70413000  0.72310000  1.0
  C  C49  1  0.56058000  0.29587000  0.27690000  1.0
  C  C50  1  0.56339000  0.88694000  0.65943000  1.0
  C  C51  1  0.43661000  0.11307000  0.34057000  1.0
  C  C52  1  0.66354000  0.98334000  0.59201000  1.0
  C  C53  1  0.33646000  0.01666000  0.40799000  1.0
  C  C54  1  0.74950000  0.96445000  0.46710000  1.0
  C  C55  1  0.25050000  0.03555000  0.53290000  1.0
  C  C56  1  0.83839000  0.06799000  0.41588000  1.0
  C  C57  1  0.16161000  0.93201000  0.58412000  1.0
  C  C58  1  0.83706000  0.18959000  0.48901000  1.0
  C  C59  1  0.16294000  0.81040000  0.51099000  1.0
  C  C60  1  0.74588000  0.20277000  0.61185000  1.0
  C  C61  1  0.25413000  0.79723000  0.38815000  1.0
  C  C62  1  0.63913000  0.65216000  0.51352000  1.0
  C  C63  1  0.36087000  0.34785000  0.48649000  1.0
  C  C64  1  0.94883000  0.54325000  0.39381000  1.0
  C  C65  1  0.05117000  0.45675000  0.60619000  1.0
  C  C66  1  0.82676000  0.57796000  0.50755000  1.0
  C  C67  1  0.17323000  0.42204000  0.49245000  1.0
  C  C68  1  0.12062000  0.46481000  0.38632000  1.0
  C  C69  1  0.87937000  0.53519000  0.61368000  1.0
  N  N70  1  0.47049000  0.92724000  0.77590000  1.0
  N  N71  1  0.52951000  0.07276000  0.22410000  1.0
  N  N72  1  0.66418000  0.10149000  0.66278000  1.0
  N  N73  1  0.33582000  0.89851000  0.33722000  1.0
  N  N74  1  0.54575000  0.75053000  0.62480000  1.0
  N  N75  1  0.45425000  0.24947000  0.37520000  1.0
  O  O76  1  0.14035000  0.15999000  0.22498000  1.0
  O  O77  1  0.85965000  0.84001000  0.77502000  1.0
  O  O78  1  0.30052000  0.01987000  0.04952000  1.0
  O  O79  1  0.69948000  0.98013000  0.95048000  1.0
  O  O80  1  0.58600000  0.70456000  0.06485000  1.0
  O  O81  1  0.41400000  0.29544000  0.93515000  1.0
  O  O82  1  0.66656000  0.62519000  0.23628000  1.0
  O  O83  1  0.33344000  0.37481000  0.76373000  1.0
