# generated using pymatgen
data_Zn4H28(C12O5)3
_symmetry_space_group_name_H-M   'P 1'
_cell_length_a   18.63520000
_cell_length_b   18.64050000
_cell_length_c   21.74172786
_cell_angle_alpha   115.35735495
_cell_angle_beta   115.37279885
_cell_angle_gamma   90.01050000
_symmetry_Int_Tables_number   1
_chemical_formula_structural   Zn4H28(C12O5)3
_chemical_formula_sum   'Zn8 H56 C72 O30'
_cell_volume   6008.35173384
_cell_formula_units_Z   2
loop_
 _symmetry_equiv_pos_site_id
 _symmetry_equiv_pos_as_xyz
  1  'x, y, z'
loop_
 _atom_site_type_symbol
 _atom_site_label
 _atom_site_symmetry_multiplicity
 _atom_site_fract_x
 _atom_site_fract_y
 _atom_site_fract_z
 _atom_site_occupancy
  Zn  Zn0  1  0.94805000  0.53335000  0.06712000  1.0
  Zn  Zn1  1  0.38172000  0.96748000  0.93464000  1.0
  Zn  Zn2  1  0.96704000  0.55260000  0.93438000  1.0
  Zn  Zn3  1  0.55298000  0.96745000  0.93469000  1.0
  Zn  Zn4  1  0.96712000  0.38182000  0.93444000  1.0
  Zn  Zn5  1  0.53317000  0.11910000  0.06684000  1.0
  Zn  Zn6  1  0.11900000  0.53366000  0.06693000  1.0
  Zn  Zn7  1  0.53354000  0.94764000  0.06668000  1.0
  H  H8  1  0.68688000  0.78011000  0.08038000  1.0
  H  H9  1  0.78914000  0.39242000  0.08822000  1.0
  H  H10  1  0.48132000  0.66393000  0.47297000  1.0
  H  H11  1  0.44488000  0.63810000  0.31226000  1.0
  H  H12  1  0.53530000  0.69804000  0.39926000  1.0
  H  H13  1  0.56455000  0.57228000  0.41556000  1.0
  H  H14  1  0.55526000  0.55872000  0.32643000  1.0
  H  H15  1  0.47375000  0.51238000  0.32842000  1.0
  H  H16  1  0.60139000  0.99471000  0.38526000  1.0
  H  H17  1  0.66397000  0.99168000  0.47298000  1.0
  H  H18  1  0.63808000  0.86748000  0.31226000  1.0
  H  H19  1  0.69798000  0.86401000  0.39925000  1.0
  H  H20  1  0.39217000  0.29918000  0.08824000  1.0
  H  H21  1  0.57213000  0.85105000  0.41547000  1.0
  H  H22  1  0.55856000  0.77128000  0.32635000  1.0
  H  H23  1  0.51229000  0.85480000  0.32836000  1.0
  H  H24  1  0.29878000  0.69598000  0.08809000  1.0
  H  H25  1  0.39336000  0.78013000  0.08050000  1.0
  H  H26  1  0.30039000  0.39370000  0.08045000  1.0
  H  H27  1  0.68689000  0.30066000  0.08063000  1.0
  H  H28  1  0.78908000  0.69600000  0.08837000  1.0
  H  H29  1  0.72467000  0.80673000  0.96579000  1.0
  H  H30  1  0.78808000  0.24413000  0.94994000  1.0
  H  H31  1  0.24392000  0.16189000  0.94993000  1.0
  H  H32  1  0.16147000  0.70581000  0.94967000  1.0
  H  H33  1  0.24128000  0.80688000  0.96577000  1.0
  H  H34  1  0.15896000  0.24161000  0.96599000  1.0
  H  H35  1  0.72443000  0.15928000  0.96605000  1.0
  H  H36  1  0.78837000  0.70574000  0.95006000  1.0
  H  H37  1  0.46322000  0.85951000  0.69664000  1.0
  H  H38  1  0.85968000  0.23345000  0.69650000  1.0
  H  H39  1  0.23368000  0.83706000  0.69672000  1.0
  H  H40  1  0.83698000  0.46289000  0.69644000  1.0
  H  H41  1  0.10352000  0.76894000  0.57164000  1.0
  H  H42  1  0.76892000  0.46795000  0.57137000  1.0
  H  H43  1  0.46825000  0.80269000  0.57169000  1.0
  H  H44  1  0.80274000  0.10346000  0.57161000  1.0
  H  H45  1  0.03755000  0.64154000  0.30488000  1.0
  H  H46  1  0.64150000  0.26720000  0.30464000  1.0
  H  H47  1  0.26763000  0.66315000  0.30494000  1.0
  H  H48  1  0.66332000  0.03731000  0.30482000  1.0
  H  H49  1  0.99459000  0.78384000  0.38523000  1.0
  H  H50  1  0.99173000  0.80894000  0.47301000  1.0
  H  H51  1  0.86741000  0.67409000  0.31236000  1.0
  H  H52  1  0.86405000  0.70114000  0.39939000  1.0
  H  H53  1  0.85097000  0.84314000  0.41556000  1.0
  H  H54  1  0.77114000  0.76758000  0.32645000  1.0
  H  H55  1  0.85466000  0.81591000  0.32844000  1.0
  H  H56  1  0.78382000  0.39047000  0.38504000  1.0
  H  H57  1  0.80891000  0.48109000  0.47279000  1.0
  H  H58  1  0.67412000  0.44487000  0.31212000  1.0
  H  H59  1  0.70124000  0.53519000  0.39918000  1.0
  H  H60  1  0.84330000  0.56441000  0.41545000  1.0
  H  H61  1  0.76779000  0.55519000  0.32633000  1.0
  H  H62  1  0.81608000  0.47366000  0.32831000  1.0
  H  H63  1  0.39058000  0.60142000  0.38526000  1.0
  C  C64  1  0.89551000  0.39513000  0.79048000  1.0
  C  C65  1  0.75818000  0.40172000  0.54011000  1.0
  C  C66  1  0.82558000  0.39680000  0.66389000  1.0
  C  C67  1  0.39709000  0.83839000  0.66412000  1.0
  C  C68  1  0.83848000  0.26699000  0.66394000  1.0
  C  C69  1  0.26722000  0.82566000  0.66415000  1.0
  C  C70  1  0.35227000  0.85208000  0.70432000  1.0
  C  C71  1  0.85213000  0.35197000  0.70407000  1.0
  C  C72  1  0.22544000  0.78521000  0.58308000  1.0
  C  C73  1  0.40201000  0.78211000  0.54039000  1.0
  C  C74  1  0.78508000  0.35750000  0.58283000  1.0
  C  C75  1  0.35774000  0.79789000  0.58305000  1.0
  C  C76  1  0.79785000  0.22525000  0.58289000  1.0
  C  C77  1  0.27092000  0.77092000  0.54174000  1.0
  C  C78  1  0.77076000  0.27071000  0.54155000  1.0
  C  C79  1  0.78211000  0.13837000  0.54028000  1.0
  C  C80  1  0.97404000  0.75910000  0.41444000  1.0
  C  C81  1  0.88262000  0.72562000  0.36916000  1.0
  C  C82  1  0.83739000  0.79156000  0.35939000  1.0
  C  C83  1  0.75906000  0.44020000  0.41421000  1.0
  C  C84  1  0.72568000  0.48639000  0.36895000  1.0
  C  C85  1  0.79172000  0.52184000  0.35924000  1.0
  C  C86  1  0.44041000  0.65526000  0.41441000  1.0
  C  C87  1  0.48650000  0.64337000  0.36907000  1.0
  C  C88  1  0.52194000  0.56766000  0.35936000  1.0
  C  C89  1  0.09870000  0.71989000  0.46135000  1.0
  C  C90  1  0.65526000  0.97403000  0.41441000  1.0
  C  C91  1  0.64332000  0.88264000  0.36906000  1.0
  C  C92  1  0.56755000  0.83750000  0.35930000  1.0
  C  C93  1  0.71973000  0.36249000  0.46109000  1.0
  C  C94  1  0.36285000  0.74152000  0.46137000  1.0
  C  C95  1  0.74147000  0.09852000  0.46125000  1.0
  C  C96  1  0.39555000  0.89511000  0.79077000  1.0
  C  C97  1  0.14292000  0.70351000  0.41793000  1.0
  C  C98  1  0.70328000  0.27487000  0.41771000  1.0
  C  C99  1  0.27520000  0.71455000  0.41796000  1.0
  C  C100  1  0.71440000  0.14272000  0.41781000  1.0
  C  C101  1  0.22991000  0.72993000  0.45967000  1.0
  C  C102  1  0.72971000  0.22968000  0.45950000  1.0
  C  C103  1  0.10356000  0.66281000  0.33702000  1.0
  C  C104  1  0.66275000  0.23333000  0.33679000  1.0
  C  C105  1  0.23373000  0.67408000  0.33705000  1.0
  C  C106  1  0.67412000  0.10329000  0.33689000  1.0
  C  C107  1  0.14866000  0.64835000  0.29703000  1.0
  C  C108  1  0.64851000  0.14829000  0.29682000  1.0
  C  C109  1  0.10552000  0.60495000  0.21071000  1.0
  C  C110  1  0.60558000  0.10513000  0.21047000  1.0
  C  C111  1  0.86104000  0.36440000  0.99942000  1.0
  C  C112  1  0.13851000  0.75829000  0.54039000  1.0
  C  C113  1  0.36416000  0.13840000  0.99964000  1.0
  C  C114  1  0.13794000  0.63545000  0.99955000  1.0
  C  C115  1  0.63892000  0.86478000  0.00248000  1.0
  C  C116  1  0.13764000  0.36400000  0.00294000  1.0
  C  C117  1  0.63881000  0.13802000  0.00286000  1.0
  C  C118  1  0.86175000  0.63553000  0.00003000  1.0
  C  C119  1  0.36370000  0.86539000  0.00295000  1.0
  C  C120  1  0.71585000  0.77084000  0.04401000  1.0
  C  C121  1  0.77177000  0.32828000  0.04492000  1.0
  C  C122  1  0.32802000  0.27319000  0.04485000  1.0
  C  C123  1  0.27278000  0.71670000  0.04467000  1.0
  C  C124  1  0.32807000  0.77092000  0.04399000  1.0
  C  C125  1  0.27312000  0.32842000  0.04407000  1.0
  C  C126  1  0.71579000  0.27341000  0.04423000  1.0
  C  C127  1  0.77183000  0.71668000  0.04494000  1.0
  C  C128  1  0.69739000  0.81135000  0.00244000  1.0
  C  C129  1  0.80337000  0.30648000  0.99573000  1.0
  C  C130  1  0.30627000  0.19239000  0.99579000  1.0
  C  C131  1  0.19197000  0.68934000  0.99556000  1.0
  C  C132  1  0.30518000  0.81156000  0.00254000  1.0
  C  C133  1  0.19102000  0.30549000  0.00262000  1.0
  C  C134  1  0.69721000  0.19137000  0.00272000  1.0
  C  C135  1  0.80367000  0.68931000  0.99595000  1.0
  O  O136  1  0.00041000  0.50046000  0.00089000  1.0
  O  O137  1  0.47342000  0.91369000  0.82431000  1.0
  O  O138  1  0.91425000  0.35083000  0.82403000  1.0
  O  O139  1  0.35128000  0.90992000  0.82433000  1.0
  O  O140  1  0.02768000  0.58770000  0.17729000  1.0
  O  O141  1  0.58851000  0.14956000  0.17706000  1.0
  O  O142  1  0.14991000  0.58858000  0.17725000  1.0
  O  O143  1  0.58942000  0.02731000  0.17700000  1.0
  O  O144  1  0.50043000  0.00049000  0.00087000  1.0
  O  O145  1  0.88894000  0.33259000  0.95155000  1.0
  O  O146  1  0.33238000  0.06267000  0.95161000  1.0
  O  O147  1  0.06206000  0.61981000  0.95204000  1.0
  O  O148  1  0.62390000  0.89369000  0.95547000  1.0
  O  O149  1  0.06158000  0.33187000  0.95672000  1.0
  O  O150  1  0.62430000  0.06212000  0.95621000  1.0
  O  O151  1  0.89032000  0.62031000  0.95272000  1.0
  O  O152  1  0.33159000  0.89494000  0.95648000  1.0
  O  O153  1  0.17006000  0.60939000  0.04869000  1.0
  O  O154  1  0.60860000  0.87762000  0.04802000  1.0
  O  O155  1  0.87820000  0.43959000  0.04861000  1.0
  O  O156  1  0.43931000  0.17036000  0.04910000  1.0
  O  O157  1  0.87866000  0.60917000  0.04896000  1.0
  O  O158  1  0.43958000  0.87802000  0.04825000  1.0
  O  O159  1  0.17036000  0.43989000  0.04791000  1.0
  O  O160  1  0.60810000  0.17065000  0.04807000  1.0
  O  O161  1  0.91043000  0.47291000  0.82399000  1.0
  O  O162  1  0.01472000  0.69457000  0.42072000  1.0
  O  O163  1  0.69445000  0.40583000  0.42044000  1.0
  O  O164  1  0.40619000  0.72618000  0.42075000  1.0
  O  O165  1  0.72615000  0.01458000  0.42068000  1.0
