# generated using pymatgen
data_SrB2H28C24(N8O)2
_symmetry_space_group_name_H-M   'P 1'
_cell_length_a   9.38901000
_cell_length_b   9.85690284
_cell_length_c   10.43980000
_cell_angle_alpha   69.12569793
_cell_angle_beta   72.47500000
_cell_angle_gamma   61.73433711
_symmetry_Int_Tables_number   1
_chemical_formula_structural   SrB2H28C24(N8O)2
_chemical_formula_sum   'Sr1 B2 H28 C24 N16 O2'
_cell_volume   784.75449336
_cell_formula_units_Z   1
loop_
 _symmetry_equiv_pos_site_id
 _symmetry_equiv_pos_as_xyz
  1  'x, y, z'
loop_
 _atom_site_type_symbol
 _atom_site_label
 _atom_site_symmetry_multiplicity
 _atom_site_fract_x
 _atom_site_fract_y
 _atom_site_fract_z
 _atom_site_occupancy
  Sr  Sr0  1  0.00000000  0.50000000  0.50000000  1.0
  B  B1  1  0.36014000  0.87551000  0.85483000  1.0
  B  B2  1  0.63986000  0.12449000  0.14517000  1.0
  H  H3  1  0.11597000  0.75217000  0.01799000  1.0
  H  H4  1  0.88403000  0.24783000  0.98201000  1.0
  H  H5  1  0.36613000  0.11614000  0.95308000  1.0
  H  H6  1  0.63387000  0.88386000  0.04691000  1.0
  H  H7  1  0.34486000  0.83379000  0.59855000  1.0
  H  H8  1  0.65514000  0.16621000  0.40145000  1.0
  H  H9  1  0.59456000  0.60642000  0.74355000  1.0
  H  H10  1  0.40544000  0.39358000  0.25645000  1.0
  H  H11  1  0.85470000  0.89678000  0.57023000  1.0
  H  H12  1  0.14530000  0.10322000  0.42977000  1.0
  H  H13  1  0.55667000  0.06103000  0.71552000  1.0
  H  H14  1  0.44333000  0.93897000  0.28448000  1.0
  H  H15  1  0.61922000  0.59141000  0.98419000  1.0
  H  H16  1  0.38078000  0.40859000  0.01581000  1.0
  H  H17  1  0.17485000  0.95030000  0.11764000  1.0
  H  H18  1  0.82516000  0.04970000  0.88236000  1.0
  H  H19  1  0.16277000  0.42326000  0.83301000  1.0
  H  H20  1  0.83723000  0.57674000  0.16699000  1.0
  H  H21  1  0.56190000  0.52306000  0.27125000  1.0
  H  H22  1  0.43810000  0.47694000  0.72875000  1.0
  H  H23  1  0.97441000  0.69081000  0.85934000  1.0
  H  H24  1  0.02559000  0.30919000  0.14066000  1.0
  H  H25  1  0.10108000  0.10438000  0.69658000  1.0
  H  H26  1  0.89893000  0.89561000  0.30342000  1.0
  H  H27  1  0.78076000  0.29982000  0.60719000  1.0
  H  H28  1  0.21924000  0.70018000  0.39281000  1.0
  H  H29  1  0.85463000  0.29840000  0.44546000  1.0
  H  H30  1  0.14537000  0.70160000  0.55454000  1.0
  C  C31  1  0.14240000  0.75973000  0.90776000  1.0
  C  C32  1  0.85760000  0.24027000  0.09224000  1.0
  C  C33  1  0.28082000  0.15911000  0.88266000  1.0
  C  C34  1  0.71918000  0.84089000  0.11733000  1.0
  C  C35  1  0.26313000  0.80133000  0.69015000  1.0
  C  C36  1  0.73688000  0.19866000  0.30985000  1.0
  C  C37  1  0.62663000  0.70711000  0.71421000  1.0
  C  C38  1  0.37338000  0.29289000  0.28579000  1.0
  C  C39  1  0.75536000  0.86073000  0.62659000  1.0
  C  C40  1  0.24464000  0.13927000  0.37341000  1.0
  C  C41  1  0.60803000  0.94305000  0.69926000  1.0
  C  C42  1  0.39197000  0.05695000  0.30074000  1.0
  C  C43  1  0.51834000  0.65474000  0.05446000  1.0
  C  C44  1  0.48165000  0.34526000  0.94554000  1.0
  C  C45  1  0.28715000  0.84218000  0.12278000  1.0
  C  C46  1  0.71285000  0.15782000  0.87722000  1.0
  C  C47  1  0.17866000  0.31114000  0.82270000  1.0
  C  C48  1  0.82134000  0.68886000  0.17730000  1.0
  C  C49  1  0.48744000  0.62161000  0.19715000  1.0
  C  C50  1  0.51256000  0.37839000  0.80285000  1.0
  C  C51  1  0.07379000  0.72880000  0.82770000  1.0
  C  C52  1  0.92621000  0.27120000  0.17230000  1.0
  C  C53  1  0.14352000  0.15076000  0.75059000  1.0
  C  C54  1  0.85648000  0.84924000  0.24941000  1.0
  N  N55  1  0.52547000  0.84439000  0.75502000  1.0
  N  N56  1  0.47453000  0.15561000  0.24498000  1.0
  N  N57  1  0.25798000  0.05653000  0.83616000  1.0
  N  N58  1  0.74202000  0.94347000  0.16384000  1.0
  N  N59  1  0.39033000  0.79681000  0.00696000  1.0
  N  N60  1  0.60967000  0.20319000  0.99304000  1.0
  N  N61  1  0.26412000  0.80569000  0.81925000  1.0
  N  N62  1  0.73589000  0.19430000  0.18075000  1.0
  N  N63  1  0.76603000  0.71256000  0.63603000  1.0
  N  N64  1  0.23397000  0.28744000  0.36397000  1.0
  N  N65  1  0.09247000  0.30504000  0.73985000  1.0
  N  N66  1  0.90753000  0.69496000  0.26015000  1.0
  N  N67  1  0.34209000  0.73971000  0.23908000  1.0
  N  N68  1  0.65792000  0.26029000  0.76092000  1.0
  N  N69  1  0.15068000  0.75492000  0.69143000  1.0
  N  N70  1  0.84932000  0.24508000  0.30857000  1.0
  O  O71  1  0.85637000  0.33390000  0.52427000  1.0
  O  O72  1  0.14362000  0.66611000  0.47573000  1.0
