# generated using pymatgen
data_FeAg2H4(C4N3)2
_symmetry_space_group_name_H-M   'P 1'
_cell_length_a   6.68696000
_cell_length_b   7.17220941
_cell_length_c   8.42444000
_cell_angle_alpha   80.46924075
_cell_angle_beta   69.18900000
_cell_angle_gamma   62.23892539
_symmetry_Int_Tables_number   1
_chemical_formula_structural   FeAg2H4(C4N3)2
_chemical_formula_sum   'Fe1 Ag2 H4 C8 N6'
_cell_volume   334.20635563
_cell_formula_units_Z   1
loop_
 _symmetry_equiv_pos_site_id
 _symmetry_equiv_pos_as_xyz
  1  'x, y, z'
loop_
 _atom_site_type_symbol
 _atom_site_label
 _atom_site_symmetry_multiplicity
 _atom_site_fract_x
 _atom_site_fract_y
 _atom_site_fract_z
 _atom_site_occupancy
  Fe  Fe0  1  0.70216000  0.00002000  0.91601000  1.0
  Ag  Ag1  1  0.70264000  0.49888000  0.41530000  1.0
  Ag  Ag2  1  0.20238000  0.50138000  0.41522000  1.0
  H  H3  1  0.85076000  0.32761000  0.91734000  1.0
  H  H4  1  0.17784000  0.67225000  0.91790000  1.0
  H  H5  1  0.22681000  0.32745000  0.91471000  1.0
  H  H6  1  0.55387000  0.67230000  0.91517000  1.0
  C  C7  1  0.67856000  0.32103000  0.62743000  1.0
  C  C8  1  0.00010000  0.67931000  0.62733000  1.0
  C  C9  1  0.72573000  0.67720000  0.20328000  1.0
  C  C10  1  0.40373000  0.32288000  0.20332000  1.0
  C  C11  1  0.00798000  0.18121000  0.91692000  1.0
  C  C12  1  0.18902000  0.81863000  0.91718000  1.0
  C  C13  1  0.21548000  0.18118000  0.91548000  1.0
  C  C14  1  0.39650000  0.81860000  0.91572000  1.0
  N  N15  1  0.67781000  0.20651000  0.74401000  1.0
  N  N16  1  0.88433000  0.79356000  0.74404000  1.0
  N  N17  1  0.72635000  0.79295000  0.08756000  1.0
  N  N18  1  0.51957000  0.20720000  0.08755000  1.0
  N  N19  1  0.99278000  0.99994000  0.91751000  1.0
  N  N20  1  0.41171000  0.99990000  0.91504000  1.0
