# generated using pymatgen
data_CuH12C8SN2O5
_symmetry_space_group_name_H-M   'P 1'
_cell_length_a   5.16986000
_cell_length_b   9.95074000
_cell_length_c   11.07400000
_cell_angle_alpha   103.90300000
_cell_angle_beta   89.99980000
_cell_angle_gamma   89.99920000
_symmetry_Int_Tables_number   1
_chemical_formula_structural   CuH12C8SN2O5
_chemical_formula_sum   'Cu2 H24 C16 S2 N4 O10'
_cell_volume   553.00041326
_cell_formula_units_Z   2
loop_
 _symmetry_equiv_pos_site_id
 _symmetry_equiv_pos_as_xyz
  1  'x, y, z'
loop_
 _atom_site_type_symbol
 _atom_site_label
 _atom_site_symmetry_multiplicity
 _atom_site_fract_x
 _atom_site_fract_y
 _atom_site_fract_z
 _atom_site_occupancy
  Cu  Cu0  1  0.27977000  0.67017000  0.67050000  1.0
  Cu  Cu1  1  0.77974000  0.32982000  0.32949000  1.0
  H  H2  1  0.90510000  0.50432000  0.62000000  1.0
  H  H3  1  0.40510000  0.49570000  0.38000000  1.0
  H  H4  1  0.79222000  0.47387000  0.81476000  1.0
  H  H5  1  0.29222000  0.52614000  0.18524000  1.0
  H  H6  1  0.44856000  0.92325000  0.84762000  1.0
  H  H7  1  0.94856000  0.07675000  0.15239000  1.0
  H  H8  1  0.10250000  0.29464000  0.57881000  1.0
  H  H9  1  0.60255000  0.70536000  0.42118000  1.0
  H  H10  1  0.12787000  0.46926000  0.96970000  1.0
  H  H11  1  0.62788000  0.53075000  0.03029000  1.0
  H  H12  1  0.34687000  0.56572000  0.89666000  1.0
  H  H13  1  0.84689000  0.43428000  0.10332000  1.0
  H  H14  1  0.63554000  0.11078000  0.94906000  1.0
  H  H15  1  0.13553000  0.88923000  0.05096000  1.0
  H  H16  1  0.77824000  0.22252000  0.86341000  1.0
  H  H17  1  0.27826000  0.77747000  0.13660000  1.0
  H  H18  1  0.97533000  0.09957000  0.91318000  1.0
  H  H19  1  0.47534000  0.90042000  0.08682000  1.0
  H  H20  1  0.87943000  0.91659000  0.58979000  1.0
  H  H21  1  0.37945000  0.08342000  0.41022000  1.0
  H  H22  1  0.08753000  0.03997000  0.68696000  1.0
  H  H23  1  0.58756000  0.96002000  0.31304000  1.0
  H  H24  1  0.82168000  0.09912000  0.61006000  1.0
  H  H25  1  0.32171000  0.90088000  0.38995000  1.0
  C  C26  1  0.96876000  0.53378000  0.80845000  1.0
  C  C27  1  0.46875000  0.46622000  0.19155000  1.0
  C  C28  1  0.55248000  0.91888000  0.76019000  1.0
  C  C29  1  0.05250000  0.08111000  0.23981000  1.0
  C  C30  1  0.21371000  0.37744000  0.64043000  1.0
  C  C31  1  0.71378000  0.62256000  0.35957000  1.0
  C  C32  1  0.18977000  0.48882000  0.88102000  1.0
  C  C33  1  0.68978000  0.51118000  0.11896000  1.0
  C  C34  1  0.78201000  0.11786000  0.87930000  1.0
  C  C35  1  0.28202000  0.88214000  0.12071000  1.0
  C  C36  1  0.46458000  0.40131000  0.57604000  1.0
  C  C37  1  0.96460000  0.59866000  0.42394000  1.0
  C  C38  1  0.91515000  0.69000000  0.85580000  1.0
  C  C39  1  0.41515000  0.30999000  0.14419000  1.0
  C  C40  1  0.88748000  0.01817000  0.65535000  1.0
  C  C41  1  0.38751000  0.98183000  0.34466000  1.0
  S  S42  1  0.29702000  0.32467000  0.78374000  1.0
  S  S43  1  0.79702000  0.67533000  0.21625000  1.0
  N  N44  1  0.06129000  0.50600000  0.67859000  1.0
  N  N45  1  0.56130000  0.49400000  0.32140000  1.0
  N  N46  1  0.72628000  0.01723000  0.76328000  1.0
  N  N47  1  0.22629000  0.98278000  0.23673000  1.0
  O  O48  1  0.54224000  0.52847000  0.59143000  1.0
  O  O49  1  0.04228000  0.47153000  0.40858000  1.0
  O  O50  1  0.05910000  0.77057000  0.80759000  1.0
  O  O51  1  0.55910000  0.22943000  0.19241000  1.0
  O  O52  1  0.50588000  0.82434000  0.66319000  1.0
  O  O53  1  0.00587000  0.17566000  0.33683000  1.0
  O  O54  1  0.74941000  0.73056000  0.93784000  1.0
  O  O55  1  0.24936000  0.26944000  0.06214000  1.0
  O  O56  1  0.58787000  0.29924000  0.51544000  1.0
  O  O57  1  0.08797000  0.70075000  0.48456000  1.0
