# generated using pymatgen
data_LiH5C5N2O5
_symmetry_space_group_name_H-M   'P 1'
_cell_length_a   4.98086000
_cell_length_b   5.26881000
_cell_length_c   6.78109000
_cell_angle_alpha   90.21820000
_cell_angle_beta   102.93820000
_cell_angle_gamma   99.57610000
_symmetry_Int_Tables_number   1
_chemical_formula_structural   LiH5C5N2O5
_chemical_formula_sum   'Li1 H5 C5 N2 O5'
_cell_volume   170.86664880
_cell_formula_units_Z   1
loop_
 _symmetry_equiv_pos_site_id
 _symmetry_equiv_pos_as_xyz
  1  'x, y, z'
loop_
 _atom_site_type_symbol
 _atom_site_label
 _atom_site_symmetry_multiplicity
 _atom_site_fract_x
 _atom_site_fract_y
 _atom_site_fract_z
 _atom_site_occupancy
  Li  Li0  1  0.97752000  0.02589000  0.77857000  1.0
  H  H1  1  0.66503000  0.05796000  0.31895000  1.0
  H  H2  1  0.47631000  0.61359000  0.66784000  1.0
  H  H3  1  0.00777000  0.46400000  0.06503000  1.0
  H  H4  1  0.75308000  0.77730000  0.03101000  1.0
  H  H5  1  0.53621000  0.92931000  0.90858000  1.0
  C  C6  1  0.05764000  0.75664000  0.42359000  1.0
  C  C7  1  0.22223000  0.55524000  0.37517000  1.0
  C  C8  1  0.17151000  0.42742000  0.19171000  1.0
  C  C9  1  0.33834000  0.23838000  0.16372000  1.0
  C  C10  1  0.59746000  0.32913000  0.51618000  1.0
  N  N11  1  0.54162000  0.19773000  0.33087000  1.0
  N  N12  1  0.42978000  0.50601000  0.53162000  1.0
  O  O13  1  0.13879000  0.85988000  0.59888000  1.0
  O  O14  1  0.85259000  0.80117000  0.28666000  1.0
  O  O15  1  0.30760000  0.11154000  0.00028000  1.0
  O  O16  1  0.78874000  0.29212000  0.65955000  1.0
  O  O17  1  0.67716000  0.82475000  0.88987000  1.0
