# generated using pymatgen
data_Mg2H13C24O6F
_symmetry_space_group_name_H-M   'P 1'
_cell_length_a   6.84015000
_cell_length_b   37.58280000
_cell_length_c   37.57830000
_cell_angle_alpha   119.63400000
_cell_angle_beta   93.47520000
_cell_angle_gamma   93.46280000
_symmetry_Int_Tables_number   1
_chemical_formula_structural   Mg2H13C24O6F
_chemical_formula_sum   'Mg6 H39 C72 O18 F3'
_cell_volume   8335.73983867
_cell_formula_units_Z   3
loop_
 _symmetry_equiv_pos_site_id
 _symmetry_equiv_pos_as_xyz
  1  'x, y, z'
loop_
 _atom_site_type_symbol
 _atom_site_label
 _atom_site_symmetry_multiplicity
 _atom_site_fract_x
 _atom_site_fract_y
 _atom_site_fract_z
 _atom_site_occupancy
  Mg  Mg0  1  0.15004000  0.69251000  0.32943000  1.0
  Mg  Mg1  1  0.25422000  0.30549000  0.66705000  1.0
  Mg  Mg2  1  0.45757000  0.63693000  0.30752000  1.0
  Mg  Mg3  1  0.94878000  0.36151000  0.69449000  1.0
  Mg  Mg4  1  0.82044000  0.67059000  0.36309000  1.0
  Mg  Mg5  1  0.58716000  0.33298000  0.63847000  1.0
  H  H6  1  0.35298000  0.49750000  0.98738000  1.0
  H  H7  1  0.51608000  0.53448000  0.05818000  1.0
  H  H8  1  0.05337000  0.48154000  0.01187000  1.0
  H  H9  1  0.06495000  0.53054000  0.08245000  1.0
  H  H10  1  0.66877000  0.55233000  0.11855000  1.0
  H  H11  1  0.68435000  0.58140000  0.19131000  1.0
  H  H12  1  0.40354000  0.61948000  0.20775000  1.0
  H  H13  1  0.22851000  0.57765000  0.13799000  1.0
  H  H14  1  0.33901000  0.44967000  0.91812000  1.0
  H  H15  1  0.73233000  0.43070000  0.88022000  1.0
  H  H16  1  0.71730000  0.40650000  0.80944000  1.0
  H  H17  1  0.99733000  0.36860000  0.79003000  1.0
  H  H18  1  0.16958000  0.40610000  0.86034000  1.0
  H  H19  1  0.85533000  0.48993000  0.50246000  1.0
  H  H20  1  0.98189000  0.52375000  0.46551000  1.0
  H  H21  1  0.57174000  0.53027000  0.51846000  1.0
  H  H22  1  0.53430000  0.55190000  0.46939000  1.0
  H  H23  1  0.11608000  0.56620000  0.44773000  1.0
  H  H24  1  0.10231000  0.60984000  0.41855000  1.0
  H  H25  1  0.78362000  0.58823000  0.38050000  1.0
  H  H26  1  0.65030000  0.56029000  0.42232000  1.0
  H  H27  1  0.88917000  0.46843000  0.55032000  1.0
  H  H28  1  0.30136000  0.44952000  0.56937000  1.0
  H  H29  1  0.31060000  0.40300000  0.59355000  1.0
  H  H30  1  0.62830000  0.42138000  0.63144000  1.0
  H  H31  1  0.76292000  0.45421000  0.59395000  1.0
  H  H32  1  0.36539000  0.01258000  0.51007000  1.0
  H  H33  1  0.45821000  0.94183000  0.47626000  1.0
  H  H34  1  0.04158000  0.98822000  0.46972000  1.0
  H  H35  1  0.98232000  0.91745000  0.44807000  1.0
  H  H36  1  0.54983000  0.88155000  0.43388000  1.0
  H  H37  1  0.49248000  0.80872000  0.39019000  1.0
  H  H38  1  0.19543000  0.79224000  0.41169000  1.0
  H  H39  1  0.09005000  0.86198000  0.43964000  1.0
  H  H40  1  0.42041000  0.08190000  0.53154000  1.0
  H  H41  1  0.85155000  0.11978000  0.55046000  1.0
  H  H42  1  0.90749000  0.19051000  0.59701000  1.0
  H  H43  1  0.20707000  0.21012000  0.57859000  1.0
  H  H44  1  0.30875000  0.13978000  0.54576000  1.0
  C  C45  1  0.80512000  0.46629000  0.96783000  1.0
  C  C46  1  0.60598000  0.46902000  0.95847000  1.0
  C  C47  1  0.50717000  0.49403000  0.99313000  1.0
  C  C48  1  0.59883000  0.51462000  0.03301000  1.0
  C  C49  1  0.79860000  0.51100000  0.04124000  1.0
  C  C50  1  0.89966000  0.48599000  0.00732000  1.0
  C  C51  1  0.90563000  0.53210000  0.08205000  1.0
  C  C52  1  0.82881000  0.55268000  0.11843000  1.0
  C  C53  1  0.94014000  0.57608000  0.15881000  1.0
  C  C54  1  0.84241000  0.58974000  0.19419000  1.0
  C  C55  1  0.93890000  0.61389000  0.23419000  1.0
  C  C56  1  0.14629000  0.62566000  0.23951000  1.0
  C  C57  1  0.24533000  0.61080000  0.20360000  1.0
  C  C58  1  0.14615000  0.58710000  0.16470000  1.0
  C  C59  1  0.81982000  0.62551000  0.26903000  1.0
  C  C60  1  0.49851000  0.44868000  0.91780000  1.0
  C  C61  1  0.57305000  0.43011000  0.88093000  1.0
  C  C62  1  0.45982000  0.40918000  0.84068000  1.0
  C  C63  1  0.55894000  0.39811000  0.80582000  1.0
  C  C64  1  0.46370000  0.37683000  0.76556000  1.0
  C  C65  1  0.25589000  0.36511000  0.75932000  1.0
  C  C66  1  0.15573000  0.37720000  0.79483000  1.0
  C  C67  1  0.25346000  0.39840000  0.83409000  1.0
  C  C68  1  0.58464000  0.36847000  0.73164000  1.0
  C  C69  1  0.33862000  0.50145000  0.53364000  1.0
  C  C70  1  0.13676000  0.48939000  0.53092000  1.0
  C  C71  1  0.01303000  0.49909000  0.50593000  1.0
  C  C72  1  0.08427000  0.51839000  0.48536000  1.0
  C  C73  1  0.28768000  0.53023000  0.48899000  1.0
  C  C74  1  0.41362000  0.52127000  0.51398000  1.0
  C  C75  1  0.37346000  0.54995000  0.46788000  1.0
  C  C76  1  0.27576000  0.56572000  0.44731000  1.0
  C  C77  1  0.36348000  0.58265000  0.42386000  1.0
  C  C78  1  0.25203000  0.60436000  0.41019000  1.0
  C  C79  1  0.32445000  0.62021000  0.38604000  1.0
  C  C80  1  0.52018000  0.61378000  0.37429000  1.0
  C  C81  1  0.63401000  0.59272000  0.38914000  1.0
  C  C82  1  0.55847000  0.57752000  0.41284000  1.0
  C  C83  1  0.19397000  0.64348000  0.37447000  1.0
  C  C84  1  0.04963000  0.46909000  0.55129000  1.0
  C  C85  1  0.14265000  0.45082000  0.56992000  1.0
  C  C86  1  0.05030000  0.43154000  0.59088000  1.0
  C  C87  1  0.16060000  0.40777000  0.60196000  1.0
  C  C88  1  0.08675000  0.38878000  0.62323000  1.0
  C  C89  1  0.89061000  0.39421000  0.63493000  1.0
  C  C90  1  0.77822000  0.41762000  0.62286000  1.0
  C  C91  1  0.85469000  0.43571000  0.60166000  1.0
  C  C92  1  0.21615000  0.36321000  0.63156000  1.0
  C  C93  1  0.83703000  0.03220000  0.49846000  1.0
  C  C94  1  0.64720000  0.04155000  0.51054000  1.0
  C  C95  1  0.51388000  0.00687000  0.50087000  1.0
  C  C96  1  0.56591000  0.96701000  0.48159000  1.0
  C  C97  1  0.75749000  0.95879000  0.46976000  1.0
  C  C98  1  0.89235000  0.99271000  0.47869000  1.0
  C  C99  1  0.82346000  0.91794000  0.45006000  1.0
  C  C100  1  0.71001000  0.88161000  0.43433000  1.0
  C  C101  1  0.78080000  0.84121000  0.41736000  1.0
  C  C102  1  0.64769000  0.80584000  0.39566000  1.0
  C  C103  1  0.70428000  0.76584000  0.37978000  1.0
  C  C104  1  0.90641000  0.76050000  0.38619000  1.0
  C  C105  1  0.04130000  0.79639000  0.40722000  1.0
  C  C106  1  0.98093000  0.83529000  0.42244000  1.0
  C  C107  1  0.55053000  0.73101000  0.35653000  1.0
  C  C108  1  0.58025000  0.08222000  0.53087000  1.0
  C  C109  1  0.69159000  0.11909000  0.54917000  1.0
  C  C110  1  0.61869000  0.15934000  0.56846000  1.0
  C  C111  1  0.75279000  0.19417000  0.59224000  1.0
  C  C112  1  0.69799000  0.23444000  0.61122000  1.0
  C  C113  1  0.49645000  0.24074000  0.60578000  1.0
  C  C114  1  0.36068000  0.20527000  0.58235000  1.0
  C  C115  1  0.41900000  0.16598000  0.56427000  1.0
  C  C116  1  0.85294000  0.26834000  0.63679000  1.0
  O  O117  1  0.63994000  0.61127000  0.26325000  1.0
  O  O118  1  0.90252000  0.65091000  0.30583000  1.0
  O  O119  1  0.25030000  0.65001000  0.27621000  1.0
  O  O120  1  0.76495000  0.38282000  0.73878000  1.0
  O  O121  1  0.50327000  0.34595000  0.69417000  1.0
  O  O122  1  0.15274000  0.34348000  0.72212000  1.0
  O  O123  1  0.02834000  0.65196000  0.38873000  1.0
  O  O124  1  0.25156000  0.65494000  0.34912000  1.0
  O  O125  1  0.60006000  0.62620000  0.35000000  1.0
  O  O126  1  0.38212000  0.35602000  0.61719000  1.0
  O  O127  1  0.15740000  0.34820000  0.65404000  1.0
  O  O128  1  0.80911000  0.37859000  0.65652000  1.0
  O  O129  1  0.37648000  0.73680000  0.34802000  1.0
  O  O130  1  0.59653000  0.69420000  0.34510000  1.0
  O  O131  1  0.97383000  0.72379000  0.37379000  1.0
  O  O132  1  0.02612000  0.26117000  0.64399000  1.0
  O  O133  1  0.80910000  0.30582000  0.65178000  1.0
  O  O134  1  0.43058000  0.27795000  0.62140000  1.0
  F  F135  1  0.91484000  0.44252000  0.93664000  1.0
  F  F136  1  0.47192000  0.49398000  0.55738000  1.0
  F  F137  1  0.97774000  0.06340000  0.50589000  1.0
