# generated using pymatgen
data_ZnH7C12NO4F
_symmetry_space_group_name_H-M   'P 1'
_cell_length_a   9.80151000
_cell_length_b   11.07150000
_cell_length_c   11.29620000
_cell_angle_alpha   92.77480000
_cell_angle_beta   94.17060000
_cell_angle_gamma   108.05100000
_symmetry_Int_Tables_number   1
_chemical_formula_structural   ZnH7C12NO4F
_chemical_formula_sum   'Zn2 H14 C24 N2 O8 F2'
_cell_volume   1159.15600097
_cell_formula_units_Z   2
loop_
 _symmetry_equiv_pos_site_id
 _symmetry_equiv_pos_as_xyz
  1  'x, y, z'
loop_
 _atom_site_type_symbol
 _atom_site_label
 _atom_site_symmetry_multiplicity
 _atom_site_fract_x
 _atom_site_fract_y
 _atom_site_fract_z
 _atom_site_occupancy
  Zn  Zn0  1  0.35279000  0.45296000  0.51301000  1.0
  Zn  Zn1  1  0.64846000  0.53806000  0.48725000  1.0
  H  H2  1  0.58262000  0.10647000  0.10034000  1.0
  H  H3  1  0.41615000  0.88675000  0.89994000  1.0
  H  H4  1  0.43737000  0.21798000  0.70937000  1.0
  H  H5  1  0.55985000  0.77341000  0.28841000  1.0
  H  H6  1  0.45957000  0.77316000  0.71903000  1.0
  H  H7  1  0.54032000  0.21923000  0.28260000  1.0
  H  H8  1  0.62587000  0.51923000  0.10220000  1.0
  H  H9  1  0.37487000  0.45524000  0.89761000  1.0
  H  H10  1  0.29532000  0.44068000  0.10507000  1.0
  H  H11  1  0.70572000  0.54593000  0.89479000  1.0
  H  H12  1  0.14283000  0.58424000  0.45096000  1.0
  H  H13  1  0.85924000  0.40668000  0.54937000  1.0
  H  H14  1  0.07305000  0.34871000  0.57372000  1.0
  H  H15  1  0.92805000  0.64224000  0.42660000  1.0
  C  C16  1  0.56044000  0.50929000  0.73089000  1.0
  C  C17  1  0.44006000  0.47732000  0.26927000  1.0
  C  C18  1  0.59201000  0.51471000  0.86151000  1.0
  C  C19  1  0.40882000  0.46763000  0.13840000  1.0
  C  C20  1  0.48687000  0.48513000  0.93626000  1.0
  C  C21  1  0.51399000  0.49193000  0.06356000  1.0
  C  C22  1  0.92495000  0.48887000  0.50613000  1.0
  C  C23  1  0.07688000  0.50219000  0.49418000  1.0
  C  C24  1  0.49181000  0.25581000  0.49514000  1.0
  C  C25  1  0.50892000  0.73526000  0.50500000  1.0
  C  C26  1  0.44385000  0.12145000  0.70895000  1.0
  C  C27  1  0.55379000  0.87000000  0.28987000  1.0
  C  C28  1  0.42517000  0.05764000  0.81007000  1.0
  C  C29  1  0.57205000  0.93448000  0.18910000  1.0
  C  C30  1  0.43056000  0.93189000  0.81616000  1.0
  C  C31  1  0.56799000  0.06073000  0.18384000  1.0
  C  C32  1  0.45549000  0.87019000  0.71563000  1.0
  C  C33  1  0.54386000  0.12188000  0.28502000  1.0
  C  C34  1  0.47632000  0.93059000  0.60625000  1.0
  C  C35  1  0.52265000  0.06027000  0.39369000  1.0
  C  C36  1  0.47066000  0.05935000  0.60332000  1.0
  C  C37  1  0.52828000  0.93144000  0.39638000  1.0
  C  C38  1  0.50526000  0.86964000  0.50289000  1.0
  C  C39  1  0.49425000  0.12107000  0.49703000  1.0
  N  N40  1  0.86318000  0.56747000  0.46738000  1.0
  N  N41  1  0.13824000  0.42336000  0.53304000  1.0
  O  O42  1  0.42847000  0.46693000  0.68822000  1.0
  O  O43  1  0.57155000  0.50413000  0.31150000  1.0
  O  O44  1  0.66886000  0.54763000  0.67033000  1.0
  O  O45  1  0.33185000  0.45828000  0.33065000  1.0
  O  O46  1  0.36967000  0.27338000  0.49450000  1.0
  O  O47  1  0.62811000  0.71645000  0.48921000  1.0
  O  O48  1  0.61323000  0.34162000  0.49536000  1.0
  O  O49  1  0.39144000  0.65034000  0.52137000  1.0
  F  F50  1  0.40040000  0.11691000  0.91187000  1.0
  F  F51  1  0.59528000  0.87530000  0.08664000  1.0
