# generated using pymatgen
data_ZnH8(CO)6
_symmetry_space_group_name_H-M   'P 1'
_cell_length_a   5.40670000
_cell_length_b   8.61334000
_cell_length_c   10.12710000
_cell_angle_alpha   109.19200000
_cell_angle_beta   90.00180000
_cell_angle_gamma   108.27200000
_symmetry_Int_Tables_number   1
_chemical_formula_structural   ZnH8(CO)6
_chemical_formula_sum   'Zn2 H16 C12 O12'
_cell_volume   420.14301402
_cell_formula_units_Z   2
loop_
 _symmetry_equiv_pos_site_id
 _symmetry_equiv_pos_as_xyz
  1  'x, y, z'
loop_
 _atom_site_type_symbol
 _atom_site_label
 _atom_site_symmetry_multiplicity
 _atom_site_fract_x
 _atom_site_fract_y
 _atom_site_fract_z
 _atom_site_occupancy
  Zn  Zn0  1  0.04505000  0.99996000  0.75005000  1.0
  Zn  Zn1  1  0.95497000  0.00002000  0.24994000  1.0
  H  H2  1  0.36756000  0.63614000  0.41462000  1.0
  H  H3  1  0.73092000  0.36336000  0.08541000  1.0
  H  H4  1  0.63252000  0.36385000  0.58538000  1.0
  H  H5  1  0.26912000  0.63666000  0.91461000  1.0
  H  H6  1  0.08658000  0.55112000  0.66005000  1.0
  H  H7  1  0.53614000  0.44922000  0.84010000  1.0
  H  H8  1  0.91334000  0.44886000  0.33997000  1.0
  H  H9  1  0.46396000  0.55082000  0.15992000  1.0
  H  H10  1  0.16231000  0.89019000  0.94851000  1.0
  H  H11  1  0.27193000  0.11009000  0.55149000  1.0
  H  H12  1  0.83767000  0.10982000  0.05149000  1.0
  H  H13  1  0.72803000  0.88989000  0.44851000  1.0
  H  H14  1  0.36224000  0.85727000  0.83019000  1.0
  H  H15  1  0.50447000  0.14266000  0.66964000  1.0
  H  H16  1  0.63774000  0.14273000  0.16979000  1.0
  H  H17  1  0.49551000  0.85732000  0.33037000  1.0
  C  C18  1  0.57116000  0.74705000  0.62975000  1.0
  C  C19  1  0.82393000  0.25278000  0.87026000  1.0
  C  C20  1  0.42882000  0.25298000  0.37022000  1.0
  C  C21  1  0.17610000  0.74723000  0.12975000  1.0
  C  C22  1  0.34503000  0.63875000  0.52218000  1.0
  C  C23  1  0.70629000  0.36120000  0.97792000  1.0
  C  C24  1  0.65492000  0.36128000  0.47782000  1.0
  C  C25  1  0.29376000  0.63883000  0.02210000  1.0
  C  C26  1  0.11108000  0.54968000  0.55252000  1.0
  C  C27  1  0.56162000  0.45042000  0.94757000  1.0
  C  C28  1  0.88894000  0.45026000  0.44749000  1.0
  C  C29  1  0.43842000  0.54960000  0.05245000  1.0
  O  O30  1  0.77847000  0.83515000  0.58699000  1.0
  O  O31  1  0.94309000  0.16461000  0.91307000  1.0
  O  O32  1  0.22153000  0.16484000  0.41300000  1.0
  O  O33  1  0.05689000  0.83538000  0.08693000  1.0
  O  O34  1  0.56537000  0.75766000  0.75697000  1.0
  O  O35  1  0.80733000  0.24207000  0.74301000  1.0
  O  O36  1  0.43459000  0.24230000  0.24300000  1.0
  O  O37  1  0.19264000  0.75792000  0.25697000  1.0
  O  O38  1  0.24313000  0.92575000  0.86936000  1.0
  O  O39  1  0.31691000  0.07437000  0.63057000  1.0
  O  O40  1  0.75686000  0.07425000  0.13064000  1.0
  O  O41  1  0.68307000  0.92562000  0.36942000  1.0
