# generated using pymatgen
data_TbH12C15(NO2)6
_symmetry_space_group_name_H-M   'P 1'
_cell_length_a   7.94039000
_cell_length_b   11.40750000
_cell_length_c   13.00390000
_cell_angle_alpha   83.76310000
_cell_angle_beta   80.40910000
_cell_angle_gamma   78.94070000
_symmetry_Int_Tables_number   1
_chemical_formula_structural   TbH12C15(NO2)6
_chemical_formula_sum   'Tb2 H24 C30 N12 O24'
_cell_volume   1136.27654963
_cell_formula_units_Z   2
loop_
 _symmetry_equiv_pos_site_id
 _symmetry_equiv_pos_as_xyz
  1  'x, y, z'
loop_
 _atom_site_type_symbol
 _atom_site_label
 _atom_site_symmetry_multiplicity
 _atom_site_fract_x
 _atom_site_fract_y
 _atom_site_fract_z
 _atom_site_occupancy
  Tb  Tb0  1  0.27533000  0.33092000  0.72210000  1.0
  Tb  Tb1  1  0.72466000  0.66908000  0.27790000  1.0
  H  H2  1  0.55976000  0.20274000  0.94490000  1.0
  H  H3  1  0.44024000  0.79727000  0.05509000  1.0
  H  H4  1  0.49813000  0.18356000  0.14180000  1.0
  H  H5  1  0.50190000  0.81643000  0.85819000  1.0
  H  H6  1  0.20289000  0.54356000  0.12522000  1.0
  H  H7  1  0.79710000  0.45643000  0.87478000  1.0
  H  H8  1  0.27138000  0.54597000  0.92941000  1.0
  H  H9  1  0.72862000  0.45403000  0.07059000  1.0
  H  H10  1  0.56619000  0.22102000  0.42755000  1.0
  H  H11  1  0.43380000  0.77898000  0.57245000  1.0
  H  H12  1  0.80399000  0.05573000  0.37421000  1.0
  H  H13  1  0.19602000  0.94429000  0.62578000  1.0
  H  H14  1  0.00126000  0.08150000  0.66212000  1.0
  H  H15  1  0.99873000  0.91851000  0.33788000  1.0
  H  H16  1  0.75155000  0.24280000  0.70398000  1.0
  H  H17  1  0.24844000  0.75721000  0.29602000  1.0
  H  H18  1  0.17852000  0.18228000  0.48370000  1.0
  H  H19  1  0.82148000  0.81772000  0.51630000  1.0
  H  H20  1  0.27408000  0.17227000  0.28964000  1.0
  H  H21  1  0.72592000  0.82772000  0.71036000  1.0
  H  H22  1  0.32254000  0.54476000  0.27508000  1.0
  H  H23  1  0.67746000  0.45523000  0.72492000  1.0
  H  H24  1  0.22371000  0.53811000  0.47015000  1.0
  H  H25  1  0.77628000  0.46188000  0.52984000  1.0
  C  C26  1  0.48038000  0.27309000  0.99063000  1.0
  C  C27  1  0.51962000  0.72692000  0.00936000  1.0
  C  C28  1  0.44418000  0.26564000  0.09861000  1.0
  C  C29  1  0.55584000  0.73436000  0.90139000  1.0
  C  C30  1  0.34399000  0.36318000  0.15055000  1.0
  C  C31  1  0.65601000  0.63682000  0.84945000  1.0
  C  C32  1  0.28215000  0.46614000  0.08882000  1.0
  C  C33  1  0.71785000  0.53385000  0.91118000  1.0
  C  C34  1  0.31818000  0.46991000  0.98134000  1.0
  C  C35  1  0.68182000  0.53009000  0.01865000  1.0
  C  C36  1  0.66494000  0.18330000  0.47623000  1.0
  C  C37  1  0.33506000  0.81671000  0.52377000  1.0
  C  C38  1  0.80077000  0.09184000  0.44859000  1.0
  C  C39  1  0.19922000  0.90816000  0.55142000  1.0
  C  C40  1  0.92681000  0.04854000  0.51432000  1.0
  C  C41  1  0.07320000  0.95147000  0.48567000  1.0
  C  C42  1  0.90746000  0.10500000  0.60781000  1.0
  C  C43  1  0.09254000  0.89501000  0.39219000  1.0
  C  C44  1  0.77027000  0.19633000  0.63323000  1.0
  C  C45  1  0.22971000  0.80368000  0.36677000  1.0
  C  C46  1  0.21041000  0.25837000  0.43161000  1.0
  C  C47  1  0.78958000  0.74162000  0.56839000  1.0
  C  C48  1  0.26377000  0.25585000  0.32524000  1.0
  C  C49  1  0.73625000  0.74414000  0.67476000  1.0
  C  C50  1  0.30004000  0.36018000  0.26471000  1.0
  C  C51  1  0.69996000  0.63981000  0.73530000  1.0
  C  C52  1  0.28710000  0.46337000  0.31743000  1.0
  C  C53  1  0.71289000  0.53663000  0.68257000  1.0
  C  C54  1  0.23420000  0.46258000  0.42399000  1.0
  C  C55  1  0.76580000  0.53741000  0.57601000  1.0
  N  N56  1  0.17963000  0.58806000  0.72580000  1.0
  N  N57  1  0.82037000  0.41194000  0.27420000  1.0
  N  N58  1  0.00152000  0.25682000  0.87825000  1.0
  N  N59  1  0.99848000  0.74318000  0.12176000  1.0
  N  N60  1  0.39993000  0.07135000  0.72431000  1.0
  N  N61  1  0.60008000  0.92865000  0.27570000  1.0
  N  N62  1  0.41702000  0.37407000  0.93360000  1.0
  N  N63  1  0.58298000  0.62593000  0.06640000  1.0
  N  N64  1  0.64904000  0.23356000  0.56833000  1.0
  N  N65  1  0.35095000  0.76645000  0.43167000  1.0
  N  N66  1  0.19130000  0.36171000  0.47932000  1.0
  N  N67  1  0.80869000  0.63829000  0.52067000  1.0
  O  O68  1  0.45346000  0.38012000  0.83010000  1.0
  O  O69  1  0.54654000  0.61988000  0.16989000  1.0
  O  O70  1  0.30188000  0.54118000  0.65646000  1.0
  O  O71  1  0.69811000  0.45883000  0.34354000  1.0
  O  O72  1  0.09994000  0.51325000  0.78849000  1.0
  O  O73  1  0.90006000  0.48675000  0.21152000  1.0
  O  O74  1  0.14052000  0.69701000  0.73320000  1.0
  O  O75  1  0.85947000  0.30299000  0.26681000  1.0
  O  O76  1  0.51755000  0.32069000  0.59349000  1.0
  O  O77  1  0.48245000  0.67931000  0.40652000  1.0
  O  O78  1  0.15650000  0.25505000  0.89638000  1.0
  O  O79  1  0.84350000  0.74495000  0.10363000  1.0
  O  O80  1  0.97560000  0.28984000  0.78307000  1.0
  O  O81  1  0.02441000  0.71014000  0.21694000  1.0
  O  O82  1  0.88531000  0.23037000  0.94704000  1.0
  O  O83  1  0.11469000  0.76964000  0.05296000  1.0
  O  O84  1  0.12706000  0.36347000  0.57975000  1.0
  O  O85  1  0.87294000  0.63652000  0.42025000  1.0
  O  O86  1  0.46904000  0.13604000  0.77347000  1.0
  O  O87  1  0.53096000  0.86396000  0.22654000  1.0
  O  O88  1  0.27802000  0.12767000  0.67323000  1.0
  O  O89  1  0.72199000  0.87233000  0.32677000  1.0
  O  O90  1  0.44573000  0.96130000  0.72423000  1.0
  O  O91  1  0.55428000  0.03870000  0.27578000  1.0
