# generated using pymatgen
data_LaH17C27O7
_symmetry_space_group_name_H-M   'P 1'
_cell_length_a   12.51510000
_cell_length_b   17.22730000
_cell_length_c   17.22740000
_cell_angle_alpha   114.34500000
_cell_angle_beta   104.00600000
_cell_angle_gamma   104.00600000
_symmetry_Int_Tables_number   1
_chemical_formula_structural   LaH17C27O7
_chemical_formula_sum   'La3 H51 C81 O21'
_cell_volume   3028.02058572
_cell_formula_units_Z   3
loop_
 _symmetry_equiv_pos_site_id
 _symmetry_equiv_pos_as_xyz
  1  'x, y, z'
loop_
 _atom_site_type_symbol
 _atom_site_label
 _atom_site_symmetry_multiplicity
 _atom_site_fract_x
 _atom_site_fract_y
 _atom_site_fract_z
 _atom_site_occupancy
  La  La0  1  0.32590000  0.65174000  0.32587000  1.0
  La  La1  1  0.00000000  0.67412000  0.32588000  1.0
  La  La2  1  0.67410000  0.67413000  0.34826000  1.0
  H  H3  1  0.47749000  0.94440000  0.60745000  1.0
  H  H4  1  0.87003000  0.39265000  0.33690000  1.0
  H  H5  1  0.53315000  0.66306000  0.05577000  1.0
  H  H6  1  0.12997000  0.66310000  0.60735000  1.0
  H  H7  1  0.46685000  0.94423000  0.33694000  1.0
  H  H8  1  0.52250000  0.39255000  0.05560000  1.0
  H  H9  1  0.55053000  0.11601000  0.68861000  1.0
  H  H10  1  0.86208000  0.31143000  0.42726000  1.0
  H  H11  1  0.43474000  0.57273000  0.88413000  1.0
  H  H12  1  0.13793000  0.57274000  0.68857000  1.0
  H  H13  1  0.56526000  0.11587000  0.42727000  1.0
  H  H14  1  0.44947000  0.31139000  0.88399000  1.0
  H  H15  1  0.27287000  0.09728000  0.46881000  1.0
  H  H16  1  0.80417000  0.53122000  0.62852000  1.0
  H  H17  1  0.17561000  0.37157000  0.90266000  1.0
  H  H18  1  0.19583000  0.37148000  0.46878000  1.0
  H  H19  1  0.82440000  0.09734000  0.62844000  1.0
  H  H20  1  0.72713000  0.53119000  0.90272000  1.0
  H  H21  1  0.20116000  0.92591000  0.38918000  1.0
  H  H22  1  0.81215000  0.61093000  0.53689000  1.0
  H  H23  1  0.27510000  0.46317000  0.07400000  1.0
  H  H24  1  0.18786000  0.46310000  0.38906000  1.0
  H  H25  1  0.72490000  0.92600000  0.53683000  1.0
  H  H26  1  0.79883000  0.61082000  0.07408000  1.0
  H  H27  1  0.50000000  0.23236000  0.76764000  1.0
  H  H28  1  0.73224000  0.23234000  0.46462000  1.0
  H  H29  1  0.26776000  0.53538000  0.76766000  1.0
  H  H30  1  0.42893000  0.23255000  0.51089000  1.0
  H  H31  1  0.91804000  0.48906000  0.72160000  1.0
  H  H32  1  0.19634000  0.27848000  0.76751000  1.0
  H  H33  1  0.08196000  0.27840000  0.51095000  1.0
  H  H34  1  0.80367000  0.23250000  0.72152000  1.0
  H  H35  1  0.57107000  0.48910000  0.76744000  1.0
  H  H36  1  0.45038000  0.52101000  0.67239000  1.0
  H  H37  1  0.77811000  0.32770000  0.84869000  1.0
  H  H38  1  0.92925000  0.15130000  0.47902000  1.0
  H  H39  1  0.22190000  0.15131000  0.67231000  1.0
  H  H40  1  0.07077000  0.52099000  0.84869000  1.0
  H  H41  1  0.54961000  0.32761000  0.47899000  1.0
  H  H42  1  0.44668000  0.60453000  0.58454000  1.0
  H  H43  1  0.86226000  0.41560000  0.02005000  1.0
  H  H44  1  0.84209000  0.97994000  0.39548000  1.0
  H  H45  1  0.13775000  0.97995000  0.58441000  1.0
  H  H46  1  0.15793000  0.60453000  0.02006000  1.0
  H  H47  1  0.55332000  0.41546000  0.39547000  1.0
  H  H48  1  0.27003000  0.42802000  0.20060000  1.0
  H  H49  1  0.06940000  0.79935000  0.22756000  1.0
  H  H50  1  0.84182000  0.77243000  0.57193000  1.0
  H  H51  1  0.93060000  0.77242000  0.20063000  1.0
  H  H52  1  0.15818000  0.42807000  0.22757000  1.0
  H  H53  1  0.72997000  0.79940000  0.57198000  1.0
  C  C54  1  0.29980000  0.82321000  0.44359000  1.0
  C  C55  1  0.85618000  0.55652000  0.37967000  1.0
  C  C56  1  0.47653000  0.62035000  0.17682000  1.0
  C  C57  1  0.14382000  0.62032000  0.44348000  1.0
  C  C58  1  0.52348000  0.82318000  0.37965000  1.0
  C  C59  1  0.70019000  0.55641000  0.17679000  1.0
  C  C60  1  0.33532000  0.92499000  0.49337000  1.0
  C  C61  1  0.84200000  0.50674000  0.43168000  1.0
  C  C62  1  0.41027000  0.56834000  0.07504000  1.0
  C  C63  1  0.15801000  0.56832000  0.49326000  1.0
  C  C64  1  0.58973000  0.92496000  0.43166000  1.0
  C  C65  1  0.66468000  0.50663000  0.07500000  1.0
  C  C66  1  0.43277000  0.97900000  0.57858000  1.0
  C  C67  1  0.85422000  0.42151000  0.40040000  1.0
  C  C68  1  0.45380000  0.59961000  0.02111000  1.0
  C  C69  1  0.14579000  0.59959000  0.57849000  1.0
  C  C70  1  0.54620000  0.97889000  0.40039000  1.0
  C  C71  1  0.56723000  0.42142000  0.02100000  1.0
  C  C72  1  0.47280000  0.07464000  0.62344000  1.0
  C  C73  1  0.84944000  0.37658000  0.45112000  1.0
  C  C74  1  0.39829000  0.54891000  0.92546000  1.0
  C  C75  1  0.15057000  0.54888000  0.62342000  1.0
  C  C76  1  0.60171000  0.07454000  0.45109000  1.0
  C  C77  1  0.52720000  0.37656000  0.92536000  1.0
  C  C78  1  0.41729000  0.11906000  0.58423000  1.0
  C  C79  1  0.83311000  0.41574000  0.53477000  1.0
  C  C80  1  0.29831000  0.46530000  0.88098000  1.0
  C  C81  1  0.16690000  0.46523000  0.58426000  1.0
  C  C82  1  0.70169000  0.11903000  0.53470000  1.0
  C  C83  1  0.58271000  0.41576000  0.88093000  1.0
  C  C84  1  0.31966000  0.06426000  0.49876000  1.0
  C  C85  1  0.82099000  0.50126000  0.56553000  1.0
  C  C86  1  0.25540000  0.43455000  0.93571000  1.0
  C  C87  1  0.17901000  0.43446000  0.49875000  1.0
  C  C88  1  0.74460000  0.06429000  0.56545000  1.0
  C  C89  1  0.68034000  0.50123000  0.93574000  1.0
  C  C90  1  0.27870000  0.96841000  0.45418000  1.0
  C  C91  1  0.82466000  0.54592000  0.51434000  1.0
  C  C92  1  0.31020000  0.48574000  0.03156000  1.0
  C  C93  1  0.17534000  0.48566000  0.45409000  1.0
  C  C94  1  0.68981000  0.96844000  0.51426000  1.0
  C  C95  1  0.72129000  0.54582000  0.03158000  1.0
  C  C96  1  0.45965000  0.22079000  0.63349000  1.0
  C  C97  1  0.82614000  0.36647000  0.58723000  1.0
  C  C98  1  0.23893000  0.41282000  0.77924000  1.0
  C  C99  1  0.17386000  0.41277000  0.63353000  1.0
  C  C100  1  0.76108000  0.22076000  0.58718000  1.0
  C  C101  1  0.54035000  0.36651000  0.77920000  1.0
  C  C102  1  0.50000000  0.27000000  0.72999000  1.0
  C  C103  1  0.76991000  0.26998000  0.53990000  1.0
  C  C104  1  0.23009000  0.46010000  0.73002000  1.0
  C  C105  1  0.46008000  0.27008000  0.58598000  1.0
  C  C106  1  0.87409000  0.41397000  0.68404000  1.0
  C  C107  1  0.18995000  0.31601000  0.72996000  1.0
  C  C108  1  0.12591000  0.31596000  0.58603000  1.0
  C  C109  1  0.81005000  0.27005000  0.68399000  1.0
  C  C110  1  0.53992000  0.41401000  0.72991000  1.0
  C  C111  1  0.50000000  0.36676000  0.63323000  1.0
  C  C112  1  0.86688000  0.36673000  0.73349000  1.0
  C  C113  1  0.13313000  0.26651000  0.63328000  1.0
  C  C114  1  0.50000000  0.41786000  0.58213000  1.0
  C  C115  1  0.91803000  0.41782000  0.83573000  1.0
  C  C116  1  0.08198000  0.16427000  0.58219000  1.0
  C  C117  1  0.47416000  0.49786000  0.61216000  1.0
  C  C118  1  0.86216000  0.38787000  0.88574000  1.0
  C  C119  1  0.97618000  0.11424000  0.50218000  1.0
  C  C120  1  0.13785000  0.11426000  0.61215000  1.0
  C  C121  1  0.02383000  0.49783000  0.88576000  1.0
  C  C122  1  0.52584000  0.38784000  0.50213000  1.0
  C  C123  1  0.47192000  0.54501000  0.56315000  1.0
  C  C124  1  0.90892000  0.43689000  0.98188000  1.0
  C  C125  1  0.92683000  0.01808000  0.45501000  1.0
  C  C126  1  0.09110000  0.01812000  0.56313000  1.0
  C  C127  1  0.07319000  0.54500000  0.98191000  1.0
  C  C128  1  0.52808000  0.43685000  0.45499000  1.0
  C  C129  1  0.50000000  0.51548000  0.48453000  1.0
  C  C130  1  0.01560000  0.51549000  0.03101000  1.0
  C  C131  1  0.98442000  0.96898000  0.48453000  1.0
  C  C132  1  0.50000000  0.56725000  0.43275000  1.0
  C  C133  1  0.06726000  0.56724000  0.13458000  1.0
  C  C134  1  0.93275000  0.86542000  0.43277000  1.0
  O  O135  1  0.36437000  0.78834000  0.47567000  1.0
  O  O136  1  0.88853000  0.52438000  0.31263000  1.0
  O  O137  1  0.57589000  0.68736000  0.21169000  1.0
  O  O138  1  0.11147000  0.68737000  0.47562000  1.0
  O  O139  1  0.42411000  0.78831000  0.31265000  1.0
  O  O140  1  0.63562000  0.52433000  0.21165000  1.0
  O  O141  1  0.20886000  0.77258000  0.36545000  1.0
  O  O142  1  0.84353000  0.63472000  0.40726000  1.0
  O  O143  1  0.43628000  0.59280000  0.22746000  1.0
  O  O144  1  0.15648000  0.59273000  0.36528000  1.0
  O  O145  1  0.56372000  0.77254000  0.40720000  1.0
  O  O146  1  0.79114000  0.63455000  0.22741000  1.0
  O  O147  1  0.42940000  0.60970000  0.43400000  1.0
  O  O148  1  0.99537000  0.56591000  0.17573000  1.0
  O  O149  1  0.81974000  0.82418000  0.39021000  1.0
  O  O150  1  0.00465000  0.82427000  0.43411000  1.0
  O  O151  1  0.18027000  0.60979000  0.17582000  1.0
  O  O152  1  0.57060000  0.56601000  0.39030000  1.0
  O  O153  1  0.23353000  0.46713000  0.23346000  1.0
  O  O154  1  0.00001000  0.76637000  0.23366000  1.0
  O  O155  1  0.76647000  0.76655000  0.53287000  1.0
