# generated using pymatgen
data_CdH8C16N10O
_symmetry_space_group_name_H-M   'P 1'
_cell_length_a   7.45239000
_cell_length_b   14.00190000
_cell_length_c   18.56200000
_cell_angle_alpha   81.15690000
_cell_angle_beta   83.30040000
_cell_angle_gamma   78.23570000
_symmetry_Int_Tables_number   1
_chemical_formula_structural   CdH8C16N10O
_chemical_formula_sum   'Cd4 H32 C64 N40 O4'
_cell_volume   1866.37285319
_cell_formula_units_Z   4
loop_
 _symmetry_equiv_pos_site_id
 _symmetry_equiv_pos_as_xyz
  1  'x, y, z'
loop_
 _atom_site_type_symbol
 _atom_site_label
 _atom_site_symmetry_multiplicity
 _atom_site_fract_x
 _atom_site_fract_y
 _atom_site_fract_z
 _atom_site_occupancy
  Cd  Cd0  1  0.73227000  0.14005000  0.17269000  1.0
  Cd  Cd1  1  0.26771000  0.85996000  0.82731000  1.0
  Cd  Cd2  1  0.76675000  0.65881000  0.28488000  1.0
  Cd  Cd3  1  0.23326000  0.34119000  0.71512000  1.0
  H  H4  1  0.76108000  0.57766000  0.13570000  1.0
  H  H5  1  0.23892000  0.42234000  0.86430000  1.0
  H  H6  1  0.81764000  0.85615000  0.16764000  1.0
  H  H7  1  0.18237000  0.14386000  0.83236000  1.0
  H  H8  1  0.84451000  0.91271000  0.03413000  1.0
  H  H9  1  0.15550000  0.08729000  0.96586000  1.0
  H  H10  1  0.82795000  0.79352000  0.94615000  1.0
  H  H11  1  0.17205000  0.20647000  0.05384000  1.0
  H  H12  1  0.69922000  0.36228000  0.85224000  1.0
  H  H13  1  0.30079000  0.63772000  0.14776000  1.0
  H  H14  1  0.67085000  0.18434000  0.87562000  1.0
  H  H15  1  0.32915000  0.81566000  0.12438000  1.0
  H  H16  1  0.67506000  0.09744000  0.00389000  1.0
  H  H17  1  0.32493000  0.90256000  0.99612000  1.0
  H  H18  1  0.73412000  0.34746000  0.08515000  1.0
  H  H19  1  0.26588000  0.65255000  0.91485000  1.0
  H  H20  1  0.75691000  0.21680000  0.32228000  1.0
  H  H21  1  0.24308000  0.78320000  0.67773000  1.0
  H  H22  1  0.75042000  0.93312000  0.28552000  1.0
  H  H23  1  0.24960000  0.06687000  0.71448000  1.0
  H  H24  1  0.77370000  0.86803000  0.41667000  1.0
  H  H25  1  0.22634000  0.13197000  0.58333000  1.0
  H  H26  1  0.77992000  0.98661000  0.50664000  1.0
  H  H27  1  0.22010000  0.01339000  0.49335000  1.0
  H  H28  1  0.76392000  0.43851000  0.60797000  1.0
  H  H29  1  0.23607000  0.56149000  0.39203000  1.0
  H  H30  1  0.75389000  0.62053000  0.58643000  1.0
  H  H31  1  0.24609000  0.37947000  0.41357000  1.0
  H  H32  1  0.74422000  0.70800000  0.45668000  1.0
  H  H33  1  0.25577000  0.29199000  0.54331000  1.0
  H  H34  1  0.74162000  0.45013000  0.37495000  1.0
  H  H35  1  0.25840000  0.54986000  0.62505000  1.0
  C  C36  1  0.78014000  0.65098000  0.11062000  1.0
  C  C37  1  0.21987000  0.34902000  0.88937000  1.0
  C  C38  1  0.81096000  0.80632000  0.12877000  1.0
  C  C39  1  0.18905000  0.19368000  0.87122000  1.0
  C  C40  1  0.82555000  0.83779000  0.05358000  1.0
  C  C41  1  0.17446000  0.16221000  0.94642000  1.0
  C  C42  1  0.81609000  0.77269000  0.00535000  1.0
  C  C43  1  0.18392000  0.22731000  0.99465000  1.0
  C  C44  1  0.79171000  0.67696000  0.03452000  1.0
  C  C45  1  0.20831000  0.32304000  0.96548000  1.0
  C  C46  1  0.77183000  0.60769000  0.98696000  1.0
  C  C47  1  0.22818000  0.39230000  0.01304000  1.0
  C  C48  1  0.73520000  0.47108000  0.95720000  1.0
  C  C49  1  0.26481000  0.52892000  0.04280000  1.0
  C  C50  1  0.71791000  0.36869000  0.96725000  1.0
  C  C51  1  0.28210000  0.63130000  0.03275000  1.0
  C  C52  1  0.70041000  0.32186000  0.90736000  1.0
  C  C53  1  0.29960000  0.67814000  0.09264000  1.0
  C  C54  1  0.68439000  0.22343000  0.92045000  1.0
  C  C55  1  0.31562000  0.77656000  0.07955000  1.0
  C  C56  1  0.68722000  0.17470000  0.99197000  1.0
  C  C57  1  0.31278000  0.82530000  0.00803000  1.0
  C  C58  1  0.71978000  0.31421000  0.03728000  1.0
  C  C59  1  0.28022000  0.68580000  0.96271000  1.0
  C  C60  1  0.76013000  0.14030000  0.34567000  1.0
  C  C61  1  0.23986000  0.85970000  0.65432000  1.0
  C  C62  1  0.75882000  0.98192000  0.32488000  1.0
  C  C63  1  0.24119000  0.01809000  0.67512000  1.0
  C  C64  1  0.76911000  0.94618000  0.39910000  1.0
  C  C65  1  0.23091000  0.05382000  0.60090000  1.0
  C  C66  1  0.77307000  0.01103000  0.44819000  1.0
  C  C67  1  0.22695000  0.98897000  0.55181000  1.0
  C  C68  1  0.76704000  0.11109000  0.42109000  1.0
  C  C69  1  0.23297000  0.88891000  0.57892000  1.0
  C  C70  1  0.76791000  0.18291000  0.46951000  1.0
  C  C71  1  0.23209000  0.81708000  0.53049000  1.0
  C  C72  1  0.75946000  0.32490000  0.50160000  1.0
  C  C73  1  0.24055000  0.67509000  0.49841000  1.0
  C  C74  1  0.75212000  0.43034000  0.49288000  1.0
  C  C75  1  0.24788000  0.56966000  0.50712000  1.0
  C  C76  1  0.75667000  0.47939000  0.55310000  1.0
  C  C77  1  0.24332000  0.52061000  0.44690000  1.0
  C  C78  1  0.75264000  0.58041000  0.54068000  1.0
  C  C79  1  0.24735000  0.41958000  0.45932000  1.0
  C  C80  1  0.74616000  0.62908000  0.46917000  1.0
  C  C81  1  0.25384000  0.37092000  0.53083000  1.0
  C  C82  1  0.74442000  0.48536000  0.42306000  1.0
  C  C83  1  0.25559000  0.51463000  0.57693000  1.0
  C  C84  1  0.49173000  0.49926000  0.26913000  1.0
  C  C85  1  0.50828000  0.50075000  0.73086000  1.0
  C  C86  1  0.49266000  0.34333000  0.24345000  1.0
  C  C87  1  0.50732000  0.65668000  0.75655000  1.0
  C  C88  1  0.00369000  0.28342000  0.21522000  1.0
  C  C89  1  0.99630000  0.71658000  0.78479000  1.0
  C  C90  1  0.00455000  0.43054000  0.25741000  1.0
  C  C91  1  0.99546000  0.56947000  0.74260000  1.0
  C  C92  1  0.40414000  0.81146000  0.29085000  1.0
  C  C93  1  0.59588000  0.18855000  0.70914000  1.0
  C  C94  1  0.11511000  0.78415000  0.28416000  1.0
  C  C95  1  0.88489000  0.21587000  0.71584000  1.0
  C  C96  1  0.11771000  0.01050000  0.12111000  1.0
  C  C97  1  0.88225000  0.98951000  0.87889000  1.0
  C  C98  1  0.41155000  0.02331000  0.13923000  1.0
  C  C99  1  0.58842000  0.97670000  0.86077000  1.0
  N  N100  1  0.78922000  0.71449000  0.15647000  1.0
  N  N101  1  0.21079000  0.28552000  0.84353000  1.0
  N  N102  1  0.75396000  0.62263000  0.91653000  1.0
  N  N103  1  0.24604000  0.37737000  0.08347000  1.0
  N  N104  1  0.72962000  0.53447000  0.89734000  1.0
  N  N105  1  0.27038000  0.46553000  0.10266000  1.0
  N  N106  1  0.70527000  0.21930000  0.04917000  1.0
  N  N107  1  0.29473000  0.78070000  0.95084000  1.0
  N  N108  1  0.75598000  0.07711000  0.29898000  1.0
  N  N109  1  0.24402000  0.92289000  0.70102000  1.0
  N  N110  1  0.78144000  0.16912000  0.54030000  1.0
  N  N111  1  0.21857000  0.83087000  0.45970000  1.0
  N  N112  1  0.77573000  0.26089000  0.56091000  1.0
  N  N113  1  0.22429000  0.73910000  0.43910000  1.0
  N  N114  1  0.74284000  0.58220000  0.41149000  1.0
  N  N115  1  0.25717000  0.41779000  0.58851000  1.0
  N  N116  1  0.52506000  0.57951000  0.26247000  1.0
  N  N117  1  0.47496000  0.42050000  0.73752000  1.0
  N  N118  1  0.44581000  0.41386000  0.28358000  1.0
  N  N119  1  0.55419000  0.58615000  0.71642000  1.0
  N  N120  1  0.52813000  0.27368000  0.21229000  1.0
  N  N121  1  0.47185000  0.72633000  0.78772000  1.0
  N  N122  1  0.96951000  0.22753000  0.17940000  1.0
  N  N123  1  0.03046000  0.77248000  0.82061000  1.0
  N  N124  1  0.04724000  0.33623000  0.25924000  1.0
  N  N125  1  0.95276000  0.66378000  0.74077000  1.0
  N  N126  1  0.97329000  0.51555000  0.26249000  1.0
  N  N127  1  0.02673000  0.48446000  0.73750000  1.0
  N  N128  1  0.55357000  0.79786000  0.31080000  1.0
  N  N129  1  0.44641000  0.20214000  0.68919000  1.0
  N  N130  1  0.24623000  0.83308000  0.26432000  1.0
  N  N131  1  0.75375000  0.16692000  0.73568000  1.0
  N  N132  1  0.98660000  0.74551000  0.29785000  1.0
  N  N133  1  0.01338000  0.25450000  0.70215000  1.0
  N  N134  1  0.95789000  0.01140000  0.13186000  1.0
  N  N135  1  0.04208000  0.98861000  0.86813000  1.0
  N  N136  1  0.29045000  0.00603000  0.10101000  1.0
  N  N137  1  0.70952000  0.99398000  0.89899000  1.0
  N  N138  1  0.53444000  0.03612000  0.16883000  1.0
  N  N139  1  0.46551000  0.96388000  0.83117000  1.0
  O  O140  1  0.76171000  0.51243000  0.01686000  1.0
  O  O141  1  0.23831000  0.48757000  0.98314000  1.0
  O  O142  1  0.75316000  0.28061000  0.44090000  1.0
  O  O143  1  0.24684000  0.71939000  0.55910000  1.0
