# generated using pymatgen
data_CdH12C18(N2O3)2
_symmetry_space_group_name_H-M   'P 1'
_cell_length_a   8.38662000
_cell_length_b   8.46901000
_cell_length_c   12.89780000
_cell_angle_alpha   83.63310000
_cell_angle_beta   75.97080000
_cell_angle_gamma   85.39810000
_symmetry_Int_Tables_number   1
_chemical_formula_structural   CdH12C18(N2O3)2
_chemical_formula_sum   'Cd2 H24 C36 N8 O12'
_cell_volume   881.92438560
_cell_formula_units_Z   2
loop_
 _symmetry_equiv_pos_site_id
 _symmetry_equiv_pos_as_xyz
  1  'x, y, z'
loop_
 _atom_site_type_symbol
 _atom_site_label
 _atom_site_symmetry_multiplicity
 _atom_site_fract_x
 _atom_site_fract_y
 _atom_site_fract_z
 _atom_site_occupancy
  Cd  Cd0  1  0.77016000  0.91086000  0.83526000  1.0
  Cd  Cd1  1  0.22984000  0.08914000  0.16474000  1.0
  H  H2  1  0.40758000  0.89656000  0.82081000  1.0
  H  H3  1  0.59242000  0.10344000  0.17919000  1.0
  H  H4  1  0.25475000  0.80657000  0.69849000  1.0
  H  H5  1  0.74525000  0.19343000  0.30151000  1.0
  H  H6  1  0.70945000  0.81437000  0.45216000  1.0
  H  H7  1  0.29055000  0.18563000  0.54784000  1.0
  H  H8  1  0.84485000  0.89419000  0.58684000  1.0
  H  H9  1  0.15515000  0.10582000  0.41316000  1.0
  H  H10  1  0.13952000  0.80102000  0.57557000  1.0
  H  H11  1  0.86048000  0.19899000  0.42442000  1.0
  H  H12  1  0.00127000  0.67157000  0.46176000  1.0
  H  H13  1  0.99873000  0.32844000  0.53824000  1.0
  H  H14  1  0.47332000  0.51846000  0.27083000  1.0
  H  H15  1  0.52668000  0.48154000  0.72917000  1.0
  H  H16  1  0.61184000  0.64042000  0.38725000  1.0
  H  H17  1  0.38816000  0.35958000  0.61276000  1.0
  H  H18  1  0.80882000  0.61211000  0.18819000  1.0
  H  H19  1  0.19118000  0.38789000  0.81182000  1.0
  H  H20  1  0.64820000  0.52356000  0.06399000  1.0
  H  H21  1  0.35180000  0.47644000  0.93601000  1.0
  H  H22  1  0.74560000  0.27385000  0.97509000  1.0
  H  H23  1  0.25440000  0.72615000  0.02492000  1.0
  H  H24  1  0.98890000  0.11601000  0.01863000  1.0
  H  H25  1  0.01110000  0.88399000  0.98137000  1.0
  C  C26  1  0.47002000  0.87305000  0.73905000  1.0
  C  C27  1  0.52998000  0.12695000  0.26095000  1.0
  C  C28  1  0.38554000  0.82418000  0.66923000  1.0
  C  C29  1  0.61446000  0.17582000  0.33077000  1.0
  C  C30  1  0.46917000  0.79418000  0.56427000  1.0
  C  C31  1  0.53083000  0.20582000  0.43573000  1.0
  C  C32  1  0.63734000  0.82495000  0.53382000  1.0
  C  C33  1  0.36265000  0.17506000  0.46618000  1.0
  C  C34  1  0.71433000  0.87161000  0.60821000  1.0
  C  C35  1  0.28567000  0.12839000  0.39180000  1.0
  C  C36  1  0.38627000  0.72829000  0.49149000  1.0
  C  C37  1  0.61373000  0.27171000  0.50852000  1.0
  C  C38  1  0.21344000  0.73619000  0.51052000  1.0
  C  C39  1  0.78656000  0.26382000  0.48947000  1.0
  C  C40  1  0.13506000  0.66535000  0.44604000  1.0
  C  C41  1  0.86494000  0.33466000  0.55395000  1.0
  C  C42  1  0.22760000  0.58448000  0.35909000  1.0
  C  C43  1  0.77239000  0.41553000  0.64091000  1.0
  C  C44  1  0.40080000  0.57875000  0.33849000  1.0
  C  C45  1  0.59920000  0.42125000  0.66151000  1.0
  C  C46  1  0.47803000  0.64922000  0.40378000  1.0
  C  C47  1  0.52197000  0.35078000  0.59622000  1.0
  C  C48  1  0.14634000  0.51292000  0.29376000  1.0
  C  C49  1  0.85366000  0.48708000  0.70623000  1.0
  C  C50  1  0.07136000  0.45541000  0.23826000  1.0
  C  C51  1  0.92864000  0.54459000  0.76174000  1.0
  C  C52  1  0.97801000  0.40643000  0.17075000  1.0
  C  C53  1  0.02199000  0.59357000  0.82925000  1.0
  C  C54  1  0.84123000  0.50127000  0.15050000  1.0
  C  C55  1  0.15877000  0.49873000  0.84950000  1.0
  C  C56  1  0.75467000  0.45269000  0.08129000  1.0
  C  C57  1  0.24534000  0.54731000  0.91871000  1.0
  C  C58  1  0.80774000  0.31349000  0.03155000  1.0
  C  C59  1  0.19226000  0.68651000  0.96845000  1.0
  C  C60  1  0.94309000  0.22501000  0.05589000  1.0
  C  C61  1  0.05692000  0.77499000  0.94411000  1.0
  N  N62  1  0.63351000  0.89211000  0.71023000  1.0
  N  N63  1  0.36649000  0.10789000  0.28977000  1.0
  N  N64  1  0.04174000  0.10782000  0.73977000  1.0
  N  N65  1  0.95826000  0.89219000  0.26023000  1.0
  N  N66  1  0.56586000  0.83468000  0.04391000  1.0
  N  N67  1  0.43414000  0.16532000  0.95609000  1.0
  N  N68  1  0.02551000  0.26765000  0.12481000  1.0
  N  N69  1  0.97449000  0.73235000  0.87519000  1.0
  O  O70  1  0.01406000  0.01315000  0.67678000  1.0
  O  O71  1  0.98593000  0.98685000  0.32322000  1.0
  O  O72  1  0.16264000  0.19212000  0.71455000  1.0
  O  O73  1  0.83736000  0.80788000  0.28545000  1.0
  O  O74  1  0.94029000  0.11449000  0.83240000  1.0
  O  O75  1  0.05971000  0.88551000  0.16760000  1.0
  O  O76  1  0.66889000  0.94579000  0.02235000  1.0
  O  O77  1  0.33111000  0.05421000  0.97766000  1.0
  O  O78  1  0.46846000  0.81674000  0.13380000  1.0
  O  O79  1  0.53154000  0.18326000  0.86620000  1.0
  O  O80  1  0.56662000  0.74535000  0.97028000  1.0
  O  O81  1  0.43338000  0.25465000  0.02972000  1.0
