# generated using pymatgen
data_InCu2H6C14I2(NO4)2
_symmetry_space_group_name_H-M   'P 1'
_cell_length_a   17.18900000
_cell_length_b   17.18640000
_cell_length_c   17.19830000
_cell_angle_alpha   73.44200000
_cell_angle_beta   73.85500000
_cell_angle_gamma   115.91900000
_symmetry_Int_Tables_number   1
_chemical_formula_structural   InCu2H6C14I2(NO4)2
_chemical_formula_sum   'In4 Cu8 H24 C56 I8 N8 O32'
_cell_volume   3873.08263498
_cell_formula_units_Z   4
loop_
 _symmetry_equiv_pos_site_id
 _symmetry_equiv_pos_as_xyz
  1  'x, y, z'
loop_
 _atom_site_type_symbol
 _atom_site_label
 _atom_site_symmetry_multiplicity
 _atom_site_fract_x
 _atom_site_fract_y
 _atom_site_fract_z
 _atom_site_occupancy
  In  In0  1  0.12530000  0.52146000  0.10390000  1.0
  In  In1  1  0.76965000  0.87478000  0.60526000  1.0
  In  In2  1  0.62512000  0.22900000  0.89617000  1.0
  In  In3  1  0.47974000  0.37466000  0.39499000  1.0
  Cu  Cu4  1  0.26263000  0.68689000  0.44636000  1.0
  Cu  Cu5  1  0.29727000  0.73472000  0.56947000  1.0
  Cu  Cu6  1  0.13324000  0.70890000  0.55360000  1.0
  Cu  Cu7  1  0.30431000  0.86661000  0.43057000  1.0
  Cu  Cu8  1  0.11749000  0.06390000  0.92448000  1.0
  Cu  Cu9  1  0.98802000  0.04199000  0.07553000  1.0
  Cu  Cu10  1  0.95263000  0.88287000  0.06234000  1.0
  Cu  Cu11  1  0.94521000  0.01514000  0.93760000  1.0
  H  H12  1  0.20092000  0.63559000  0.31032000  1.0
  H  H13  1  0.48924000  0.79804000  0.56542000  1.0
  H  H14  1  0.94588000  0.51122000  0.68958000  1.0
  H  H15  1  0.36343000  0.05455000  0.43455000  1.0
  H  H16  1  0.30496000  0.11537000  0.93422000  1.0
  H  H17  1  0.04929000  0.23927000  0.06580000  1.0
  H  H18  1  0.76066000  0.69480000  0.19137000  1.0
  H  H19  1  0.88637000  0.95216000  0.80854000  1.0
  H  H20  1  0.30108000  0.45378000  0.26816000  1.0
  H  H21  1  0.42984000  0.69860000  0.84780000  1.0
  H  H22  1  0.72202000  0.56923000  0.73190000  1.0
  H  H23  1  0.54653000  0.27770000  0.15215000  1.0
  H  H24  1  0.52864000  0.29647000  0.65223000  1.0
  H  H25  1  0.94880000  0.18082000  0.34780000  1.0
  H  H26  1  0.81964000  0.47149000  0.23134000  1.0
  H  H27  1  0.70286000  0.05095000  0.76866000  1.0
  H  H28  1  0.34536000  0.57347000  0.45247000  1.0
  H  H29  1  0.20295000  0.65543000  0.76924000  1.0
  H  H30  1  0.02599000  0.79787000  0.54745000  1.0
  H  H31  1  0.42477000  0.97212000  0.23079000  1.0
  H  H32  1  0.22454000  0.17680000  0.72786000  1.0
  H  H33  1  0.90428000  0.95227000  0.27213000  1.0
  H  H34  1  0.04688000  0.77700000  0.04818000  1.0
  H  H35  1  0.82525000  0.09524000  0.95169000  1.0
  C  C36  1  0.23693000  0.59867000  0.32467000  1.0
  C  C37  1  0.43860000  0.76241000  0.63799000  1.0
  C  C38  1  0.92330000  0.56156000  0.67528000  1.0
  C  C39  1  0.40045000  0.07654000  0.36198000  1.0
  C  C40  1  0.32743000  0.15204000  0.86132000  1.0
  C  C41  1  0.01309000  0.18877000  0.13870000  1.0
  C  C42  1  0.81124000  0.67279000  0.17641000  1.0
  C  C43  1  0.84938000  0.98778000  0.82353000  1.0
  C  C44  1  0.24655000  0.54381000  0.28115000  1.0
  C  C45  1  0.47201000  0.75308000  0.70305000  1.0
  C  C46  1  0.82493000  0.52762000  0.71885000  1.0
  C  C47  1  0.45619000  0.17507000  0.29690000  1.0
  C  C48  1  0.42577000  0.20678000  0.79680000  1.0
  C  C49  1  0.00346000  0.22256000  0.20323000  1.0
  C  C50  1  0.77766000  0.57423000  0.21909000  1.0
  C  C51  1  0.79346000  0.99682000  0.78092000  1.0
  C  C52  1  0.29262000  0.49695000  0.30135000  1.0
  C  C53  1  0.40554000  0.70722000  0.79564000  1.0
  C  C54  1  0.79836000  0.59397000  0.69866000  1.0
  C  C55  1  0.50295000  0.20120000  0.20434000  1.0
  C  C56  1  0.45229000  0.25339000  0.70390000  1.0
  C  C57  1  0.95726000  0.15614000  0.29613000  1.0
  C  C58  1  0.84406000  0.54801000  0.19855000  1.0
  C  C59  1  0.74662000  0.04263000  0.80144000  1.0
  C  C60  1  0.32823000  0.50705000  0.36407000  1.0
  C  C61  1  0.30755000  0.67204000  0.82004000  1.0
  C  C62  1  0.87119000  0.69236000  0.63593000  1.0
  C  C63  1  0.49217000  0.12760000  0.17995000  1.0
  C  C64  1  0.37936000  0.24314000  0.67847000  1.0
  C  C65  1  0.92151000  0.05772000  0.32152000  1.0
  C  C66  1  0.94211000  0.62155000  0.13596000  1.0
  C  C67  1  0.75752000  0.07809000  0.86401000  1.0
  C  C68  1  0.31697000  0.56383000  0.40414000  1.0
  C  C69  1  0.27930000  0.68333000  0.75129000  1.0
  C  C70  1  0.96801000  0.72113000  0.59580000  1.0
  C  C71  1  0.43473000  0.03055000  0.24871000  1.0
  C  C72  1  0.28255000  0.18650000  0.74658000  1.0
  C  C73  1  0.93280000  0.02905000  0.25340000  1.0
  C  C74  1  0.97049000  0.71864000  0.09648000  1.0
  C  C75  1  0.81520000  0.06711000  0.90343000  1.0
  C  C76  1  0.20861000  0.53649000  0.21326000  1.0
  C  C77  1  0.57764000  0.79121000  0.67304000  1.0
  C  C78  1  0.74966000  0.42173000  0.78676000  1.0
  C  C79  1  0.46423000  0.25067000  0.32689000  1.0
  C  C80  1  0.50118000  0.21448000  0.82730000  1.0
  C  C81  1  0.04180000  0.32855000  0.17274000  1.0
  C  C82  1  0.67199000  0.49851000  0.28645000  1.0
  C  C83  1  0.78514000  0.95851000  0.71360000  1.0
  C  C84  1  0.38150000  0.46173000  0.38686000  1.0
  C  C85  1  0.23135000  0.61917000  0.91836000  1.0
  C  C86  1  0.84865000  0.76842000  0.61325000  1.0
  C  C87  1  0.53753000  0.14978000  0.08163000  1.0
  C  C88  1  0.40182000  0.28823000  0.57994000  1.0
  C  C89  1  0.86818000  0.98157000  0.42006000  1.0
  C  C90  1  0.01815000  0.59922000  0.11281000  1.0
  C  C91  1  0.71191000  0.13086000  0.88724000  1.0
  I  I92  1  0.44127000  0.81932000  0.40510000  1.0
  I  I93  1  0.15162000  0.55701000  0.62164000  1.0
  I  I94  1  0.22443000  0.84618000  0.59495000  1.0
  I  I95  1  0.17882000  0.77329000  0.37834000  1.0
  I  I96  1  0.02559000  0.93101000  0.87860000  1.0
  I  I97  1  0.80936000  0.90408000  0.12133000  1.0
  I  I98  1  0.09856000  0.97742000  0.09413000  1.0
  I  I99  1  0.07140000  0.19297000  0.90587000  1.0
  N  N100  1  0.27200000  0.60863000  0.38475000  1.0
  N  N101  1  0.34375000  0.72762000  0.66184000  1.0
  N  N102  1  0.99338000  0.65674000  0.61517000  1.0
  N  N103  1  0.38956000  0.00554000  0.33815000  1.0
  N  N104  1  0.25726000  0.14195000  0.83631000  1.0
  N  N105  1  0.97791000  0.09354000  0.16368000  1.0
  N  N106  1  0.90614000  0.74381000  0.11650000  1.0
  N  N107  1  0.86044000  0.02281000  0.88340000  1.0
  O  O108  1  0.15626000  0.57062000  0.20585000  1.0
  O  O109  1  0.63707000  0.84362000  0.58655000  1.0
  O  O110  1  0.77631000  0.36190000  0.79419000  1.0
  O  O111  1  0.43004000  0.22354000  0.41340000  1.0
  O  O112  1  0.47433000  0.17975000  0.91382000  1.0
  O  O113  1  0.09364000  0.38827000  0.08621000  1.0
  O  O114  1  0.61264000  0.52573000  0.29383000  1.0
  O  O115  1  0.81964000  0.90644000  0.70633000  1.0
  O  O116  1  0.22868000  0.49728000  0.16607000  1.0
  O  O117  1  0.60490000  0.77136000  0.73253000  1.0
  O  O118  1  0.66325000  0.39461000  0.83394000  1.0
  O  O119  1  0.50386000  0.33745000  0.26739000  1.0
  O  O120  1  0.58775000  0.25455000  0.76792000  1.0
  O  O121  1  0.02255000  0.35575000  0.23211000  1.0
  O  O122  1  0.64461000  0.41159000  0.33311000  1.0
  O  O123  1  0.74499000  0.97788000  0.66688000  1.0
  O  O124  1  0.38184000  0.40305000  0.35388000  1.0
  O  O125  1  0.26371000  0.61858000  0.97780000  1.0
  O  O126  1  0.75700000  0.73579000  0.64631000  1.0
  O  O127  1  0.59640000  0.24162000  0.02219000  1.0
  O  O128  1  0.49341000  0.34683000  0.52085000  1.0
  O  O129  1  0.86762000  0.01405000  0.47917000  1.0
  O  O130  1  0.98587000  0.50744000  0.14573000  1.0
  O  O131  1  0.65297000  0.13134000  0.85442000  1.0
  O  O132  1  0.42417000  0.48327000  0.43337000  1.0
  O  O133  1  0.14246000  0.57717000  0.93885000  1.0
  O  O134  1  0.91673000  0.85766000  0.56672000  1.0
  O  O135  1  0.51592000  0.08140000  0.06111000  1.0
  O  O136  1  0.33370000  0.26663000  0.55885000  1.0
  O  O137  1  0.82563000  0.89235000  0.44110000  1.0
  O  O138  1  0.10715000  0.66757000  0.06597000  1.0
  O  O139  1  0.73339000  0.17303000  0.93405000  1.0
