# generated using pymatgen
data_TiH28C11NO4
_symmetry_space_group_name_H-M   'P 1'
_cell_length_a   8.78265000
_cell_length_b   8.92796000
_cell_length_c   11.37600000
_cell_angle_alpha   100.85800000
_cell_angle_beta   101.64200000
_cell_angle_gamma   115.20900000
_symmetry_Int_Tables_number   1
_chemical_formula_structural   TiH28C11NO4
_chemical_formula_sum   'Ti2 H56 C22 N2 O8'
_cell_volume   751.61829370
_cell_formula_units_Z   2
loop_
 _symmetry_equiv_pos_site_id
 _symmetry_equiv_pos_as_xyz
  1  'x, y, z'
loop_
 _atom_site_type_symbol
 _atom_site_label
 _atom_site_symmetry_multiplicity
 _atom_site_fract_x
 _atom_site_fract_y
 _atom_site_fract_z
 _atom_site_occupancy
  Ti  Ti0  1  0.67725000  0.65541000  0.61631000  1.0
  Ti  Ti1  1  0.32275000  0.34459000  0.38369000  1.0
  H  H2  1  0.70279000  0.42526000  0.42632000  1.0
  H  H3  1  0.29721000  0.57474000  0.57368000  1.0
  H  H4  1  0.83112000  0.62977000  0.43761000  1.0
  H  H5  1  0.16888000  0.37023000  0.56239000  1.0
  H  H6  1  0.93207000  0.45455000  0.60955000  1.0
  H  H7  1  0.06793000  0.54545000  0.39045000  1.0
  H  H8  1  0.06450000  0.66807000  0.60783000  1.0
  H  H9  1  0.93551000  0.33194000  0.39217000  1.0
  H  H10  1  0.14673000  0.83640000  0.87370000  1.0
  H  H11  1  0.85327000  0.16360000  0.12630000  1.0
  H  H12  1  0.15015000  0.77268000  0.01302000  1.0
  H  H13  1  0.84984000  0.22732000  0.98698000  1.0
  H  H14  1  0.03512000  0.88931000  0.97544000  1.0
  H  H15  1  0.96487000  0.11069000  0.02456000  1.0
  H  H16  1  0.93560000  0.52002000  0.82318000  1.0
  H  H17  1  0.06440000  0.47998000  0.17682000  1.0
  H  H18  1  0.74795000  0.64650000  0.98554000  1.0
  H  H19  1  0.25204000  0.35350000  0.01446000  1.0
  H  H20  1  0.86041000  0.52778000  0.02286000  1.0
  H  H21  1  0.13959000  0.47222000  0.97714000  1.0
  H  H22  1  0.66439000  0.42846000  0.89035000  1.0
  H  H23  1  0.33560000  0.57154000  0.10965000  1.0
  H  H24  1  0.68489000  0.86044000  0.87629000  1.0
  H  H25  1  0.31510000  0.13957000  0.12371000  1.0
  H  H26  1  0.28241000  0.61942000  0.79776000  1.0
  H  H27  1  0.71758000  0.38058000  0.20223000  1.0
  H  H28  1  0.43587000  0.71362000  0.95330000  1.0
  H  H29  1  0.56412000  0.28637000  0.04670000  1.0
  H  H30  1  0.44679000  0.55475000  0.83933000  1.0
  H  H31  1  0.55320000  0.44525000  0.16067000  1.0
  H  H32  1  0.60137000  0.06178000  0.79061000  1.0
  H  H33  1  0.39862000  0.93822000  0.20939000  1.0
  H  H34  1  0.50551000  0.01419000  0.91160000  1.0
  H  H35  1  0.49448000  0.98581000  0.08840000  1.0
  H  H36  1  0.37303000  0.90960000  0.74984000  1.0
  H  H37  1  0.62697000  0.09040000  0.25015000  1.0
  H  H38  1  0.41268000  0.78184000  0.47680000  1.0
  H  H39  1  0.58732000  0.21816000  0.52320000  1.0
  H  H40  1  0.38989000  0.69348000  0.31525000  1.0
  H  H41  1  0.61011000  0.30652000  0.68475000  1.0
  H  H42  1  0.60255000  0.85458000  0.42554000  1.0
  H  H43  1  0.39745000  0.14542000  0.57445000  1.0
  H  H44  1  0.19252000  0.01705000  0.74375000  1.0
  H  H45  1  0.80749000  0.98295000  0.25625000  1.0
  H  H46  1  0.22036000  0.23134000  0.78886000  1.0
  H  H47  1  0.77964000  0.76866000  0.21114000  1.0
  H  H48  1  0.16696000  0.11896000  0.62619000  1.0
  H  H49  1  0.83304000  0.88104000  0.37381000  1.0
  H  H50  1  0.92454000  0.01171000  0.78917000  1.0
  H  H51  1  0.07547000  0.98828000  0.21083000  1.0
  H  H52  1  0.89641000  0.16400000  0.57057000  1.0
  H  H53  1  0.10359000  0.83600000  0.42944000  1.0
  H  H54  1  0.94168000  0.27316000  0.73283000  1.0
  H  H55  1  0.05833000  0.72684000  0.26717000  1.0
  H  H56  1  0.73172000  0.08647000  0.64536000  1.0
  H  H57  1  0.26829000  0.91353000  0.35465000  1.0
  C  C58  1  0.96322000  0.53574000  0.54715000  1.0
  C  C59  1  0.03678000  0.46426000  0.45285000  1.0
  C  C60  1  0.06829000  0.78949000  0.93540000  1.0
  C  C61  1  0.93171000  0.21051000  0.06460000  1.0
  C  C62  1  0.89866000  0.61887000  0.86156000  1.0
  C  C63  1  0.10134000  0.38113000  0.13845000  1.0
  C  C64  1  0.78603000  0.55110000  0.94497000  1.0
  C  C65  1  0.21397000  0.44890000  0.05503000  1.0
  C  C66  1  0.54886000  0.80910000  0.81203000  1.0
  C  C67  1  0.45114000  0.19090000  0.18797000  1.0
  C  C68  1  0.42085000  0.66561000  0.85312000  1.0
  C  C69  1  0.57914000  0.33439000  0.14688000  1.0
  C  C70  1  0.50521000  0.95786000  0.81696000  1.0
  C  C71  1  0.49479000  0.04214000  0.18304000  1.0
  C  C72  1  0.47661000  0.74002000  0.41324000  1.0
  C  C73  1  0.52338000  0.25998000  0.58676000  1.0
  C  C74  1  0.14359000  0.10355000  0.71560000  1.0
  C  C75  1  0.85641000  0.89644000  0.28440000  1.0
  C  C76  1  0.94579000  0.02700000  0.69837000  1.0
  C  C77  1  0.05422000  0.97300000  0.30163000  1.0
  C  C78  1  0.87468000  0.14537000  0.65986000  1.0
  C  C79  1  0.12532000  0.85463000  0.34015000  1.0
  N  N80  1  0.80323000  0.54365000  0.48818000  1.0
  N  N81  1  0.19677000  0.45635000  0.51182000  1.0
  O  O82  1  0.50937000  0.60678000  0.44204000  1.0
  O  O83  1  0.49064000  0.39322000  0.55796000  1.0
  O  O84  1  0.80092000  0.64147000  0.75890000  1.0
  O  O85  1  0.19908000  0.35853000  0.24110000  1.0
  O  O86  1  0.54235000  0.74047000  0.68705000  1.0
  O  O87  1  0.45766000  0.25953000  0.31296000  1.0
  O  O88  1  0.85187000  0.86188000  0.60405000  1.0
  O  O89  1  0.14813000  0.13811000  0.39595000  1.0
