# generated using pymatgen
data_CdH13C18N3O4
_symmetry_space_group_name_H-M   'P 1'
_cell_length_a   11.80580000
_cell_length_b   14.37450000
_cell_length_c   17.49070000
_cell_angle_alpha   89.99990000
_cell_angle_beta   90.00000000
_cell_angle_gamma   90.00000000
_symmetry_Int_Tables_number   1
_chemical_formula_structural   CdH13C18N3O4
_chemical_formula_sum   'Cd4 H52 C72 N12 O16'
_cell_volume   2968.21502875
_cell_formula_units_Z   4
loop_
 _symmetry_equiv_pos_site_id
 _symmetry_equiv_pos_as_xyz
  1  'x, y, z'
loop_
 _atom_site_type_symbol
 _atom_site_label
 _atom_site_symmetry_multiplicity
 _atom_site_fract_x
 _atom_site_fract_y
 _atom_site_fract_z
 _atom_site_occupancy
  Cd  Cd0  1  0.00000000  0.36288000  0.01668000  1.0
  Cd  Cd1  1  0.00000000  0.63712000  0.98332000  1.0
  Cd  Cd2  1  0.00000000  0.86289000  0.48332000  1.0
  Cd  Cd3  1  0.00000000  0.13712000  0.51668000  1.0
  H  H4  1  0.00000000  0.40102000  0.21270000  1.0
  H  H5  1  0.00000000  0.59898000  0.78730000  1.0
  H  H6  1  0.00000000  0.90102000  0.28730000  1.0
  H  H7  1  0.00000000  0.09898000  0.71270000  1.0
  H  H8  1  0.20445000  0.40029000  0.13554000  1.0
  H  H9  1  0.20445000  0.59971000  0.86446000  1.0
  H  H10  1  0.79554000  0.90029000  0.36446000  1.0
  H  H11  1  0.79555000  0.09971000  0.63554000  1.0
  H  H12  1  0.79555000  0.59971000  0.86446000  1.0
  H  H13  1  0.79555000  0.40029000  0.13555000  1.0
  H  H14  1  0.20445000  0.09971000  0.63554000  1.0
  H  H15  1  0.20445000  0.90029000  0.36445000  1.0
  H  H16  1  0.00000000  0.51481000  0.44196000  1.0
  H  H17  1  0.00000000  0.48519000  0.55804000  1.0
  H  H18  1  0.00000000  0.01481000  0.05804000  1.0
  H  H19  1  0.00000000  0.98519000  0.94196000  1.0
  H  H20  1  0.00000000  0.69839000  0.24891000  1.0
  H  H21  1  0.00000000  0.30161000  0.75109000  1.0
  H  H22  1  0.00000000  0.19839000  0.25109000  1.0
  H  H23  1  0.00000000  0.80161000  0.74891000  1.0
  H  H24  1  0.41734000  0.34225000  0.89953000  1.0
  H  H25  1  0.41734000  0.65775000  0.10047000  1.0
  H  H26  1  0.58266000  0.84225000  0.60047000  1.0
  H  H27  1  0.58266000  0.15775000  0.39953000  1.0
  H  H28  1  0.58266000  0.65775000  0.10047000  1.0
  H  H29  1  0.58266000  0.34225000  0.89953000  1.0
  H  H30  1  0.41734000  0.15775000  0.39953000  1.0
  H  H31  1  0.41734000  0.84225000  0.60047000  1.0
  H  H32  1  0.20786000  0.34404000  0.90382000  1.0
  H  H33  1  0.20786000  0.65596000  0.09618000  1.0
  H  H34  1  0.79213000  0.84404000  0.59618000  1.0
  H  H35  1  0.79213000  0.15596000  0.40382000  1.0
  H  H36  1  0.79213000  0.65596000  0.09618000  1.0
  H  H37  1  0.79213000  0.34404000  0.90382000  1.0
  H  H38  1  0.20786000  0.15596000  0.40382000  1.0
  H  H39  1  0.20786000  0.84404000  0.59618000  1.0
  H  H40  1  0.41434000  0.39997000  0.14281000  1.0
  H  H41  1  0.41434000  0.60003000  0.85719000  1.0
  H  H42  1  0.58565000  0.89997000  0.35719000  1.0
  H  H43  1  0.58565000  0.10003000  0.64281000  1.0
  H  H44  1  0.58565000  0.60003000  0.85719000  1.0
  H  H45  1  0.58565000  0.39997000  0.14281000  1.0
  H  H46  1  0.41435000  0.10003000  0.64281000  1.0
  H  H47  1  0.41435000  0.89997000  0.35719000  1.0
  H  H48  1  0.00000000  0.34971000  0.42064000  1.0
  H  H49  1  0.00000000  0.65029000  0.57936000  1.0
  H  H50  1  0.00000000  0.84971000  0.07937000  1.0
  H  H51  1  0.00000000  0.15029000  0.92063000  1.0
  H  H52  1  0.00000000  0.30029000  0.33080000  1.0
  H  H53  1  0.00000000  0.69971000  0.66920000  1.0
  H  H54  1  0.00000000  0.80029000  0.16920000  1.0
  H  H55  1  0.00000000  0.19971000  0.83080000  1.0
  C  C56  1  0.00000000  0.56857000  0.13787000  1.0
  C  C57  1  0.00000000  0.43143000  0.86213000  1.0
  C  C58  1  0.00000000  0.06857000  0.36213000  1.0
  C  C59  1  0.00000000  0.93143000  0.63787000  1.0
  C  C60  1  0.00000000  0.55115000  0.22212000  1.0
  C  C61  1  0.00000000  0.44885000  0.77788000  1.0
  C  C62  1  0.00000000  0.05115000  0.27788000  1.0
  C  C63  1  0.00000000  0.94885000  0.72212000  1.0
  C  C64  1  0.00000000  0.61434000  0.35039000  1.0
  C  C65  1  0.00000000  0.38566000  0.64961000  1.0
  C  C66  1  0.00000000  0.11434000  0.14961000  1.0
  C  C67  1  0.00000000  0.88566000  0.85039000  1.0
  C  C68  1  0.00000000  0.44565000  0.33164000  1.0
  C  C69  1  0.00000000  0.55435000  0.66836000  1.0
  C  C70  1  0.00000000  0.94565000  0.16836000  1.0
  C  C71  1  0.00000000  0.05435000  0.83164000  1.0
  C  C72  1  0.00000000  0.69759000  0.40196000  1.0
  C  C73  1  0.00000000  0.30241000  0.59804000  1.0
  C  C74  1  0.00000000  0.19759000  0.09804000  1.0
  C  C75  1  0.00000000  0.80241000  0.90196000  1.0
  C  C76  1  0.00000000  0.46045000  0.25158000  1.0
  C  C77  1  0.00000000  0.53955000  0.74842000  1.0
  C  C78  1  0.00000000  0.96045000  0.24842000  1.0
  C  C79  1  0.00000000  0.03955000  0.75158000  1.0
  C  C80  1  0.25590000  0.38779000  0.08469000  1.0
  C  C81  1  0.25590000  0.61221000  0.91531000  1.0
  C  C82  1  0.74410000  0.88779000  0.41531000  1.0
  C  C83  1  0.74410000  0.11222000  0.58469000  1.0
  C  C84  1  0.74410000  0.61221000  0.91531000  1.0
  C  C85  1  0.74410000  0.38779000  0.08469000  1.0
  C  C86  1  0.25590000  0.11221000  0.58469000  1.0
  C  C87  1  0.25590000  0.88779000  0.41531000  1.0
  C  C88  1  0.00000000  0.52444000  0.38018000  1.0
  C  C89  1  0.00000000  0.47556000  0.61982000  1.0
  C  C90  1  0.00000000  0.02443000  0.11982000  1.0
  C  C91  1  0.00000000  0.97556000  0.88018000  1.0
  C  C92  1  0.00000000  0.62802000  0.27125000  1.0
  C  C93  1  0.00000000  0.37198000  0.72875000  1.0
  C  C94  1  0.00000000  0.12802000  0.22875000  1.0
  C  C95  1  0.00000000  0.87198000  0.77125000  1.0
  C  C96  1  0.37549000  0.35552000  0.95385000  1.0
  C  C97  1  0.37549000  0.64448000  0.04615000  1.0
  C  C98  1  0.62451000  0.85552000  0.54615000  1.0
  C  C99  1  0.62452000  0.14448000  0.45385000  1.0
  C  C100  1  0.62451000  0.64448000  0.04615000  1.0
  C  C101  1  0.62451000  0.35552000  0.95385000  1.0
  C  C102  1  0.37548000  0.14448000  0.45385000  1.0
  C  C103  1  0.37549000  0.85552000  0.54615000  1.0
  C  C104  1  0.25789000  0.35671000  0.95530000  1.0
  C  C105  1  0.25789000  0.64329000  0.04470000  1.0
  C  C106  1  0.74210000  0.85671000  0.54470000  1.0
  C  C107  1  0.74210000  0.14329000  0.45530000  1.0
  C  C108  1  0.74210000  0.64329000  0.04470000  1.0
  C  C109  1  0.74210000  0.35671000  0.95529000  1.0
  C  C110  1  0.25789000  0.14329000  0.45530000  1.0
  C  C111  1  0.25789000  0.85671000  0.54470000  1.0
  C  C112  1  0.43721000  0.37124000  0.02127000  1.0
  C  C113  1  0.43721000  0.62876000  0.97873000  1.0
  C  C114  1  0.56279000  0.87125000  0.47873000  1.0
  C  C115  1  0.56279000  0.12875000  0.52127000  1.0
  C  C116  1  0.56279000  0.62875000  0.97873000  1.0
  C  C117  1  0.56279000  0.37125000  0.02127000  1.0
  C  C118  1  0.43721000  0.12875000  0.52127000  1.0
  C  C119  1  0.43721000  0.87124000  0.47873000  1.0
  C  C120  1  0.37368000  0.38738000  0.08791000  1.0
  C  C121  1  0.37368000  0.61262000  0.91209000  1.0
  C  C122  1  0.62631000  0.88738000  0.41209000  1.0
  C  C123  1  0.62632000  0.11262000  0.58791000  1.0
  C  C124  1  0.62632000  0.61262000  0.91209000  1.0
  C  C125  1  0.62632000  0.38738000  0.08791000  1.0
  C  C126  1  0.37368000  0.11262000  0.58791000  1.0
  C  C127  1  0.37368000  0.88738000  0.41209000  1.0
  N  N128  1  0.19877000  0.37291000  0.01945000  1.0
  N  N129  1  0.19877000  0.62709000  0.98055000  1.0
  N  N130  1  0.80123000  0.87291000  0.48055000  1.0
  N  N131  1  0.80123000  0.12709000  0.51945000  1.0
  N  N132  1  0.80124000  0.62709000  0.98055000  1.0
  N  N133  1  0.80124000  0.37291000  0.01945000  1.0
  N  N134  1  0.19877000  0.12709000  0.51945000  1.0
  N  N135  1  0.19876000  0.87291000  0.48055000  1.0
  N  N136  1  0.00000000  0.35880000  0.36285000  1.0
  N  N137  1  0.00000000  0.64120000  0.63715000  1.0
  N  N138  1  0.00000000  0.85880000  0.13715000  1.0
  N  N139  1  0.00000000  0.14120000  0.86285000  1.0
  O  O140  1  0.00000000  0.50157000  0.09020000  1.0
  O  O141  1  0.00000000  0.49843000  0.90980000  1.0
  O  O142  1  0.00000000  0.00157000  0.40980000  1.0
  O  O143  1  0.00000000  0.99843000  0.59020000  1.0
  O  O144  1  0.00000000  0.65356000  0.11503000  1.0
  O  O145  1  0.00000000  0.34644000  0.88497000  1.0
  O  O146  1  0.00000000  0.15356000  0.38497000  1.0
  O  O147  1  0.00000000  0.84644000  0.61503000  1.0
  O  O148  1  0.00000000  0.77841000  0.37042000  1.0
  O  O149  1  0.00000000  0.22159000  0.62958000  1.0
  O  O150  1  0.00000000  0.27842000  0.12958000  1.0
  O  O151  1  0.00000000  0.72158000  0.87042000  1.0
  O  O152  1  0.00000000  0.68743000  0.47421000  1.0
  O  O153  1  0.00000000  0.31257000  0.52579000  1.0
  O  O154  1  0.00000000  0.18743000  0.02579000  1.0
  O  O155  1  0.00000000  0.81257000  0.97421000  1.0
