# generated using pymatgen
data_AgH3C5SBrNO3
_symmetry_space_group_name_H-M   'P 1'
_cell_length_a   5.18015000
_cell_length_b   9.97158000
_cell_length_c   15.90801337
_cell_angle_alpha   107.96665071
_cell_angle_beta   90.00578853
_cell_angle_gamma   104.99020000
_symmetry_Int_Tables_number   1
_chemical_formula_structural   AgH3C5SBrNO3
_chemical_formula_sum   'Ag4 H12 C20 S4 Br4 N4 O12'
_cell_volume   752.18861507
_cell_formula_units_Z   4
loop_
 _symmetry_equiv_pos_site_id
 _symmetry_equiv_pos_as_xyz
  1  'x, y, z'
loop_
 _atom_site_type_symbol
 _atom_site_label
 _atom_site_symmetry_multiplicity
 _atom_site_fract_x
 _atom_site_fract_y
 _atom_site_fract_z
 _atom_site_occupancy
  Ag  Ag0  1  0.53113000  0.65455000  0.01139000  1.0
  Ag  Ag1  1  0.87691000  0.34485000  0.48833000  1.0
  Ag  Ag2  1  0.46887000  0.34545000  0.98861000  1.0
  Ag  Ag3  1  0.12307000  0.65515000  0.51167000  1.0
  H  H4  1  0.40427000  0.58912000  0.80684000  1.0
  H  H5  1  0.81429000  0.41075000  0.69309000  1.0
  H  H6  1  0.59574000  0.41087000  0.19316000  1.0
  H  H7  1  0.18570000  0.58923000  0.30690000  1.0
  H  H8  1  0.06711000  0.85518000  0.71385000  1.0
  H  H9  1  0.21144000  0.14450000  0.78634000  1.0
  H  H10  1  0.93289000  0.14482000  0.28615000  1.0
  H  H11  1  0.78856000  0.85550000  0.21366000  1.0
  H  H12  1  0.05469000  0.85355000  0.98574000  1.0
  H  H13  1  0.20167000  0.14614000  0.51450000  1.0
  H  H14  1  0.94533000  0.14646000  0.01426000  1.0
  H  H15  1  0.79830000  0.85386000  0.48550000  1.0
  C  C16  1  0.60026000  0.66818000  0.81710000  1.0
  C  C17  1  0.93101000  0.33144000  0.68288000  1.0
  C  C18  1  0.39975000  0.33182000  0.18290000  1.0
  C  C19  1  0.06898000  0.66856000  0.31712000  1.0
  C  C20  1  0.72096000  0.71552000  0.74906000  1.0
  C  C21  1  0.00406000  0.28399000  0.75094000  1.0
  C  C22  1  0.27905000  0.28448000  0.25094000  1.0
  C  C23  1  0.99593000  0.71601000  0.24906000  1.0
  C  C24  1  0.97073000  0.81845000  0.76657000  1.0
  C  C25  1  0.15135000  0.18103000  0.73355000  1.0
  C  C26  1  0.02928000  0.18155000  0.23343000  1.0
  C  C27  1  0.84865000  0.81897000  0.26645000  1.0
  C  C28  1  0.09201000  0.86933000  0.85271000  1.0
  C  C29  1  0.22217000  0.13005000  0.64747000  1.0
  C  C30  1  0.90800000  0.13067000  0.14729000  1.0
  C  C31  1  0.77782000  0.86995000  0.35253000  1.0
  C  C32  1  0.96349000  0.81805000  0.91812000  1.0
  C  C33  1  0.14541000  0.18158000  0.58206000  1.0
  C  C34  1  0.03652000  0.18195000  0.08188000  1.0
  C  C35  1  0.85458000  0.81842000  0.41794000  1.0
  S  S36  1  0.57171000  0.64058000  0.63705000  1.0
  S  S37  1  0.93071000  0.35953000  0.86299000  1.0
  S  S38  1  0.42829000  0.35943000  0.36295000  1.0
  S  S39  1  0.06929000  0.64047000  0.13701000  1.0
  Br  Br40  1  0.43432000  0.00875000  0.88049000  1.0
  Br  Br41  1  0.42566000  0.99062000  0.61970000  1.0
  Br  Br42  1  0.56571000  0.99125000  0.11951000  1.0
  Br  Br43  1  0.57432000  0.00937000  0.38030000  1.0
  N  N44  1  0.72067000  0.72001000  0.89999000  1.0
  N  N45  1  0.00039000  0.27967000  0.60005000  1.0
  N  N46  1  0.27934000  0.28000000  0.10002000  1.0
  N  N47  1  0.99960000  0.72032000  0.39995000  1.0
  O  O48  1  0.71775000  0.74189000  0.59198000  1.0
  O  O49  1  0.97557000  0.25833000  0.90820000  1.0
  O  O50  1  0.28224000  0.25813000  0.40803000  1.0
  O  O51  1  0.02443000  0.74167000  0.09180000  1.0
  O  O52  1  0.60737000  0.49298000  0.60470000  1.0
  O  O53  1  0.11466000  0.50684000  0.89490000  1.0
  O  O54  1  0.39264000  0.50704000  0.39530000  1.0
  O  O55  1  0.88534000  0.49316000  0.10510000  1.0
  O  O56  1  0.28490000  0.63989000  0.64199000  1.0
  O  O57  1  0.64494000  0.36105000  0.85842000  1.0
  O  O58  1  0.71509000  0.36011000  0.35801000  1.0
  O  O59  1  0.35506000  0.63895000  0.14158000  1.0
