# generated using pymatgen
data_CuH4C6N2Cl
_symmetry_space_group_name_H-M   'P 1'
_cell_length_a   7.31833000
_cell_length_b   7.32502000
_cell_length_c   8.19564000
_cell_angle_alpha   102.98400000
_cell_angle_beta   111.06100000
_cell_angle_gamma   110.16300000
_symmetry_Int_Tables_number   1
_chemical_formula_structural   CuH4C6N2Cl
_chemical_formula_sum   'Cu2 H8 C12 N4 Cl2'
_cell_volume   353.09192300
_cell_formula_units_Z   2
loop_
 _symmetry_equiv_pos_site_id
 _symmetry_equiv_pos_as_xyz
  1  'x, y, z'
loop_
 _atom_site_type_symbol
 _atom_site_label
 _atom_site_symmetry_multiplicity
 _atom_site_fract_x
 _atom_site_fract_y
 _atom_site_fract_z
 _atom_site_occupancy
  Cu  Cu0  1  0.15316000  0.01583000  0.42913000  1.0
  Cu  Cu1  1  0.91315000  0.27591000  0.92917000  1.0
  H  H2  1  0.61996000  0.46989000  0.56256000  1.0
  H  H3  1  0.59205000  0.94167000  0.06191000  1.0
  H  H4  1  0.40999000  0.19624000  0.23011000  1.0
  H  H5  1  0.53426000  0.81956000  0.72955000  1.0
  H  H6  1  0.51412000  0.28425000  0.98339000  1.0
  H  H7  1  0.20008000  0.46931000  0.48300000  1.0
  H  H8  1  0.82357000  0.64025000  0.08534000  1.0
  H  H9  1  0.94566000  0.26183000  0.58506000  1.0
  C  C10  1  0.44068000  0.12705000  0.61691000  1.0
  C  C11  1  0.98958000  0.17681000  0.11762000  1.0
  C  C12  1  0.82967000  0.69507000  0.49445000  1.0
  C  C13  1  0.29892000  0.66425000  0.99404000  1.0
  C  C14  1  0.65960000  0.50120000  0.45264000  1.0
  C  C15  1  0.45118000  0.79234000  0.95212000  1.0
  C  C16  1  0.54436000  0.34889000  0.26699000  1.0
  C  C17  1  0.41847000  0.72202000  0.76656000  1.0
  C  C18  1  0.60107000  0.39677000  0.13086000  1.0
  C  C19  1  0.23477000  0.52960000  0.63055000  1.0
  C  C20  1  0.77365000  0.59438000  0.18635000  1.0
  C  C21  1  0.09242000  0.41258000  0.68612000  1.0
  N  N22  1  0.62670000  0.19936000  0.73412000  1.0
  N  N23  1  0.03453000  0.10793000  0.23480000  1.0
  N  N24  1  0.88972000  0.74331000  0.36700000  1.0
  N  N25  1  0.12357000  0.47695000  0.86669000  1.0
  Cl  Cl26  1  0.97284000  0.88934000  0.72313000  1.0
  Cl  Cl27  1  0.33285000  0.74972000  0.22268000  1.0
