# generated using pymatgen
data_Na2H44PdC44S4(N2O5)2
_symmetry_space_group_name_H-M   'P 1'
_cell_length_a   8.20111000
_cell_length_b   12.70500000
_cell_length_c   12.85270000
_cell_angle_alpha   115.09900000
_cell_angle_beta   105.88600000
_cell_angle_gamma   91.60460000
_symmetry_Int_Tables_number   1
_chemical_formula_structural   Na2H44PdC44S4(N2O5)2
_chemical_formula_sum   'Na2 H44 Pd1 C44 S4 N4 O10'
_cell_volume   1150.34384687
_cell_formula_units_Z   1
loop_
 _symmetry_equiv_pos_site_id
 _symmetry_equiv_pos_as_xyz
  1  'x, y, z'
loop_
 _atom_site_type_symbol
 _atom_site_label
 _atom_site_symmetry_multiplicity
 _atom_site_fract_x
 _atom_site_fract_y
 _atom_site_fract_z
 _atom_site_occupancy
  Na  Na0  1  0.74539000  0.32731000  0.62127000  1.0
  Na  Na1  1  0.25461000  0.67269000  0.37873000  1.0
  H  H2  1  0.37276000  0.08030000  0.19098000  1.0
  H  H3  1  0.62724000  0.91970000  0.80902000  1.0
  H  H4  1  0.37486000  0.92480000  0.99519000  1.0
  H  H5  1  0.62513000  0.07521000  0.00480000  1.0
  H  H6  1  0.48493000  0.74895000  0.87733000  1.0
  H  H7  1  0.51507000  0.25106000  0.12267000  1.0
  H  H8  1  0.70043000  0.66192000  0.98362000  1.0
  H  H9  1  0.29957000  0.33808000  0.01638000  1.0
  H  H10  1  0.79990000  0.74985000  0.20732000  1.0
  H  H11  1  0.20010000  0.25015000  0.79268000  1.0
  H  H12  1  0.78897000  0.90108000  0.40593000  1.0
  H  H13  1  0.21103000  0.09892000  0.59407000  1.0
  H  H14  1  0.93784000  0.06806000  0.59927000  1.0
  H  H15  1  0.06216000  0.93194000  0.40073000  1.0
  H  H16  1  0.77449000  0.97150000  0.59950000  1.0
  H  H17  1  0.22551000  0.02850000  0.40050000  1.0
  H  H18  1  0.71240000  0.13880000  0.76569000  1.0
  H  H19  1  0.28760000  0.86120000  0.23431000  1.0
  H  H20  1  0.93017000  0.11788000  0.80967000  1.0
  H  H21  1  0.06983000  0.88212000  0.19033000  1.0
  H  H22  1  0.97971000  0.42804000  0.90475000  1.0
  H  H23  1  0.02029000  0.57196000  0.09526000  1.0
  H  H24  1  0.94968000  0.32191000  0.95884000  1.0
  H  H25  1  0.05032000  0.67809000  0.04116000  1.0
  H  H26  1  0.62534000  0.30143000  0.86319000  1.0
  H  H27  1  0.37466000  0.69857000  0.13681000  1.0
  H  H28  1  0.72441000  0.44456000  0.98176000  1.0
  H  H29  1  0.27559000  0.55545000  0.01824000  1.0
  H  H30  1  0.46301000  0.50544000  0.86390000  1.0
  H  H31  1  0.53699000  0.49456000  0.13610000  1.0
  H  H32  1  0.40201000  0.36235000  0.73723000  1.0
  H  H33  1  0.59799000  0.63765000  0.26277000  1.0
  H  H34  1  0.34144000  0.53176000  0.68035000  1.0
  H  H35  1  0.65856000  0.46824000  0.31965000  1.0
  H  H36  1  0.56821000  0.58411000  0.74032000  1.0
  H  H37  1  0.43179000  0.41589000  0.25968000  1.0
  H  H38  1  0.26764000  0.41619000  0.45584000  1.0
  H  H39  1  0.73236000  0.58381000  0.54416000  1.0
  H  H40  1  0.25897000  0.32283000  0.52723000  1.0
  H  H41  1  0.74103000  0.67717000  0.47277000  1.0
  H  H42  1  0.26439000  0.21112000  0.31652000  1.0
  H  H43  1  0.73561000  0.78888000  0.68348000  1.0
  H  H44  1  0.46881000  0.29657000  0.35500000  1.0
  H  H45  1  0.53119000  0.70343000  0.64500000  1.0
  Pd  Pd46  1  0.00000000  0.00000000  0.00000000  1.0
  C  C47  1  0.52117000  0.09221000  0.36330000  1.0
  C  C48  1  0.47883000  0.90779000  0.63670000  1.0
  C  C49  1  0.46483000  0.04283000  0.23889000  1.0
  C  C50  1  0.53517000  0.95717000  0.76111000  1.0
  C  C51  1  0.52394000  0.93967000  0.16976000  1.0
  C  C52  1  0.47606000  0.06033000  0.83024000  1.0
  C  C53  1  0.46707000  0.88610000  0.04151000  1.0
  C  C54  1  0.53292000  0.11390000  0.95849000  1.0
  C  C55  1  0.52865000  0.78749000  0.97590000  1.0
  C  C56  1  0.47135000  0.21251000  0.02410000  1.0
  C  C57  1  0.64943000  0.73813000  0.03598000  1.0
  C  C58  1  0.35056000  0.26187000  0.96402000  1.0
  C  C59  1  0.70504000  0.78723000  0.16103000  1.0
  C  C60  1  0.29496000  0.21277000  0.83897000  1.0
  C  C61  1  0.64368000  0.88823000  0.23083000  1.0
  C  C62  1  0.35632000  0.11177000  0.76917000  1.0
  C  C63  1  0.69940000  0.94091000  0.35957000  1.0
  C  C64  1  0.30060000  0.05909000  0.64043000  1.0
  C  C65  1  0.64107000  0.04092000  0.42455000  1.0
  C  C66  1  0.35894000  0.95908000  0.57544000  1.0
  C  C67  1  0.81638000  0.06294000  0.61931000  1.0
  C  C68  1  0.18363000  0.93706000  0.38069000  1.0
  C  C69  1  0.83654000  0.14457000  0.74945000  1.0
  C  C70  1  0.16346000  0.85543000  0.25055000  1.0
  C  C71  1  0.89542000  0.35007000  0.88809000  1.0
  C  C72  1  0.10458000  0.64993000  0.11191000  1.0
  C  C73  1  0.71803000  0.37983000  0.88934000  1.0
  C  C74  1  0.28197000  0.62017000  0.11066000  1.0
  C  C75  1  0.49037000  0.44704000  0.78023000  1.0
  C  C76  1  0.50962000  0.55296000  0.21977000  1.0
  C  C77  1  0.46890000  0.50518000  0.69698000  1.0
  C  C78  1  0.53110000  0.49482000  0.30302000  1.0
  C  C79  1  0.34026000  0.36035000  0.49144000  1.0
  C  C80  1  0.65974000  0.63964000  0.50856000  1.0
  C  C81  1  0.38347000  0.26220000  0.39030000  1.0
  C  C82  1  0.61653000  0.73780000  0.60970000  1.0
  C  C83  1  0.03617000  0.79239000  0.80956000  1.0
  C  C84  1  0.96383000  0.20761000  0.19044000  1.0
  C  C85  1  0.06691000  0.68837000  0.72121000  1.0
  C  C86  1  0.93310000  0.31163000  0.27879000  1.0
  C  C87  1  0.02834000  0.57884000  0.71927000  1.0
  C  C88  1  0.97166000  0.42116000  0.28073000  1.0
  C  C89  1  0.13364000  0.69172000  0.63269000  1.0
  C  C90  1  0.86637000  0.30828000  0.36730000  1.0
  S  S91  1  0.93904000  0.79466000  0.91268000  1.0
  S  S92  1  0.06096000  0.20534000  0.08732000  1.0
  S  S93  1  0.08935000  0.93154000  0.82732000  1.0
  S  S94  1  0.91065000  0.06846000  0.17268000  1.0
  N  N95  1  0.99630000  0.48793000  0.71868000  1.0
  N  N96  1  0.00369000  0.51208000  0.28132000  1.0
  N  N97  1  0.18767000  0.69454000  0.55824000  1.0
  N  N98  1  0.81233000  0.30546000  0.44176000  1.0
  O  O99  1  0.47183000  0.18955000  0.43999000  1.0
  O  O100  1  0.52818000  0.81046000  0.56001000  1.0
  O  O101  1  0.68821000  0.10126000  0.54771000  1.0
  O  O102  1  0.31179000  0.89874000  0.45229000  1.0
  O  O103  1  0.89413000  0.26193000  0.77156000  1.0
  O  O104  1  0.10587000  0.73806000  0.22844000  1.0
  O  O105  1  0.66515000  0.42874000  0.80600000  1.0
  O  O106  1  0.33485000  0.57126000  0.19400000  1.0
  O  O107  1  0.49629000  0.42952000  0.58496000  1.0
  O  O108  1  0.50370000  0.57048000  0.41504000  1.0
