# generated using pymatgen
data_CdH19C17S(NO)5
_symmetry_space_group_name_H-M   'P 1'
_cell_length_a   8.64112000
_cell_length_b   8.93143000
_cell_length_c   13.17690000
_cell_angle_alpha   105.96600000
_cell_angle_beta   91.97590000
_cell_angle_gamma   100.48600000
_symmetry_Int_Tables_number   1
_chemical_formula_structural   CdH19C17S(NO)5
_chemical_formula_sum   'Cd2 H38 C34 S2 N10 O10'
_cell_volume   957.55125247
_cell_formula_units_Z   2
loop_
 _symmetry_equiv_pos_site_id
 _symmetry_equiv_pos_as_xyz
  1  'x, y, z'
loop_
 _atom_site_type_symbol
 _atom_site_label
 _atom_site_symmetry_multiplicity
 _atom_site_fract_x
 _atom_site_fract_y
 _atom_site_fract_z
 _atom_site_occupancy
  Cd  Cd0  1  0.68548000  0.52905000  0.30899000  1.0
  Cd  Cd1  1  0.31452000  0.47095000  0.69101000  1.0
  H  H2  1  0.99640000  0.35690000  0.36794000  1.0
  H  H3  1  0.00360000  0.64310000  0.63206000  1.0
  H  H4  1  0.09695000  0.09225000  0.05857000  1.0
  H  H5  1  0.90305000  0.90775000  0.94143000  1.0
  H  H6  1  0.37549000  0.13200000  0.12355000  1.0
  H  H7  1  0.62450000  0.86800000  0.87644000  1.0
  H  H8  1  0.86128000  0.89744000  0.26896000  1.0
  H  H9  1  0.13872000  0.10256000  0.73104000  1.0
  H  H10  1  0.14639000  0.07022000  0.37704000  1.0
  H  H11  1  0.85362000  0.92979000  0.62296000  1.0
  H  H12  1  0.05356000  0.62571000  0.44074000  1.0
  H  H13  1  0.94644000  0.37429000  0.55926000  1.0
  H  H14  1  0.25898000  0.00028000  0.57157000  1.0
  H  H15  1  0.74102000  0.99971000  0.42843000  1.0
  H  H16  1  0.29079000  0.80305000  0.53015000  1.0
  H  H17  1  0.70921000  0.19695000  0.46985000  1.0
  H  H18  1  0.41181000  0.05950000  0.42104000  1.0
  H  H19  1  0.58819000  0.94050000  0.57896000  1.0
  H  H20  1  0.46103000  0.86874000  0.39357000  1.0
  H  H21  1  0.53896000  0.13126000  0.60644000  1.0
  H  H22  1  0.69727000  0.73158000  0.11634000  1.0
  H  H23  1  0.30273000  0.26842000  0.88366000  1.0
  H  H24  1  0.30139000  0.54537000  0.25578000  1.0
  H  H25  1  0.69861000  0.45463000  0.74422000  1.0
  H  H26  1  0.42372000  0.78768000  0.02738000  1.0
  H  H27  1  0.57628000  0.21231000  0.97262000  1.0
  H  H28  1  0.13755000  0.76140000  0.08353000  1.0
  H  H29  1  0.86245000  0.23860000  0.91647000  1.0
  H  H30  1  0.08642000  0.65437000  0.17773000  1.0
  H  H31  1  0.91358000  0.34563000  0.82227000  1.0
  H  H32  1  0.09946000  0.40019000  0.04233000  1.0
  H  H33  1  0.90054000  0.59981000  0.95767000  1.0
  H  H34  1  0.15720000  0.50713000  0.94923000  1.0
  H  H35  1  0.84280000  0.49287000  0.05077000  1.0
  H  H36  1  0.56768000  0.20671000  0.28068000  1.0
  H  H37  1  0.43232000  0.79329000  0.71932000  1.0
  H  H38  1  0.51592000  0.30819000  0.40064000  1.0
  H  H39  1  0.48408000  0.69181000  0.59936000  1.0
  C  C40  1  0.27971000  0.40476000  0.46889000  1.0
  C  C41  1  0.72029000  0.59524000  0.53111000  1.0
  C  C42  1  0.23708000  0.33032000  0.35224000  1.0
  C  C43  1  0.76292000  0.66969000  0.64776000  1.0
  C  C44  1  0.07955000  0.31012000  0.31334000  1.0
  C  C45  1  0.92045000  0.68988000  0.68666000  1.0
  C  C46  1  0.02816000  0.22451000  0.20841000  1.0
  C  C47  1  0.97184000  0.77549000  0.79159000  1.0
  C  C48  1  0.13542000  0.16120000  0.14024000  1.0
  C  C49  1  0.86458000  0.83881000  0.85976000  1.0
  C  C50  1  0.29310000  0.18281000  0.17726000  1.0
  C  C51  1  0.70689000  0.81719000  0.82274000  1.0
  C  C52  1  0.34615000  0.26546000  0.28318000  1.0
  C  C53  1  0.65385000  0.73454000  0.71682000  1.0
  C  C54  1  0.94264000  0.86383000  0.31926000  1.0
  C  C55  1  0.05736000  0.13617000  0.68074000  1.0
  C  C56  1  0.08376000  0.95201000  0.37271000  1.0
  C  C57  1  0.91624000  0.04799000  0.62729000  1.0
  C  C58  1  0.03606000  0.71950000  0.40639000  1.0
  C  C59  1  0.96394000  0.28051000  0.59361000  1.0
  C  C60  1  0.28139000  0.90687000  0.50295000  1.0
  C  C61  1  0.71861000  0.09313000  0.49705000  1.0
  C  C62  1  0.43150000  0.96614000  0.45673000  1.0
  C  C63  1  0.56850000  0.03387000  0.54327000  1.0
  C  C64  1  0.57542000  0.70011000  0.13240000  1.0
  C  C65  1  0.42458000  0.29989000  0.86760000  1.0
  C  C66  1  0.37534000  0.60362000  0.20732000  1.0
  C  C67  1  0.62466000  0.39638000  0.79268000  1.0
  C  C68  1  0.44241000  0.72953000  0.08760000  1.0
  C  C69  1  0.55759000  0.27047000  0.91240000  1.0
  C  C70  1  0.14989000  0.65516000  0.10707000  1.0
  C  C71  1  0.85011000  0.34484000  0.89293000  1.0
  C  C72  1  0.08632000  0.50498000  0.01668000  1.0
  C  C73  1  0.91368000  0.49502000  0.98332000  1.0
  S  S74  1  0.82412000  0.19224000  0.16431000  1.0
  S  S75  1  0.17588000  0.80776000  0.83569000  1.0
  N  N76  1  0.50523000  0.29004000  0.32002000  1.0
  N  N77  1  0.49477000  0.70996000  0.67998000  1.0
  N  N78  1  0.91391000  0.71858000  0.34094000  1.0
  N  N79  1  0.08609000  0.28142000  0.65906000  1.0
  N  N80  1  0.14124000  0.85892000  0.42705000  1.0
  N  N81  1  0.85876000  0.14108000  0.57296000  1.0
  N  N82  1  0.53221000  0.62130000  0.20717000  1.0
  N  N83  1  0.46779000  0.37870000  0.79283000  1.0
  N  N84  1  0.31738000  0.66813000  0.13632000  1.0
  N  N85  1  0.68262000  0.33187000  0.86368000  1.0
  O  O86  1  0.20716000  0.50994000  0.51911000  1.0
  O  O87  1  0.79284000  0.49006000  0.48089000  1.0
  O  O88  1  0.38202000  0.35099000  0.51454000  1.0
  O  O89  1  0.61798000  0.64901000  0.48546000  1.0
  O  O90  1  0.79000000  0.35414000  0.17793000  1.0
  O  O91  1  0.20999000  0.64586000  0.82207000  1.0
  O  O92  1  0.73664000  0.11174000  0.23476000  1.0
  O  O93  1  0.26336000  0.88826000  0.76524000  1.0
  O  O94  1  0.80476000  0.09994000  0.05297000  1.0
  O  O95  1  0.19524000  0.90006000  0.94703000  1.0
