# generated using pymatgen
data_KCuH24C16(IO3)2
_symmetry_space_group_name_H-M   'P 1'
_cell_length_a   9.27624000
_cell_length_b   9.63916000
_cell_length_c   12.68010000
_cell_angle_alpha   93.12980000
_cell_angle_beta   93.71670000
_cell_angle_gamma   109.81000000
_symmetry_Int_Tables_number   1
_chemical_formula_structural   KCuH24C16(IO3)2
_chemical_formula_sum   'K2 Cu2 H48 C32 I4 O12'
_cell_volume   1060.90782915
_cell_formula_units_Z   2
loop_
 _symmetry_equiv_pos_site_id
 _symmetry_equiv_pos_as_xyz
  1  'x, y, z'
loop_
 _atom_site_type_symbol
 _atom_site_label
 _atom_site_symmetry_multiplicity
 _atom_site_fract_x
 _atom_site_fract_y
 _atom_site_fract_z
 _atom_site_occupancy
  K  K0  1  0.59816000  0.65078000  0.14735000  1.0
  K  K1  1  0.40183000  0.34922000  0.85265000  1.0
  Cu  Cu2  1  0.95925000  0.99821000  0.40239000  1.0
  Cu  Cu3  1  0.04075000  0.00179000  0.59761000  1.0
  H  H4  1  0.27636000  0.31555000  0.43090000  1.0
  H  H5  1  0.72364000  0.68445000  0.56910000  1.0
  H  H6  1  0.31347000  0.08151000  0.46624000  1.0
  H  H7  1  0.68652000  0.91849000  0.53376000  1.0
  H  H8  1  0.55673000  0.04000000  0.42038000  1.0
  H  H9  1  0.44327000  0.96000000  0.57962000  1.0
  H  H10  1  0.75119000  0.22725000  0.33333333  1.0
  H  H11  1  0.24881000  0.77275000  0.66666667  1.0
  H  H12  1  0.84027000  0.35932000  0.20767000  1.0
  H  H13  1  0.15973000  0.64068000  0.79233000  1.0
  H  H14  1  0.94125000  0.48156000  0.32054000  1.0
  H  H15  1  0.05875000  0.51844000  0.67946000  1.0
  H  H16  1  0.95053000  0.69931000  0.21478000  1.0
  H  H17  1  0.04947000  0.30069000  0.78523000  1.0
  H  H18  1  0.05202000  0.58713000  0.16207000  1.0
  H  H19  1  0.94798000  0.41287000  0.83793000  1.0
  H  H20  1  0.01267000  0.66127000  0.98105000  1.0
  H  H21  1  0.98733000  0.33873000  0.01895000  1.0
  H  H22  1  0.92201000  0.78019000  0.03880000  1.0
  H  H23  1  0.07799000  0.21981000  0.96120000  1.0
  H  H24  1  0.84373000  0.69824000  0.84260000  1.0
  H  H25  1  0.15627000  0.30176000  0.15740000  1.0
  H  H26  1  0.76399000  0.51182000  0.87718000  1.0
  H  H27  1  0.23601000  0.48818000  0.12282000  1.0
  H  H28  1  0.65216000  0.79512000  0.81022000  1.0
  H  H29  1  0.34784000  0.20488000  0.18978000  1.0
  H  H30  1  0.72978000  0.87591000  0.94117000  1.0
  H  H31  1  0.27022000  0.12409000  0.05883000  1.0
  H  H32  1  0.45761000  0.87888000  0.87533000  1.0
  H  H33  1  0.54239000  0.12112000  0.12467000  1.0
  H  H34  1  0.39124000  0.68532000  0.89027000  1.0
  H  H35  1  0.60876000  0.31468000  0.10973000  1.0
  H  H36  1  0.24267000  0.71869000  0.02531000  1.0
  H  H37  1  0.75733000  0.28131000  0.97469000  1.0
  H  H38  1  0.30784000  0.91437000  0.01818000  1.0
  H  H39  1  0.69216000  0.08563000  0.98182000  1.0
  H  H40  1  0.43846000  0.93726000  0.20811000  1.0
  H  H41  1  0.56154000  0.06274000  0.79189000  1.0
  H  H42  1  0.23293000  0.86816000  0.19726000  1.0
  H  H43  1  0.76707000  0.13184000  0.80274000  1.0
  H  H44  1  0.27298000  0.75883000  0.36554000  1.0
  H  H45  1  0.72702000  0.24117000  0.63446000  1.0
  H  H46  1  0.47547000  0.80286000  0.35768000  1.0
  H  H47  1  0.52453000  0.19714000  0.64232000  1.0
  H  H48  1  0.34951000  0.57554000  0.45357000  1.0
  H  H49  1  0.65049000  0.42446000  0.54643000  1.0
  H  H50  1  0.23950000  0.48743000  0.33202000  1.0
  H  H51  1  0.76050000  0.51257000  0.66798000  1.0
  C  C52  1  0.49033000  0.40513000  0.35854000  1.0
  C  C53  1  0.50967000  0.59487000  0.64146000  1.0
  C  C54  1  0.38034000  0.29781000  0.40796000  1.0
  C  C55  1  0.61966000  0.70219000  0.59204000  1.0
  C  C56  1  0.40252000  0.16494000  0.42904000  1.0
  C  C57  1  0.59748000  0.83506000  0.57096000  1.0
  C  C58  1  0.53597000  0.14123000  0.40264000  1.0
  C  C59  1  0.46403000  0.85877000  0.59736000  1.0
  C  C60  1  0.64766000  0.24841000  0.35323000  1.0
  C  C61  1  0.35234000  0.75160000  0.64677000  1.0
  C  C62  1  0.62492000  0.37936000  0.32969000  1.0
  C  C63  1  0.37508000  0.62065000  0.67031000  1.0
  C  C64  1  0.86379000  0.46980000  0.24836000  1.0
  C  C65  1  0.13621000  0.53020000  0.75165000  1.0
  C  C66  1  0.93666000  0.58906000  0.17659000  1.0
  C  C67  1  0.06334000  0.41094000  0.82341000  1.0
  C  C68  1  0.90155000  0.66688000  0.00352000  1.0
  C  C69  1  0.09845000  0.33312000  0.99648000  1.0
  C  C70  1  0.78995000  0.62826000  0.90524000  1.0
  C  C71  1  0.21005000  0.37174000  0.09476000  1.0
  C  C72  1  0.63687000  0.78462000  0.89530000  1.0
  C  C73  1  0.36313000  0.21538000  0.10470000  1.0
  C  C74  1  0.48183000  0.79143000  0.91794000  1.0
  C  C75  1  0.51817000  0.20857000  0.08206000  1.0
  C  C76  1  0.33313000  0.82376000  0.05600000  1.0
  C  C77  1  0.66687000  0.17624000  0.94400000  1.0
  C  C78  1  0.33577000  0.84396000  0.17499000  1.0
  C  C79  1  0.66423000  0.15604000  0.82500000  1.0
  C  C80  1  0.36103000  0.72179000  0.33054000  1.0
  C  C81  1  0.63897000  0.27821000  0.66946000  1.0
  C  C82  1  0.34779000  0.57216000  0.36662000  1.0
  C  C83  1  0.65222000  0.42784000  0.63338000  1.0
  I  I84  1  0.88370000  0.01322000  0.20880000  1.0
  I  I85  1  0.11629000  0.98678000  0.79120000  1.0
  I  I86  1  0.99261000  0.22985000  0.52873000  1.0
  I  I87  1  0.00739000  0.77015000  0.47127000  1.0
  O  O88  1  0.47736000  0.53695000  0.33237000  1.0
  O  O89  1  0.52264000  0.46305000  0.66763000  1.0
  O  O90  1  0.72300000  0.48783000  0.27649000  1.0
  O  O91  1  0.27700000  0.51217000  0.72351000  1.0
  O  O92  1  0.84028000  0.56080000  0.07882000  1.0
  O  O93  1  0.15972000  0.43920000  0.92118000  1.0
  O  O94  1  0.64441000  0.64431000  0.92377000  1.0
  O  O95  1  0.35559000  0.35569000  0.07623000  1.0
  O  O96  1  0.47946000  0.82011000  0.02967000  1.0
  O  O97  1  0.52054000  0.17989000  0.97033000  1.0
  O  O98  1  0.33904000  0.71002000  0.21692000  1.0
  O  O99  1  0.66096000  0.28998000  0.78308000  1.0
