# generated using pymatgen
data_ZnH22C22N2O5
_symmetry_space_group_name_H-M   'P 1'
_cell_length_a   8.37449000
_cell_length_b   11.47100000
_cell_length_c   24.65280000
_cell_angle_alpha   90.00020000
_cell_angle_beta   90.00070000
_cell_angle_gamma   76.47800000
_symmetry_Int_Tables_number   1
_chemical_formula_structural   ZnH22C22N2O5
_chemical_formula_sum   'Zn4 H88 C88 N8 O20'
_cell_volume   2302.59388808
_cell_formula_units_Z   4
loop_
 _symmetry_equiv_pos_site_id
 _symmetry_equiv_pos_as_xyz
  1  'x, y, z'
loop_
 _atom_site_type_symbol
 _atom_site_label
 _atom_site_symmetry_multiplicity
 _atom_site_fract_x
 _atom_site_fract_y
 _atom_site_fract_z
 _atom_site_occupancy
  Zn  Zn0  1  0.25835000  0.63286000  0.29937000  1.0
  Zn  Zn1  1  0.24165000  0.36714000  0.79937000  1.0
  Zn  Zn2  1  0.74165000  0.36714000  0.70063000  1.0
  Zn  Zn3  1  0.75836000  0.63286000  0.20063000  1.0
  H  H4  1  0.08950000  0.45900000  0.23778000  1.0
  H  H5  1  0.41050000  0.54099000  0.73778000  1.0
  H  H6  1  0.91050000  0.54100000  0.76223000  1.0
  H  H7  1  0.58951000  0.45901000  0.26222000  1.0
  H  H8  1  0.05941000  0.25027000  0.24193000  1.0
  H  H9  1  0.44059000  0.74973000  0.74194000  1.0
  H  H10  1  0.94058000  0.74973000  0.75807000  1.0
  H  H11  1  0.55942000  0.25027000  0.25807000  1.0
  H  H12  1  0.42635000  0.18671000  0.36875000  1.0
  H  H13  1  0.07365000  0.81329000  0.86875000  1.0
  H  H14  1  0.57365000  0.81329000  0.63125000  1.0
  H  H15  1  0.92635000  0.18671000  0.13125000  1.0
  H  H16  1  0.43078000  0.40128000  0.36215000  1.0
  H  H17  1  0.06922000  0.59872000  0.86215000  1.0
  H  H18  1  0.56922000  0.59872000  0.63785000  1.0
  H  H19  1  0.93078000  0.40128000  0.13785000  1.0
  H  H20  1  0.14017000  0.06796000  0.22315000  1.0
  H  H21  1  0.35982000  0.93204000  0.72315000  1.0
  H  H22  1  0.85981000  0.93205000  0.77685000  1.0
  H  H23  1  0.64018000  0.06796000  0.27685000  1.0
  H  H24  1  0.15027000  0.84982000  0.22453000  1.0
  H  H25  1  0.34972000  0.15017000  0.72454000  1.0
  H  H26  1  0.84971000  0.15019000  0.77546000  1.0
  H  H27  1  0.65026000  0.84983000  0.27546000  1.0
  H  H28  1  0.34766000  0.81079000  0.37868000  1.0
  H  H29  1  0.15234000  0.18921000  0.87868000  1.0
  H  H30  1  0.65235000  0.18920000  0.62132000  1.0
  H  H31  1  0.84765000  0.81079000  0.12132000  1.0
  H  H32  1  0.34193000  0.02830000  0.38552000  1.0
  H  H33  1  0.15806000  0.97169000  0.88552000  1.0
  H  H34  1  0.65808000  0.97169000  0.61448000  1.0
  H  H35  1  0.84193000  0.02831000  0.11448000  1.0
  H  H36  1  0.20056000  0.21073000  0.16168000  1.0
  H  H37  1  0.29944000  0.78927000  0.66168000  1.0
  H  H38  1  0.79944000  0.78927000  0.83833000  1.0
  H  H39  1  0.70056000  0.21075000  0.33833000  1.0
  H  H40  1  0.31664000  0.38925000  0.15354000  1.0
  H  H41  1  0.18336000  0.61075000  0.65354000  1.0
  H  H42  1  0.68336000  0.61075000  0.84646000  1.0
  H  H43  1  0.81664000  0.38926000  0.34646000  1.0
  H  H44  1  0.52888000  0.39504000  0.08219000  1.0
  H  H45  1  0.97112000  0.60495000  0.58219000  1.0
  H  H46  1  0.47112000  0.60495000  0.91781000  1.0
  H  H47  1  0.02890000  0.39505000  0.41781000  1.0
  H  H48  1  0.63384000  0.21634000  0.02539000  1.0
  H  H49  1  0.86615000  0.78366000  0.52539000  1.0
  H  H50  1  0.36616000  0.78365000  0.97461000  1.0
  H  H51  1  0.13386000  0.21634000  0.47461000  1.0
  H  H52  1  0.52434000  0.03414000  0.03616000  1.0
  H  H53  1  0.97565000  0.96586000  0.53616000  1.0
  H  H54  1  0.47565000  0.96585000  0.96384000  1.0
  H  H55  1  0.02436000  0.03415000  0.46384000  1.0
  H  H56  1  0.15993000  0.02781000  0.12550000  1.0
  H  H57  1  0.34006000  0.97219000  0.62550000  1.0
  H  H58  1  0.84008000  0.97218000  0.87450000  1.0
  H  H59  1  0.65993000  0.02782000  0.37450000  1.0
  H  H60  1  0.22919000  0.99076000  0.05885000  1.0
  H  H61  1  0.27080000  0.00923000  0.55885000  1.0
  H  H62  1  0.77080000  0.00923000  0.94115000  1.0
  H  H63  1  0.72920000  0.99077000  0.44115000  1.0
  H  H64  1  0.40993000  0.89358000  0.16337000  1.0
  H  H65  1  0.09007000  0.10643000  0.66337000  1.0
  H  H66  1  0.59008000  0.10641000  0.83663000  1.0
  H  H67  1  0.90993000  0.89359000  0.33663000  1.0
  H  H68  1  0.49893000  0.86860000  0.09841000  1.0
  H  H69  1  0.00107000  0.13141000  0.59841000  1.0
  H  H70  1  0.50108000  0.13141000  0.90160000  1.0
  H  H71  1  0.99893000  0.86860000  0.40159000  1.0
  H  H72  1  0.27586000  0.77536000  0.06679000  1.0
  H  H73  1  0.22414000  0.22464000  0.56679000  1.0
  H  H74  1  0.72416000  0.22463000  0.93321000  1.0
  H  H75  1  0.77586000  0.77537000  0.43321000  1.0
  H  H76  1  0.17919000  0.79938000  0.13103000  1.0
  H  H77  1  0.32081000  0.20062000  0.63104000  1.0
  H  H78  1  0.82082000  0.20061000  0.86896000  1.0
  H  H79  1  0.67919000  0.79939000  0.36896000  1.0
  H  H80  1  0.33788000  0.59094000  0.11291000  1.0
  H  H81  1  0.16211000  0.40906000  0.61292000  1.0
  H  H82  1  0.66212000  0.40906000  0.88709000  1.0
  H  H83  1  0.83789000  0.59095000  0.38708000  1.0
  H  H84  1  0.48924000  0.59936000  0.37253000  1.0
  H  H85  1  0.01074000  0.40064000  0.87254000  1.0
  H  H86  1  0.51074000  0.40064000  0.62747000  1.0
  H  H87  1  0.98925000  0.59935000  0.12746000  1.0
  H  H88  1  0.60697000  0.60809000  0.32053000  1.0
  H  H89  1  0.89302000  0.39192000  0.82054000  1.0
  H  H90  1  0.39302000  0.39192000  0.67947000  1.0
  H  H91  1  0.10698000  0.60808000  0.17946000  1.0
  C  C92  1  0.16191000  0.39593000  0.26642000  1.0
  C  C93  1  0.33809000  0.60406000  0.76642000  1.0
  C  C94  1  0.83808000  0.60407000  0.73359000  1.0
  C  C95  1  0.66192000  0.39593000  0.23358000  1.0
  C  C96  1  0.14815000  0.27771000  0.26827000  1.0
  C  C97  1  0.35184000  0.72229000  0.76827000  1.0
  C  C98  1  0.85185000  0.72229000  0.73173000  1.0
  C  C99  1  0.64815000  0.27771000  0.23173000  1.0
  C  C100  1  0.24579000  0.19665000  0.30422000  1.0
  C  C101  1  0.25421000  0.80335000  0.80422000  1.0
  C  C102  1  0.75420000  0.80336000  0.69578000  1.0
  C  C103  1  0.74580000  0.19665000  0.19578000  1.0
  C  C104  1  0.34790000  0.24314000  0.33911000  1.0
  C  C105  1  0.15210000  0.75686000  0.83911000  1.0
  C  C106  1  0.65211000  0.75686000  0.66089000  1.0
  C  C107  1  0.84789000  0.24314000  0.16089000  1.0
  C  C108  1  0.35198000  0.36344000  0.33565000  1.0
  C  C109  1  0.14802000  0.63656000  0.83565000  1.0
  C  C110  1  0.64802000  0.63656000  0.66435000  1.0
  C  C111  1  0.85198000  0.36344000  0.16435000  1.0
  C  C112  1  0.24390000  0.06833000  0.30413000  1.0
  C  C113  1  0.25610000  0.93167000  0.80413000  1.0
  C  C114  1  0.75610000  0.93167000  0.69587000  1.0
  C  C115  1  0.74390000  0.06833000  0.19588000  1.0
  C  C116  1  0.18700000  0.01541000  0.25893000  1.0
  C  C117  1  0.31299000  0.98459000  0.75893000  1.0
  C  C118  1  0.81299000  0.98460000  0.74107000  1.0
  C  C119  1  0.68700000  0.01541000  0.24107000  1.0
  C  C120  1  0.19419000  0.89325000  0.25894000  1.0
  C  C121  1  0.30580000  0.10675000  0.75894000  1.0
  C  C122  1  0.80580000  0.10676000  0.74106000  1.0
  C  C123  1  0.69419000  0.89325000  0.24106000  1.0
  C  C124  1  0.30622000  0.87130000  0.34476000  1.0
  C  C125  1  0.19377000  0.12870000  0.84477000  1.0
  C  C126  1  0.69378000  0.12870000  0.65523000  1.0
  C  C127  1  0.80622000  0.87130000  0.15523000  1.0
  C  C128  1  0.30251000  0.99290000  0.34817000  1.0
  C  C129  1  0.19748000  0.00710000  0.84818000  1.0
  C  C130  1  0.69749000  0.00710000  0.65182000  1.0
  C  C131  1  0.80251000  0.99290000  0.15183000  1.0
  C  C132  1  0.29758000  0.21054000  0.13215000  1.0
  C  C133  1  0.20241000  0.78946000  0.63215000  1.0
  C  C134  1  0.70241000  0.78946000  0.86785000  1.0
  C  C135  1  0.79759000  0.21056000  0.36785000  1.0
  C  C136  1  0.36260000  0.31191000  0.12737000  1.0
  C  C137  1  0.13739000  0.68809000  0.62737000  1.0
  C  C138  1  0.63739000  0.68809000  0.87263000  1.0
  C  C139  1  0.86261000  0.31192000  0.37263000  1.0
  C  C140  1  0.48300000  0.31470000  0.08862000  1.0
  C  C141  1  0.01699000  0.68529000  0.58863000  1.0
  C  C142  1  0.51700000  0.68529000  0.91138000  1.0
  C  C143  1  0.98302000  0.31471000  0.41137000  1.0
  C  C144  1  0.54190000  0.21353000  0.05636000  1.0
  C  C145  1  0.95809000  0.78646000  0.55635000  1.0
  C  C146  1  0.45810000  0.78646000  0.94365000  1.0
  C  C147  1  0.04192000  0.21354000  0.44364000  1.0
  C  C148  1  0.47810000  0.11230000  0.06183000  1.0
  C  C149  1  0.02190000  0.88770000  0.56183000  1.0
  C  C150  1  0.52190000  0.88770000  0.93817000  1.0
  C  C151  1  0.97811000  0.11230000  0.43817000  1.0
  C  C152  1  0.35144000  0.11021000  0.09887000  1.0
  C  C153  1  0.14854000  0.88979000  0.59887000  1.0
  C  C154  1  0.64855000  0.88979000  0.90113000  1.0
  C  C155  1  0.85146000  0.11021000  0.40113000  1.0
  C  C156  1  0.27151000  0.00505000  0.10023000  1.0
  C  C157  1  0.22848000  0.99495000  0.60023000  1.0
  C  C158  1  0.72849000  0.99494000  0.89977000  1.0
  C  C159  1  0.77152000  0.00506000  0.39977000  1.0
  C  C160  1  0.38097000  0.88629000  0.12011000  1.0
  C  C161  1  0.11903000  0.11371000  0.62011000  1.0
  C  C162  1  0.61903000  0.11371000  0.87989000  1.0
  C  C163  1  0.88098000  0.88630000  0.37988000  1.0
  C  C164  1  0.29946000  0.78199000  0.11045000  1.0
  C  C165  1  0.20054000  0.21801000  0.61046000  1.0
  C  C166  1  0.70055000  0.21801000  0.88954000  1.0
  C  C167  1  0.79947000  0.78200000  0.38954000  1.0
  C  C168  1  0.40284000  0.65725000  0.12816000  1.0
  C  C169  1  0.09716000  0.34275000  0.62816000  1.0
  C  C170  1  0.59717000  0.34274000  0.87184000  1.0
  C  C171  1  0.90284000  0.65726000  0.37184000  1.0
  C  C172  1  0.56791000  0.63234000  0.09576000  1.0
  C  C173  1  0.93209000  0.36765000  0.59576000  1.0
  C  C174  1  0.43210000  0.36764000  0.90424000  1.0
  C  C175  1  0.06792000  0.63236000  0.40423000  1.0
  C  C176  1  0.40005000  0.65047000  0.18969000  1.0
  C  C177  1  0.09996000  0.34953000  0.68969000  1.0
  C  C178  1  0.59995000  0.34953000  0.81031000  1.0
  C  C179  1  0.90004000  0.65047000  0.31031000  1.0
  N  N180  1  0.26339000  0.43884000  0.29911000  1.0
  N  N181  1  0.23661000  0.56116000  0.79911000  1.0
  N  N182  1  0.73661000  0.56116000  0.70089000  1.0
  N  N183  1  0.76339000  0.43884000  0.20089000  1.0
  N  N184  1  0.25536000  0.82149000  0.30066000  1.0
  N  N185  1  0.24464000  0.17851000  0.80067000  1.0
  N  N186  1  0.74464000  0.17851000  0.69933000  1.0
  N  N187  1  0.75535000  0.82149000  0.19934000  1.0
  O  O188  1  0.50554000  0.58392000  0.33387000  1.0
  O  O189  1  0.99446000  0.41608000  0.83388000  1.0
  O  O190  1  0.49446000  0.41608000  0.66613000  1.0
  O  O191  1  0.00554000  0.58392000  0.16613000  1.0
  O  O192  1  0.27279000  0.62334000  0.21118000  1.0
  O  O193  1  0.22722000  0.37665000  0.71118000  1.0
  O  O194  1  0.72722000  0.37665000  0.78882000  1.0
  O  O195  1  0.77279000  0.62336000  0.28882000  1.0
  O  O196  1  0.50948000  0.67559000  0.21959000  1.0
  O  O197  1  0.99051000  0.32441000  0.71960000  1.0
  O  O198  1  0.49052000  0.32441000  0.78040000  1.0
  O  O199  1  0.00949000  0.67560000  0.28040000  1.0
  O  O200  1  0.70450000  0.63508000  0.11977000  1.0
  O  O201  1  0.79550000  0.36492000  0.61977000  1.0
  O  O202  1  0.29551000  0.36492000  0.88023000  1.0
  O  O203  1  0.20450000  0.63508000  0.38023000  1.0
  O  O204  1  0.55334000  0.61462000  0.04660000  1.0
  O  O205  1  0.94667000  0.38536000  0.54660000  1.0
  O  O206  1  0.44669000  0.38533000  0.95340000  1.0
  O  O207  1  0.05334000  0.61466000  0.45340000  1.0
