# generated using pymatgen
data_Ag2H22C19(SO2)2
_symmetry_space_group_name_H-M   'P 1'
_cell_length_a   7.74467000
_cell_length_b   9.81069000
_cell_length_c   13.39257117
_cell_angle_alpha   94.00006424
_cell_angle_beta   106.78309870
_cell_angle_gamma   90.03320000
_symmetry_Int_Tables_number   1
_chemical_formula_structural   Ag2H22C19(SO2)2
_chemical_formula_sum   'Ag4 H44 C38 S4 O8'
_cell_volume   971.62908351
_cell_formula_units_Z   2
loop_
 _symmetry_equiv_pos_site_id
 _symmetry_equiv_pos_as_xyz
  1  'x, y, z'
loop_
 _atom_site_type_symbol
 _atom_site_label
 _atom_site_symmetry_multiplicity
 _atom_site_fract_x
 _atom_site_fract_y
 _atom_site_fract_z
 _atom_site_occupancy
  Ag  Ag0  1  0.10158000  0.07216000  0.94424000  1.0
  Ag  Ag1  1  0.15708000  0.42773000  0.05577000  1.0
  Ag  Ag2  1  0.89842000  0.92784000  0.05575000  1.0
  Ag  Ag3  1  0.84292000  0.57226000  0.94423000  1.0
  H  H4  1  0.01601000  0.13144000  0.74317000  1.0
  H  H5  1  0.27380000  0.36852000  0.25687000  1.0
  H  H6  1  0.98399000  0.86856000  0.25683000  1.0
  H  H7  1  0.72620000  0.63148000  0.74313000  1.0
  H  H8  1  0.08652000  0.02998000  0.58383000  1.0
  H  H9  1  0.50376000  0.46993000  0.41611000  1.0
  H  H10  1  0.91348000  0.97003000  0.41616000  1.0
  H  H11  1  0.49624000  0.53007000  0.58389000  1.0
  H  H12  1  0.17838000  0.18179000  0.46487000  1.0
  H  H13  1  0.71397000  0.31800000  0.53515000  1.0
  H  H14  1  0.82163000  0.81822000  0.53513000  1.0
  H  H15  1  0.28603000  0.68199000  0.46485000  1.0
  H  H16  1  0.19288000  0.43304000  0.50426000  1.0
  H  H17  1  0.68814000  0.06679000  0.49589000  1.0
  H  H18  1  0.80712000  0.56696000  0.49574000  1.0
  H  H19  1  0.31185000  0.93320000  0.50411000  1.0
  H  H20  1  0.13239000  0.53266000  0.66755000  1.0
  H  H21  1  0.46425000  0.96716000  0.33276000  1.0
  H  H22  1  0.86761000  0.46734000  0.33245000  1.0
  H  H23  1  0.53574000  0.03284000  0.66724000  1.0
  H  H24  1  0.20539000  0.77823000  0.69855000  1.0
  H  H25  1  0.50624000  0.72184000  0.30115000  1.0
  H  H26  1  0.79461000  0.22177000  0.30145000  1.0
  H  H27  1  0.49376000  0.27816000  0.69885000  1.0
  H  H28  1  0.02016000  0.88448000  0.70375000  1.0
  H  H29  1  0.31587000  0.61537000  0.29596000  1.0
  H  H30  1  0.97984000  0.11552000  0.29625000  1.0
  H  H31  1  0.68413000  0.38462000  0.70404000  1.0
  H  H32  1  0.07571000  0.74726000  0.78742000  1.0
  H  H33  1  0.28784000  0.75253000  0.21222000  1.0
  H  H34  1  0.92429000  0.25274000  0.21258000  1.0
  H  H35  1  0.71217000  0.24746000  0.78778000  1.0
  H  H36  1  0.47334000  0.75447000  0.87541000  1.0
  H  H37  1  0.59754000  0.74585000  0.12442000  1.0
  H  H38  1  0.52666000  0.24553000  0.12459000  1.0
  H  H39  1  0.40246000  0.25415000  0.87558000  1.0
  H  H40  1  0.54250000  0.88881000  0.97305000  1.0
  H  H41  1  0.56943000  0.61155000  0.02676000  1.0
  H  H42  1  0.45750000  0.11119000  0.02695000  1.0
  H  H43  1  0.43057000  0.38844000  0.97324000  1.0
  H  H44  1  0.28303000  0.82262000  0.04542000  1.0
  H  H45  1  0.23761000  0.67732000  0.95427000  1.0
  H  H46  1  0.71697000  0.17738000  0.95458000  1.0
  H  H47  1  0.76241000  0.32268000  0.04574000  1.0
  C  C48  1  0.05148000  0.39894000  0.81779000  1.0
  C  C49  1  0.23391000  0.10099000  0.18232000  1.0
  C  C50  1  0.94851000  0.60106000  0.18220000  1.0
  C  C51  1  0.76608000  0.89901000  0.81767000  1.0
  C  C52  1  0.07585000  0.33780000  0.71685000  1.0
  C  C53  1  0.35904000  0.16207000  0.28332000  1.0
  C  C54  1  0.92416000  0.66220000  0.28315000  1.0
  C  C55  1  0.64096000  0.83793000  0.71668000  1.0
  C  C56  1  0.05918000  0.19638000  0.69161000  1.0
  C  C57  1  0.36821000  0.30352000  0.30846000  1.0
  C  C58  1  0.94082000  0.80362000  0.30839000  1.0
  C  C59  1  0.63179000  0.69648000  0.69154000  1.0
  C  C60  1  0.09516000  0.14037000  0.60125000  1.0
  C  C61  1  0.49455000  0.35952000  0.39879000  1.0
  C  C62  1  0.90484000  0.85963000  0.39875000  1.0
  C  C63  1  0.50544000  0.64048000  0.60121000  1.0
  C  C64  1  0.14594000  0.22506000  0.53441000  1.0
  C  C65  1  0.61176000  0.27477000  0.46570000  1.0
  C  C66  1  0.85406000  0.77494000  0.46559000  1.0
  C  C67  1  0.38823000  0.72523000  0.53430000  1.0
  C  C68  1  0.15639000  0.36662000  0.55723000  1.0
  C  C69  1  0.59886000  0.13324000  0.44295000  1.0
  C  C70  1  0.84361000  0.63338000  0.44277000  1.0
  C  C71  1  0.40113000  0.86676000  0.55705000  1.0
  C  C72  1  0.12154000  0.42281000  0.64786000  1.0
  C  C73  1  0.47324000  0.07703000  0.35239000  1.0
  C  C74  1  0.87846000  0.57719000  0.35214000  1.0
  C  C75  1  0.52675000  0.92297000  0.64761000  1.0
  C  C76  1  0.13076000  0.82525000  0.74982000  1.0
  C  C77  1  0.38047000  0.67464000  0.24986000  1.0
  C  C78  1  0.86924000  0.17475000  0.25018000  1.0
  C  C79  1  0.61955000  0.32536000  0.75015000  1.0
  C  C80  1  0.42433000  0.82598000  0.92761000  1.0
  C  C81  1  0.49649000  0.67424000  0.07214000  1.0
  C  C82  1  0.57567000  0.17402000  0.07239000  1.0
  C  C83  1  0.50351000  0.32576000  0.92786000  1.0
  C  C84  1  0.34414000  0.75002000  0.99985000  1.0
  C  C85  1  0.65586000  0.24998000  0.00015000  1.0
  S  S86  1  0.28023000  0.94369000  0.84508000  1.0
  S  S87  1  0.43492000  0.55633000  0.15464000  1.0
  S  S88  1  0.71977000  0.05631000  0.15492000  1.0
  S  S89  1  0.56508000  0.44367000  0.84536000  1.0
  O  O90  1  0.06789000  0.31996000  0.89246000  1.0
  O  O91  1  0.17644000  0.17995000  0.10759000  1.0
  O  O92  1  0.93210000  0.68004000  0.10754000  1.0
  O  O93  1  0.82356000  0.82005000  0.89241000  1.0
  O  O94  1  0.01880000  0.52541000  0.82413000  1.0
  O  O95  1  0.19435000  0.97458000  0.17603000  1.0
  O  O96  1  0.98122000  0.47459000  0.17588000  1.0
  O  O97  1  0.80565000  0.02542000  0.82397000  1.0
