# generated using pymatgen
data_ZnH22C15NO6
_symmetry_space_group_name_H-M   'P 1'
_cell_length_a   9.39092000
_cell_length_b   10.84240000
_cell_length_c   10.84230000
_cell_angle_alpha   88.49660000
_cell_angle_beta   88.58400000
_cell_angle_gamma   88.58210000
_symmetry_Int_Tables_number   1
_chemical_formula_structural   ZnH22C15NO6
_chemical_formula_sum   'Zn2 H44 C30 N2 O12'
_cell_volume   1102.92641857
_cell_formula_units_Z   2
loop_
 _symmetry_equiv_pos_site_id
 _symmetry_equiv_pos_as_xyz
  1  'x, y, z'
loop_
 _atom_site_type_symbol
 _atom_site_label
 _atom_site_symmetry_multiplicity
 _atom_site_fract_x
 _atom_site_fract_y
 _atom_site_fract_z
 _atom_site_occupancy
  Zn  Zn0  1  0.35574000  0.50332000  0.50252000  1.0
  Zn  Zn1  1  0.64426000  0.49747000  0.49666000  1.0
  H  H2  1  0.47505000  0.30162000  0.11923000  1.0
  H  H3  1  0.70230000  0.39023000  0.88951000  1.0
  H  H4  1  0.54098000  0.09581000  0.70592000  1.0
  H  H5  1  0.29800000  0.11037000  0.61028000  1.0
  H  H6  1  0.45969000  0.29403000  0.90427000  1.0
  H  H7  1  0.30446000  0.38991000  0.91083000  1.0
  H  H8  1  0.71576000  0.55254000  0.88319000  1.0
  H  H9  1  0.69588000  0.08908000  0.60964000  1.0
  H  H10  1  0.70448000  0.39559000  0.10599000  1.0
  H  H11  1  0.28403000  0.11682000  0.44801000  1.0
  H  H12  1  0.32887000  0.62816000  0.10807000  1.0
  H  H13  1  0.49738000  0.69669000  0.09637000  1.0
  H  H14  1  0.67097000  0.89199000  0.37174000  1.0
  H  H15  1  0.50235000  0.90354000  0.30337000  1.0
  H  H16  1  0.52518000  0.88087000  0.69843000  1.0
  H  H17  1  0.32350000  0.62099000  0.89200000  1.0
  H  H18  1  0.49279000  0.68897000  0.88142000  1.0
  H  H19  1  0.67611000  0.10808000  0.37866000  1.0
  H  H20  1  0.50658000  0.11849000  0.31108000  1.0
  H  H21  1  0.29570000  0.89392000  0.60471000  1.0
  H  H22  1  0.89586000  0.37276000  0.35958000  1.0
  H  H23  1  0.14448000  0.34028000  0.39465000  1.0
  H  H24  1  0.10414000  0.64031000  0.62737000  1.0
  H  H25  1  0.85552000  0.60520000  0.65983000  1.0
  H  H26  1  0.86866000  0.30746000  0.50926000  1.0
  H  H27  1  0.11570000  0.31660000  0.55495000  1.0
  H  H28  1  0.13136000  0.49059000  0.69255000  1.0
  H  H29  1  0.88433000  0.44489000  0.68337000  1.0
  H  H30  1  0.86411000  0.59529000  0.32537000  1.0
  H  H31  1  0.11523000  0.54637000  0.31034000  1.0
  H  H32  1  0.13588000  0.67472000  0.40485000  1.0
  H  H33  1  0.88475000  0.68970000  0.45379000  1.0
  H  H34  1  0.26932000  0.20925000  0.19885000  1.0
  H  H35  1  0.20922000  0.23643000  0.04423000  1.0
  H  H36  1  0.10368000  0.29084000  0.17189000  1.0
  H  H37  1  0.91833000  0.54217000  0.98462000  1.0
  H  H38  1  0.92514000  0.47324000  0.13626000  1.0
  H  H39  1  0.94822000  0.63632000  0.11405000  1.0
  H  H40  1  0.73105000  0.80140000  0.79078000  1.0
  H  H41  1  0.79133000  0.95590000  0.76322000  1.0
  H  H42  1  0.89659000  0.82802000  0.70893000  1.0
  H  H43  1  0.08160000  0.01531000  0.45871000  1.0
  H  H44  1  0.07500000  0.86356000  0.52737000  1.0
  H  H45  1  0.05150000  0.88606000  0.36438000  1.0
  C  C46  1  0.50581000  0.26039000  0.50927000  1.0
  C  C47  1  0.49255000  0.73737000  0.49999000  1.0
  C  C48  1  0.50745000  0.50006000  0.26262000  1.0
  C  C49  1  0.42085000  0.38574000  0.08141000  1.0
  C  C50  1  0.65778000  0.48170000  0.06578000  1.0
  C  C51  1  0.57934000  0.91858000  0.61424000  1.0
  C  C52  1  0.34227000  0.93419000  0.51859000  1.0
  C  C53  1  0.49416000  0.49073000  0.73959000  1.0
  C  C54  1  0.41605000  0.38212000  0.93872000  1.0
  C  C55  1  0.65360000  0.47655000  0.92369000  1.0
  C  C56  1  0.58427000  0.06127000  0.61775000  1.0
  C  C57  1  0.34644000  0.07627000  0.52382000  1.0
  C  C58  1  0.43624000  0.61799000  0.06726000  1.0
  C  C59  1  0.56357000  0.93273000  0.38201000  1.0
  C  C60  1  0.50581000  0.49899000  0.12121000  1.0
  C  C61  1  0.49421000  0.87877000  0.50109000  1.0
  C  C62  1  0.49984000  0.48909000  0.88012000  1.0
  C  C63  1  0.50016000  0.11987000  0.51096000  1.0
  C  C64  1  0.43321000  0.61264000  0.92501000  1.0
  C  C65  1  0.56645000  0.07498000  0.38729000  1.0
  C  C66  1  0.92363000  0.38076000  0.45683000  1.0
  C  C67  1  0.08570000  0.37552000  0.47543000  1.0
  C  C68  1  0.07638000  0.54307000  0.61928000  1.0
  C  C69  1  0.91430000  0.52447000  0.62452000  1.0
  C  C70  1  0.91827000  0.60152000  0.41337000  1.0
  C  C71  1  0.21339000  0.27610000  0.13694000  1.0
  C  C72  1  0.89019000  0.55666000  0.08293000  1.0
  C  C73  1  0.78695000  0.86311000  0.72374000  1.0
  C  C74  1  0.10972000  0.91704000  0.44398000  1.0
  C  C75  1  0.08172000  0.58672000  0.39856000  1.0
  N  N76  1  0.86389000  0.50184000  0.49820000  1.0
  N  N77  1  0.13611000  0.50182000  0.49817000  1.0
  O  O78  1  0.39569000  0.31923000  0.47144000  1.0
  O  O79  1  0.61728000  0.45431000  0.31542000  1.0
  O  O80  1  0.60233000  0.68226000  0.45575000  1.0
  O  O81  1  0.38275000  0.68455000  0.54571000  1.0
  O  O82  1  0.39768000  0.54424000  0.31773000  1.0
  O  O83  1  0.27958000  0.39245000  0.13469000  1.0
  O  O84  1  0.74270000  0.58240000  0.10260000  1.0
  O  O85  1  0.72057000  0.86520000  0.60748000  1.0
  O  O86  1  0.62044000  0.30906000  0.54171000  1.0
  O  O87  1  0.25716000  0.89745000  0.41796000  1.0
  O  O88  1  0.60430000  0.52857000  0.68073000  1.0
  O  O89  1  0.37956000  0.45828000  0.69094000  1.0
