# generated using pymatgen
data_ZnH12C18N2O5
_symmetry_space_group_name_H-M   'P 1'
_cell_length_a   8.53007000
_cell_length_b   10.04370000
_cell_length_c   10.67900000
_cell_angle_alpha   84.58780000
_cell_angle_beta   66.73280000
_cell_angle_gamma   68.62910000
_symmetry_Int_Tables_number   1
_chemical_formula_structural   ZnH12C18N2O5
_chemical_formula_sum   'Zn2 H24 C36 N4 O10'
_cell_volume   781.39005695
_cell_formula_units_Z   2
loop_
 _symmetry_equiv_pos_site_id
 _symmetry_equiv_pos_as_xyz
  1  'x, y, z'
loop_
 _atom_site_type_symbol
 _atom_site_label
 _atom_site_symmetry_multiplicity
 _atom_site_fract_x
 _atom_site_fract_y
 _atom_site_fract_z
 _atom_site_occupancy
  Zn  Zn0  1  0.14313000  0.98923000  0.79257000  1.0
  Zn  Zn1  1  0.85687000  0.01077000  0.20743000  1.0
  H  H2  1  0.28762000  0.22874000  0.62371000  1.0
  H  H3  1  0.71237000  0.77126000  0.37629000  1.0
  H  H4  1  0.35575000  0.30895000  0.38283000  1.0
  H  H5  1  0.64424000  0.69105000  0.61717000  1.0
  H  H6  1  0.31120000  0.17668000  0.21896000  1.0
  H  H7  1  0.68880000  0.82332000  0.78104000  1.0
  H  H8  1  0.22563000  0.96203000  0.29402000  1.0
  H  H9  1  0.77437000  0.03797000  0.70598000  1.0
  H  H10  1  0.22563000  0.75997000  0.34915000  1.0
  H  H11  1  0.77438000  0.24003000  0.65085000  1.0
  H  H12  1  0.17614000  0.53887000  0.44355000  1.0
  H  H13  1  0.82387000  0.46112000  0.55645000  1.0
  H  H14  1  0.12949000  0.49320000  0.69279000  1.0
  H  H15  1  0.87051000  0.50680000  0.30721000  1.0
  H  H16  1  0.13011000  0.68099000  0.83183000  1.0
  H  H17  1  0.86988000  0.31901000  0.16817000  1.0
  H  H18  1  0.44821000  0.60628000  0.86637000  1.0
  H  H19  1  0.55179000  0.39372000  0.13363000  1.0
  H  H20  1  0.90343000  0.38289000  0.82228000  1.0
  H  H21  1  0.09657000  0.61711000  0.17772000  1.0
  H  H22  1  0.92437000  0.54083000  0.94900000  1.0
  H  H23  1  0.07563000  0.45916000  0.05100000  1.0
  H  H24  1  0.44663000  0.91873000  0.11798000  1.0
  H  H25  1  0.55337000  0.08127000  0.88202000  1.0
  C  C26  1  0.28199000  0.17049000  0.54549000  1.0
  C  C27  1  0.71801000  0.82952000  0.45451000  1.0
  C  C28  1  0.31507000  0.21609000  0.41318000  1.0
  C  C29  1  0.68493000  0.78391000  0.58682000  1.0
  C  C30  1  0.29255000  0.14149000  0.32173000  1.0
  C  C31  1  0.70744000  0.85851000  0.67827000  1.0
  C  C32  1  0.24723000  0.02019000  0.36311000  1.0
  C  C33  1  0.75276000  0.97981000  0.63689000  1.0
  C  C34  1  0.22880000  0.97529000  0.49430000  1.0
  C  C35  1  0.77120000  0.02472000  0.50570000  1.0
  C  C36  1  0.19975000  0.83966000  0.54172000  1.0
  C  C37  1  0.80024000  0.16035000  0.45828000  1.0
  C  C38  1  0.20336000  0.74047000  0.45587000  1.0
  C  C39  1  0.79664000  0.25954000  0.54413000  1.0
  C  C40  1  0.17694000  0.61480000  0.50958000  1.0
  C  C41  1  0.82307000  0.38520000  0.49042000  1.0
  C  C42  1  0.15062000  0.58973000  0.64589000  1.0
  C  C43  1  0.84938000  0.41027000  0.35410000  1.0
  C  C44  1  0.15009000  0.69315000  0.72469000  1.0
  C  C45  1  0.84991000  0.30685000  0.27531000  1.0
  C  C46  1  0.22588000  0.84746000  0.03032000  1.0
  C  C47  1  0.77412000  0.15254000  0.96968000  1.0
  C  C48  1  0.42468000  0.76878000  0.99884000  1.0
  C  C49  1  0.57532000  0.23122000  0.00116000  1.0
  C  C50  1  0.51819000  0.64356000  0.91356000  1.0
  C  C51  1  0.48181000  0.35644000  0.08644000  1.0
  C  C52  1  0.70003000  0.56236000  0.89378000  1.0
  C  C53  1  0.29997000  0.43764000  0.10622000  1.0
  C  C54  1  0.78558000  0.60700000  0.96128000  1.0
  C  C55  1  0.21442000  0.39299000  0.03873000  1.0
  C  C56  1  0.69422000  0.73544000  0.04164000  1.0
  C  C57  1  0.30578000  0.26456000  0.95836000  1.0
  C  C58  1  0.51466000  0.81748000  0.05861000  1.0
  C  C59  1  0.48534000  0.18252000  0.94139000  1.0
  C  C60  1  0.78557000  0.78218000  0.11515000  1.0
  C  C61  1  0.21443000  0.21782000  0.88485000  1.0
  N  N62  1  0.23936000  0.05317000  0.58515000  1.0
  N  N63  1  0.76064000  0.94684000  0.41485000  1.0
  N  N64  1  0.17364000  0.81482000  0.67375000  1.0
  N  N65  1  0.82636000  0.18518000  0.32625000  1.0
  O  O66  1  0.16180000  0.84287000  0.94276000  1.0
  O  O67  1  0.83820000  0.15713000  0.05724000  1.0
  O  O68  1  0.12891000  0.91194000  0.14925000  1.0
  O  O69  1  0.87109000  0.08806000  0.85074000  1.0
  O  O70  1  0.78747000  0.44104000  0.81008000  1.0
  O  O71  1  0.21253000  0.55896000  0.18991000  1.0
  O  O72  1  0.90722000  0.68685000  0.14651000  1.0
  O  O73  1  0.09279000  0.31314000  0.85349000  1.0
  O  O74  1  0.72646000  0.91718000  0.14488000  1.0
  O  O75  1  0.27354000  0.08281000  0.85513000  1.0
