# generated using pymatgen
data_NaH11C8S3N2O3
_symmetry_space_group_name_H-M   'P 1'
_cell_length_a   6.24908000
_cell_length_b   12.89900000
_cell_length_c   16.54410000
_cell_angle_alpha   68.54700000
_cell_angle_beta   89.99990000
_cell_angle_gamma   89.99950000
_symmetry_Int_Tables_number   1
_chemical_formula_structural   NaH11C8S3N2O3
_chemical_formula_sum   'Na4 H44 C32 S12 N8 O12'
_cell_volume   1241.17591396
_cell_formula_units_Z   4
loop_
 _symmetry_equiv_pos_site_id
 _symmetry_equiv_pos_as_xyz
  1  'x, y, z'
loop_
 _atom_site_type_symbol
 _atom_site_label
 _atom_site_symmetry_multiplicity
 _atom_site_fract_x
 _atom_site_fract_y
 _atom_site_fract_z
 _atom_site_occupancy
  Na  Na0  1  0.18338000  0.99410000  0.08733000  1.0
  Na  Na1  1  0.31661000  0.49410000  0.58734000  1.0
  Na  Na2  1  0.81661000  0.00590000  0.91266000  1.0
  Na  Na3  1  0.68339000  0.50590000  0.41267000  1.0
  H  H4  1  0.52863000  0.86395000  0.18824000  1.0
  H  H5  1  0.97136000  0.36395000  0.68825000  1.0
  H  H6  1  0.47135000  0.13604000  0.81176000  1.0
  H  H7  1  0.02864000  0.63605000  0.31176000  1.0
  H  H8  1  0.57829000  0.87017000  0.09117000  1.0
  H  H9  1  0.92170000  0.37017000  0.59117000  1.0
  H  H10  1  0.42171000  0.12983000  0.90883000  1.0
  H  H11  1  0.07830000  0.62982000  0.40884000  1.0
  H  H12  1  0.17495000  0.21519000  0.94454000  1.0
  H  H13  1  0.32506000  0.71519000  0.44454000  1.0
  H  H14  1  0.82505000  0.78481000  0.05546000  1.0
  H  H15  1  0.67494000  0.28481000  0.55547000  1.0
  H  H16  1  0.39583000  0.23242000  0.98526000  1.0
  H  H17  1  0.10418000  0.73243000  0.48526000  1.0
  H  H18  1  0.60417000  0.76758000  0.01474000  1.0
  H  H19  1  0.89583000  0.26757000  0.51474000  1.0
  H  H20  1  0.35969000  0.60339000  0.25629000  1.0
  H  H21  1  0.14030000  0.10338000  0.75628000  1.0
  H  H22  1  0.64031000  0.39661000  0.74372000  1.0
  H  H23  1  0.85969000  0.89662000  0.24371000  1.0
  H  H24  1  0.01462000  0.37629000  0.36097000  1.0
  H  H25  1  0.48536000  0.87629000  0.86097000  1.0
  H  H26  1  0.98537000  0.62369000  0.63904000  1.0
  H  H27  1  0.51462000  0.12370000  0.13902000  1.0
  H  H28  1  0.02789000  0.41093000  0.04918000  1.0
  H  H29  1  0.47213000  0.91091000  0.54918000  1.0
  H  H30  1  0.97212000  0.58910000  0.95082000  1.0
  H  H31  1  0.52789000  0.08908000  0.45081000  1.0
  H  H32  1  0.31747000  0.31033000  0.15042000  1.0
  H  H33  1  0.18254000  0.81032000  0.65041000  1.0
  H  H34  1  0.68256000  0.68969000  0.84958000  1.0
  H  H35  1  0.81745000  0.18968000  0.34958000  1.0
  H  H36  1  0.31103000  0.29279000  0.30432000  1.0
  H  H37  1  0.18896000  0.79278000  0.80431000  1.0
  H  H38  1  0.68897000  0.70721000  0.69568000  1.0
  H  H39  1  0.81103000  0.20721000  0.19568000  1.0
  H  H40  1  0.71525000  0.01493000  0.07990000  1.0
  H  H41  1  0.78475000  0.51493000  0.57990000  1.0
  H  H42  1  0.28475000  0.98508000  0.92010000  1.0
  H  H43  1  0.21526000  0.48507000  0.42010000  1.0
  H  H44  1  0.80976000  0.13618000  0.02712000  1.0
  H  H45  1  0.69024000  0.63619000  0.52712000  1.0
  H  H46  1  0.19024000  0.86382000  0.97288000  1.0
  H  H47  1  0.30976000  0.36381000  0.47288000  1.0
  C  C48  1  0.56659000  0.54802000  0.18769000  1.0
  C  C49  1  0.93340000  0.04801000  0.68768000  1.0
  C  C50  1  0.43342000  0.45198000  0.81232000  1.0
  C  C51  1  0.06659000  0.95199000  0.31231000  1.0
  C  C52  1  0.01858000  0.38518000  0.29296000  1.0
  C  C53  1  0.48140000  0.88516000  0.79296000  1.0
  C  C54  1  0.98141000  0.61482000  0.70704000  1.0
  C  C55  1  0.51858000  0.11483000  0.20703000  1.0
  C  C56  1  0.85629000  0.44456000  0.23615000  1.0
  C  C57  1  0.64370000  0.94454000  0.73615000  1.0
  C  C58  1  0.14370000  0.55545000  0.76385000  1.0
  C  C59  1  0.35629000  0.05545000  0.26384000  1.0
  C  C60  1  0.86288000  0.45382000  0.14820000  1.0
  C  C61  1  0.63712000  0.95379000  0.64820000  1.0
  C  C62  1  0.13713000  0.54620000  0.85180000  1.0
  C  C63  1  0.36289000  0.04619000  0.35179000  1.0
  C  C64  1  0.24729000  0.67198000  0.13294000  1.0
  C  C65  1  0.25269000  0.17197000  0.63294000  1.0
  C  C66  1  0.75270000  0.32802000  0.86707000  1.0
  C  C67  1  0.74730000  0.82803000  0.36706000  1.0
  C  C68  1  0.02677000  0.40556000  0.11642000  1.0
  C  C69  1  0.47325000  0.90555000  0.61642000  1.0
  C  C70  1  0.97326000  0.59445000  0.88358000  1.0
  C  C71  1  0.52676000  0.09445000  0.38357000  1.0
  C  C72  1  0.18705000  0.34800000  0.17364000  1.0
  C  C73  1  0.31297000  0.84798000  0.67364000  1.0
  C  C74  1  0.81298000  0.65201000  0.82636000  1.0
  C  C75  1  0.68705000  0.15201000  0.32635000  1.0
  C  C76  1  0.18283000  0.33794000  0.26119000  1.0
  C  C77  1  0.31718000  0.83792000  0.76118000  1.0
  C  C78  1  0.81718000  0.66207000  0.73882000  1.0
  C  C79  1  0.68283000  0.16207000  0.23880000  1.0
  S  S80  1  0.27652000  0.68660000  0.02743000  1.0
  S  S81  1  0.22347000  0.18660000  0.52743000  1.0
  S  S82  1  0.72349000  0.31339000  0.97258000  1.0
  S  S83  1  0.77654000  0.81340000  0.47257000  1.0
  S  S84  1  0.04672000  0.73238000  0.17056000  1.0
  S  S85  1  0.45325000  0.23236000  0.67056000  1.0
  S  S86  1  0.95327000  0.26763000  0.82944000  1.0
  S  S87  1  0.54673000  0.76763000  0.32944000  1.0
  S  S88  1  0.64728000  0.53283000  0.09116000  1.0
  S  S89  1  0.85272000  0.03281000  0.59116000  1.0
  S  S90  1  0.35274000  0.46718000  0.90885000  1.0
  S  S91  1  0.14728000  0.96718000  0.40884000  1.0
  N  N92  1  0.68472000  0.49826000  0.25704000  1.0
  N  N93  1  0.81528000  0.99825000  0.75703000  1.0
  N  N94  1  0.31529000  0.50174000  0.74297000  1.0
  N  N95  1  0.18471000  0.00175000  0.24296000  1.0
  N  N96  1  0.38844000  0.60763000  0.19444000  1.0
  N  N97  1  0.11155000  0.10763000  0.69443000  1.0
  N  N98  1  0.61157000  0.39237000  0.80557000  1.0
  N  N99  1  0.88843000  0.89238000  0.30556000  1.0
  O  O100  1  0.52433000  0.91380000  0.12595000  1.0
  O  O101  1  0.97566000  0.41380000  0.62595000  1.0
  O  O102  1  0.47566000  0.08620000  0.87405000  1.0
  O  O103  1  0.02434000  0.58620000  0.37405000  1.0
  O  O104  1  0.29413000  0.17469000  0.98309000  1.0
  O  O105  1  0.20589000  0.67469000  0.48309000  1.0
  O  O106  1  0.70588000  0.82531000  0.01691000  1.0
  O  O107  1  0.79412000  0.32531000  0.51692000  1.0
  O  O108  1  0.83746000  0.05538000  0.04351000  1.0
  O  O109  1  0.66253000  0.55539000  0.54351000  1.0
  O  O110  1  0.16253000  0.94461000  0.95649000  1.0
  O  O111  1  0.33747000  0.44461000  0.45650000  1.0
