# generated using pymatgen
data_BaH14(CN8)2
_symmetry_space_group_name_H-M   'P 1'
_cell_length_a   7.19720000
_cell_length_b   9.21924000
_cell_length_c   10.44080000
_cell_angle_alpha   67.13050000
_cell_angle_beta   78.64430000
_cell_angle_gamma   79.72920000
_symmetry_Int_Tables_number   1
_chemical_formula_structural   BaH14(CN8)2
_chemical_formula_sum   'Ba2 H28 C4 N32'
_cell_volume   621.83732039
_cell_formula_units_Z   2
loop_
 _symmetry_equiv_pos_site_id
 _symmetry_equiv_pos_as_xyz
  1  'x, y, z'
loop_
 _atom_site_type_symbol
 _atom_site_label
 _atom_site_symmetry_multiplicity
 _atom_site_fract_x
 _atom_site_fract_y
 _atom_site_fract_z
 _atom_site_occupancy
  Ba  Ba0  1  0.55628000  0.83479000  0.81234000  1.0
  Ba  Ba1  1  0.44372000  0.16521000  0.18766000  1.0
  H  H2  1  0.85495000  0.56327000  0.43406000  1.0
  H  H3  1  0.14505000  0.43673000  0.56594000  1.0
  H  H4  1  0.53273000  0.47135000  0.38135000  1.0
  H  H5  1  0.46727000  0.52865000  0.61864000  1.0
  H  H6  1  0.13124000  0.04125000  0.87378000  1.0
  H  H7  1  0.86876000  0.95876000  0.12622000  1.0
  H  H8  1  0.20601000  0.95423000  0.02754000  1.0
  H  H9  1  0.79399000  0.04577000  0.97246000  1.0
  H  H10  1  0.12298000  0.23174000  0.95847000  1.0
  H  H11  1  0.87702000  0.76826000  0.04154000  1.0
  H  H12  1  0.30922000  0.25177000  0.83599000  1.0
  H  H13  1  0.69078000  0.74823000  0.16401000  1.0
  H  H14  1  0.27923000  0.94132000  0.54631000  1.0
  H  H15  1  0.72077000  0.05868000  0.45369000  1.0
  H  H16  1  0.15735000  0.03203000  0.65027000  1.0
  H  H17  1  0.84265000  0.96797000  0.34973000  1.0
  H  H18  1  0.39732000  0.22659000  0.51305000  1.0
  H  H19  1  0.60268000  0.77341000  0.48695000  1.0
  H  H20  1  0.19094000  0.24004000  0.45811000  1.0
  H  H21  1  0.80906000  0.75996000  0.54189000  1.0
  H  H22  1  0.80730000  0.49717000  0.78345000  1.0
  H  H23  1  0.19270000  0.50283000  0.21655000  1.0
  H  H24  1  0.79558000  0.45410000  0.95229000  1.0
  H  H25  1  0.20442000  0.54590000  0.04771000  1.0
  H  H26  1  0.63816000  0.30009000  0.85323000  1.0
  H  H27  1  0.36184000  0.69991000  0.14677000  1.0
  H  H28  1  0.46087000  0.43354000  0.87504000  1.0
  H  H29  1  0.53913000  0.56647000  0.12496000  1.0
  C  C30  1  0.78228000  0.34841000  0.57578000  1.0
  C  C31  1  0.21773000  0.65158000  0.42422000  1.0
  C  C32  1  0.78800000  0.38821000  0.29326000  1.0
  C  C33  1  0.21201000  0.61178000  0.70673000  1.0
  N  N34  1  0.74139000  0.49564000  0.47177000  1.0
  N  N35  1  0.25862000  0.50436000  0.52823000  1.0
  N  N36  1  0.92449000  0.31424000  0.65277000  1.0
  N  N37  1  0.07551000  0.68576000  0.34723000  1.0
  N  N38  1  0.90578000  0.16361000  0.74496000  1.0
  N  N39  1  0.09422000  0.83639000  0.25504000  1.0
  N  N40  1  0.75956000  0.11306000  0.72142000  1.0
  N  N41  1  0.24044000  0.88694000  0.27858000  1.0
  N  N42  1  0.67688000  0.22733000  0.61499000  1.0
  N  N43  1  0.32312000  0.77267000  0.38501000  1.0
  N  N44  1  0.67383000  0.48838000  0.35593000  1.0
  N  N45  1  0.32616000  0.51162000  0.64407000  1.0
  N  N46  1  0.97042000  0.33407000  0.31154000  1.0
  N  N47  1  0.02958000  0.66593000  0.68846000  1.0
  N  N48  1  0.03018000  0.25594000  0.22180000  1.0
  N  N49  1  0.96982000  0.74406000  0.77820000  1.0
  N  N50  1  0.89112000  0.26230000  0.15441000  1.0
  N  N51  1  0.10888000  0.73770000  0.84559000  1.0
  N  N52  1  0.73252000  0.34611000  0.19819000  1.0
  N  N53  1  0.26748000  0.65389000  0.80181000  1.0
  N  N54  1  0.24382000  0.02866000  0.92642000  1.0
  N  N55  1  0.75618000  0.97134000  0.07358000  1.0
  N  N56  1  0.25769000  0.17987000  0.93514000  1.0
  N  N57  1  0.74231000  0.82013000  0.06486000  1.0
  N  N58  1  0.28693000  0.02094000  0.59080000  1.0
  N  N59  1  0.71307000  0.97906000  0.40920000  1.0
  N  N60  1  0.31886000  0.17113000  0.47763000  1.0
  N  N61  1  0.68114000  0.82887000  0.52237000  1.0
  N  N62  1  0.71422000  0.49222000  0.87274000  1.0
  N  N63  1  0.28578000  0.50779000  0.12726000  1.0
  N  N64  1  0.58735000  0.37372000  0.90758000  1.0
  N  N65  1  0.41265000  0.62628000  0.09242000  1.0
