# generated using pymatgen
data_Cd2H27C25N5O11
_symmetry_space_group_name_H-M   'P 1'
_cell_length_a   12.78680000
_cell_length_b   15.23610000
_cell_length_c   23.63240000
_cell_angle_alpha   90.00000000
_cell_angle_beta   90.00000000
_cell_angle_gamma   89.99990000
_symmetry_Int_Tables_number   1
_chemical_formula_structural   Cd2H27C25N5O11
_chemical_formula_sum   'Cd8 H108 C100 N20 O44'
_cell_volume   4604.08693734
_cell_formula_units_Z   4
loop_
 _symmetry_equiv_pos_site_id
 _symmetry_equiv_pos_as_xyz
  1  'x, y, z'
loop_
 _atom_site_type_symbol
 _atom_site_label
 _atom_site_symmetry_multiplicity
 _atom_site_fract_x
 _atom_site_fract_y
 _atom_site_fract_z
 _atom_site_occupancy
  Cd  Cd0  1  0.35948000  0.35924000  0.38106000  1.0
  Cd  Cd1  1  0.85948000  0.64076000  0.61894000  1.0
  Cd  Cd2  1  0.35948000  0.14076000  0.88106000  1.0
  Cd  Cd3  1  0.85948000  0.85924000  0.11894000  1.0
  Cd  Cd4  1  0.25442000  0.22447000  0.49916000  1.0
  Cd  Cd5  1  0.75442000  0.77552000  0.50084000  1.0
  Cd  Cd6  1  0.25442000  0.27552000  0.99916000  1.0
  Cd  Cd7  1  0.75442000  0.72448000  0.00084000  1.0
  H  H8  1  0.04343000  0.49109000  0.50806000  1.0
  H  H9  1  0.54343000  0.50891000  0.49194000  1.0
  H  H10  1  0.04344000  0.00891000  0.00806000  1.0
  H  H11  1  0.54343000  0.99109000  0.99194000  1.0
  H  H12  1  0.93622000  0.63745000  0.36375000  1.0
  H  H13  1  0.43622000  0.36255000  0.63625000  1.0
  H  H14  1  0.93622000  0.86255000  0.86375000  1.0
  H  H15  1  0.43622000  0.13745000  0.13625000  1.0
  H  H16  1  0.12334000  0.40504000  0.33995000  1.0
  H  H17  1  0.62334000  0.59496000  0.66005000  1.0
  H  H18  1  0.12334000  0.09496000  0.83995000  1.0
  H  H19  1  0.62334000  0.90504000  0.16005000  1.0
  H  H20  1  0.95775000  0.61953000  0.20166000  1.0
  H  H21  1  0.45775000  0.38046000  0.79834000  1.0
  H  H22  1  0.95775000  0.88047000  0.70166000  1.0
  H  H23  1  0.45775000  0.11953000  0.29834000  1.0
  H  H24  1  0.99850000  0.51129000  0.03450000  1.0
  H  H25  1  0.49850000  0.48871000  0.96550000  1.0
  H  H26  1  0.99850000  0.98871000  0.53450000  1.0
  H  H27  1  0.49851000  0.01129000  0.46550000  1.0
  H  H28  1  0.13436000  0.38115000  0.17859000  1.0
  H  H29  1  0.63436000  0.61885000  0.82141000  1.0
  H  H30  1  0.13436000  0.11885000  0.67859000  1.0
  H  H31  1  0.63436000  0.88114000  0.32141000  1.0
  H  H32  1  0.33343000  0.47488000  0.26300000  1.0
  H  H33  1  0.83343000  0.52512000  0.73700000  1.0
  H  H34  1  0.33343000  0.02511000  0.76300000  1.0
  H  H35  1  0.83343000  0.97488000  0.23700000  1.0
  H  H36  1  0.40395000  0.25792000  0.21172000  1.0
  H  H37  1  0.90394000  0.74208000  0.78828000  1.0
  H  H38  1  0.40394000  0.24208000  0.71172000  1.0
  H  H39  1  0.90395000  0.75792000  0.28828000  1.0
  H  H40  1  0.41906000  0.29664000  0.13992000  1.0
  H  H41  1  0.91905000  0.70336000  0.86008000  1.0
  H  H42  1  0.41905000  0.20336000  0.63992000  1.0
  H  H43  1  0.91905000  0.79664000  0.36008000  1.0
  H  H44  1  0.29308000  0.27109000  0.16582000  1.0
  H  H45  1  0.79308000  0.72891000  0.83418000  1.0
  H  H46  1  0.29308000  0.22891000  0.66582000  1.0
  H  H47  1  0.79308000  0.77109000  0.33418000  1.0
  H  H48  1  0.35582000  0.52202000  0.17639000  1.0
  H  H49  1  0.85582000  0.47798000  0.82361000  1.0
  H  H50  1  0.35582000  0.97798000  0.67639000  1.0
  H  H51  1  0.85582000  0.02202000  0.32361000  1.0
  H  H52  1  0.31130000  0.44890000  0.12206000  1.0
  H  H53  1  0.81131000  0.55110000  0.87794000  1.0
  H  H54  1  0.31130000  0.05110000  0.62206000  1.0
  H  H55  1  0.81131000  0.94890000  0.37794000  1.0
  H  H56  1  0.44783000  0.45796000  0.13698000  1.0
  H  H57  1  0.94783000  0.54204000  0.86302000  1.0
  H  H58  1  0.44783000  0.04204000  0.63698000  1.0
  H  H59  1  0.94783000  0.95796000  0.36302000  1.0
  H  H60  1  0.59951000  0.33163000  0.41868000  1.0
  H  H61  1  0.09951000  0.66837000  0.58132000  1.0
  H  H62  1  0.59951000  0.16837000  0.91868000  1.0
  H  H63  1  0.09951000  0.83163000  0.08132000  1.0
  H  H64  1  0.77475000  0.46640000  0.47654000  1.0
  H  H65  1  0.27475000  0.53361000  0.52346000  1.0
  H  H66  1  0.77475000  0.03360000  0.97654000  1.0
  H  H67  1  0.27475000  0.96640000  0.02346000  1.0
  H  H68  1  0.84270000  0.40692000  0.42289000  1.0
  H  H69  1  0.34271000  0.59308000  0.57710000  1.0
  H  H70  1  0.84271000  0.09308000  0.92289000  1.0
  H  H71  1  0.34271000  0.90692000  0.07711000  1.0
  H  H72  1  0.74328000  0.35366000  0.46367000  1.0
  H  H73  1  0.24328000  0.64634000  0.53633000  1.0
  H  H74  1  0.74328000  0.14634000  0.96367000  1.0
  H  H75  1  0.24328000  0.85366000  0.03633000  1.0
  H  H76  1  0.63705000  0.53618000  0.34505000  1.0
  H  H77  1  0.13705000  0.46383000  0.65495000  1.0
  H  H78  1  0.63705000  0.96383000  0.84505000  1.0
  H  H79  1  0.13705000  0.03617000  0.15495000  1.0
  H  H80  1  0.77606000  0.52333000  0.34916000  1.0
  H  H81  1  0.27606000  0.47667000  0.65084000  1.0
  H  H82  1  0.77606000  0.97667000  0.84916000  1.0
  H  H83  1  0.27605000  0.02333000  0.15084000  1.0
  H  H84  1  0.70766000  0.57865000  0.40487000  1.0
  H  H85  1  0.20766000  0.42135000  0.59513000  1.0
  H  H86  1  0.70766000  0.92135000  0.90487000  1.0
  H  H87  1  0.20765000  0.07865000  0.09513000  1.0
  H  H88  1  0.45537000  0.54973000  0.41287000  1.0
  H  H89  1  0.95538000  0.45027000  0.58713000  1.0
  H  H90  1  0.45538000  0.95027000  0.91287000  1.0
  H  H91  1  0.95538000  0.04973000  0.08712000  1.0
  H  H92  1  0.50344000  0.68373000  0.43279000  1.0
  H  H93  1  0.00344000  0.31627000  0.56721000  1.0
  H  H94  1  0.50344000  0.81627000  0.93279000  1.0
  H  H95  1  0.00344000  0.18373000  0.06721000  1.0
  H  H96  1  0.40121000  0.76071000  0.44534000  1.0
  H  H97  1  0.90122000  0.23930000  0.55466000  1.0
  H  H98  1  0.40121000  0.73929000  0.94534000  1.0
  H  H99  1  0.90121000  0.26070000  0.05465000  1.0
  H  H100  1  0.46587000  0.75927000  0.37856000  1.0
  H  H101  1  0.96587000  0.24073000  0.62144000  1.0
  H  H102  1  0.46587000  0.74073000  0.87856000  1.0
  H  H103  1  0.96587000  0.25927000  0.12144000  1.0
  H  H104  1  0.26366000  0.67674000  0.32113000  1.0
  H  H105  1  0.76366000  0.32327000  0.67887000  1.0
  H  H106  1  0.26366000  0.82327000  0.82113000  1.0
  H  H107  1  0.76366000  0.17673000  0.17887000  1.0
  H  H108  1  0.25531000  0.75603000  0.37679000  1.0
  H  H109  1  0.75531000  0.24398000  0.62320000  1.0
  H  H110  1  0.25531000  0.74397000  0.87679000  1.0
  H  H111  1  0.75531000  0.25602000  0.12320000  1.0
  H  H112  1  0.19676000  0.64975000  0.38465000  1.0
  H  H113  1  0.69676000  0.35026000  0.61534000  1.0
  H  H114  1  0.19676000  0.85026000  0.88465000  1.0
  H  H115  1  0.69676000  0.14974000  0.11534000  1.0
  C  C116  1  0.14789000  0.36624000  0.45293000  1.0
  C  C117  1  0.64789000  0.63376000  0.54707000  1.0
  C  C118  1  0.14789000  0.13376000  0.95293000  1.0
  C  C119  1  0.64789000  0.86624000  0.04707000  1.0
  C  C120  1  0.09118000  0.44157000  0.42680000  1.0
  C  C121  1  0.59118000  0.55843000  0.57320000  1.0
  C  C122  1  0.09118000  0.05843000  0.92680000  1.0
  C  C123  1  0.59118000  0.94157000  0.07320000  1.0
  C  C124  1  0.04041000  0.50116000  0.46254000  1.0
  C  C125  1  0.54041000  0.49884000  0.53746000  1.0
  C  C126  1  0.04041000  0.99884000  0.96254000  1.0
  C  C127  1  0.54040000  0.00116000  0.03746000  1.0
  C  C128  1  0.98457000  0.57179000  0.44039000  1.0
  C  C129  1  0.48456000  0.42821000  0.55961000  1.0
  C  C130  1  0.98457000  0.92821000  0.94039000  1.0
  C  C131  1  0.48456000  0.07179000  0.05961000  1.0
  C  C132  1  0.92282000  0.63015000  0.47939000  1.0
  C  C133  1  0.42282000  0.36985000  0.52061000  1.0
  C  C134  1  0.92282000  0.86985000  0.97939000  1.0
  C  C135  1  0.42282000  0.13015000  0.02061000  1.0
  C  C136  1  0.98036000  0.58313000  0.38177000  1.0
  C  C137  1  0.48036000  0.41688000  0.61824000  1.0
  C  C138  1  0.98036000  0.91688000  0.88176000  1.0
  C  C139  1  0.48036000  0.08312000  0.11824000  1.0
  C  C140  1  0.02977000  0.52301000  0.34567000  1.0
  C  C141  1  0.52977000  0.47699000  0.65433000  1.0
  C  C142  1  0.02977000  0.97699000  0.84567000  1.0
  C  C143  1  0.52977000  0.02301000  0.15433000  1.0
  C  C144  1  0.08573000  0.45180000  0.36822000  1.0
  C  C145  1  0.58574000  0.54820000  0.63178000  1.0
  C  C146  1  0.08574000  0.04820000  0.86823000  1.0
  C  C147  1  0.58574000  0.95180000  0.13177000  1.0
  C  C148  1  0.04401000  0.49729000  0.19675000  1.0
  C  C149  1  0.54401000  0.50271000  0.80326000  1.0
  C  C150  1  0.04401000  0.00271000  0.69675000  1.0
  C  C151  1  0.54401000  0.99729000  0.30326000  1.0
  C  C152  1  0.98814000  0.56846000  0.17400000  1.0
  C  C153  1  0.48814000  0.43154000  0.82600000  1.0
  C  C154  1  0.98813000  0.93155000  0.67400000  1.0
  C  C155  1  0.48814000  0.06845000  0.32600000  1.0
  C  C156  1  0.97162000  0.57299000  0.11585000  1.0
  C  C157  1  0.47162000  0.42701000  0.88415000  1.0
  C  C158  1  0.97162000  0.92701000  0.61585000  1.0
  C  C159  1  0.47162000  0.07299000  0.38415000  1.0
  C  C160  1  0.91148000  0.64903000  0.09159000  1.0
  C  C161  1  0.41147000  0.35097000  0.90841000  1.0
  C  C162  1  0.91147000  0.85097000  0.59160000  1.0
  C  C163  1  0.41148000  0.14903000  0.40841000  1.0
  C  C164  1  0.01196000  0.50794000  0.07998000  1.0
  C  C165  1  0.51195000  0.49206000  0.92002000  1.0
  C  C166  1  0.01196000  0.99206000  0.57998000  1.0
  C  C167  1  0.51196000  0.00794000  0.42002000  1.0
  C  C168  1  0.07335000  0.44023000  0.10214000  1.0
  C  C169  1  0.57335000  0.55977000  0.89787000  1.0
  C  C170  1  0.07335000  0.05977000  0.60214000  1.0
  C  C171  1  0.57335000  0.94023000  0.39787000  1.0
  C  C172  1  0.12888000  0.37796000  0.06334000  1.0
  C  C173  1  0.62888000  0.62204000  0.93666000  1.0
  C  C174  1  0.12888000  0.12204000  0.56334000  1.0
  C  C175  1  0.62889000  0.87796000  0.43666000  1.0
  C  C176  1  0.08809000  0.43440000  0.16070000  1.0
  C  C177  1  0.58809000  0.56561000  0.83931000  1.0
  C  C178  1  0.08809000  0.06561000  0.66070000  1.0
  C  C179  1  0.58809000  0.93439000  0.33931000  1.0
  C  C180  1  0.33765000  0.40471000  0.25155000  1.0
  C  C181  1  0.83765000  0.59529000  0.74845000  1.0
  C  C182  1  0.33765000  0.09529000  0.75155000  1.0
  C  C183  1  0.83765000  0.90471000  0.24845000  1.0
  C  C184  1  0.36971000  0.29777000  0.17783000  1.0
  C  C185  1  0.86971000  0.70223000  0.82217000  1.0
  C  C186  1  0.36971000  0.20223000  0.67783000  1.0
  C  C187  1  0.86971000  0.79777000  0.32217000  1.0
  C  C188  1  0.36917000  0.45848000  0.15581000  1.0
  C  C189  1  0.86917000  0.54152000  0.84419000  1.0
  C  C190  1  0.36917000  0.04152000  0.65581000  1.0
  C  C191  1  0.86917000  0.95848000  0.34419000  1.0
  C  C192  1  0.60238000  0.39257000  0.39329000  1.0
  C  C193  1  0.10238000  0.60744000  0.60671000  1.0
  C  C194  1  0.60238000  0.10743000  0.89329000  1.0
  C  C195  1  0.10238000  0.89256000  0.10671000  1.0
  C  C196  1  0.76647000  0.41570000  0.44371000  1.0
  C  C197  1  0.26647000  0.58431000  0.55629000  1.0
  C  C198  1  0.76647000  0.08430000  0.94371000  1.0
  C  C199  1  0.26647000  0.91570000  0.05629000  1.0
  C  C200  1  0.70305000  0.52523000  0.37370000  1.0
  C  C201  1  0.20305000  0.47477000  0.62630000  1.0
  C  C202  1  0.70305000  0.97477000  0.87370000  1.0
  C  C203  1  0.20304000  0.02523000  0.12630000  1.0
  C  C204  1  0.38078000  0.56802000  0.39276000  1.0
  C  C205  1  0.88079000  0.43198000  0.60724000  1.0
  C  C206  1  0.38079000  0.93198000  0.89276000  1.0
  C  C207  1  0.88079000  0.06802000  0.10724000  1.0
  C  C208  1  0.43699000  0.71783000  0.41334000  1.0
  C  C209  1  0.93699000  0.28217000  0.58666000  1.0
  C  C210  1  0.43699000  0.78217000  0.91334000  1.0
  C  C211  1  0.93699000  0.21783000  0.08666000  1.0
  C  C212  1  0.26361000  0.68602000  0.36729000  1.0
  C  C213  1  0.76361000  0.31399000  0.63271000  1.0
  C  C214  1  0.26361000  0.81399000  0.86729000  1.0
  C  C215  1  0.76361000  0.18601000  0.13271000  1.0
  N  N216  1  0.01512000  0.53821000  0.28713000  1.0
  N  N217  1  0.51512000  0.46179000  0.71287000  1.0
  N  N218  1  0.01512000  0.96179000  0.78714000  1.0
  N  N219  1  0.51512000  0.03821000  0.21287000  1.0
  N  N220  1  0.06143000  0.48403000  0.25516000  1.0
  N  N221  1  0.56143000  0.51597000  0.74484000  1.0
  N  N222  1  0.06143000  0.01598000  0.75516000  1.0
  N  N223  1  0.56143000  0.98402000  0.24484000  1.0
  N  N224  1  0.35934000  0.38834000  0.19738000  1.0
  N  N225  1  0.85934000  0.61166000  0.80262000  1.0
  N  N226  1  0.35934000  0.11166000  0.69738000  1.0
  N  N227  1  0.85934000  0.88834000  0.30262000  1.0
  N  N228  1  0.68745000  0.44183000  0.40275000  1.0
  N  N229  1  0.18746000  0.55817000  0.59725000  1.0
  N  N230  1  0.68745000  0.05817000  0.90275000  1.0
  N  N231  1  0.18746000  0.94183000  0.09725000  1.0
  N  N232  1  0.36084000  0.65425000  0.39242000  1.0
  N  N233  1  0.86084000  0.34575000  0.60758000  1.0
  N  N234  1  0.36084000  0.84575000  0.89242000  1.0
  N  N235  1  0.86084000  0.15425000  0.10758000  1.0
  O  O236  1  0.14159000  0.35398000  0.50571000  1.0
  O  O237  1  0.64159000  0.64602000  0.49429000  1.0
  O  O238  1  0.14159000  0.14602000  0.00571000  1.0
  O  O239  1  0.64159000  0.85398000  0.99429000  1.0
  O  O240  1  0.20136000  0.31461000  0.42045000  1.0
  O  O241  1  0.70135000  0.68539000  0.57955000  1.0
  O  O242  1  0.20136000  0.18539000  0.92046000  1.0
  O  O243  1  0.70136000  0.81461000  0.07954000  1.0
  O  O244  1  0.90931000  0.60079000  0.52928000  1.0
  O  O245  1  0.40931000  0.39921000  0.47072000  1.0
  O  O246  1  0.90932000  0.89921000  0.02928000  1.0
  O  O247  1  0.40931000  0.10079000  0.97072000  1.0
  O  O248  1  0.88757000  0.70110000  0.45872000  1.0
  O  O249  1  0.38757000  0.29889000  0.54128000  1.0
  O  O250  1  0.88757000  0.79890000  0.95872000  1.0
  O  O251  1  0.38757000  0.20110000  0.04128000  1.0
  O  O252  1  0.92215000  0.72170000  0.11723000  1.0
  O  O253  1  0.42215000  0.27830000  0.88277000  1.0
  O  O254  1  0.92215000  0.77830000  0.61724000  1.0
  O  O255  1  0.42215000  0.22170000  0.38277000  1.0
  O  O256  1  0.85676000  0.63229000  0.04799000  1.0
  O  O257  1  0.35676000  0.36771000  0.95201000  1.0
  O  O258  1  0.85677000  0.86771000  0.54800000  1.0
  O  O259  1  0.35676000  0.13229000  0.45201000  1.0
  O  O260  1  0.20190000  0.33102000  0.08532000  1.0
  O  O261  1  0.70190000  0.66898000  0.91468000  1.0
  O  O262  1  0.20191000  0.16898000  0.58532000  1.0
  O  O263  1  0.70191000  0.83102000  0.41468000  1.0
  O  O264  1  0.10611000  0.37572000  0.01116000  1.0
  O  O265  1  0.60611000  0.62428000  0.98884000  1.0
  O  O266  1  0.10611000  0.12428000  0.51116000  1.0
  O  O267  1  0.60611000  0.87572000  0.48884000  1.0
  O  O268  1  0.32308000  0.34502000  0.28750000  1.0
  O  O269  1  0.82307000  0.65498000  0.71250000  1.0
  O  O270  1  0.32308000  0.15498000  0.78750000  1.0
  O  O271  1  0.82308000  0.84502000  0.21250000  1.0
  O  O272  1  0.53097000  0.41201000  0.35923000  1.0
  O  O273  1  0.03097000  0.58799000  0.64077000  1.0
  O  O274  1  0.53097000  0.08799000  0.85922000  1.0
  O  O275  1  0.03097000  0.91201000  0.14078000  1.0
  O  O276  1  0.31991000  0.51184000  0.37211000  1.0
  O  O277  1  0.81991000  0.48816000  0.62789000  1.0
  O  O278  1  0.31991000  0.98816000  0.87211000  1.0
  O  O279  1  0.81992000  0.01184000  0.12788000  1.0
