# generated using pymatgen
data_Zn4H11C28S2Cl3O13
_symmetry_space_group_name_H-M   'P 1'
_cell_length_a   18.54840000
_cell_length_b   19.71320000
_cell_length_c   32.75990000
_cell_angle_alpha   85.98560000
_cell_angle_beta   73.63700000
_cell_angle_gamma   62.07770000
_symmetry_Int_Tables_number   1
_chemical_formula_structural   Zn4H11C28S2Cl3O13
_chemical_formula_sum   'Zn16 H44 C112 S8 Cl12 O52'
_cell_volume   10128.27893884
_cell_formula_units_Z   4
loop_
 _symmetry_equiv_pos_site_id
 _symmetry_equiv_pos_as_xyz
  1  'x, y, z'
loop_
 _atom_site_type_symbol
 _atom_site_label
 _atom_site_symmetry_multiplicity
 _atom_site_fract_x
 _atom_site_fract_y
 _atom_site_fract_z
 _atom_site_occupancy
  Zn  Zn0  1  0.87308000  0.55458000  0.51862000  1.0
  Zn  Zn1  1  0.03848000  0.48413000  0.43874000  1.0
  Zn  Zn2  1  0.04360000  0.39844000  0.52375000  1.0
  Zn  Zn3  1  0.04496000  0.56208000  0.51796000  1.0
  Zn  Zn4  1  0.62588000  0.19093000  0.73255000  1.0
  Zn  Zn5  1  0.46416000  0.34976000  0.72538000  1.0
  Zn  Zn6  1  0.45636000  0.26593000  0.81265000  1.0
  Zn  Zn7  1  0.45447000  0.19226000  0.72884000  1.0
  Zn  Zn8  1  0.46205000  0.76432000  0.31283000  1.0
  Zn  Zn9  1  0.45350000  0.69141000  0.23171000  1.0
  Zn  Zn10  1  0.62568000  0.69372000  0.22936000  1.0
  Zn  Zn11  1  0.45689000  0.85141000  0.22619000  1.0
  Zn  Zn12  1  0.03753000  0.89899000  0.02408000  1.0
  Zn  Zn13  1  0.04921000  0.05777000  0.01904000  1.0
  Zn  Zn14  1  0.87617000  0.05838000  0.01965000  1.0
  Zn  Zn15  1  0.03781000  0.98521000  0.93740000  1.0
  H  H16  1  0.80567000  0.96410000  0.65502000  1.0
  H  H17  1  0.31194000  0.97495000  0.40204000  1.0
  H  H18  1  0.81148000  0.24257000  0.65387000  1.0
  H  H19  1  0.54526000  0.48509000  0.62011000  1.0
  H  H20  1  0.55087000  0.52535000  0.66545000  1.0
  H  H21  1  0.65182000  0.56871000  0.61712000  1.0
  H  H22  1  0.64611000  0.52855000  0.57184000  1.0
  H  H23  1  0.29322000  0.60324000  0.29610000  1.0
  H  H24  1  0.34981000  0.67316000  0.43519000  1.0
  H  H25  1  0.25951000  0.76153000  0.43243000  1.0
  H  H26  1  0.16237000  0.71154000  0.47778000  1.0
  H  H27  1  0.25248000  0.62318000  0.48052000  1.0
  H  H28  1  0.80930000  0.60260000  0.29529000  1.0
  H  H29  1  0.54815000  0.76164000  0.43082000  1.0
  H  H30  1  0.54264000  0.67355000  0.43330000  1.0
  H  H31  1  0.64309000  0.62319000  0.47939000  1.0
  H  H32  1  0.64870000  0.71122000  0.47685000  1.0
  H  H33  1  0.30795000  0.45661000  0.64652000  1.0
  H  H34  1  0.32860000  0.17971000  0.62947000  1.0
  H  H35  1  0.23794000  0.22020000  0.67486000  1.0
  H  H36  1  0.14241000  0.27372000  0.62621000  1.0
  H  H37  1  0.23317000  0.23320000  0.58096000  1.0
  H  H38  1  0.18848000  0.65908000  0.96285000  1.0
  H  H39  1  0.69043000  0.14760000  0.95538000  1.0
  H  H40  1  0.95482000  0.07786000  0.81634000  1.0
  H  H41  1  0.94987000  0.98948000  0.81896000  1.0
  H  H42  1  0.84805000  0.03974000  0.77362000  1.0
  H  H43  1  0.85295000  0.12811000  0.77107000  1.0
  H  H44  1  0.19275000  0.05193000  0.84506000  1.0
  H  H45  1  0.17117000  0.21609000  0.97535000  1.0
  H  H46  1  0.26208000  0.12799000  0.97773000  1.0
  H  H47  1  0.35723000  0.17447000  0.92673000  1.0
  H  H48  1  0.26633000  0.26245000  0.92442000  1.0
  H  H49  1  0.92779000  0.28358000  0.09457000  1.0
  H  H50  1  0.19306000  0.79431000  0.10303000  1.0
  H  H51  1  0.26123000  0.03192000  0.07483000  1.0
  H  H52  1  0.17032000  0.07206000  0.12015000  1.0
  H  H53  1  0.26554000  0.01922000  0.16877000  1.0
  H  H54  1  0.35647000  0.97913000  0.12355000  1.0
  H  H55  1  0.69057000  0.00650000  0.09644000  1.0
  H  H56  1  0.95026000  0.72288000  0.08523000  1.0
  H  H57  1  0.95506000  0.76321000  0.13080000  1.0
  H  H58  1  0.85323000  0.72047000  0.17855000  1.0
  H  H59  1  0.84864000  0.67979000  0.13307000  1.0
  C  C60  1  0.86272000  0.56744000  0.43049000  1.0
  C  C61  1  0.12471000  0.31509000  0.43891000  1.0
  C  C62  1  0.86566000  0.42736000  0.56847000  1.0
  C  C63  1  0.13902000  0.43506000  0.56816000  1.0
  C  C64  1  0.87221000  0.68426000  0.56053000  1.0
  C  C65  1  0.13737000  0.56917000  0.43067000  1.0
  C  C66  1  0.63947000  0.31759000  0.68142000  1.0
  C  C67  1  0.37656000  0.43490000  0.81046000  1.0
  C  C68  1  0.63401000  0.18196000  0.82079000  1.0
  C  C69  1  0.36126000  0.18041000  0.81712000  1.0
  C  C70  1  0.62599000  0.06531000  0.68848000  1.0
  C  C71  1  0.36297000  0.31871000  0.68058000  1.0
  C  C72  1  0.36277000  0.68148000  0.32017000  1.0
  C  C73  1  0.62351000  0.56598000  0.18860000  1.0
  C  C74  1  0.63746000  0.68178000  0.31881000  1.0
  C  C75  1  0.63438000  0.82135000  0.18039000  1.0
  C  C76  1  0.37531000  0.93345000  0.31213000  1.0
  C  C77  1  0.36124000  0.81713000  0.18120000  1.0
  C  C78  1  0.13821000  0.93164000  0.06857000  1.0
  C  C79  1  0.88007000  0.18436000  0.06147000  1.0
  C  C80  1  0.86239000  0.93097000  0.06911000  1.0
  C  C81  1  0.86231000  0.06915000  0.93115000  1.0
  C  C82  1  0.12216000  0.81521000  0.93913000  1.0
  C  C83  1  0.13831000  0.06874000  0.93111000  1.0
  C  C84  1  0.73404000  0.80375000  0.60106000  1.0
  C  C85  1  0.76189000  0.94642000  0.64908000  1.0
  C  C86  1  0.82182000  0.75875000  0.58575000  1.0
  C  C87  1  0.67445000  0.99036000  0.66373000  1.0
  C  C88  1  0.78388000  0.87824000  0.62609000  1.0
  C  C89  1  0.71233000  0.87199000  0.62400000  1.0
  C  C90  1  0.20217000  0.22647000  0.36926000  1.0
  C  C91  1  0.29889000  0.02145000  0.38080000  1.0
  C  C92  1  0.17399000  0.24112000  0.41346000  1.0
  C  C93  1  0.32614000  0.00837000  0.33683000  1.0
  C  C94  1  0.25360000  0.10112000  0.39281000  1.0
  C  C95  1  0.24760000  0.14658000  0.35752000  1.0
  C  C96  1  0.69671000  0.34552000  0.65296000  1.0
  C  C97  1  0.81148000  0.39653000  0.59742000  1.0
  C  C98  1  0.66699000  0.41745000  0.63628000  1.0
  C  C99  1  0.84134000  0.32331000  0.61483000  1.0
  C  C100  1  0.72290000  0.44126000  0.60958000  1.0
  C  C101  1  0.78544000  0.29919000  0.64152000  1.0
  C  C102  1  0.58847000  0.49148000  0.63473000  1.0
  C  C103  1  0.65159000  0.51868000  0.60449000  1.0
  C  C104  1  0.30585000  0.65310000  0.34839000  1.0
  C  C105  1  0.19402000  0.59663000  0.40113000  1.0
  C  C106  1  0.27988000  0.66428000  0.39272000  1.0
  C  C107  1  0.22068000  0.58555000  0.35576000  1.0
  C  C108  1  0.22599000  0.63682000  0.41771000  1.0
  C  C109  1  0.27474000  0.61300000  0.33064000  1.0
  C  C110  1  0.28590000  0.69862000  0.43080000  1.0
  C  C111  1  0.22498000  0.66739000  0.45920000  1.0
  C  C112  1  0.69440000  0.65300000  0.34717000  1.0
  C  C113  1  0.80870000  0.59548000  0.40064000  1.0
  C  C114  1  0.66446000  0.66406000  0.39150000  1.0
  C  C115  1  0.83891000  0.58463000  0.35526000  1.0
  C  C116  1  0.72012000  0.63608000  0.41687000  1.0
  C  C117  1  0.78311000  0.61253000  0.32981000  1.0
  C  C118  1  0.58578000  0.69872000  0.42927000  1.0
  C  C119  1  0.64868000  0.66715000  0.45811000  1.0
  C  C120  1  0.30553000  0.34821000  0.65251000  1.0
  C  C121  1  0.19566000  0.40881000  0.59682000  1.0
  C  C122  1  0.27165000  0.30627000  0.63966000  1.0
  C  C123  1  0.23032000  0.45140000  0.61025000  1.0
  C  C124  1  0.21889000  0.33606000  0.61283000  1.0
  C  C125  1  0.28315000  0.42172000  0.63714000  1.0
  C  C126  1  0.26757000  0.23108000  0.64275000  1.0
  C  C127  1  0.20782000  0.26456000  0.61236000  1.0
  C  C128  1  0.29833000  0.58387000  0.82037000  1.0
  C  C129  1  0.20106000  0.66814000  0.92900000  1.0
  C  C130  1  0.32730000  0.51012000  0.83483000  1.0
  C  C131  1  0.17246000  0.74080000  0.91383000  1.0
  C  C132  1  0.24704000  0.61062000  0.89493000  1.0
  C  C133  1  0.25240000  0.64116000  0.85463000  1.0
  C  C134  1  0.80475000  0.09754000  0.90308000  1.0
  C  C135  1  0.68872000  0.15450000  0.85041000  1.0
  C  C136  1  0.83378000  0.08659000  0.85874000  1.0
  C  C137  1  0.65955000  0.16517000  0.89577000  1.0
  C  C138  1  0.77729000  0.11437000  0.83377000  1.0
  C  C139  1  0.71604000  0.13765000  0.92086000  1.0
  C  C140  1  0.91188000  0.05240000  0.82067000  1.0
  C  C141  1  0.84815000  0.08384000  0.79229000  1.0
  C  C142  1  0.19506000  0.09689000  0.90239000  1.0
  C  C143  1  0.30435000  0.15084000  0.84444000  1.0
  C  C144  1  0.22839000  0.13754000  0.91707000  1.0
  C  C145  1  0.26993000  0.10936000  0.82968000  1.0
  C  C146  1  0.28089000  0.16320000  0.88884000  1.0
  C  C147  1  0.21740000  0.08348000  0.85791000  1.0
  C  C148  1  0.23227000  0.17063000  0.95628000  1.0
  C  C149  1  0.29185000  0.19969000  0.92438000  1.0
  C  C150  1  0.64360000  0.44682000  0.14873000  1.0
  C  C151  1  0.86026000  0.30226000  0.10073000  1.0
  C  C152  1  0.67243000  0.49144000  0.16358000  1.0
  C  C153  1  0.82986000  0.25909000  0.08637000  1.0
  C  C154  1  0.79237000  0.37102000  0.12353000  1.0
  C  C155  1  0.71202000  0.37821000  0.12591000  1.0
  C  C156  1  0.19505000  0.90285000  0.09691000  1.0
  C  C157  1  0.30456000  0.84323000  0.15267000  1.0
  C  C158  1  0.22820000  0.94539000  0.10986000  1.0
  C  C159  1  0.27046000  0.80007000  0.13925000  1.0
  C  C160  1  0.28080000  0.91604000  0.13676000  1.0
  C  C161  1  0.21769000  0.82942000  0.11233000  1.0
  C  C162  1  0.23158000  0.02091000  0.10689000  1.0
  C  C163  1  0.29121000  0.98785000  0.13735000  1.0
  C  C164  1  0.80495000  0.90299000  0.09732000  1.0
  C  C165  1  0.68910000  0.85219000  0.15201000  1.0
  C  C166  1  0.83408000  0.83098000  0.11392000  1.0
  C  C167  1  0.65985000  0.92566000  0.13484000  1.0
  C  C168  1  0.77767000  0.80730000  0.14024000  1.0
  C  C169  1  0.71624000  0.94966000  0.10859000  1.0
  C  C170  1  0.91221000  0.75691000  0.11586000  1.0
  C  C171  1  0.84854000  0.72997000  0.14575000  1.0
  S  S172  1  0.87738000  0.80017000  0.59960000  1.0
  S  S173  1  0.61835000  0.94958000  0.64993000  1.0
  S  S174  1  0.20336000  0.15711000  0.44032000  1.0
  S  S175  1  0.29727000  0.09201000  0.30977000  1.0
  S  S176  1  0.29834000  0.51140000  0.89033000  1.0
  S  S177  1  0.20109000  0.74005000  0.85842000  1.0
  S  S178  1  0.78310000  0.44914000  0.14939000  1.0
  S  S179  1  0.71941000  0.30114000  0.10031000  1.0
  Cl  Cl180  1  0.65823000  0.78310000  0.59421000  1.0
  Cl  Cl181  1  0.18691000  0.29292000  0.33198000  1.0
  Cl  Cl182  1  0.31321000  0.60699000  0.76851000  1.0
  Cl  Cl183  1  0.54034000  0.46817000  0.15560000  1.0
  Cl  Cl184  1  0.94831000  0.25778000  0.60481000  1.0
  Cl  Cl185  1  0.18814000  0.53900000  0.32777000  1.0
  Cl  Cl186  1  0.94579000  0.53677000  0.32757000  1.0
  Cl  Cl187  1  0.21100000  0.54276000  0.59457000  1.0
  Cl  Cl188  1  0.55276000  0.21236000  0.92387000  1.0
  Cl  Cl189  1  0.28863000  0.08800000  0.77610000  1.0
  Cl  Cl190  1  0.28994000  0.70886000  0.15505000  1.0
  Cl  Cl191  1  0.55309000  0.99151000  0.14459000  1.0
  O  O192  1  0.99823000  0.50064000  0.50113000  1.0
  O  O193  1  0.82299000  0.58205000  0.47033000  1.0
  O  O194  1  0.10124000  0.37554000  0.41855000  1.0
  O  O195  1  0.94588000  0.38600000  0.55841000  1.0
  O  O196  1  0.94288000  0.53159000  0.41453000  1.0
  O  O197  1  0.82517000  0.49440000  0.55610000  1.0
  O  O198  1  0.10962000  0.31200000  0.47951000  1.0
  O  O199  1  0.11804000  0.38586000  0.55907000  1.0
  O  O200  1  0.95304000  0.65813000  0.55059000  1.0
  O  O201  1  0.11610000  0.50235000  0.55518000  1.0
  O  O202  1  0.83221000  0.65282000  0.55095000  1.0
  O  O203  1  0.11689000  0.52587000  0.41497000  1.0
  O  O204  1  0.11432000  0.59143000  0.47019000  1.0
  O  O205  1  0.50102000  0.24946000  0.75005000  1.0
  O  O206  1  0.67425000  0.25095000  0.69506000  1.0
  O  O207  1  0.39972000  0.43476000  0.76995000  1.0
  O  O208  1  0.55390000  0.22008000  0.83643000  1.0
  O  O209  1  0.55985000  0.36359000  0.68962000  1.0
  O  O210  1  0.67412000  0.16418000  0.78108000  1.0
  O  O211  1  0.39166000  0.37596000  0.83255000  1.0
  O  O212  1  0.38063000  0.22046000  0.83692000  1.0
  O  O213  1  0.54505000  0.09566000  0.69669000  1.0
  O  O214  1  0.38631000  0.16386000  0.77712000  1.0
  O  O215  1  0.66822000  0.09317000  0.69938000  1.0
  O  O216  1  0.38859000  0.36346000  0.69047000  1.0
  O  O217  1  0.38184000  0.25064000  0.69223000  1.0
  O  O218  1  0.50077000  0.75049000  0.25030000  1.0
  O  O219  1  0.38724000  0.71850000  0.33865000  1.0
  O  O220  1  0.54281000  0.59444000  0.19989000  1.0
  O  O221  1  0.67250000  0.66798000  0.27869000  1.0
  O  O222  1  0.38213000  0.66657000  0.28010000  1.0
  O  O223  1  0.55783000  0.71807000  0.33763000  1.0
  O  O224  1  0.66693000  0.59553000  0.19685000  1.0
  O  O225  1  0.67421000  0.75333000  0.19183000  1.0
  O  O226  1  0.39228000  0.93538000  0.27153000  1.0
  O  O227  1  0.55423000  0.86361000  0.19097000  1.0
  O  O228  1  0.39644000  0.87373000  0.33333333  1.0
  O  O229  1  0.38589000  0.74910000  0.19315000  1.0
  O  O230  1  0.38087000  0.86668000  0.19125000  1.0
  O  O231  1  0.00084000  0.99997000  0.99999000  1.0
  O  O232  1  0.11229000  0.88680000  0.05913000  1.0
  O  O233  1  0.96090000  0.15543000  0.05164000  1.0
  O  O234  1  0.82760000  0.99882000  0.05688000  1.0
  O  O235  1  0.12035000  0.99915000  0.05626000  1.0
  O  O236  1  0.94199000  0.88417000  0.05957000  1.0
  O  O237  1  0.83749000  0.15524000  0.05192000  1.0
  O  O238  1  0.82753000  0.08471000  0.97123000  1.0
  O  O239  1  0.10248000  0.87524000  0.91792000  1.0
  O  O240  1  0.94191000  0.03148000  0.91244000  1.0
  O  O241  1  0.10270000  0.81322000  0.97965000  1.0
  O  O242  1  0.12009000  0.08461000  0.97103000  1.0
  O  O243  1  0.11276000  0.03160000  0.91356000  1.0
