# generated using pymatgen
data_CdB2H16C22N4(OF4)2
_symmetry_space_group_name_H-M   'P 1'
_cell_length_a   8.56613000
_cell_length_b   9.16705000
_cell_length_c   9.56096634
_cell_angle_alpha   117.82899185
_cell_angle_beta   91.54923792
_cell_angle_gamma   111.08290000
_symmetry_Int_Tables_number   1
_chemical_formula_structural   CdB2H16C22N4(OF4)2
_chemical_formula_sum   'Cd1 B2 H16 C22 N4 O2 F8'
_cell_volume   601.96793795
_cell_formula_units_Z   1
loop_
 _symmetry_equiv_pos_site_id
 _symmetry_equiv_pos_as_xyz
  1  'x, y, z'
loop_
 _atom_site_type_symbol
 _atom_site_label
 _atom_site_symmetry_multiplicity
 _atom_site_fract_x
 _atom_site_fract_y
 _atom_site_fract_z
 _atom_site_occupancy
  Cd  Cd0  1  0.50000000  0.50000000  0.00000000  1.0
  B  B1  1  0.80707000  0.62510000  0.79929000  1.0
  B  B2  1  0.19293000  0.37490000  0.20071000  1.0
  H  H3  1  0.43731000  0.21594000  0.61575000  1.0
  H  H4  1  0.56269000  0.78407000  0.38426000  1.0
  H  H5  1  0.97755000  0.14881000  0.35229000  1.0
  H  H6  1  0.02245000  0.85119000  0.64771000  1.0
  H  H7  1  0.97784000  0.41661000  0.60850000  1.0
  H  H8  1  0.02216000  0.58338000  0.39149000  1.0
  H  H9  1  0.20395000  0.55873000  0.85802000  1.0
  H  H10  1  0.79605000  0.44127000  0.14198000  1.0
  H  H11  1  0.24579000  0.69495000  0.15126000  1.0
  H  H12  1  0.75421000  0.30505000  0.84874000  1.0
  H  H13  1  0.51781000  0.27669000  0.37268000  1.0
  H  H14  1  0.48220000  0.72332000  0.62732000  1.0
  H  H15  1  0.76507000  0.22522000  0.25441000  1.0
  H  H16  1  0.23493000  0.77478000  0.74559000  1.0
  H  H17  1  0.73870000  0.90879000  0.08978000  1.0
  H  H18  1  0.26130000  0.09121000  0.91022000  1.0
  C  C19  1  0.33206000  0.25432000  0.60913000  1.0
  C  C20  1  0.66794000  0.74568000  0.39087000  1.0
  C  C21  1  0.20712000  0.16311000  0.46487000  1.0
  C  C22  1  0.79288000  0.83689000  0.53513000  1.0
  C  C23  1  0.07553000  0.21947000  0.46419000  1.0
  C  C24  1  0.92447000  0.78053000  0.53581000  1.0
  C  C25  1  0.07589000  0.36624000  0.60445000  1.0
  C  C26  1  0.92411000  0.63377000  0.39555000  1.0
  C  C27  1  0.20305000  0.44681000  0.74437000  1.0
  C  C28  1  0.79695000  0.55319000  0.25563000  1.0
  C  C29  1  0.19960000  0.99959000  0.31508000  1.0
  C  C30  1  0.80040000  0.00041000  0.68492000  1.0
  C  C31  1  0.35873000  0.81521000  0.17548000  1.0
  C  C32  1  0.64127000  0.18478000  0.82452000  1.0
  C  C33  1  0.36132000  0.98817000  0.26786000  1.0
  C  C34  1  0.63868000  0.01183000  0.73214000  1.0
  C  C35  1  0.51074000  0.14000000  0.30110000  1.0
  C  C36  1  0.48927000  0.86000000  0.69890000  1.0
  C  C37  1  0.64797000  0.11221000  0.23592000  1.0
  C  C38  1  0.35203000  0.88779000  0.76408000  1.0
  C  C39  1  0.63451000  0.93576000  0.14382000  1.0
  C  C40  1  0.36549000  0.06424000  0.85618000  1.0
  N  N41  1  0.32793000  0.39121000  0.74766000  1.0
  N  N42  1  0.67206000  0.60879000  0.25234000  1.0
  N  N43  1  0.49271000  0.78914000  0.11611000  1.0
  N  N44  1  0.50730000  0.21086000  0.88389000  1.0
  O  O45  1  0.05879000  0.87374000  0.23008000  1.0
  O  O46  1  0.94121000  0.12625000  0.76992000  1.0
  F  F47  1  0.77083000  0.59132000  0.93148000  1.0
  F  F48  1  0.22917000  0.40868000  0.06852000  1.0
  F  F49  1  0.72755000  0.73525000  0.79986000  1.0
  F  F50  1  0.27245000  0.26474000  0.20014000  1.0
  F  F51  1  0.98646000  0.71097000  0.82434000  1.0
  F  F52  1  0.01353000  0.28903000  0.17566000  1.0
  F  F53  1  0.73747000  0.45511000  0.65182000  1.0
  F  F54  1  0.26253000  0.54490000  0.34819000  1.0
