# generated using pymatgen
data_CdH12C16SN2O5
_symmetry_space_group_name_H-M   'P 1'
_cell_length_a   8.88496000
_cell_length_b   8.88656000
_cell_length_c   22.83716086
_cell_angle_alpha   97.82956082
_cell_angle_beta   97.83379611
_cell_angle_gamma   107.41800000
_symmetry_Int_Tables_number   1
_chemical_formula_structural   CdH12C16SN2O5
_chemical_formula_sum   'Cd4 H48 C64 S4 N8 O20'
_cell_volume   1674.25304306
_cell_formula_units_Z   4
loop_
 _symmetry_equiv_pos_site_id
 _symmetry_equiv_pos_as_xyz
  1  'x, y, z'
loop_
 _atom_site_type_symbol
 _atom_site_label
 _atom_site_symmetry_multiplicity
 _atom_site_fract_x
 _atom_site_fract_y
 _atom_site_fract_z
 _atom_site_occupancy
  Cd  Cd0  1  0.44234000  0.34435000  0.10513000  1.0
  Cd  Cd1  1  0.23926000  0.33743000  0.89476000  1.0
  Cd  Cd2  1  0.58776000  0.98984000  0.39490000  1.0
  Cd  Cd3  1  0.59503000  0.19284000  0.60519000  1.0
  H  H4  1  0.19423000  0.74985000  0.99692000  1.0
  H  H5  1  0.75332000  0.19764000  0.00303000  1.0
  H  H6  1  0.44805000  0.50385000  0.50326000  1.0
  H  H7  1  0.00114000  0.94487000  0.49693000  1.0
  H  H8  1  0.94277000  0.49175000  0.99243000  1.0
  H  H9  1  0.49918000  0.95103000  0.00738000  1.0
  H  H10  1  0.20133000  0.24981000  0.50760000  1.0
  H  H11  1  0.74251000  0.69409000  0.49254000  1.0
  H  H12  1  0.74574000  0.20710000  0.09148000  1.0
  H  H13  1  0.11492000  0.65410000  0.90835000  1.0
  H  H14  1  0.90433000  0.86563000  0.40848000  1.0
  H  H15  1  0.45592000  0.49524000  0.59167000  1.0
  H  H16  1  0.98110000  0.16859000  0.15339000  1.0
  H  H17  1  0.01465000  0.82748000  0.84639000  1.0
  H  H18  1  0.07739000  0.76487000  0.34649000  1.0
  H  H19  1  0.41772000  0.73042000  0.65371000  1.0
  H  H20  1  0.00414000  0.21697000  0.26686000  1.0
  H  H21  1  0.95012000  0.73726000  0.73291000  1.0
  H  H22  1  0.98650000  0.69942000  0.23304000  1.0
  H  H23  1  0.46688000  0.75350000  0.76718000  1.0
  H  H24  1  0.80228000  0.31052000  0.31132000  1.0
  H  H25  1  0.99945000  0.49104000  0.68851000  1.0
  H  H26  1  0.74008000  0.74848000  0.18866000  1.0
  H  H27  1  0.56044000  0.55142000  0.81148000  1.0
  H  H28  1  0.62901000  0.37354000  0.34249000  1.0
  H  H29  1  0.03060000  0.28635000  0.65742000  1.0
  H  H30  1  0.53539000  0.77984000  0.15764000  1.0
  H  H31  1  0.62206000  0.37745000  0.84246000  1.0
  H  H32  1  0.41977000  0.47365000  0.37747000  1.0
  H  H33  1  0.09555000  0.04204000  0.62246000  1.0
  H  H34  1  0.29106000  0.84484000  0.12270000  1.0
  H  H35  1  0.72192000  0.16802000  0.87737000  1.0
  H  H36  1  0.22313000  0.53681000  0.30263000  1.0
  H  H37  1  0.23388000  0.92051000  0.69728000  1.0
  H  H38  1  0.16984000  0.98359000  0.19751000  1.0
  H  H39  1  0.78602000  0.97218000  0.80254000  1.0
  H  H40  1  0.24424000  0.48722000  0.19293000  1.0
  H  H41  1  0.29427000  0.05142000  0.80696000  1.0
  H  H42  1  0.30139000  0.04473000  0.30716000  1.0
  H  H43  1  0.73749000  0.99413000  0.69290000  1.0
  H  H44  1  0.31862000  0.53446000  0.03275000  1.0
  H  H45  1  0.50170000  0.28621000  0.96727000  1.0
  H  H46  1  0.53661000  0.25234000  0.46733000  1.0
  H  H47  1  0.78519000  0.06937000  0.53271000  1.0
  H  H48  1  0.17282000  0.38589000  0.03299000  1.0
  H  H49  1  0.35297000  0.13984000  0.96678000  1.0
  H  H50  1  0.39053000  0.10346000  0.46699000  1.0
  H  H51  1  0.63683000  0.92364000  0.53326000  1.0
  C  C52  1  0.69876000  0.53793000  0.06039000  1.0
  C  C53  1  0.47721000  0.63892000  0.93957000  1.0
  C  C54  1  0.88931000  0.22776000  0.43961000  1.0
  C  C55  1  0.78807000  0.44977000  0.56046000  1.0
  C  C56  1  0.19676000  0.05024000  0.06613000  1.0
  C  C57  1  0.98453000  0.13033000  0.93384000  1.0
  C  C58  1  0.38093000  0.73488000  0.43395000  1.0
  C  C59  1  0.30141000  0.94650000  0.56612000  1.0
  C  C60  1  0.07860000  0.88710000  0.05051000  1.0
  C  C61  1  0.83691000  0.02816000  0.94953000  1.0
  C  C62  1  0.27871000  0.58725000  0.44960000  1.0
  C  C63  1  0.13804000  0.82876000  0.55046000  1.0
  C  C64  1  0.08992000  0.74980000  0.01704000  1.0
  C  C65  1  0.73301000  0.07319000  0.98291000  1.0
  C  C66  1  0.32363000  0.48350000  0.48308000  1.0
  C  C67  1  0.00085000  0.84050000  0.51704000  1.0
  C  C68  1  0.95757000  0.61236000  0.01554000  1.0
  C  C69  1  0.59678000  0.94255000  0.98435000  1.0
  C  C70  1  0.19293000  0.34733000  0.48451000  1.0
  C  C71  1  0.86309000  0.70850000  0.51559000  1.0
  C  C72  1  0.84816000  0.64704000  0.04855000  1.0
  C  C73  1  0.59828000  0.80005000  0.95137000  1.0
  C  C74  1  0.05049000  0.34879000  0.45144000  1.0
  C  C75  1  0.89743000  0.59896000  0.54860000  1.0
  C  C76  1  0.76343000  0.23010000  0.14033000  1.0
  C  C77  1  0.08925000  0.62296000  0.85950000  1.0
  C  C78  1  0.87298000  0.83964000  0.35963000  1.0
  C  C79  1  0.47916000  0.51282000  0.64051000  1.0
  C  C80  1  0.89328000  0.20678000  0.17519000  1.0
  C  C81  1  0.03120000  0.71793000  0.82461000  1.0
  C  C82  1  0.96773000  0.78126000  0.32472000  1.0
  C  C83  1  0.45602000  0.64258000  0.67545000  1.0
  C  C84  1  0.90623000  0.23555000  0.23751000  1.0
  C  C85  1  0.99796000  0.66869000  0.76229000  1.0
  C  C86  1  0.91811000  0.74751000  0.26242000  1.0
  C  C87  1  0.48518000  0.65554000  0.73777000  1.0
  C  C88  1  0.79326000  0.28973000  0.26264000  1.0
  C  C89  1  0.02718000  0.53068000  0.73719000  1.0
  C  C90  1  0.77996000  0.77658000  0.23733000  1.0
  C  C91  1  0.53948000  0.54254000  0.76282000  1.0
  C  C92  1  0.66884000  0.31464000  0.22447000  1.0
  C  C93  1  0.09009000  0.44442000  0.77540000  1.0
  C  C94  1  0.69397000  0.83990000  0.27555000  1.0
  C  C95  1  0.56419000  0.41818000  0.72455000  1.0
  C  C96  1  0.54802000  0.37755000  0.24855000  1.0
  C  C97  1  0.12890000  0.29952000  0.75134000  1.0
  C  C98  1  0.54902000  0.87871000  0.25152000  1.0
  C  C99  1  0.62711000  0.29731000  0.74857000  1.0
  C  C100  1  0.54367000  0.40099000  0.31017000  1.0
  C  C101  1  0.09052000  0.23344000  0.68974000  1.0
  C  C102  1  0.48262000  0.83996000  0.18994000  1.0
  C  C103  1  0.64994000  0.29246000  0.81015000  1.0
  C  C104  1  0.42590000  0.45760000  0.32988000  1.0
  C  C105  1  0.12732000  0.09589000  0.67003000  1.0
  C  C106  1  0.34505000  0.87675000  0.17026000  1.0
  C  C107  1  0.70639000  0.17457000  0.82981000  1.0
  C  C108  1  0.31560000  0.49096000  0.28826000  1.0
  C  C109  1  0.20245000  0.02735000  0.71164000  1.0
  C  C110  1  0.27673000  0.95219000  0.21186000  1.0
  C  C111  1  0.74029000  0.06472000  0.78820000  1.0
  C  C112  1  0.32751000  0.46479000  0.22779000  1.0
  C  C113  1  0.23693000  0.09983000  0.77211000  1.0
  C  C114  1  0.34954000  0.98706000  0.27230000  1.0
  C  C115  1  0.71474000  0.07713000  0.72776000  1.0
  S  S116  1  0.90778000  0.84673000  0.08117000  1.0
  S  S117  1  0.76557000  0.82672000  0.91886000  1.0
  S  S118  1  0.07728000  0.51587000  0.41883000  1.0
  S  S119  1  0.09719000  0.65798000  0.58113000  1.0
  N  N120  1  0.65445000  0.28267000  0.16407000  1.0
  N  N121  1  0.11824000  0.49031000  0.83579000  1.0
  N  N122  1  0.74025000  0.86856000  0.33594000  1.0
  N  N123  1  0.53199000  0.40386000  0.66417000  1.0
  N  N124  1  0.44069000  0.40995000  0.20861000  1.0
  N  N125  1  0.20133000  0.23221000  0.79129000  1.0
  N  N126  1  0.48201000  0.95155000  0.29146000  1.0
  N  N127  1  0.66003000  0.19042000  0.70862000  1.0
  O  O128  1  0.26771000  0.46567000  0.06009000  1.0
  O  O129  1  0.40577000  0.20796000  0.93981000  1.0
  O  O130  1  0.45842000  0.15627000  0.43995000  1.0
  O  O131  1  0.71676000  0.01869000  0.56020000  1.0
  O  O132  1  0.64582000  0.39185000  0.03299000  1.0
  O  O133  1  0.35857000  0.61351000  0.96699000  1.0
  O  O134  1  0.86385000  0.10917000  0.46706000  1.0
  O  O135  1  0.64199000  0.39697000  0.53306000  1.0
  O  O136  1  0.63048000  0.59462000  0.09980000  1.0
  O  O137  1  0.49447000  0.53114000  0.90018000  1.0
  O  O138  1  0.78157000  0.24501000  0.40019000  1.0
  O  O139  1  0.84469000  0.38147000  0.59990000  1.0
  O  O140  1  0.32076000  0.08233000  0.04093000  1.0
  O  O141  1  0.04192000  0.27963000  0.95892000  1.0
  O  O142  1  0.53019000  0.79239000  0.45912000  1.0
  O  O143  1  0.33363000  0.07081000  0.54107000  1.0
  O  O144  1  0.17502000  0.15181000  0.10625000  1.0
  O  O145  1  0.04589000  0.06816000  0.89379000  1.0
  O  O146  1  0.31880000  0.79621000  0.39387000  1.0
  O  O147  1  0.40289000  0.92418000  0.60608000  1.0
