# generated using pymatgen
data_ZnH14C18(NO2)2
_symmetry_space_group_name_H-M   'P 1'
_cell_length_a   5.80090000
_cell_length_b   11.14600000
_cell_length_c   14.72993027
_cell_angle_alpha   70.11525384
_cell_angle_beta   78.64968732
_cell_angle_gamma   74.92900000
_symmetry_Int_Tables_number   1
_chemical_formula_structural   ZnH14C18(NO2)2
_chemical_formula_sum   'Zn2 H28 C36 N4 O8'
_cell_volume   858.62210294
_cell_formula_units_Z   2
loop_
 _symmetry_equiv_pos_site_id
 _symmetry_equiv_pos_as_xyz
  1  'x, y, z'
loop_
 _atom_site_type_symbol
 _atom_site_label
 _atom_site_symmetry_multiplicity
 _atom_site_fract_x
 _atom_site_fract_y
 _atom_site_fract_z
 _atom_site_occupancy
  Zn  Zn0  1  0.59387000  0.75006000  0.24996000  1.0
  Zn  Zn1  1  0.40606000  0.24996000  0.75005000  1.0
  H  H2  1  0.40381000  0.90658000  0.55630000  1.0
  H  H3  1  0.86635000  0.59374000  0.94382000  1.0
  H  H4  1  0.59611000  0.09346000  0.44370000  1.0
  H  H5  1  0.13357000  0.40624000  0.05619000  1.0
  H  H6  1  0.90640000  0.94901000  0.36119000  1.0
  H  H7  1  0.21636000  0.55083000  0.13881000  1.0
  H  H8  1  0.09350000  0.05103000  0.63882000  1.0
  H  H9  1  0.78360000  0.44916000  0.86119000  1.0
  H  H10  1  0.06939000  0.81669000  0.14547000  1.0
  H  H11  1  0.03126000  0.68314000  0.35452000  1.0
  H  H12  1  0.93062000  0.18320000  0.85456000  1.0
  H  H13  1  0.96870000  0.31685000  0.64551000  1.0
  H  H14  1  0.22814000  0.02102000  0.06455000  1.0
  H  H15  1  0.31321000  0.47866000  0.43534000  1.0
  H  H16  1  0.77207000  0.97881000  0.93546000  1.0
  H  H17  1  0.68672000  0.52134000  0.56468000  1.0
  H  H18  1  0.96059000  0.23505000  0.06512000  1.0
  H  H19  1  0.26009000  0.26479000  0.43442000  1.0
  H  H20  1  0.03972000  0.76485000  0.93482000  1.0
  H  H21  1  0.73986000  0.73521000  0.56560000  1.0
  H  H22  1  0.53947000  0.23762000  0.15491000  1.0
  H  H23  1  0.93094000  0.26246000  0.34471000  1.0
  H  H24  1  0.46078000  0.76240000  0.84498000  1.0
  H  H25  1  0.06901000  0.73755000  0.65530000  1.0
  H  H26  1  0.40702000  0.02476000  0.23238000  1.0
  H  H27  1  0.66307000  0.47537000  0.26757000  1.0
  H  H28  1  0.59308000  0.97531000  0.76756000  1.0
  H  H29  1  0.33688000  0.52465000  0.73244000  1.0
  C  C30  1  0.17410000  0.91930000  0.45376000  1.0
  C  C31  1  0.54690000  0.58076000  0.04631000  1.0
  C  C32  1  0.82580000  0.08075000  0.54624000  1.0
  C  C33  1  0.45308000  0.41924000  0.95371000  1.0
  C  C34  1  0.22578000  0.94756000  0.53247000  1.0
  C  C35  1  0.70563000  0.55265000  0.96760000  1.0
  C  C36  1  0.77416000  0.05246000  0.46753000  1.0
  C  C37  1  0.29432000  0.44736000  0.03243000  1.0
  C  C38  1  0.94664000  0.97254000  0.42147000  1.0
  C  C39  1  0.34044000  0.52741000  0.07849000  1.0
  C  C40  1  0.05330000  0.02749000  0.57853000  1.0
  C  C41  1  0.65956000  0.47261000  0.92152000  1.0
  C  C42  1  0.36416000  0.83542000  0.40351000  1.0
  C  C43  1  0.60266000  0.66456000  0.09662000  1.0
  C  C44  1  0.63575000  0.16462000  0.59650000  1.0
  C  C45  1  0.39725000  0.33543000  0.90335000  1.0
  C  C46  1  0.95849000  0.91171000  0.14645000  1.0
  C  C47  1  0.01602000  0.58812000  0.35360000  1.0
  C  C48  1  0.04154000  0.08822000  0.85357000  1.0
  C  C49  1  0.98396000  0.41189000  0.64643000  1.0
  C  C50  1  0.04590000  0.02567000  0.10208000  1.0
  C  C51  1  0.17301000  0.47409000  0.39786000  1.0
  C  C52  1  0.95424000  0.97425000  0.89791000  1.0
  C  C53  1  0.82692000  0.52593000  0.60218000  1.0
  C  C54  1  0.89621000  0.14526000  0.10383000  1.0
  C  C55  1  0.14442000  0.35462000  0.39592000  1.0
  C  C56  1  0.10398000  0.85468000  0.89613000  1.0
  C  C57  1  0.85555000  0.64540000  0.60411000  1.0
  C  C58  1  0.66340000  0.14657000  0.15222000  1.0
  C  C59  1  0.96122000  0.35346000  0.34750000  1.0
  C  C60  1  0.33677000  0.85341000  0.84771000  1.0
  C  C61  1  0.03875000  0.64655000  0.65252000  1.0
  C  C62  1  0.58795000  0.02921000  0.19499000  1.0
  C  C63  1  0.81111000  0.47082000  0.30495000  1.0
  C  C64  1  0.41214000  0.97081000  0.80498000  1.0
  C  C65  1  0.18885000  0.52921000  0.69507000  1.0
  N  N66  1  0.73206000  0.91391000  0.19145000  1.0
  N  N67  1  0.83670000  0.58603000  0.30856000  1.0
  N  N68  1  0.26791000  0.08609000  0.80855000  1.0
  N  N69  1  0.16327000  0.41400000  0.69147000  1.0
  O  O70  1  0.30164000  0.81422000  0.33089000  1.0
  O  O71  1  0.44600000  0.68600000  0.16904000  1.0
  O  O72  1  0.69834000  0.18582000  0.66911000  1.0
  O  O73  1  0.55409000  0.31399000  0.83095000  1.0
  O  O74  1  0.57054000  0.79362000  0.42949000  1.0
  O  O75  1  0.79364000  0.70600000  0.07095000  1.0
  O  O76  1  0.42938000  0.20644000  0.57050000  1.0
  O  O77  1  0.20622000  0.29404000  0.92905000  1.0
