# generated using pymatgen
data_H36Ru2C25NO9
_symmetry_space_group_name_H-M   'P 1'
_cell_length_a   9.90108000
_cell_length_b   11.84750000
_cell_length_c   12.44230000
_cell_angle_alpha   89.99990000
_cell_angle_beta   81.08940000
_cell_angle_gamma   89.99950000
_symmetry_Int_Tables_number   1
_chemical_formula_structural   H36Ru2C25NO9
_chemical_formula_sum   'H72 Ru4 C50 N2 O18'
_cell_volume   1441.90506830
_cell_formula_units_Z   2
loop_
 _symmetry_equiv_pos_site_id
 _symmetry_equiv_pos_as_xyz
  1  'x, y, z'
loop_
 _atom_site_type_symbol
 _atom_site_label
 _atom_site_symmetry_multiplicity
 _atom_site_fract_x
 _atom_site_fract_y
 _atom_site_fract_z
 _atom_site_occupancy
  H  H0  1  0.87803000  0.86759000  0.79786000  1.0
  H  H1  1  0.12197000  0.86759000  0.70215000  1.0
  H  H2  1  0.12196000  0.13241000  0.20215000  1.0
  H  H3  1  0.87805000  0.13242000  0.29784000  1.0
  H  H4  1  0.83470000  0.72162000  0.80291000  1.0
  H  H5  1  0.16531000  0.72162000  0.69710000  1.0
  H  H6  1  0.16530000  0.27838000  0.19709000  1.0
  H  H7  1  0.83471000  0.27839000  0.30290000  1.0
  H  H8  1  0.70882000  0.82624000  0.79113000  1.0
  H  H9  1  0.29118000  0.82624000  0.70888000  1.0
  H  H10  1  0.29118000  0.17375000  0.20886000  1.0
  H  H11  1  0.70882000  0.17377000  0.29113000  1.0
  H  H12  1  0.45239000  0.68318000  0.67288000  1.0
  H  H13  1  0.54761000  0.68320000  0.82713000  1.0
  H  H14  1  0.54761000  0.31681000  0.32713000  1.0
  H  H15  1  0.45240000  0.31680000  0.17287000  1.0
  H  H16  1  0.53158000  0.55589000  0.62389000  1.0
  H  H17  1  0.46842000  0.55590000  0.87611000  1.0
  H  H18  1  0.46840000  0.44410000  0.37611000  1.0
  H  H19  1  0.53160000  0.44410000  0.12389000  1.0
  H  H20  1  0.36011000  0.55432000  0.69298000  1.0
  H  H21  1  0.63990000  0.55434000  0.80702000  1.0
  H  H22  1  0.63988000  0.44567000  0.30703000  1.0
  H  H23  1  0.36012000  0.44567000  0.19298000  1.0
  H  H24  1  0.41242000  0.68534000  0.37068000  1.0
  H  H25  1  0.58757000  0.68534000  0.12932000  1.0
  H  H26  1  0.58757000  0.31465000  0.62932000  1.0
  H  H27  1  0.41242000  0.31464000  0.87069000  1.0
  H  H28  1  0.66537000  0.66439000  0.46556000  1.0
  H  H29  1  0.33463000  0.66439000  0.03444000  1.0
  H  H30  1  0.33463000  0.33560000  0.53443000  1.0
  H  H31  1  0.66537000  0.33559000  0.96557000  1.0
  H  H32  1  0.58449000  0.78706000  0.51966000  1.0
  H  H33  1  0.41550000  0.78706000  0.98034000  1.0
  H  H34  1  0.41552000  0.21293000  0.48033000  1.0
  H  H35  1  0.58448000  0.21292000  0.01966000  1.0
  H  H36  1  0.66716000  0.73375000  0.27525000  1.0
  H  H37  1  0.33283000  0.73377000  0.22475000  1.0
  H  H38  1  0.33284000  0.26623000  0.72474000  1.0
  H  H39  1  0.66715000  0.26622000  0.77525000  1.0
  H  H40  1  0.74811000  0.83220000  0.34994000  1.0
  H  H41  1  0.25188000  0.83220000  0.15005000  1.0
  H  H42  1  0.25189000  0.16779000  0.65004000  1.0
  H  H43  1  0.74810000  0.16778000  0.84995000  1.0
  H  H44  1  0.57818000  0.85799000  0.32546000  1.0
  H  H45  1  0.42180000  0.85801000  0.17454000  1.0
  H  H46  1  0.42180000  0.14199000  0.67454000  1.0
  H  H47  1  0.57819000  0.14198000  0.82546000  1.0
  H  H48  1  0.86984000  0.87707000  0.49148000  1.0
  H  H49  1  0.13017000  0.87708000  0.00853000  1.0
  H  H50  1  0.13018000  0.12294000  0.50852000  1.0
  H  H51  1  0.86983000  0.12294000  0.99147000  1.0
  H  H52  1  0.86324000  0.03421000  0.67365000  1.0
  H  H53  1  0.13677000  0.03421000  0.82636000  1.0
  H  H54  1  0.13678000  0.96580000  0.32634000  1.0
  H  H55  1  0.86323000  0.96580000  0.17364000  1.0
  H  H56  1  0.69379000  0.99119000  0.67671000  1.0
  H  H57  1  0.30622000  0.99119000  0.82330000  1.0
  H  H58  1  0.30622000  0.00881000  0.32330000  1.0
  H  H59  1  0.69377000  0.00883000  0.17670000  1.0
  H  H60  1  0.87685000  0.09571000  0.47802000  1.0
  H  H61  1  0.12315000  0.09572000  0.02198000  1.0
  H  H62  1  0.12313000  0.90428000  0.52197000  1.0
  H  H63  1  0.87684000  0.90429000  0.97802000  1.0
  H  H64  1  0.74847000  0.16876000  0.56533000  1.0
  H  H65  1  0.25153000  0.16877000  0.93466000  1.0
  H  H66  1  0.25152000  0.83123000  0.43465000  1.0
  H  H67  1  0.74846000  0.83124000  0.06534000  1.0
  H  H68  1  0.70264000  0.05831000  0.48082000  1.0
  H  H69  1  0.29736000  0.05832000  0.01918000  1.0
  H  H70  1  0.29735000  0.94167000  0.51918000  1.0
  H  H71  1  0.70264000  0.94169000  0.98082000  1.0
  Ru  Ru72  1  0.99277000  0.45914000  0.58398000  1.0
  Ru  Ru73  1  0.00723000  0.45914000  0.91603000  1.0
  Ru  Ru74  1  0.00722000  0.54087000  0.41603000  1.0
  Ru  Ru75  1  0.99278000  0.54087000  0.08397000  1.0
  C  C76  1  0.24838000  0.57475000  0.51556000  1.0
  C  C77  1  0.75162000  0.57476000  0.98444000  1.0
  C  C78  1  0.75162000  0.42525000  0.48444000  1.0
  C  C79  1  0.24838000  0.42525000  0.01557000  1.0
  C  C80  1  0.90058000  0.68991000  0.59246000  1.0
  C  C81  1  0.09942000  0.68991000  0.90755000  1.0
  C  C82  1  0.09942000  0.31009000  0.40754000  1.0
  C  C83  1  0.90059000  0.31010000  0.09245000  1.0
  C  C84  1  0.85055000  0.79668000  0.64374000  1.0
  C  C85  1  0.14945000  0.79668000  0.85626000  1.0
  C  C86  1  0.14945000  0.20332000  0.35626000  1.0
  C  C87  1  0.85056000  0.20333000  0.14374000  1.0
  C  C88  1  0.81641000  0.80248000  0.76543000  1.0
  C  C89  1  0.18359000  0.80249000  0.73459000  1.0
  C  C90  1  0.18359000  0.19752000  0.23458000  1.0
  C  C91  1  0.81642000  0.19752000  0.26542000  1.0
  C  C92  1  0.38329000  0.61961000  0.52910000  1.0
  C  C93  1  0.61671000  0.61962000  0.97090000  1.0
  C  C94  1  0.61671000  0.38038000  0.47090000  1.0
  C  C95  1  0.38329000  0.38038000  0.02910000  1.0
  C  C96  1  0.43390000  0.60167000  0.63551000  1.0
  C  C97  1  0.56610000  0.60169000  0.86449000  1.0
  C  C98  1  0.56609000  0.39832000  0.36449000  1.0
  C  C99  1  0.43391000  0.39832000  0.13551000  1.0
  C  C100  1  0.45614000  0.67692000  0.44567000  1.0
  C  C101  1  0.54385000  0.67692000  0.05433000  1.0
  C  C102  1  0.54386000  0.32309000  0.55432000  1.0
  C  C103  1  0.45614000  0.32308000  0.94568000  1.0
  C  C104  1  0.59215000  0.72986000  0.44871000  1.0
  C  C105  1  0.40784000  0.72987000  0.05129000  1.0
  C  C106  1  0.40784000  0.27012000  0.55129000  1.0
  C  C107  1  0.59215000  0.27011000  0.94871000  1.0
  C  C108  1  0.64948000  0.79240000  0.34445000  1.0
  C  C109  1  0.35051000  0.79241000  0.15554000  1.0
  C  C110  1  0.35051000  0.20758000  0.65554000  1.0
  C  C111  1  0.64948000  0.20757000  0.84445000  1.0
  C  C112  1  0.83992000  0.88732000  0.57935000  1.0
  C  C113  1  0.16008000  0.88734000  0.92066000  1.0
  C  C114  1  0.16008000  0.11267000  0.42065000  1.0
  C  C115  1  0.83993000  0.11268000  0.07934000  1.0
  C  C116  1  0.79182000  0.00052000  0.62117000  1.0
  C  C117  1  0.20819000  0.00053000  0.87883000  1.0
  C  C118  1  0.20819000  0.99948000  0.37882000  1.0
  C  C119  1  0.79181000  0.99949000  0.12117000  1.0
  C  C120  1  0.77842000  0.08547000  0.53148000  1.0
  C  C121  1  0.22159000  0.08548000  0.96852000  1.0
  C  C122  1  0.22157000  0.91453000  0.46851000  1.0
  C  C123  1  0.77841000  0.91454000  0.03149000  1.0
  C  C124  1  0.00001000  0.25796000  0.75000000  1.0
  C  C125  1  0.00000000  0.74204000  0.25000000  1.0
  N  N126  1  0.99999000  0.15802000  0.75002000  1.0
  N  N127  1  0.00000000  0.84199000  0.25000000  1.0
  O  O128  1  0.18276000  0.51544000  0.59382000  1.0
  O  O129  1  0.81725000  0.51545000  0.90618000  1.0
  O  O130  1  0.81723000  0.48456000  0.40619000  1.0
  O  O131  1  0.18277000  0.48456000  0.09382000  1.0
  O  O132  1  0.91438000  0.60381000  0.65358000  1.0
  O  O133  1  0.08563000  0.60382000  0.84643000  1.0
  O  O134  1  0.08562000  0.39619000  0.34643000  1.0
  O  O135  1  0.91439000  0.39619000  0.15357000  1.0
  O  O136  1  0.19819000  0.59587000  0.42779000  1.0
  O  O137  1  0.80181000  0.59588000  0.07221000  1.0
  O  O138  1  0.80181000  0.40412000  0.57221000  1.0
  O  O139  1  0.19819000  0.40413000  0.92779000  1.0
  O  O140  1  0.93012000  0.68427000  0.48771000  1.0
  O  O141  1  0.06988000  0.68427000  0.01230000  1.0
  O  O142  1  0.06989000  0.31573000  0.51229000  1.0
  O  O143  1  0.93012000  0.31574000  0.98770000  1.0
  O  O144  1  0.00001000  0.36411000  0.75000000  1.0
  O  O145  1  0.00001000  0.63590000  0.25000000  1.0
