# generated using pymatgen
data_CaH10C18(N2O)4
_symmetry_space_group_name_H-M   'P 1'
_cell_length_a   7.22253000
_cell_length_b   7.39654000
_cell_length_c   21.92110000
_cell_angle_alpha   89.99890000
_cell_angle_beta   89.99990000
_cell_angle_gamma   118.92700000
_symmetry_Int_Tables_number   1
_chemical_formula_structural   CaH10C18(N2O)4
_chemical_formula_sum   'Ca2 H20 C36 N16 O8'
_cell_volume   1024.95741579
_cell_formula_units_Z   2
loop_
 _symmetry_equiv_pos_site_id
 _symmetry_equiv_pos_as_xyz
  1  'x, y, z'
loop_
 _atom_site_type_symbol
 _atom_site_label
 _atom_site_symmetry_multiplicity
 _atom_site_fract_x
 _atom_site_fract_y
 _atom_site_fract_z
 _atom_site_occupancy
  Ca  Ca0  1  0.42228000  0.95487000  0.25000000  1.0
  Ca  Ca1  1  0.57771000  0.04513000  0.75000000  1.0
  H  H2  1  0.22131000  0.04911000  0.49092000  1.0
  H  H3  1  0.77869000  0.95085000  0.99092000  1.0
  H  H4  1  0.77869000  0.95089000  0.50908000  1.0
  H  H5  1  0.22132000  0.04914000  0.00908000  1.0
  H  H6  1  0.96656000  0.72284000  0.28596000  1.0
  H  H7  1  0.03343000  0.27717000  0.78597000  1.0
  H  H8  1  0.03344000  0.27716000  0.71404000  1.0
  H  H9  1  0.96656000  0.72285000  0.21403000  1.0
  H  H10  1  0.62266000  0.70022000  0.28575000  1.0
  H  H11  1  0.37734000  0.29978000  0.78576000  1.0
  H  H12  1  0.37734000  0.29978000  0.71425000  1.0
  H  H13  1  0.62266000  0.70023000  0.21424000  1.0
  H  H14  1  0.72294000  0.12968000  0.36072000  1.0
  H  H15  1  0.27705000  0.87032000  0.86072000  1.0
  H  H16  1  0.27705000  0.87033000  0.63928000  1.0
  H  H17  1  0.72296000  0.12967000  0.13928000  1.0
  H  H18  1  0.87901000  0.23089000  0.30616000  1.0
  H  H19  1  0.12098000  0.76911000  0.80616000  1.0
  H  H20  1  0.12099000  0.76905000  0.69384000  1.0
  H  H21  1  0.87899000  0.23099000  0.19384000  1.0
  C  C22  1  0.25504000  0.29456000  0.42558000  1.0
  C  C23  1  0.74496000  0.70540000  0.92557000  1.0
  C  C24  1  0.74495000  0.70543000  0.57442000  1.0
  C  C25  1  0.25504000  0.29458000  0.07443000  1.0
  C  C26  1  0.26498000  0.49087000  0.43518000  1.0
  C  C27  1  0.73504000  0.50911000  0.93518000  1.0
  C  C28  1  0.73503000  0.50913000  0.56482000  1.0
  C  C29  1  0.26496000  0.49088000  0.06482000  1.0
  C  C30  1  0.24651000  0.51322000  0.49863000  1.0
  C  C31  1  0.75349000  0.48675000  0.99863000  1.0
  C  C32  1  0.75349000  0.48679000  0.50137000  1.0
  C  C33  1  0.24651000  0.51325000  0.00137000  1.0
  C  C34  1  0.22298000  0.32942000  0.52771000  1.0
  C  C35  1  0.77701000  0.67056000  0.02771000  1.0
  C  C36  1  0.77702000  0.67058000  0.47229000  1.0
  C  C37  1  0.22299000  0.32945000  0.97229000  1.0
  C  C38  1  0.22892000  0.19692000  0.48253000  1.0
  C  C39  1  0.77108000  0.80305000  0.98252000  1.0
  C  C40  1  0.77109000  0.80309000  0.51748000  1.0
  C  C41  1  0.22893000  0.19694000  0.01748000  1.0
  C  C42  1  0.28206000  0.21890000  0.36935000  1.0
  C  C43  1  0.71796000  0.78107000  0.86934000  1.0
  C  C44  1  0.71794000  0.78109000  0.63066000  1.0
  C  C45  1  0.28206000  0.21892000  0.13065000  1.0
  C  C46  1  0.29505000  0.63721000  0.39033000  1.0
  C  C47  1  0.70492000  0.36276000  0.89033000  1.0
  C  C48  1  0.70494000  0.36279000  0.60967000  1.0
  C  C49  1  0.29507000  0.63722000  0.10967000  1.0
  C  C50  1  0.26186000  0.68590000  0.52932000  1.0
  C  C51  1  0.73814000  0.31407000  0.02932000  1.0
  C  C52  1  0.73815000  0.31411000  0.47068000  1.0
  C  C53  1  0.26187000  0.68594000  0.97068000  1.0
  C  C54  1  0.20761000  0.29961000  0.59113000  1.0
  C  C55  1  0.79239000  0.70036000  0.09112000  1.0
  C  C56  1  0.79239000  0.70038000  0.40888000  1.0
  C  C57  1  0.20761000  0.29964000  0.90888000  1.0
  N  N58  1  0.30900000  0.15538000  0.32333000  1.0
  N  N59  1  0.69099000  0.84459000  0.82333000  1.0
  N  N60  1  0.69099000  0.84461000  0.67667000  1.0
  N  N61  1  0.30902000  0.15541000  0.17667000  1.0
  N  N62  1  0.32251000  0.75891000  0.35252000  1.0
  N  N63  1  0.67750000  0.24106000  0.85252000  1.0
  N  N64  1  0.67750000  0.24108000  0.64748000  1.0
  N  N65  1  0.32250000  0.75893000  0.14748000  1.0
  N  N66  1  0.27742000  0.82750000  0.55726000  1.0
  N  N67  1  0.72259000  0.17248000  0.05726000  1.0
  N  N68  1  0.72259000  0.17250000  0.44274000  1.0
  N  N69  1  0.27741000  0.82753000  0.94274000  1.0
  N  N70  1  0.19831000  0.28427000  0.64431000  1.0
  N  N71  1  0.80168000  0.71574000  0.14430000  1.0
  N  N72  1  0.80169000  0.71574000  0.35570000  1.0
  N  N73  1  0.19832000  0.28427000  0.85570000  1.0
  O  O74  1  0.04621000  0.71907000  0.25000000  1.0
  O  O75  1  0.95378000  0.28093000  0.75000000  1.0
  O  O76  1  0.53900000  0.69678000  0.25000000  1.0
  O  O77  1  0.46099000  0.30322000  0.75000000  1.0
  O  O78  1  0.73209000  0.13610000  0.31572000  1.0
  O  O79  1  0.26790000  0.86389000  0.81572000  1.0
  O  O80  1  0.26789000  0.86391000  0.68428000  1.0
  O  O81  1  0.73211000  0.13609000  0.18428000  1.0
