# generated using pymatgen
data_CdH10C8(IN2)2
_symmetry_space_group_name_H-M   'P 1'
_cell_length_a   5.32459000
_cell_length_b   8.26348000
_cell_length_c   15.63730000
_cell_angle_alpha   87.86690000
_cell_angle_beta   83.33950000
_cell_angle_gamma   71.26340000
_symmetry_Int_Tables_number   1
_chemical_formula_structural   CdH10C8(IN2)2
_chemical_formula_sum   'Cd2 H20 C16 I4 N8'
_cell_volume   647.17579333
_cell_formula_units_Z   2
loop_
 _symmetry_equiv_pos_site_id
 _symmetry_equiv_pos_as_xyz
  1  'x, y, z'
loop_
 _atom_site_type_symbol
 _atom_site_label
 _atom_site_symmetry_multiplicity
 _atom_site_fract_x
 _atom_site_fract_y
 _atom_site_fract_z
 _atom_site_occupancy
  Cd  Cd0  1  0.17177000  0.38393000  0.78597000  1.0
  Cd  Cd1  1  0.55794000  0.61593000  0.28722000  1.0
  H  H2  1  0.60259000  0.76578000  0.53787000  1.0
  H  H3  1  0.36600000  0.23751000  0.03812000  1.0
  H  H4  1  0.07584000  0.54051000  0.58791000  1.0
  H  H5  1  0.61674000  0.46128000  0.08875000  1.0
  H  H6  1  0.09592000  0.86360000  0.73899000  1.0
  H  H7  1  0.95696000  0.13895000  0.23914000  1.0
  H  H8  1  0.10163000  0.84922000  0.62506000  1.0
  H  H9  1  0.95118000  0.15144000  0.12512000  1.0
  H  H10  1  0.22160000  0.00361000  0.67006000  1.0
  H  H11  1  0.22344000  0.99794000  0.17112000  1.0
  H  H12  1  0.34446000  0.79095000  0.02666000  1.0
  H  H13  1  0.13526000  0.20642000  0.52707000  1.0
  H  H14  1  0.10436000  0.55596000  0.98347000  1.0
  H  H15  1  0.66126000  0.44177000  0.48393000  1.0
  H  H16  1  0.61260000  0.95097000  0.94489000  1.0
  H  H17  1  0.56101000  0.04632000  0.44563000  1.0
  H  H18  1  0.56648000  0.97903000  0.83361000  1.0
  H  H19  1  0.54722000  0.02077000  0.33378000  1.0
  H  H20  1  0.85428000  0.81857000  0.86733000  1.0
  H  H21  1  0.67404000  0.18024000  0.36970000  1.0
  C  C22  1  0.59581000  0.66235000  0.74006000  1.0
  C  C23  1  0.25943000  0.33788000  0.24071000  1.0
  C  C24  1  0.65533000  0.71295000  0.60032000  1.0
  C  C25  1  0.36690000  0.28945000  0.10069000  1.0
  C  C26  1  0.88728000  0.60135000  0.62606000  1.0
  C  C27  1  0.48886000  0.40013000  0.12669000  1.0
  C  C28  1  0.20639000  0.87424000  0.67674000  1.0
  C  C29  1  0.07948000  0.12738000  0.17714000  1.0
  C  C30  1  0.46551000  0.66591000  0.82762000  1.0
  C  C31  1  0.13296000  0.33350000  0.32828000  1.0
  C  C32  1  0.34971000  0.73030000  0.96594000  1.0
  C  C33  1  0.08034000  0.26769000  0.46641000  1.0
  C  C34  1  0.23332000  0.61358000  0.94363000  1.0
  C  C35  1  0.84805000  0.38491000  0.44415000  1.0
  C  C36  1  0.64125000  0.88489000  0.88358000  1.0
  C  C37  1  0.52653000  0.11379000  0.38453000  1.0
  I  I38  1  0.95077000  0.22095000  0.91524000  1.0
  I  I39  1  0.17471000  0.77667000  0.41675000  1.0
  I  I40  1  0.55842000  0.22113000  0.65690000  1.0
  I  I41  1  0.77919000  0.78065000  0.15802000  1.0
  N  N42  1  0.84923000  0.57163000  0.71285000  1.0
  N  N43  1  0.42241000  0.42865000  0.21361000  1.0
  N  N44  1  0.47330000  0.75010000  0.67254000  1.0
  N  N45  1  0.22292000  0.25136000  0.17293000  1.0
  N  N46  1  0.30545000  0.57492000  0.85767000  1.0
  N  N47  1  0.88202000  0.42422000  0.35829000  1.0
  N  N48  1  0.49459000  0.76234000  0.89245000  1.0
  N  N49  1  0.25767000  0.23640000  0.39303000  1.0
