# generated using pymatgen
data_CdP2H54C36S4(NO)4
_symmetry_space_group_name_H-M   'P 1'
_cell_length_a   9.27904000
_cell_length_b   11.56740000
_cell_length_c   12.69010000
_cell_angle_alpha   113.62000000
_cell_angle_beta   107.83600000
_cell_angle_gamma   90.23310000
_symmetry_Int_Tables_number   1
_chemical_formula_structural   CdP2H54C36S4(NO)4
_chemical_formula_sum   'Cd1 P2 H54 C36 S4 N4 O4'
_cell_volume   1175.37154465
_cell_formula_units_Z   1
loop_
 _symmetry_equiv_pos_site_id
 _symmetry_equiv_pos_as_xyz
  1  'x, y, z'
loop_
 _atom_site_type_symbol
 _atom_site_label
 _atom_site_symmetry_multiplicity
 _atom_site_fract_x
 _atom_site_fract_y
 _atom_site_fract_z
 _atom_site_occupancy
  Cd  Cd0  1  0.50000000  0.50000000  0.50000000  1.0
  P  P1  1  0.50595000  0.36499000  0.23222000  1.0
  P  P2  1  0.49406000  0.63501000  0.76778000  1.0
  H  H3  1  0.19355000  0.28769000  0.13185000  1.0
  H  H4  1  0.80646000  0.71231000  0.86814000  1.0
  H  H5  1  0.12064000  0.06825000  0.09980000  1.0
  H  H6  1  0.87936000  0.93175000  0.90020000  1.0
  H  H7  1  0.30412000  0.13091000  0.21275000  1.0
  H  H8  1  0.69588000  0.86909000  0.78725000  1.0
  H  H9  1  0.42984000  0.01374000  0.06351000  1.0
  H  H10  1  0.57016000  0.98626000  0.93649000  1.0
  H  H11  1  0.29561000  0.90536000  0.06333000  1.0
  H  H12  1  0.70438000  0.09463000  0.93667000  1.0
  H  H13  1  0.10781000  0.90104000  0.87545000  1.0
  H  H14  1  0.89219000  0.09897000  0.12454000  1.0
  H  H15  1  0.28250000  0.86695000  0.84994000  1.0
  H  H16  1  0.71751000  0.13305000  0.15006000  1.0
  H  H17  1  0.16536000  0.02365000  0.76778000  1.0
  H  H18  1  0.83465000  0.97635000  0.23222000  1.0
  H  H19  1  0.34715000  0.08927000  0.88084000  1.0
  H  H20  1  0.65286000  0.91073000  0.11916000  1.0
  H  H21  1  0.16401000  0.24627000  0.91815000  1.0
  H  H22  1  0.83598000  0.75373000  0.08184000  1.0
  H  H23  1  0.03904000  0.13401000  0.92300000  1.0
  H  H24  1  0.96097000  0.86598000  0.07700000  1.0
  H  H25  1  0.50913000  0.45849000  0.07444000  1.0
  H  H26  1  0.49086000  0.54151000  0.92556000  1.0
  H  H27  1  0.66803000  0.64480000  0.26109000  1.0
  H  H28  1  0.33196000  0.35520000  0.73890000  1.0
  H  H29  1  0.68549000  0.64347000  0.12582000  1.0
  H  H30  1  0.31451000  0.35653000  0.87417000  1.0
  H  H31  1  0.94373000  0.70148000  0.28146000  1.0
  H  H32  1  0.05627000  0.29851000  0.71853000  1.0
  H  H33  1  0.91652000  0.56766000  0.30997000  1.0
  H  H34  1  0.08347000  0.43233000  0.69002000  1.0
  H  H35  1  0.93628000  0.56441000  0.07157000  1.0
  H  H36  1  0.06372000  0.43558000  0.92843000  1.0
  H  H37  1  0.07620000  0.52348000  0.17584000  1.0
  H  H38  1  0.92379000  0.47651000  0.82415000  1.0
  H  H39  1  0.89588000  0.33540000  0.12976000  1.0
  H  H40  1  0.10410000  0.66459000  0.87024000  1.0
  H  H41  1  0.91396000  0.32984000  0.99349000  1.0
  H  H42  1  0.08602000  0.67015000  0.00649000  1.0
  H  H43  1  0.67147000  0.41678000  0.94646000  1.0
  H  H44  1  0.32851000  0.58321000  0.05353000  1.0
  H  H45  1  0.63731000  0.28052000  0.97118000  1.0
  H  H46  1  0.36268000  0.71948000  0.02882000  1.0
  H  H47  1  0.63593000  0.74524000  0.48075000  1.0
  H  H48  1  0.36407000  0.25476000  0.51927000  1.0
  H  H49  1  0.13108000  0.79832000  0.61026000  1.0
  H  H50  1  0.86892000  0.20170000  0.38975000  1.0
  H  H51  1  0.11852000  0.61537000  0.66517000  1.0
  H  H52  1  0.88149000  0.38466000  0.33486000  1.0
  H  H53  1  0.85795000  0.50347000  0.62186000  1.0
  H  H54  1  0.14206000  0.49655000  0.37817000  1.0
  H  H55  1  0.77359000  0.91961000  0.46692000  1.0
  H  H56  1  0.22640000  0.08039000  0.53308000  1.0
  C  C57  1  0.24299000  0.20825000  0.07800000  1.0
  C  C58  1  0.75701000  0.79175000  0.92200000  1.0
  C  C59  1  0.24113000  0.09772000  0.11471000  1.0
  C  C60  1  0.75887000  0.90228000  0.88529000  1.0
  C  C61  1  0.30648000  0.98540000  0.03905000  1.0
  C  C62  1  0.69352000  0.01460000  0.96095000  1.0
  C  C63  1  0.22750000  0.94295000  0.90162000  1.0
  C  C64  1  0.77251000  0.05705000  0.09838000  1.0
  C  C65  1  0.22851000  0.05463000  0.86568000  1.0
  C  C66  1  0.77150000  0.94537000  0.13432000  1.0
  C  C67  1  0.16040000  0.16477000  0.94161000  1.0
  C  C68  1  0.83960000  0.83523000  0.05839000  1.0
  C  C69  1  0.63227000  0.45866000  0.11477000  1.0
  C  C70  1  0.36773000  0.54133000  0.88522000  1.0
  C  C71  1  0.71473000  0.59535000  0.18754000  1.0
  C  C72  1  0.28526000  0.40464000  0.81245000  1.0
  C  C73  1  0.88855000  0.60166000  0.23749000  1.0
  C  C74  1  0.11144000  0.39833000  0.76251000  1.0
  C  C75  1  0.95209000  0.52147000  0.13712000  1.0
  C  C76  1  0.04790000  0.47852000  0.86287000  1.0
  C  C77  1  0.87060000  0.38357000  0.06817000  1.0
  C  C78  1  0.12939000  0.61642000  0.93182000  1.0
  C  C79  1  0.69727000  0.37884000  0.01630000  1.0
  C  C80  1  0.30272000  0.62116000  0.98369000  1.0
  C  C81  1  0.74580000  0.72029000  0.52235000  1.0
  C  C82  1  0.25421000  0.27972000  0.47767000  1.0
  C  C83  1  0.88461000  0.78794000  0.54231000  1.0
  C  C84  1  0.11539000  0.21208000  0.45770000  1.0
  C  C85  1  0.02113000  0.74883000  0.59449000  1.0
  C  C86  1  0.97887000  0.25118000  0.40552000  1.0
  C  C87  1  0.01380000  0.64667000  0.62447000  1.0
  C  C88  1  0.98621000  0.35335000  0.37556000  1.0
  C  C89  1  0.87040000  0.58482000  0.60076000  1.0
  C  C90  1  0.12960000  0.41520000  0.39927000  1.0
  C  C91  1  0.88389000  0.89255000  0.50660000  1.0
  C  C92  1  0.11609000  0.10745000  0.49340000  1.0
  S  S93  1  0.58563000  0.29238000  0.35405000  1.0
  S  S94  1  0.41437000  0.70762000  0.64594000  1.0
  S  S95  1  0.39559000  0.51626000  0.28254000  1.0
  S  S96  1  0.60441000  0.48374000  0.71747000  1.0
  N  N97  1  0.73951000  0.62098000  0.55037000  1.0
  N  N98  1  0.26050000  0.37903000  0.44965000  1.0
  N  N99  1  0.01122000  0.95226000  0.52001000  1.0
  N  N100  1  0.98877000  0.04774000  0.47999000  1.0
  O  O101  1  0.40128000  0.25812000  0.10116000  1.0
  O  O102  1  0.59873000  0.74188000  0.89883000  1.0
  O  O103  1  0.65042000  0.39715000  0.19917000  1.0
  O  O104  1  0.34958000  0.60285000  0.80083000  1.0
