# generated using pymatgen
data_Cu3H22C28(NO8)2
_symmetry_space_group_name_H-M   'P 1'
_cell_length_a   11.02530000
_cell_length_b   11.02530000
_cell_length_c   14.23310000
_cell_angle_alpha   101.27300000
_cell_angle_beta   101.27400000
_cell_angle_gamma   119.65700000
_symmetry_Int_Tables_number   1
_chemical_formula_structural   Cu3H22C28(NO8)2
_chemical_formula_sum   'Cu6 H44 C56 N4 O32'
_cell_volume   1385.09416559
_cell_formula_units_Z   2
loop_
 _symmetry_equiv_pos_site_id
 _symmetry_equiv_pos_as_xyz
  1  'x, y, z'
loop_
 _atom_site_type_symbol
 _atom_site_label
 _atom_site_symmetry_multiplicity
 _atom_site_fract_x
 _atom_site_fract_y
 _atom_site_fract_z
 _atom_site_occupancy
  Cu  Cu0  1  0.29619000  0.29617000  0.99993000  1.0
  Cu  Cu1  1  0.54617000  0.04619000  0.49993000  1.0
  Cu  Cu2  1  0.93618000  0.39849000  0.84625000  1.0
  Cu  Cu3  1  0.55227000  0.08990000  0.15373000  1.0
  Cu  Cu4  1  0.33990000  0.30228000  0.65373000  1.0
  Cu  Cu5  1  0.64849000  0.68618000  0.34625000  1.0
  H  H6  1  0.85536000  0.18058000  0.69012000  1.0
  H  H7  1  0.49024000  0.16503000  0.30982000  1.0
  H  H8  1  0.41503000  0.24023000  0.80982000  1.0
  H  H9  1  0.43058000  0.60536000  0.19012000  1.0
  H  H10  1  0.02565000  0.32520000  0.71771000  1.0
  H  H11  1  0.60731000  0.30774000  0.28226000  1.0
  H  H12  1  0.55774000  0.35731000  0.78227000  1.0
  H  H13  1  0.57520000  0.77565000  0.21770000  1.0
  H  H14  1  0.84281000  0.55277000  0.87649000  1.0
  H  H15  1  0.67629000  0.96632000  0.12351000  1.0
  H  H16  1  0.21632000  0.42629000  0.62351000  1.0
  H  H17  1  0.80277000  0.59281000  0.37648000  1.0
  H  H18  1  0.80672000  0.45325000  0.94597000  1.0
  H  H19  1  0.50736000  0.86079000  0.05395000  1.0
  H  H20  1  0.11080000  0.25736000  0.55396000  1.0
  H  H21  1  0.70325000  0.55672000  0.44597000  1.0
  H  H22  1  0.21052000  0.84057000  0.89374000  1.0
  H  H23  1  0.94702000  0.31675000  0.10625000  1.0
  H  H24  1  0.56675000  0.69702000  0.60625000  1.0
  H  H25  1  0.09057000  0.96053000  0.39374000  1.0
  H  H26  1  0.40739000  0.68926000  0.70925000  1.0
  H  H27  1  0.97997000  0.69796000  0.29069000  1.0
  H  H28  1  0.94797000  0.72997000  0.79069000  1.0
  H  H29  1  0.93925000  0.15738000  0.20924000  1.0
  H  H30  1  0.61884000  0.95268000  0.75487000  1.0
  H  H31  1  0.19776000  0.86379000  0.24503000  1.0
  H  H32  1  0.11379000  0.94776000  0.74503000  1.0
  H  H33  1  0.20268000  0.36883000  0.25487000  1.0
  H  H34  1  0.97022000  0.15405000  0.91432000  1.0
  H  H35  1  0.23980000  0.05611000  0.08572000  1.0
  H  H36  1  0.30611000  0.98980000  0.58572000  1.0
  H  H37  1  0.40405000  0.72022000  0.41432000  1.0
  H  H38  1  0.74347000  0.94028000  0.91730000  1.0
  H  H39  1  0.02322000  0.82652000  0.08306000  1.0
  H  H40  1  0.07652000  0.77323000  0.58306000  1.0
  H  H41  1  0.19027000  0.49347000  0.41730000  1.0
  H  H42  1  0.35058000  0.50025000  0.88489000  1.0
  H  H43  1  0.61515000  0.46528000  0.11496000  1.0
  H  H44  1  0.71529000  0.36516000  0.61496000  1.0
  H  H45  1  0.75025000  0.10058000  0.38489000  1.0
  H  H46  1  0.56775000  0.72141000  0.87821000  1.0
  H  H47  1  0.84310000  0.68933000  0.12195000  1.0
  H  H48  1  0.93933000  0.59310000  0.62194000  1.0
  H  H49  1  0.97141000  0.31775000  0.37820000  1.0
  C  C50  1  0.53514000  0.04364000  0.85125000  1.0
  C  C51  1  0.19245000  0.68382000  0.14869000  1.0
  C  C52  1  0.93383000  0.94245000  0.64870000  1.0
  C  C53  1  0.29363000  0.28514000  0.35125000  1.0
  C  C54  1  0.41700000  0.01291000  0.88736000  1.0
  C  C55  1  0.12567000  0.52961000  0.11259000  1.0
  C  C56  1  0.77961000  0.87567000  0.61259000  1.0
  C  C57  1  0.26291000  0.16700000  0.38736000  1.0
  C  C58  1  0.29975000  0.86597000  0.86271000  1.0
  C  C59  1  0.00339000  0.43697000  0.13725000  1.0
  C  C60  1  0.68698000  0.75338000  0.63726000  1.0
  C  C61  1  0.11597000  0.04975000  0.36271000  1.0
  C  C62  1  0.29638000  0.74897000  0.79982000  1.0
  C  C63  1  0.94922000  0.49644000  0.20016000  1.0
  C  C64  1  0.74645000  0.69922000  0.70017000  1.0
  C  C65  1  0.99897000  0.04638000  0.29982000  1.0
  C  C66  1  0.41074000  0.78012000  0.75952000  1.0
  C  C67  1  0.02060000  0.65107000  0.24043000  1.0
  C  C68  1  0.90107000  0.77060000  0.74043000  1.0
  C  C69  1  0.03012000  0.16074000  0.25951000  1.0
  C  C70  1  0.52923000  0.92637000  0.78564000  1.0
  C  C71  1  0.14075000  0.74345000  0.21430000  1.0
  C  C72  1  0.99345000  0.89075000  0.71430000  1.0
  C  C73  1  0.17637000  0.27923000  0.28564000  1.0
  C  C74  1  0.66690000  0.20001000  0.88377000  1.0
  C  C75  1  0.31624000  0.78307000  0.11611000  1.0
  C  C76  1  0.03307000  0.06624000  0.61611000  1.0
  C  C77  1  0.45000000  0.41690000  0.38376000  1.0
  C  C78  1  0.40615000  0.13061000  0.95104000  1.0
  C  C79  1  0.17974000  0.45518000  0.04890000  1.0
  C  C80  1  0.70518000  0.92974000  0.54890000  1.0
  C  C81  1  0.38061000  0.15616000  0.45104000  1.0
  C  C82  1  0.17274000  0.59209000  0.77866000  1.0
  C  C83  1  0.81353000  0.39395000  0.22139000  1.0
  C  C84  1  0.64396000  0.56353000  0.72140000  1.0
  C  C85  1  0.84209000  0.92274000  0.27866000  1.0
  C  C86  1  0.97747000  0.08047000  0.95282000  1.0
  C  C87  1  0.12770000  0.02483000  0.04730000  1.0
  C  C88  1  0.27483000  0.87770000  0.54730000  1.0
  C  C89  1  0.33047000  0.72748000  0.45281000  1.0
  C  C90  1  0.85013000  0.95771000  0.95325000  1.0
  C  C91  1  0.00462000  0.89716000  0.04706000  1.0
  C  C92  1  0.14716000  0.75462000  0.54706000  1.0
  C  C93  1  0.20770000  0.60013000  0.45325000  1.0
  C  C94  1  0.86097000  0.86101000  0.00019000  1.0
  C  C95  1  0.11101000  0.61098000  0.50019000  1.0
  C  C96  1  0.46230000  0.54547000  0.93526000  1.0
  C  C97  1  0.61016000  0.52683000  0.06469000  1.0
  C  C98  1  0.77683000  0.36016000  0.56469000  1.0
  C  C99  1  0.79548000  0.21231000  0.43525000  1.0
  C  C100  1  0.58530000  0.67065000  0.93317000  1.0
  C  C101  1  0.73745000  0.65205000  0.06698000  1.0
  C  C102  1  0.90205000  0.48745000  0.56698000  1.0
  C  C103  1  0.92065000  0.33530000  0.43317000  1.0
  C  C104  1  0.72751000  0.72753000  0.00015000  1.0
  C  C105  1  0.97753000  0.47751000  0.50015000  1.0
  N  N106  1  0.11500000  0.11507000  0.00001000  1.0
  N  N107  1  0.36507000  0.86500000  0.50001000  1.0
  N  N108  1  0.47488000  0.47478000  0.99994000  1.0
  N  N109  1  0.72478000  0.22488000  0.49994000  1.0
  O  O110  1  0.77330000  0.21518000  0.85177000  1.0
  O  O111  1  0.36337000  0.92145000  0.14809000  1.0
  O  O112  1  0.17145000  0.11337000  0.64809000  1.0
  O  O113  1  0.46518000  0.52330000  0.35177000  1.0
  O  O114  1  0.66620000  0.30399000  0.93930000  1.0
  O  O115  1  0.36470000  0.72688000  0.06054000  1.0
  O  O116  1  0.97688000  0.11470000  0.56055000  1.0
  O  O117  1  0.55399000  0.41620000  0.43929000  1.0
  O  O118  1  0.33233000  0.17235000  0.89904000  1.0
  O  O119  1  0.27350000  0.43337000  0.10087000  1.0
  O  O120  1  0.68337000  0.02349000  0.60087000  1.0
  O  O121  1  0.42235000  0.08234000  0.39905000  1.0
  O  O122  1  0.44900000  0.17134000  0.04625000  1.0
  O  O123  1  0.12518000  0.40276000  0.95369000  1.0
  O  O124  1  0.65276000  0.87518000  0.45369000  1.0
  O  O125  1  0.42134000  0.19900000  0.54625000  1.0
  O  O126  1  0.07378000  0.57641000  0.81886000  1.0
  O  O127  1  0.75767000  0.25482000  0.18123000  1.0
  O  O128  1  0.50483000  0.50768000  0.68124000  1.0
  O  O129  1  0.82641000  0.82378000  0.31885000  1.0
  O  O130  1  0.17316000  0.48585000  0.72491000  1.0
  O  O131  1  0.76101000  0.44811000  0.27514000  1.0
  O  O132  1  0.69811000  0.51100000  0.77515000  1.0
  O  O133  1  0.73585000  0.92317000  0.22491000  1.0
  O  O134  1  0.95079000  0.25965000  0.74527000  1.0
  O  O135  1  0.51420000  0.20535000  0.25466000  1.0
  O  O136  1  0.45535000  0.26420000  0.75466000  1.0
  O  O137  1  0.50965000  0.70079000  0.24527000  1.0
  O  O138  1  0.89363000  0.53087000  0.93012000  1.0
  O  O139  1  0.60082000  0.96353000  0.06986000  1.0
  O  O140  1  0.21354000  0.35082000  0.56986000  1.0
  O  O141  1  0.78086000  0.64363000  0.43012000  1.0
