# generated using pymatgen
data_K2P2H22C10O13
_symmetry_space_group_name_H-M   'P 1'
_cell_length_a   7.00820000
_cell_length_b   8.10358000
_cell_length_c   17.53580000
_cell_angle_alpha   101.32100000
_cell_angle_beta   101.49100000
_cell_angle_gamma   90.02410000
_symmetry_Int_Tables_number   1
_chemical_formula_structural   K2P2H22C10O13
_chemical_formula_sum   'K4 P4 H44 C20 O26'
_cell_volume   956.12429051
_cell_formula_units_Z   2
loop_
 _symmetry_equiv_pos_site_id
 _symmetry_equiv_pos_as_xyz
  1  'x, y, z'
loop_
 _atom_site_type_symbol
 _atom_site_label
 _atom_site_symmetry_multiplicity
 _atom_site_fract_x
 _atom_site_fract_y
 _atom_site_fract_z
 _atom_site_occupancy
  K  K0  1  0.77753000  0.42349000  0.92507000  1.0
  K  K1  1  0.85198000  0.07645000  0.07495000  1.0
  K  K2  1  0.22246000  0.57651000  0.07493000  1.0
  K  K3  1  0.14802000  0.92354000  0.92505000  1.0
  P  P4  1  0.20648000  0.45818000  0.85530000  1.0
  P  P5  1  0.35051000  0.04192000  0.14465000  1.0
  P  P6  1  0.79350000  0.54183000  0.14471000  1.0
  P  P7  1  0.64950000  0.95808000  0.85535000  1.0
  H  H8  1  0.94859000  0.08977000  0.73928000  1.0
  H  H9  1  0.20898000  0.41036000  0.26080000  1.0
  H  H10  1  0.05141000  0.91023000  0.26072000  1.0
  H  H11  1  0.79102000  0.58964000  0.73920000  1.0
  H  H12  1  0.20809000  0.12667000  0.76991000  1.0
  H  H13  1  0.43777000  0.37341000  0.23006000  1.0
  H  H14  1  0.79190000  0.87332000  0.23009000  1.0
  H  H15  1  0.56224000  0.62659000  0.76994000  1.0
  H  H16  1  0.37768000  0.35463000  0.72203000  1.0
  H  H17  1  0.65493000  0.14534000  0.27784000  1.0
  H  H18  1  0.62232000  0.64537000  0.27797000  1.0
  H  H19  1  0.34508000  0.85466000  0.72216000  1.0
  H  H20  1  0.23560000  0.48085000  0.66035000  1.0
  H  H21  1  0.57440000  0.01914000  0.33957000  1.0
  H  H22  1  0.76440000  0.51915000  0.33965000  1.0
  H  H23  1  0.42559000  0.98086000  0.66043000  1.0
  H  H24  1  0.02348000  0.26391000  0.52956000  1.0
  H  H25  1  0.49294000  0.23606000  0.47042000  1.0
  H  H26  1  0.97653000  0.73609000  0.47045000  1.0
  H  H27  1  0.50706000  0.76394000  0.52958000  1.0
  H  H28  1  0.15340000  0.07587000  0.50834000  1.0
  H  H29  1  0.64432000  0.42404000  0.49163000  1.0
  H  H30  1  0.84660000  0.92413000  0.49166000  1.0
  H  H31  1  0.35568000  0.57596000  0.50837000  1.0
  H  H32  1  0.28287000  0.26676000  0.56220000  1.0
  H  H33  1  0.71986000  0.23317000  0.43778000  1.0
  H  H34  1  0.71713000  0.73325000  0.43780000  1.0
  H  H35  1  0.28014000  0.76683000  0.56222000  1.0
  H  H36  1  0.72133000  0.13118000  0.60673000  1.0
  H  H37  1  0.11385000  0.36878000  0.39329000  1.0
  H  H38  1  0.27866000  0.86882000  0.39327000  1.0
  H  H39  1  0.88615000  0.63123000  0.60671000  1.0
  H  H40  1  0.60904000  0.33205000  0.62148000  1.0
  H  H41  1  0.98680000  0.16784000  0.37855000  1.0
  H  H42  1  0.39096000  0.66796000  0.37852000  1.0
  H  H43  1  0.01319000  0.83217000  0.62145000  1.0
  H  H44  1  0.69610000  0.23365000  0.70393000  1.0
  H  H45  1  0.99161000  0.26628000  0.29610000  1.0
  H  H46  1  0.30390000  0.76635000  0.29607000  1.0
  H  H47  1  0.00839000  0.73372000  0.70390000  1.0
  H  H48  1  0.63830000  0.71486000  0.04040000  1.0
  H  H49  1  0.59803000  0.78484000  0.95952000  1.0
  H  H50  1  0.36169000  0.28514000  0.95960000  1.0
  H  H51  1  0.40198000  0.21516000  0.04048000  1.0
  C  C52  1  0.06800000  0.18534000  0.75404000  1.0
  C  C53  1  0.31354000  0.31476000  0.24600000  1.0
  C  C54  1  0.93200000  0.81466000  0.24596000  1.0
  C  C55  1  0.68647000  0.68524000  0.75400000  1.0
  C  C56  1  0.07561000  0.27069000  0.68368000  1.0
  C  C57  1  0.39132000  0.22931000  0.31628000  1.0
  C  C58  1  0.92439000  0.72931000  0.31631000  1.0
  C  C59  1  0.60868000  0.77069000  0.68372000  1.0
  C  C60  1  0.23572000  0.41183000  0.70815000  1.0
  C  C61  1  0.52681000  0.08814000  0.29176000  1.0
  C  C62  1  0.76428000  0.58817000  0.29185000  1.0
  C  C63  1  0.47320000  0.91187000  0.70824000  1.0
  C  C64  1  0.14649000  0.19092000  0.55243000  1.0
  C  C65  1  0.59326000  0.30900000  0.44754000  1.0
  C  C66  1  0.85351000  0.80908000  0.44757000  1.0
  C  C67  1  0.40674000  0.69100000  0.55246000  1.0
  C  C68  1  0.72277000  0.25422000  0.64675000  1.0
  C  C69  1  0.07530000  0.24571000  0.35327000  1.0
  C  C70  1  0.27723000  0.74578000  0.35325000  1.0
  C  C71  1  0.92470000  0.75429000  0.64673000  1.0
  O  O72  1  0.03510000  0.30911000  0.82061000  1.0
  O  O73  1  0.21395000  0.19098000  0.17945000  1.0
  O  O74  1  0.96489000  0.69089000  0.17939000  1.0
  O  O75  1  0.78606000  0.80902000  0.82055000  1.0
  O  O76  1  0.12020000  0.13852000  0.62321000  1.0
  O  O77  1  0.49654000  0.36140000  0.37676000  1.0
  O  O78  1  0.87980000  0.86148000  0.37679000  1.0
  O  O79  1  0.50346000  0.63860000  0.62324000  1.0
  O  O80  1  0.90202000  0.34916000  0.65665000  1.0
  O  O81  1  0.24461000  0.15082000  0.34332000  1.0
  O  O82  1  0.09797000  0.65084000  0.34335000  1.0
  O  O83  1  0.75539000  0.84918000  0.65668000  1.0
  O  O84  1  0.20657000  0.53472000  0.77589000  1.0
  O  O85  1  0.42988000  0.96528000  0.22403000  1.0
  O  O86  1  0.79342000  0.46528000  0.22411000  1.0
  O  O87  1  0.57012000  0.03473000  0.77597000  1.0
  O  O88  1  0.39832000  0.37969000  0.87863000  1.0
  O  O89  1  0.51913000  0.12034000  0.12128000  1.0
  O  O90  1  0.60167000  0.62030000  0.12137000  1.0
  O  O91  1  0.48088000  0.87965000  0.87872000  1.0
  O  O92  1  0.12810000  0.58542000  0.91402000  1.0
  O  O93  1  0.21335000  0.91482000  0.08592000  1.0
  O  O94  1  0.87189000  0.41457000  0.08598000  1.0
  O  O95  1  0.78665000  0.08517000  0.91408000  1.0
  O  O96  1  0.70105000  0.74989000  0.99999000  1.0
  O  O97  1  0.29895000  0.25011000  0.00002000  1.0
