# generated using pymatgen
data_Pr2CuH20C32(NO7)4
_symmetry_space_group_name_H-M   'P 1'
_cell_length_a   10.55670000
_cell_length_b   10.68980000
_cell_length_c   11.39790000
_cell_angle_alpha   83.87540000
_cell_angle_beta   74.61490000
_cell_angle_gamma   69.44350000
_symmetry_Int_Tables_number   1
_chemical_formula_structural   Pr2CuH20C32(NO7)4
_chemical_formula_sum   'Pr2 Cu1 H20 C32 N4 O28'
_cell_volume   1161.05331493
_cell_formula_units_Z   1
loop_
 _symmetry_equiv_pos_site_id
 _symmetry_equiv_pos_as_xyz
  1  'x, y, z'
loop_
 _atom_site_type_symbol
 _atom_site_label
 _atom_site_symmetry_multiplicity
 _atom_site_fract_x
 _atom_site_fract_y
 _atom_site_fract_z
 _atom_site_occupancy
  Pr  Pr0  1  0.59335000  0.60389000  0.62628000  1.0
  Pr  Pr1  1  0.40665000  0.39611000  0.37372000  1.0
  Cu  Cu2  1  0.00000000  0.50000000  0.50000000  1.0
  H  H3  1  0.35212000  0.98748000  0.47161000  1.0
  H  H4  1  0.64788000  0.01252000  0.52839000  1.0
  H  H5  1  0.96778000  0.17399000  0.36015000  1.0
  H  H6  1  0.03222000  0.82602000  0.63984000  1.0
  H  H7  1  0.18346000  0.75006000  0.31589000  1.0
  H  H8  1  0.81654000  0.24994000  0.68411000  1.0
  H  H9  1  0.68731000  0.45915000  0.94449000  1.0
  H  H10  1  0.31269000  0.54085000  0.05551000  1.0
  H  H11  1  0.93088000  0.30753000  0.21003000  1.0
  H  H12  1  0.06912000  0.69248000  0.78997000  1.0
  H  H13  1  0.13666000  0.34182000  0.83311000  1.0
  H  H14  1  0.86334000  0.65816000  0.16689000  1.0
  H  H15  1  0.64460000  0.77948000  0.80617000  1.0
  H  H16  1  0.35541000  0.22052000  0.19383000  1.0
  H  H17  1  0.51816000  0.72899000  0.86324000  1.0
  H  H18  1  0.48186000  0.27100000  0.13677000  1.0
  H  H19  1  0.81339000  0.54692000  0.37354000  1.0
  H  H20  1  0.18660000  0.45309000  0.62647000  1.0
  H  H21  1  0.71939000  0.45741000  0.37513000  1.0
  H  H22  1  0.28061000  0.54259000  0.62488000  1.0
  C  C23  1  0.27820000  0.85608000  0.39778000  1.0
  C  C24  1  0.72180000  0.14393000  0.60222000  1.0
  C  C25  1  0.27154000  0.98112000  0.43174000  1.0
  C  C26  1  0.72846000  0.01888000  0.56826000  1.0
  C  C27  1  0.16095000  0.09589000  0.41699000  1.0
  C  C28  1  0.83905000  0.90411000  0.58301000  1.0
  C  C29  1  0.05689000  0.08626000  0.36771000  1.0
  C  C30  1  0.94311000  0.91374000  0.63228000  1.0
  C  C31  1  0.06887000  0.96284000  0.32914000  1.0
  C  C32  1  0.93113000  0.03716000  0.67086000  1.0
  C  C33  1  0.17754000  0.84648000  0.34385000  1.0
  C  C34  1  0.82247000  0.15352000  0.65615000  1.0
  C  C35  1  0.39033000  0.73194000  0.42553000  1.0
  C  C36  1  0.60967000  0.26806000  0.57447000  1.0
  C  C37  1  0.15087000  0.23204000  0.44913000  1.0
  C  C38  1  0.84913000  0.76796000  0.55086000  1.0
  C  C39  1  0.91057000  0.40852000  0.87528000  1.0
  C  C40  1  0.08943000  0.59147000  0.12472000  1.0
  C  C41  1  0.78864000  0.42116000  0.96663000  1.0
  C  C42  1  0.21136000  0.57884000  0.03337000  1.0
  C  C43  1  0.79519000  0.38495000  0.08728000  1.0
  C  C44  1  0.20481000  0.61506000  0.91272000  1.0
  C  C45  1  0.92433000  0.33530000  0.11682000  1.0
  C  C46  1  0.07566000  0.66471000  0.88318000  1.0
  C  C47  1  0.04484000  0.32101000  0.02369000  1.0
  C  C48  1  0.95516000  0.67900000  0.97631000  1.0
  C  C49  1  0.04055000  0.35622000  0.90336000  1.0
  C  C50  1  0.95945000  0.64378000  0.09664000  1.0
  C  C51  1  0.90180000  0.44982000  0.74721000  1.0
  C  C52  1  0.09819000  0.55017000  0.25278000  1.0
  C  C53  1  0.66296000  0.39687000  0.18303000  1.0
  C  C54  1  0.33703000  0.60314000  0.81697000  1.0
  N  N55  1  0.96094000  0.95713000  0.27254000  1.0
  N  N56  1  0.03906000  0.04287000  0.72746000  1.0
  N  N57  1  0.18150000  0.27006000  0.05259000  1.0
  N  N58  1  0.81851000  0.72994000  0.94741000  1.0
  O  O59  1  0.40243000  0.62047000  0.38591000  1.0
  O  O60  1  0.59757000  0.37954000  0.61409000  1.0
  O  O61  1  0.46432000  0.74720000  0.49062000  1.0
  O  O62  1  0.53567000  0.25280000  0.50939000  1.0
  O  O63  1  0.25917000  0.25521000  0.45250000  1.0
  O  O64  1  0.74084000  0.74478000  0.54749000  1.0
  O  O65  1  0.02739000  0.31804000  0.46768000  1.0
  O  O66  1  0.97262000  0.68196000  0.53231000  1.0
  O  O67  1  0.87667000  0.06429000  0.24690000  1.0
  O  O68  1  0.12333000  0.93570000  0.75311000  1.0
  O  O69  1  0.96016000  0.84516000  0.25364000  1.0
  O  O70  1  0.03985000  0.15483000  0.74636000  1.0
  O  O71  1  0.01524000  0.44868000  0.67017000  1.0
  O  O72  1  0.98475000  0.55132000  0.32983000  1.0
  O  O73  1  0.78531000  0.48374000  0.72107000  1.0
  O  O74  1  0.21469000  0.51625000  0.27893000  1.0
  O  O75  1  0.54931000  0.42694000  0.15106000  1.0
  O  O76  1  0.45069000  0.57307000  0.84894000  1.0
  O  O77  1  0.66799000  0.37309000  0.29480000  1.0
  O  O78  1  0.33201000  0.62692000  0.70520000  1.0
  O  O79  1  0.18328000  0.24280000  0.16199000  1.0
  O  O80  1  0.81672000  0.75721000  0.83801000  1.0
  O  O81  1  0.28751000  0.25849000  0.96969000  1.0
  O  O82  1  0.71249000  0.74150000  0.03031000  1.0
  O  O83  1  0.56301000  0.76708000  0.78892000  1.0
  O  O84  1  0.43701000  0.23291000  0.21108000  1.0
  O  O85  1  0.73850000  0.51686000  0.42495000  1.0
  O  O86  1  0.26150000  0.48315000  0.57506000  1.0
