# generated using pymatgen
data_Ba5H20C32(NO12)2
_symmetry_space_group_name_H-M   'P 1'
_cell_length_a   7.34325000
_cell_length_b   10.73960000
_cell_length_c   12.93860000
_cell_angle_alpha   90.30950000
_cell_angle_beta   90.76390000
_cell_angle_gamma   103.49400000
_symmetry_Int_Tables_number   1
_chemical_formula_structural   Ba5H20C32(NO12)2
_chemical_formula_sum   'Ba5 H20 C32 N2 O24'
_cell_volume   992.08958950
_cell_formula_units_Z   1
loop_
 _symmetry_equiv_pos_site_id
 _symmetry_equiv_pos_as_xyz
  1  'x, y, z'
loop_
 _atom_site_type_symbol
 _atom_site_label
 _atom_site_symmetry_multiplicity
 _atom_site_fract_x
 _atom_site_fract_y
 _atom_site_fract_z
 _atom_site_occupancy
  Ba  Ba0  1  0.00000000  0.00000000  0.00000000  1.0
  Ba  Ba1  1  0.87996000  0.62732000  0.87658000  1.0
  Ba  Ba2  1  0.12003000  0.37268000  0.12342000  1.0
  Ba  Ba3  1  0.56530000  0.20785000  0.93697000  1.0
  Ba  Ba4  1  0.43470000  0.79215000  0.06303000  1.0
  H  H5  1  0.55325000  0.37078000  0.29868000  1.0
  H  H6  1  0.44674000  0.62922000  0.70132000  1.0
  H  H7  1  0.64176000  0.47200000  0.47050000  1.0
  H  H8  1  0.35823000  0.52801000  0.52950000  1.0
  H  H9  1  0.85832000  0.68786000  0.48342000  1.0
  H  H10  1  0.14169000  0.31214000  0.51658000  1.0
  H  H11  1  0.98274000  0.80225000  0.32129000  1.0
  H  H12  1  0.01726000  0.19774000  0.67871000  1.0
  H  H13  1  0.77450000  0.84343000  0.63605000  1.0
  H  H14  1  0.22550000  0.15657000  0.36395000  1.0
  H  H15  1  0.58254000  0.81870000  0.47118000  1.0
  H  H16  1  0.41746000  0.18130000  0.52882000  1.0
  H  H17  1  0.25753000  0.84203000  0.47485000  1.0
  H  H18  1  0.74247000  0.15797000  0.52515000  1.0
  H  H19  1  0.11753000  0.89048000  0.64174000  1.0
  H  H20  1  0.88247000  0.10952000  0.35826000  1.0
  H  H21  1  0.06878000  0.63377000  0.63861000  1.0
  H  H22  1  0.93122000  0.36623000  0.36139000  1.0
  H  H23  1  0.87274000  0.53527000  0.64410000  1.0
  H  H24  1  0.12726000  0.46473000  0.35590000  1.0
  C  C25  1  0.67049000  0.45508000  0.11243000  1.0
  C  C26  1  0.32951000  0.54492000  0.88757000  1.0
  C  C27  1  0.71741000  0.52786000  0.21308000  1.0
  C  C28  1  0.28259000  0.47214000  0.78692000  1.0
  C  C29  1  0.64639000  0.46588000  0.30413000  1.0
  C  C30  1  0.35361000  0.53412000  0.69587000  1.0
  C  C31  1  0.69651000  0.52291000  0.40077000  1.0
  C  C32  1  0.30350000  0.47709000  0.59923000  1.0
  C  C33  1  0.81855000  0.64390000  0.40776000  1.0
  C  C34  1  0.18146000  0.35610000  0.59224000  1.0
  C  C35  1  0.88944000  0.70701000  0.31790000  1.0
  C  C36  1  0.11056000  0.29299000  0.68210000  1.0
  C  C37  1  0.83961000  0.65054000  0.22057000  1.0
  C  C38  1  0.16039000  0.34946000  0.77943000  1.0
  C  C39  1  0.90759000  0.72939000  0.12766000  1.0
  C  C40  1  0.09241000  0.27060000  0.87234000  1.0
  C  C41  1  0.67399000  0.89897000  0.82508000  1.0
  C  C42  1  0.32601000  0.10104000  0.17492000  1.0
  C  C43  1  0.55451000  0.88215000  0.72941000  1.0
  C  C44  1  0.44549000  0.11785000  0.27059000  1.0
  C  C45  1  0.63059000  0.85425000  0.63534000  1.0
  C  C46  1  0.36941000  0.14575000  0.36466000  1.0
  C  C47  1  0.52415000  0.83955000  0.54443000  1.0
  C  C48  1  0.47585000  0.16045000  0.45557000  1.0
  C  C49  1  0.33926000  0.85276000  0.54660000  1.0
  C  C50  1  0.66074000  0.14724000  0.45340000  1.0
  C  C51  1  0.26158000  0.87982000  0.63941000  1.0
  C  C52  1  0.73842000  0.12019000  0.36060000  1.0
  C  C53  1  0.36769000  0.89361000  0.73128000  1.0
  C  C54  1  0.63231000  0.10640000  0.26872000  1.0
  C  C55  1  0.27627000  0.92035000  0.82942000  1.0
  C  C56  1  0.72373000  0.07966000  0.17058000  1.0
  N  N57  1  0.66621000  0.33515000  0.70713000  1.0
  N  N58  1  0.33380000  0.66485000  0.29287000  1.0
  O  O59  1  0.80413000  0.45805000  0.04826000  1.0
  O  O60  1  0.19587000  0.54195000  0.95174000  1.0
  O  O61  1  0.94285000  0.62291000  0.66561000  1.0
  O  O62  1  0.05714000  0.37709000  0.33438000  1.0
  O  O63  1  0.50575000  0.38808000  0.09746000  1.0
  O  O64  1  0.49425000  0.61192000  0.90254000  1.0
  O  O65  1  0.78801000  0.73442000  0.05535000  1.0
  O  O66  1  0.21199000  0.26558000  0.94465000  1.0
  O  O67  1  0.07666000  0.79221000  0.12485000  1.0
  O  O68  1  0.92334000  0.20778000  0.87514000  1.0
  O  O69  1  0.82536000  0.86067000  0.82411000  1.0
  O  O70  1  0.17464000  0.13933000  0.17589000  1.0
  O  O71  1  0.62199000  0.95213000  0.90554000  1.0
  O  O72  1  0.37801000  0.04787000  0.09446000  1.0
  O  O73  1  0.26581000  0.03449000  0.84679000  1.0
  O  O74  1  0.73419000  0.96551000  0.15321000  1.0
  O  O75  1  0.20583000  0.82609000  0.88840000  1.0
  O  O76  1  0.79416000  0.17392000  0.11160000  1.0
  O  O77  1  0.69392000  0.40163000  0.79163000  1.0
  O  O78  1  0.30609000  0.59837000  0.20837000  1.0
  O  O79  1  0.72967000  0.38617000  0.62360000  1.0
  O  O80  1  0.27033000  0.61383000  0.37640000  1.0
  O  O81  1  0.57648000  0.22071000  0.71079000  1.0
  O  O82  1  0.42353000  0.77929000  0.28921000  1.0
