# generated using pymatgen
data_AgH6C7NO2
_symmetry_space_group_name_H-M   'P 1'
_cell_length_a   7.04523000
_cell_length_b   9.26058000
_cell_length_c   11.93234729
_cell_angle_alpha   67.20368788
_cell_angle_beta   83.63199838
_cell_angle_gamma   73.32080000
_symmetry_Int_Tables_number   1
_chemical_formula_structural   AgH6C7NO2
_chemical_formula_sum   'Ag4 H24 C28 N4 O8'
_cell_volume   687.49529822
_cell_formula_units_Z   4
loop_
 _symmetry_equiv_pos_site_id
 _symmetry_equiv_pos_as_xyz
  1  'x, y, z'
loop_
 _atom_site_type_symbol
 _atom_site_label
 _atom_site_symmetry_multiplicity
 _atom_site_fract_x
 _atom_site_fract_y
 _atom_site_fract_z
 _atom_site_occupancy
  Ag  Ag0  1  0.19642000  0.45166000  0.45350000  1.0
  Ag  Ag1  1  0.30392000  0.09493000  0.45350000  1.0
  Ag  Ag2  1  0.80358000  0.54834000  0.54650000  1.0
  Ag  Ag3  1  0.69608000  0.90506000  0.54651000  1.0
  H  H4  1  0.01180000  0.27717000  0.95824000  1.0
  H  H5  1  0.48767000  0.76494000  0.95872000  1.0
  H  H6  1  0.98821000  0.72283000  0.04176000  1.0
  H  H7  1  0.51233000  0.23506000  0.04128000  1.0
  H  H8  1  0.13331000  0.05146000  0.15526000  1.0
  H  H9  1  0.36556000  0.79431000  0.15549000  1.0
  H  H10  1  0.86669000  0.94854000  0.84474000  1.0
  H  H11  1  0.63444000  0.20569000  0.84451000  1.0
  H  H12  1  0.56230000  0.24466000  0.61462000  1.0
  H  H13  1  0.93789000  0.14030000  0.61461000  1.0
  H  H14  1  0.43770000  0.75533000  0.38538000  1.0
  H  H15  1  0.06211000  0.85970000  0.38539000  1.0
  H  H16  1  0.59140000  0.56134000  0.14658000  1.0
  H  H17  1  0.90818000  0.29243000  0.14649000  1.0
  H  H18  1  0.40859000  0.43867000  0.85342000  1.0
  H  H19  1  0.09182000  0.70758000  0.85351000  1.0
  H  H20  1  0.37503000  0.50252000  0.22024000  1.0
  H  H21  1  0.12463000  0.27764000  0.22017000  1.0
  H  H22  1  0.62497000  0.49748000  0.77976000  1.0
  H  H23  1  0.87536000  0.72236000  0.77984000  1.0
  H  H24  1  0.55187000  0.37800000  0.15308000  1.0
  H  H25  1  0.94761000  0.46922000  0.15312000  1.0
  H  H26  1  0.44813000  0.62200000  0.84692000  1.0
  H  H27  1  0.05238000  0.53078000  0.84688000  1.0
  C  C28  1  0.11510000  0.28988000  0.73213000  1.0
  C  C29  1  0.38481000  0.97812000  0.73220000  1.0
  C  C30  1  0.88490000  0.71012000  0.26787000  1.0
  C  C31  1  0.61519000  0.02188000  0.26780000  1.0
  C  C32  1  0.11764000  0.16447000  0.95959000  1.0
  C  C33  1  0.38195000  0.87645000  0.95986000  1.0
  C  C34  1  0.88237000  0.83553000  0.04041000  1.0
  C  C35  1  0.61805000  0.12355000  0.04014000  1.0
  C  C36  1  0.18367000  0.03815000  0.06938000  1.0
  C  C37  1  0.31555000  0.89336000  0.06952000  1.0
  C  C38  1  0.81633000  0.96185000  0.93062000  1.0
  C  C39  1  0.68445000  0.10664000  0.93048000  1.0
  C  C40  1  0.18337000  0.14888000  0.84872000  1.0
  C  C41  1  0.31651000  0.00258000  0.84884000  1.0
  C  C42  1  0.81663000  0.85112000  0.15128000  1.0
  C  C43  1  0.68350000  0.99742000  0.15116000  1.0
  C  C44  1  0.64760000  0.26305000  0.53072000  1.0
  C  C45  1  0.85249000  0.20603000  0.53072000  1.0
  C  C46  1  0.35240000  0.73695000  0.46928000  1.0
  C  C47  1  0.14751000  0.79397000  0.46928000  1.0
  C  C48  1  0.64498000  0.36875000  0.32093000  1.0
  C  C49  1  0.85480000  0.31059000  0.32091000  1.0
  C  C50  1  0.35502000  0.63125000  0.67907000  1.0
  C  C51  1  0.14519000  0.68941000  0.67909000  1.0
  C  C52  1  0.53325000  0.45793000  0.20406000  1.0
  C  C53  1  0.96638000  0.33835000  0.20402000  1.0
  C  C54  1  0.46674000  0.54207000  0.79594000  1.0
  C  C55  1  0.03362000  0.66165000  0.79598000  1.0
  N  N56  1  0.54429000  0.34417000  0.42591000  1.0
  N  N57  1  0.95567000  0.22991000  0.42588000  1.0
  N  N58  1  0.45571000  0.65583000  0.57409000  1.0
  N  N59  1  0.04433000  0.77010000  0.57412000  1.0
  O  O60  1  0.24817000  0.32976000  0.65415000  1.0
  O  O61  1  0.25179000  0.01628000  0.65410000  1.0
  O  O62  1  0.75183000  0.67025000  0.34585000  1.0
  O  O63  1  0.74821000  0.98372000  0.34590000  1.0
  O  O64  1  0.92999000  0.36002000  0.72199000  1.0
  O  O65  1  0.57001000  0.91841000  0.72201000  1.0
  O  O66  1  0.07001000  0.63998000  0.27801000  1.0
  O  O67  1  0.42999000  0.08159000  0.27799000  1.0
