# generated using pymatgen
data_Zn2H2C12S2O7F2
_symmetry_space_group_name_H-M   'P 1'
_cell_length_a   19.67360000
_cell_length_b   19.71430000
_cell_length_c   33.37260000
_cell_angle_alpha   79.13400000
_cell_angle_beta   79.25570000
_cell_angle_gamma   63.98610000
_symmetry_Int_Tables_number   1
_chemical_formula_structural   Zn2H2C12S2O7F2
_chemical_formula_sum   'Zn16 H16 C96 S16 O56 F16'
_cell_volume   11344.49942673
_cell_formula_units_Z   8
loop_
 _symmetry_equiv_pos_site_id
 _symmetry_equiv_pos_as_xyz
  1  'x, y, z'
loop_
 _atom_site_type_symbol
 _atom_site_label
 _atom_site_symmetry_multiplicity
 _atom_site_fract_x
 _atom_site_fract_y
 _atom_site_fract_z
 _atom_site_occupancy
  Zn  Zn0  1  0.05594000  0.40027000  0.47841000  1.0
  Zn  Zn1  1  0.98379000  0.48291000  0.56070000  1.0
  Zn  Zn2  1  0.05916000  0.55997000  0.48256000  1.0
  Zn  Zn3  1  0.90141000  0.55528000  0.47938000  1.0
  Zn  Zn4  1  0.69442000  0.34970000  0.27209000  1.0
  Zn  Zn5  1  0.69057000  0.18929000  0.26684000  1.0
  Zn  Zn6  1  0.76813000  0.26688000  0.19077000  1.0
  Zn  Zn7  1  0.84900000  0.19612000  0.27266000  1.0
  Zn  Zn8  1  0.26612000  0.76589000  0.68923000  1.0
  Zn  Zn9  1  0.34896000  0.69504000  0.77142000  1.0
  Zn  Zn10  1  0.19383000  0.84725000  0.77095000  1.0
  Zn  Zn11  1  0.18994000  0.68823000  0.76618000  1.0
  Zn  Zn12  1  0.55972000  0.06109000  0.98357000  1.0
  Zn  Zn13  1  0.40146000  0.05417000  0.97777000  1.0
  Zn  Zn14  1  0.55455000  0.90148000  0.97793000  1.0
  Zn  Zn15  1  0.48339000  0.98471000  0.06036000  1.0
  H  H16  1  0.95358000  0.24910000  0.35134000  1.0
  H  H17  1  0.74668000  0.45572000  0.35112000  1.0
  H  H18  1  0.00080000  0.29786000  0.39940000  1.0
  H  H19  1  0.09723000  0.59718000  0.70005000  1.0
  H  H20  1  0.20106000  0.70104000  0.59683000  1.0
  H  H21  1  0.04982000  0.54991000  0.65129000  1.0
  H  H22  1  0.54993000  0.05007000  0.15271000  1.0
  H  H23  1  0.65329000  0.15332000  0.04896000  1.0
  H  H24  1  0.59863000  0.09847000  0.20020000  1.0
  H  H25  1  0.50147000  0.79572000  0.89869000  1.0
  H  H26  1  0.29498000  0.00274000  0.89880000  1.0
  H  H27  1  0.45202000  0.74921000  0.85062000  1.0
  H  H28  1  0.80998000  0.52755000  0.41875000  1.0
  H  H29  1  0.13591000  0.63596000  0.52666000  1.0
  H  H30  1  0.72321000  0.22325000  0.11429000  1.0
  H  H31  1  0.22230000  0.94002000  0.83120000  1.0
  C  C32  1  0.06143000  0.31612000  0.56165000  1.0
  C  C33  1  0.06956000  0.56989000  0.56951000  1.0
  C  C34  1  0.18371000  0.43950000  0.43868000  1.0
  C  C35  1  0.93759000  0.68379000  0.43878000  1.0
  C  C36  1  0.93064000  0.43011000  0.43052000  1.0
  C  C37  1  0.81647000  0.56101000  0.56179000  1.0
  C  C38  1  0.56635000  0.31060000  0.31118000  1.0
  C  C39  1  0.68085000  0.18002000  0.18055000  1.0
  C  C40  1  0.68900000  0.43350000  0.18839000  1.0
  C  C41  1  0.93438000  0.18847000  0.18934000  1.0
  C  C42  1  0.81855000  0.32113000  0.31979000  1.0
  C  C43  1  0.81226000  0.06647000  0.31142000  1.0
  C  C44  1  0.43325000  0.68929000  0.68830000  1.0
  C  C45  1  0.31945000  0.81973000  0.81938000  1.0
  C  C46  1  0.18897000  0.93304000  0.68848000  1.0
  C  C47  1  0.06614000  0.81019000  0.81107000  1.0
  C  C48  1  0.18057000  0.68031000  0.67990000  1.0
  C  C49  1  0.31212000  0.56617000  0.81111000  1.0
  C  C50  1  0.43799000  0.18362000  0.93873000  1.0
  C  C51  1  0.42998000  0.93058000  0.93021000  1.0
  C  C52  1  0.68324000  0.93956000  0.93875000  1.0
  C  C53  1  0.56078000  0.81721000  0.06146000  1.0
  C  C54  1  0.56978000  0.07048000  0.06933000  1.0
  C  C55  1  0.31626000  0.06161000  0.06094000  1.0
  C  C56  1  0.90096000  0.40342000  0.40220000  1.0
  C  C57  1  0.84733000  0.34971000  0.34846000  1.0
  C  C58  1  0.82828000  0.44865000  0.38842000  1.0
  C  C59  1  0.91944000  0.30451000  0.36195000  1.0
  C  C60  1  0.80237000  0.42083000  0.36153000  1.0
  C  C61  1  0.94532000  0.33160000  0.38847000  1.0
  C  C62  1  0.09849000  0.59867000  0.59713000  1.0
  C  C63  1  0.15188000  0.65184000  0.65117000  1.0
  C  C64  1  0.14172000  0.64183000  0.58145000  1.0
  C  C65  1  0.10909000  0.60909000  0.66696000  1.0
  C  C66  1  0.16798000  0.66802000  0.60897000  1.0
  C  C67  1  0.08300000  0.58310000  0.64000000  1.0
  C  C68  1  0.30470000  0.45285000  0.40078000  1.0
  C  C69  1  0.44530000  0.29716000  0.34917000  1.0
  C  C70  1  0.25828000  0.41452000  0.41391000  1.0
  C  C71  1  0.49169000  0.33548000  0.33605000  1.0
  C  C72  1  0.37697000  0.33939000  0.37281000  1.0
  C  C73  1  0.37302000  0.41062000  0.37717000  1.0
  C  C74  1  0.72490000  0.57670000  0.62891000  1.0
  C  C75  1  0.52488000  0.67338000  0.62113000  1.0
  C  C76  1  0.74192000  0.58583000  0.58651000  1.0
  C  C77  1  0.50788000  0.66430000  0.66352000  1.0
  C  C78  1  0.60385000  0.64164000  0.60816000  1.0
  C  C79  1  0.64596000  0.60838000  0.64189000  1.0
  C  C80  1  0.07699000  0.22450000  0.62888000  1.0
  C  C81  1  0.17341000  0.02481000  0.62132000  1.0
  C  C82  1  0.08612000  0.24160000  0.58646000  1.0
  C  C83  1  0.16430000  0.00770000  0.66372000  1.0
  C  C84  1  0.14179000  0.10369000  0.60828000  1.0
  C  C85  1  0.10860000  0.14565000  0.64195000  1.0
  C  C86  1  0.84495000  0.80113000  0.39718000  1.0
  C  C87  1  0.90510000  0.94880000  0.35289000  1.0
  C  C88  1  0.91307000  0.75815000  0.41386000  1.0
  C  C89  1  0.83700000  0.99178000  0.33624000  1.0
  C  C90  1  0.90869000  0.87911000  0.37511000  1.0
  C  C91  1  0.84143000  0.87068000  0.37484000  1.0
  C  C92  1  0.65297000  0.15266000  0.15161000  1.0
  C  C93  1  0.59877000  0.09895000  0.09802000  1.0
  C  C94  1  0.66855000  0.16844000  0.10836000  1.0
  C  C95  1  0.58303000  0.08311000  0.14084000  1.0
  C  C96  1  0.64104000  0.14107000  0.08202000  1.0
  C  C97  1  0.61004000  0.10989000  0.16699000  1.0
  C  C98  1  0.67312000  0.52531000  0.12109000  1.0
  C  C99  1  0.57669000  0.72508000  0.12872000  1.0
  C  C100  1  0.66402000  0.50804000  0.16350000  1.0
  C  C101  1  0.58569000  0.74244000  0.08634000  1.0
  C  C102  1  0.60831000  0.64613000  0.14172000  1.0
  C  C103  1  0.64150000  0.60424000  0.10804000  1.0
  C  C104  1  0.08093000  0.12453000  0.17705000  1.0
  C  C105  1  0.16953000  0.12493000  0.07316000  1.0
  C  C106  1  0.00879000  0.16339000  0.16439000  1.0
  C  C107  1  0.24163000  0.08626000  0.08586000  1.0
  C  C108  1  0.11048000  0.13914000  0.10614000  1.0
  C  C109  1  0.13993000  0.11014000  0.14408000  1.0
  C  C110  1  0.34654000  0.84912000  0.84771000  1.0
  C  C111  1  0.40107000  0.90205000  0.90152000  1.0
  C  C112  1  0.30156000  0.92161000  0.86150000  1.0
  C  C113  1  0.44595000  0.83011000  0.88804000  1.0
  C  C114  1  0.32974000  0.94719000  0.88840000  1.0
  C  C115  1  0.41851000  0.80458000  0.86150000  1.0
  C  C116  1  0.40491000  0.44893000  0.85280000  1.0
  C  C117  1  0.34506000  0.30111000  0.89722000  1.0
  C  C118  1  0.33679000  0.49179000  0.83611000  1.0
  C  C119  1  0.41319000  0.25825000  0.91385000  1.0
  C  C120  1  0.34141000  0.37075000  0.87490000  1.0
  C  C121  1  0.40860000  0.37931000  0.87513000  1.0
  C  C122  1  0.94518000  0.79692000  0.84923000  1.0
  C  C123  1  0.80455000  0.95271000  0.90082000  1.0
  C  C124  1  0.99169000  0.83513000  0.83606000  1.0
  C  C125  1  0.75803000  0.91451000  0.91392000  1.0
  C  C126  1  0.87294000  0.91038000  0.87722000  1.0
  C  C127  1  0.87686000  0.83918000  0.87286000  1.0
  S  S128  1  0.29850000  0.32488000  0.39725000  1.0
  S  S129  1  0.45154000  0.42508000  0.35273000  1.0
  S  S130  1  0.66016000  0.63404000  0.56166000  1.0
  S  S131  1  0.58957000  0.61605000  0.68839000  1.0
  S  S132  1  0.13423000  0.16003000  0.56173000  1.0
  S  S133  1  0.11620000  0.08921000  0.68848000  1.0
  S  S134  1  0.97458000  0.80316000  0.40216000  1.0
  S  S135  1  0.77558000  0.94669000  0.34781000  1.0
  S  S136  1  0.61583000  0.58963000  0.18825000  1.0
  S  S137  1  0.63380000  0.66089000  0.06155000  1.0
  S  S138  1  0.01254000  0.18301000  0.11105000  1.0
  S  S139  1  0.23790000  0.06649000  0.13917000  1.0
  S  S140  1  0.27546000  0.44659000  0.84784000  1.0
  S  S141  1  0.47455000  0.30338000  0.90217000  1.0
  S  S142  1  0.95154000  0.92475000  0.85280000  1.0
  S  S143  1  0.79821000  0.82487000  0.89726000  1.0
  O  O144  1  0.00045000  0.49889000  0.50023000  1.0
  O  O145  1  0.07826000  0.31516000  0.52268000  1.0
  O  O146  1  0.03138000  0.53144000  0.58526000  1.0
  O  O147  1  0.15576000  0.50582000  0.44985000  1.0
  O  O148  1  0.02595000  0.37437000  0.58085000  1.0
  O  O149  1  0.15364000  0.39177000  0.44671000  1.0
  O  O150  1  0.08516000  0.58590000  0.53028000  1.0
  O  O151  1  0.00429000  0.65708000  0.45005000  1.0
  O  O152  1  0.88723000  0.49654000  0.44231000  1.0
  O  O153  1  0.89112000  0.65257000  0.44702000  1.0
  O  O154  1  0.99610000  0.38750000  0.44180000  1.0
  O  O155  1  0.87502000  0.52584000  0.58094000  1.0
  O  O156  1  0.81530000  0.57746000  0.52278000  1.0
  O  O157  1  0.74989000  0.25054000  0.25073000  1.0
  O  O158  1  0.59604000  0.35862000  0.30323000  1.0
  O  O159  1  0.66544000  0.16406000  0.21894000  1.0
  O  O160  1  0.72489000  0.37507000  0.16929000  1.0
  O  O161  1  0.59433000  0.24438000  0.29999000  1.0
  O  O162  1  0.67215000  0.43450000  0.22732000  1.0
  O  O163  1  0.72003000  0.21923000  0.16476000  1.0
  O  O164  1  0.87641000  0.22360000  0.16927000  1.0
  O  O165  1  0.86224000  0.25552000  0.30887000  1.0
  O  O166  1  0.93382000  0.17347000  0.22822000  1.0
  O  O167  1  0.75286000  0.36440000  0.30857000  1.0
  O  O168  1  0.74574000  0.09282000  0.30002000  1.0
  O  O169  1  0.85853000  0.09778000  0.30361000  1.0
  O  O170  1  0.24996000  0.74910000  0.74968000  1.0
  O  O171  1  0.37494000  0.72462000  0.66900000  1.0
  O  O172  1  0.36226000  0.75473000  0.80787000  1.0
  O  O173  1  0.17219000  0.93389000  0.72745000  1.0
  O  O174  1  0.43440000  0.67287000  0.72726000  1.0
  O  O175  1  0.22432000  0.87493000  0.66923000  1.0
  O  O176  1  0.25255000  0.86284000  0.80782000  1.0
  O  O177  1  0.09618000  0.85806000  0.80321000  1.0
  O  O178  1  0.16465000  0.66366000  0.71831000  1.0
  O  O179  1  0.09397000  0.74428000  0.79953000  1.0
  O  O180  1  0.21868000  0.71895000  0.66369000  1.0
  O  O181  1  0.35859000  0.59736000  0.80298000  1.0
  O  O182  1  0.24553000  0.59257000  0.79977000  1.0
  O  O183  1  0.50018000  0.99991000  0.99993000  1.0
  O  O184  1  0.50460000  0.15719000  0.94997000  1.0
  O  O185  1  0.38663000  0.99612000  0.94129000  1.0
  O  O186  1  0.65324000  0.89177000  0.94661000  1.0
  O  O187  1  0.39155000  0.15250000  0.94673000  1.0
  O  O188  1  0.65551000  0.00568000  0.94999000  1.0
  O  O189  1  0.49575000  0.88706000  0.94133000  1.0
  O  O190  1  0.57732000  0.81610000  0.02253000  1.0
  O  O191  1  0.53120000  0.03230000  0.08566000  1.0
  O  O192  1  0.52549000  0.87545000  0.08066000  1.0
  O  O193  1  0.58583000  0.08662000  0.03088000  1.0
  O  O194  1  0.31649000  0.07714000  0.02212000  1.0
  O  O195  1  0.37411000  0.02664000  0.08101000  1.0
  O  O196  1  0.78213000  0.51786000  0.39993000  1.0
  O  O197  1  0.15915000  0.65922000  0.54098000  1.0
  O  O198  1  0.70893000  0.20894000  0.09099000  1.0
  O  O199  1  0.23217000  0.96784000  0.84992000  1.0
  F  F200  1  0.28791000  0.52278000  0.40922000  1.0
  F  F201  1  0.46205000  0.22723000  0.34073000  1.0
  F  F202  1  0.77690000  0.54169000  0.65553000  1.0
  F  F203  1  0.47297000  0.70841000  0.59446000  1.0
  F  F204  1  0.04204000  0.27635000  0.65543000  1.0
  F  F205  1  0.20830000  0.97306000  0.59471000  1.0
  F  F206  1  0.78743000  0.78013000  0.40139000  1.0
  F  F207  1  0.96260000  0.96977000  0.34883000  1.0
  F  F208  1  0.70812000  0.47350000  0.09450000  1.0
  F  F209  1  0.54180000  0.77672000  0.15542000  1.0
  F  F210  1  0.09488000  0.10227000  0.21638000  1.0
  F  F211  1  0.15555000  0.14731000  0.03385000  1.0
  F  F212  1  0.46237000  0.47004000  0.84865000  1.0
  F  F213  1  0.28755000  0.28011000  0.90137000  1.0
  F  F214  1  0.96195000  0.72698000  0.84077000  1.0
  F  F215  1  0.78787000  0.02264000  0.90921000  1.0
