# generated using pymatgen
data_KH2CN4O
_symmetry_space_group_name_H-M   'P 1'
_cell_length_a   3.89096000
_cell_length_b   9.77734000
_cell_length_c   11.25590000
_cell_angle_alpha   90.00020000
_cell_angle_beta   90.00010000
_cell_angle_gamma   93.83260000
_symmetry_Int_Tables_number   1
_chemical_formula_structural   KH2CN4O
_chemical_formula_sum   'K4 H8 C4 N16 O4'
_cell_volume   427.25324062
_cell_formula_units_Z   4
loop_
 _symmetry_equiv_pos_site_id
 _symmetry_equiv_pos_as_xyz
  1  'x, y, z'
loop_
 _atom_site_type_symbol
 _atom_site_label
 _atom_site_symmetry_multiplicity
 _atom_site_fract_x
 _atom_site_fract_y
 _atom_site_fract_z
 _atom_site_occupancy
  K  K0  1  0.25491000  0.83105000  0.90437000  1.0
  K  K1  1  0.74509000  0.66895000  0.40438000  1.0
  K  K2  1  0.74509000  0.16895000  0.09563000  1.0
  K  K3  1  0.25491000  0.33105000  0.59563000  1.0
  H  H4  1  0.92702000  0.89118000  0.15363000  1.0
  H  H5  1  0.07297000  0.60882000  0.65363000  1.0
  H  H6  1  0.07297000  0.10882000  0.84637000  1.0
  H  H7  1  0.92702000  0.39118000  0.34637000  1.0
  H  H8  1  0.64556000  0.78575000  0.10008000  1.0
  H  H9  1  0.35443000  0.71425000  0.60008000  1.0
  H  H10  1  0.35444000  0.21425000  0.89992000  1.0
  H  H11  1  0.64556000  0.28575000  0.39992000  1.0
  C  C12  1  0.58051000  0.99431000  0.55768000  1.0
  C  C13  1  0.41949000  0.50569000  0.05768000  1.0
  C  C14  1  0.41949000  0.00569000  0.44232000  1.0
  C  C15  1  0.58051000  0.49430000  0.94232000  1.0
  N  N16  1  0.60455000  0.87558000  0.61686000  1.0
  N  N17  1  0.39545000  0.62442000  0.11686000  1.0
  N  N18  1  0.39545000  0.12442000  0.38314000  1.0
  N  N19  1  0.60455000  0.37558000  0.88314000  1.0
  N  N20  1  0.77025000  0.91077000  0.71809000  1.0
  N  N21  1  0.22975000  0.58923000  0.21809000  1.0
  N  N22  1  0.22975000  0.08923000  0.28191000  1.0
  N  N23  1  0.77026000  0.41077000  0.78191000  1.0
  N  N24  1  0.84044000  0.04501000  0.71915000  1.0
  N  N25  1  0.15956000  0.45499000  0.21915000  1.0
  N  N26  1  0.15956000  0.95499000  0.28085000  1.0
  N  N27  1  0.84044000  0.54501000  0.78085000  1.0
  N  N28  1  0.72586000  0.10132000  0.61937000  1.0
  N  N29  1  0.27414000  0.39868000  0.11937000  1.0
  N  N30  1  0.27414000  0.89868000  0.38063000  1.0
  N  N31  1  0.72586000  0.60132000  0.88063000  1.0
  O  O32  1  0.78303000  0.87280000  0.08116000  1.0
  O  O33  1  0.21698000  0.62720000  0.58117000  1.0
  O  O34  1  0.21698000  0.12720000  0.91884000  1.0
  O  O35  1  0.78302000  0.37280000  0.41884000  1.0
