# generated using pymatgen
data_CuH8C14N2O5
_symmetry_space_group_name_H-M   'P 1'
_cell_length_a   13.46250000
_cell_length_b   13.62090000
_cell_length_c   13.95090000
_cell_angle_alpha   89.96010000
_cell_angle_beta   69.55800000
_cell_angle_gamma   89.94400000
_symmetry_Int_Tables_number   1
_chemical_formula_structural   CuH8C14N2O5
_chemical_formula_sum   'Cu4 H32 C56 N8 O20'
_cell_volume   2397.09503257
_cell_formula_units_Z   4
loop_
 _symmetry_equiv_pos_site_id
 _symmetry_equiv_pos_as_xyz
  1  'x, y, z'
loop_
 _atom_site_type_symbol
 _atom_site_label
 _atom_site_symmetry_multiplicity
 _atom_site_fract_x
 _atom_site_fract_y
 _atom_site_fract_z
 _atom_site_occupancy
  Cu  Cu0  1  0.04408000  0.45356000  0.41385000  1.0
  Cu  Cu1  1  0.45627000  0.95380000  0.58570000  1.0
  Cu  Cu2  1  0.95591000  0.54649000  0.58619000  1.0
  Cu  Cu3  1  0.54370000  0.04616000  0.41430000  1.0
  H  H4  1  0.91709000  0.74575000  0.70031000  1.0
  H  H5  1  0.58236000  0.24578000  0.29985000  1.0
  H  H6  1  0.08283000  0.25427000  0.29968000  1.0
  H  H7  1  0.41761000  0.75422000  0.70013000  1.0
  H  H8  1  0.84918000  0.81020000  0.88169000  1.0
  H  H9  1  0.65061000  0.31013000  0.11854000  1.0
  H  H10  1  0.15077000  0.18983000  0.11829000  1.0
  H  H11  1  0.34939000  0.68986000  0.88144000  1.0
  H  H12  1  0.77049000  0.51040000  0.98181000  1.0
  H  H13  1  0.72955000  0.01032000  0.01856000  1.0
  H  H14  1  0.22953000  0.48961000  0.01818000  1.0
  H  H15  1  0.27047000  0.98966000  0.98144000  1.0
  H  H16  1  0.83653000  0.46084000  0.79936000  1.0
  H  H17  1  0.66309000  0.96079000  0.20097000  1.0
  H  H18  1  0.16346000  0.53917000  0.20064000  1.0
  H  H19  1  0.33690000  0.03919000  0.79903000  1.0
  H  H20  1  0.86593000  0.55037000  0.24243000  1.0
  H  H21  1  0.63428000  0.05033000  0.75771000  1.0
  H  H22  1  0.13417000  0.44973000  0.75755000  1.0
  H  H23  1  0.36582000  0.94965000  0.24229000  1.0
  H  H24  1  0.71343000  0.71468000  0.51744000  1.0
  H  H25  1  0.78608000  0.21440000  0.48245000  1.0
  H  H26  1  0.28657000  0.28535000  0.48258000  1.0
  H  H27  1  0.21395000  0.78552000  0.51753000  1.0
  H  H28  1  0.65032000  0.78554000  0.24264000  1.0
  H  H29  1  0.84870000  0.28632000  0.75725000  1.0
  H  H30  1  0.34961000  0.21442000  0.75740000  1.0
  H  H31  1  0.15129000  0.71371000  0.24273000  1.0
  H  H32  1  0.81803000  0.58035000  0.10000000  1.0
  H  H33  1  0.68171000  0.08078000  0.89999000  1.0
  H  H34  1  0.18200000  0.41969000  0.90000000  1.0
  H  H35  1  0.31837000  0.91917000  0.09997000  1.0
  C  C36  1  0.88308000  0.69692000  0.76565000  1.0
  C  C37  1  0.61651000  0.19685000  0.23461000  1.0
  C  C38  1  0.11687000  0.30310000  0.23434000  1.0
  C  C39  1  0.38346000  0.80313000  0.76538000  1.0
  C  C40  1  0.84671000  0.73222000  0.86545000  1.0
  C  C41  1  0.65307000  0.23213000  0.13478000  1.0
  C  C42  1  0.15327000  0.26780000  0.13455000  1.0
  C  C43  1  0.34691000  0.76785000  0.86521000  1.0
  C  C44  1  0.80684000  0.66581000  0.94641000  1.0
  C  C45  1  0.69309000  0.16580000  0.05376000  1.0
  C  C46  1  0.19316000  0.33421000  0.05358000  1.0
  C  C47  1  0.30692000  0.83419000  0.94624000  1.0
  C  C48  1  0.80341000  0.56617000  0.92306000  1.0
  C  C49  1  0.69656000  0.06615000  0.07718000  1.0
  C  C50  1  0.19660000  0.43385000  0.07694000  1.0
  C  C51  1  0.30345000  0.93384000  0.92281000  1.0
  C  C52  1  0.83978000  0.53745000  0.82068000  1.0
  C  C53  1  0.65995000  0.03742000  0.17959000  1.0
  C  C54  1  0.16023000  0.46256000  0.17931000  1.0
  C  C55  1  0.34003000  0.96256000  0.82040000  1.0
  C  C56  1  0.76821000  0.70680000  0.05306000  1.0
  C  C57  1  0.73165000  0.20692000  0.94709000  1.0
  C  C58  1  0.23179000  0.29322000  0.94695000  1.0
  C  C59  1  0.26838000  0.79306000  0.05290000  1.0
  C  C60  1  0.75710000  0.66386000  0.23047000  1.0
  C  C61  1  0.74258000  0.16425000  0.76962000  1.0
  C  C62  1  0.24288000  0.33615000  0.76956000  1.0
  C  C63  1  0.25749000  0.83573000  0.23036000  1.0
  C  C64  1  0.80955000  0.60737000  0.28199000  1.0
  C  C65  1  0.69036000  0.10753000  0.71818000  1.0
  C  C66  1  0.19051000  0.39270000  0.71802000  1.0
  C  C67  1  0.30975000  0.89241000  0.28178000  1.0
  C  C68  1  0.79416000  0.62600000  0.38468000  1.0
  C  C69  1  0.70573000  0.12606000  0.61547000  1.0
  C  C70  1  0.20588000  0.37405000  0.61533000  1.0
  C  C71  1  0.29436000  0.87386000  0.38450000  1.0
  C  C72  1  0.72425000  0.69985000  0.43777000  1.0
  C  C73  1  0.77535000  0.19999000  0.56221000  1.0
  C  C74  1  0.27573000  0.30016000  0.56225000  1.0
  C  C75  1  0.22467000  0.79999000  0.43776000  1.0
  C  C76  1  0.67352000  0.75678000  0.38541000  1.0
  C  C77  1  0.82578000  0.25727000  0.61448000  1.0
  C  C78  1  0.32644000  0.24321000  0.61462000  1.0
  C  C79  1  0.17419000  0.74274000  0.38552000  1.0
  C  C80  1  0.68931000  0.73950000  0.28227000  1.0
  C  C81  1  0.80999000  0.24007000  0.71767000  1.0
  C  C82  1  0.31064000  0.26047000  0.71775000  1.0
  C  C83  1  0.19001000  0.75996000  0.28232000  1.0
  C  C84  1  0.86170000  0.57250000  0.43335000  1.0
  C  C85  1  0.63892000  0.07201000  0.56667000  1.0
  C  C86  1  0.13832000  0.42752000  0.56668000  1.0
  C  C87  1  0.36112000  0.92797000  0.43330000  1.0
  C  C88  1  0.60693000  0.84321000  0.43515000  1.0
  C  C89  1  0.89253000  0.34365000  0.56437000  1.0
  C  C90  1  0.39301000  0.15678000  0.56485000  1.0
  C  C91  1  0.10745000  0.65637000  0.43563000  1.0
  N  N92  1  0.87960000  0.60129000  0.74327000  1.0
  N  N93  1  0.61993000  0.10118000  0.25703000  1.0
  N  N94  1  0.12037000  0.39873000  0.25673000  1.0
  N  N95  1  0.38005000  0.89879000  0.74296000  1.0
  N  N96  1  0.77760000  0.64356000  0.12629000  1.0
  N  N97  1  0.72226000  0.14390000  0.87380000  1.0
  N  N98  1  0.22241000  0.35646000  0.87373000  1.0
  N  N99  1  0.27783000  0.85605000  0.12618000  1.0
  O  O100  1  0.73296000  0.79139000  0.07041000  1.0
  O  O101  1  0.76678000  0.29150000  0.92989000  1.0
  O  O102  1  0.26702000  0.20862000  0.92960000  1.0
  O  O103  1  0.23320000  0.70849000  0.07011000  1.0
  O  O104  1  0.92602000  0.50971000  0.37682000  1.0
  O  O105  1  0.57467000  0.00902000  0.62301000  1.0
  O  O106  1  0.07381000  0.49012000  0.62333000  1.0
  O  O107  1  0.42499000  0.99133000  0.37719000  1.0
  O  O108  1  0.85251000  0.59694000  0.52414000  1.0
  O  O109  1  0.64835000  0.09560000  0.47552000  1.0
  O  O110  1  0.14760000  0.40323000  0.47583000  1.0
  O  O111  1  0.35199000  0.90406000  0.52432000  1.0
  O  O112  1  0.54629000  0.83597000  0.52816000  1.0
  O  O113  1  0.95334000  0.33580000  0.47157000  1.0
  O  O114  1  0.45398000  0.16413000  0.47197000  1.0
  O  O115  1  0.04679000  0.66418000  0.52847000  1.0
  O  O116  1  0.61837000  0.91815000  0.37736000  1.0
  O  O117  1  0.88076000  0.41859000  0.62208000  1.0
  O  O118  1  0.38119000  0.08170000  0.62252000  1.0
  O  O119  1  0.11908000  0.58148000  0.37788000  1.0
