# generated using pymatgen
data_ZnH36C26S2(N3O2)2
_symmetry_space_group_name_H-M   'P 1'
_cell_length_a   9.51119000
_cell_length_b   10.31040000
_cell_length_c   14.83230000
_cell_angle_alpha   86.65930000
_cell_angle_beta   87.98950000
_cell_angle_gamma   85.21750000
_symmetry_Int_Tables_number   1
_chemical_formula_structural   ZnH36C26S2(N3O2)2
_chemical_formula_sum   'Zn2 H72 C52 S4 N12 O8'
_cell_volume   1446.32209302
_cell_formula_units_Z   2
loop_
 _symmetry_equiv_pos_site_id
 _symmetry_equiv_pos_as_xyz
  1  'x, y, z'
loop_
 _atom_site_type_symbol
 _atom_site_label
 _atom_site_symmetry_multiplicity
 _atom_site_fract_x
 _atom_site_fract_y
 _atom_site_fract_z
 _atom_site_occupancy
  Zn  Zn0  1  0.64917000  0.57146000  0.72823000  1.0
  Zn  Zn1  1  0.35084000  0.42854000  0.27177000  1.0
  H  H2  1  0.87779000  0.56104000  0.86327000  1.0
  H  H3  1  0.12221000  0.43896000  0.13673000  1.0
  H  H4  1  0.97665000  0.40425000  0.98424000  1.0
  H  H5  1  0.02335000  0.59575000  0.01576000  1.0
  H  H6  1  0.66915000  0.14221000  0.91961000  1.0
  H  H7  1  0.33085000  0.85779000  0.08039000  1.0
  H  H8  1  0.59006000  0.30356000  0.79610000  1.0
  H  H9  1  0.40994000  0.69644000  0.20390000  1.0
  H  H10  1  0.79659000  0.12412000  0.07397000  1.0
  H  H11  1  0.20341000  0.87588000  0.92602000  1.0
  H  H12  1  0.94499000  0.08630000  0.00396000  1.0
  H  H13  1  0.05501000  0.91370000  0.99604000  1.0
  H  H14  1  0.98798000  0.29499000  0.22636000  1.0
  H  H15  1  0.01202000  0.70501000  0.77364000  1.0
  H  H16  1  0.88263000  0.16099000  0.22559000  1.0
  H  H17  1  0.11737000  0.83901000  0.77441000  1.0
  H  H18  1  0.70026000  0.30118000  0.13818000  1.0
  H  H19  1  0.29974000  0.69882000  0.86182000  1.0
  H  H20  1  0.72811000  0.35056000  0.24809000  1.0
  H  H21  1  0.27189000  0.64944000  0.75191000  1.0
  H  H22  1  0.60639000  0.54214000  0.17944000  1.0
  H  H23  1  0.39361000  0.45786000  0.82056000  1.0
  H  H24  1  0.63003000  0.50048000  0.06401000  1.0
  H  H25  1  0.36997000  0.49952000  0.93599000  1.0
  H  H26  1  0.12152000  0.05448000  0.12437000  1.0
  H  H27  1  0.87848000  0.94552000  0.87563000  1.0
  H  H28  1  0.17559000  0.20522000  0.15545000  1.0
  H  H29  1  0.82441000  0.79478000  0.84455000  1.0
  H  H30  1  0.30678000  0.11294000  0.02252000  1.0
  H  H31  1  0.69322000  0.88706000  0.97748000  1.0
  H  H32  1  0.14962000  0.13036000  0.95954000  1.0
  H  H33  1  0.85038000  0.86964000  0.04046000  1.0
  H  H34  1  0.22751000  0.28026000  0.85313000  1.0
  H  H35  1  0.77249000  0.71974000  0.14687000  1.0
  H  H36  1  0.39574000  0.25761000  0.90404000  1.0
  H  H37  1  0.60426000  0.74239000  0.09596000  1.0
  H  H38  1  0.74810000  0.80288000  0.62408000  1.0
  H  H39  1  0.25190000  0.19712000  0.37592000  1.0
  H  H40  1  0.96628000  0.86265000  0.53403000  1.0
  H  H41  1  0.03372000  0.13735000  0.46597000  1.0
  H  H42  1  0.14744000  0.47207000  0.59517000  1.0
  H  H43  1  0.85256000  0.52793000  0.40483000  1.0
  H  H44  1  0.92339000  0.42706000  0.68060000  1.0
  H  H45  1  0.07661000  0.57294000  0.31940000  1.0
  H  H46  1  0.29422000  0.63561000  0.52362000  1.0
  H  H47  1  0.70578000  0.36439000  0.47638000  1.0
  H  H48  1  0.18317000  0.67348000  0.43149000  1.0
  H  H49  1  0.81683000  0.32652000  0.56851000  1.0
  H  H50  1  0.42676000  0.84319000  0.55982000  1.0
  H  H51  1  0.57324000  0.15681000  0.44018000  1.0
  H  H52  1  0.28256000  0.80353000  0.63156000  1.0
  H  H53  1  0.71744000  0.19646000  0.36844000  1.0
  H  H54  1  0.37330000  0.02529000  0.64707000  1.0
  H  H55  1  0.62670000  0.97471000  0.35293000  1.0
  H  H56  1  0.29616000  0.07717000  0.54222000  1.0
  H  H57  1  0.70384000  0.92283000  0.45778000  1.0
  H  H58  1  0.14557000  0.22989000  0.63444000  1.0
  H  H59  1  0.85443000  0.77010000  0.36556000  1.0
  H  H60  1  0.23009000  0.15592000  0.73212000  1.0
  H  H61  1  0.76992000  0.84408000  0.26789000  1.0
  H  H62  1  0.37089000  0.81137000  0.38207000  1.0
  H  H63  1  0.62911000  0.18863000  0.61793000  1.0
  H  H64  1  0.34268000  0.97147000  0.41843000  1.0
  H  H65  1  0.65732000  0.02853000  0.58157000  1.0
  H  H66  1  0.09458000  0.98773000  0.36550000  1.0
  H  H67  1  0.90542000  0.01227000  0.63450000  1.0
  H  H68  1  0.22963000  0.96850000  0.27827000  1.0
  H  H69  1  0.77037000  0.03150000  0.72173000  1.0
  H  H70  1  0.99066000  0.74971000  0.21609000  1.0
  H  H71  1  0.00934000  0.25029000  0.78391000  1.0
  H  H72  1  0.00813000  0.92050000  0.21206000  1.0
  H  H73  1  0.99187000  0.07950000  0.78794000  1.0
  C  C74  1  0.52858000  0.83689000  0.80237000  1.0
  C  C75  1  0.47142000  0.16310000  0.19763000  1.0
  C  C76  1  0.46070000  0.42114000  0.61367000  1.0
  C  C77  1  0.53930000  0.57887000  0.38633000  1.0
  C  C78  1  0.83468000  0.46717000  0.87709000  1.0
  C  C79  1  0.16532000  0.53282000  0.12291000  1.0
  C  C80  1  0.88882000  0.38110000  0.94490000  1.0
  C  C81  1  0.11118000  0.61890000  0.05510000  1.0
  C  C82  1  0.82934000  0.26278000  0.96325000  1.0
  C  C83  1  0.17066000  0.73722000  0.03675000  1.0
  C  C84  1  0.71905000  0.23379000  0.90941000  1.0
  C  C85  1  0.28095000  0.76621000  0.09059000  1.0
  C  C86  1  0.67280000  0.32341000  0.84120000  1.0
  C  C87  1  0.32720000  0.67659000  0.15880000  1.0
  C  C88  1  0.88608000  0.16783000  0.03742000  1.0
  C  C89  1  0.11392000  0.83217000  0.96258000  1.0
  C  C90  1  0.91112000  0.25078000  0.18649000  1.0
  C  C91  1  0.08888000  0.74922000  0.81351000  1.0
  C  C92  1  0.77802000  0.34203000  0.17994000  1.0
  C  C93  1  0.22198000  0.65798000  0.82005000  1.0
  C  C94  1  0.68041000  0.54320000  0.12034000  1.0
  C  C95  1  0.31959000  0.45680000  0.87966000  1.0
  C  C96  1  0.11964000  0.16011000  0.10333000  1.0
  C  C97  1  0.88036000  0.83988000  0.89667000  1.0
  C  C98  1  0.20429000  0.17117000  0.01494000  1.0
  C  C99  1  0.79571000  0.82883000  0.98506000  1.0
  C  C100  1  0.29329000  0.31699000  0.90464000  1.0
  C  C101  1  0.70671000  0.68301000  0.09536000  1.0
  C  C102  1  0.83916000  0.73277000  0.61502000  1.0
  C  C103  1  0.16084000  0.26723000  0.38498000  1.0
  C  C104  1  0.95898000  0.76531000  0.56570000  1.0
  C  C105  1  0.04102000  0.23468000  0.43430000  1.0
  C  C106  1  0.07334000  0.67163000  0.55708000  1.0
  C  C107  1  0.92666000  0.32837000  0.44291000  1.0
  C  C108  1  0.06085000  0.54814000  0.59983000  1.0
  C  C109  1  0.93915000  0.45186000  0.40017000  1.0
  C  C110  1  0.93727000  0.52250000  0.64743000  1.0
  C  C111  1  0.06272000  0.47750000  0.35257000  1.0
  C  C112  1  0.20254000  0.70046000  0.50034000  1.0
  C  C113  1  0.79746000  0.29954000  0.49966000  1.0
  C  C114  1  0.31230000  0.86715000  0.57313000  1.0
  C  C115  1  0.68770000  0.13284000  0.42687000  1.0
  C  C116  1  0.28933000  0.00648000  0.60092000  1.0
  C  C117  1  0.71068000  0.99352000  0.39908000  1.0
  C  C118  1  0.14080000  0.14952000  0.68691000  1.0
  C  C119  1  0.85920000  0.85048000  0.31310000  1.0
  C  C120  1  0.28892000  0.88307000  0.40868000  1.0
  C  C121  1  0.71108000  0.11693000  0.59133000  1.0
  C  C122  1  0.17877000  0.92017000  0.33808000  1.0
  C  C123  1  0.82123000  0.07983000  0.66191000  1.0
  C  C124  1  0.99614000  0.83369000  0.25811000  1.0
  C  C125  1  0.00386000  0.16631000  0.74190000  1.0
  S  S126  1  0.46135000  0.96895000  0.84527000  1.0
  S  S127  1  0.53865000  0.03105000  0.15473000  1.0
  S  S128  1  0.38290000  0.34742000  0.53995000  1.0
  S  S129  1  0.61711000  0.65258000  0.46005000  1.0
  N  N130  1  0.57821000  0.73944000  0.77069000  1.0
  N  N131  1  0.42179000  0.26057000  0.22931000  1.0
  N  N132  1  0.51685000  0.47551000  0.66937000  1.0
  N  N133  1  0.48316000  0.52449000  0.33064000  1.0
  N  N134  1  0.72740000  0.43978000  0.82609000  1.0
  N  N135  1  0.27260000  0.56022000  0.17391000  1.0
  N  N136  1  0.97761000  0.22388000  0.09854000  1.0
  N  N137  1  0.02239000  0.77612000  0.90146000  1.0
  N  N138  1  0.82738000  0.61314000  0.65523000  1.0
  N  N139  1  0.17262000  0.38686000  0.34477000  1.0
  N  N140  1  0.22940000  0.83803000  0.49628000  1.0
  N  N141  1  0.77060000  0.16197000  0.50372000  1.0
  O  O142  1  0.80849000  0.46785000  0.14265000  1.0
  O  O143  1  0.19151000  0.53215000  0.85735000  1.0
  O  O144  1  0.22600000  0.30403000  0.99153000  1.0
  O  O145  1  0.77401000  0.69597000  0.00847000  1.0
  O  O146  1  0.15487000  0.02658000  0.64664000  1.0
  O  O147  1  0.84513000  0.97342000  0.35336000  1.0
  O  O148  1  0.11880000  0.80555000  0.31099000  1.0
  O  O149  1  0.88120000  0.19445000  0.68901000  1.0
