# generated using pymatgen
data_TlH8C8NO2
_symmetry_space_group_name_H-M   'P 1'
_cell_length_a   7.89795000
_cell_length_b   10.21250000
_cell_length_c   11.44880000
_cell_angle_alpha   100.80400000
_cell_angle_beta   110.05300000
_cell_angle_gamma   90.07060000
_symmetry_Int_Tables_number   1
_chemical_formula_structural   TlH8C8NO2
_chemical_formula_sum   'Tl4 H32 C32 N4 O8'
_cell_volume   849.92645054
_cell_formula_units_Z   4
loop_
 _symmetry_equiv_pos_site_id
 _symmetry_equiv_pos_as_xyz
  1  'x, y, z'
loop_
 _atom_site_type_symbol
 _atom_site_label
 _atom_site_symmetry_multiplicity
 _atom_site_fract_x
 _atom_site_fract_y
 _atom_site_fract_z
 _atom_site_occupancy
  Tl  Tl0  1  0.24531000  0.94051000  0.96935000  1.0
  Tl  Tl1  1  0.72454000  0.44074000  0.97015000  1.0
  Tl  Tl2  1  0.75470000  0.05950000  0.03065000  1.0
  Tl  Tl3  1  0.27546000  0.55927000  0.02985000  1.0
  H  H4  1  0.40600000  0.24890000  0.53741000  1.0
  H  H5  1  0.13046000  0.74892000  0.53681000  1.0
  H  H6  1  0.59399000  0.75110000  0.46259000  1.0
  H  H7  1  0.86953000  0.25107000  0.46318000  1.0
  H  H8  1  0.64143000  0.24144000  0.60505000  1.0
  H  H9  1  0.96283000  0.74126000  0.60493000  1.0
  H  H10  1  0.35856000  0.75856000  0.39495000  1.0
  H  H11  1  0.03716000  0.25874000  0.39507000  1.0
  H  H12  1  0.55090000  0.31197000  0.46735000  1.0
  H  H13  1  0.91593000  0.81191000  0.46720000  1.0
  H  H14  1  0.44910000  0.68804000  0.53266000  1.0
  H  H15  1  0.08405000  0.18808000  0.53279000  1.0
  H  H16  1  0.97292000  0.53109000  0.71300000  1.0
  H  H17  1  0.73926000  0.03086000  0.71294000  1.0
  H  H18  1  0.02707000  0.46891000  0.28699000  1.0
  H  H19  1  0.26074000  0.96914000  0.28706000  1.0
  H  H20  1  0.85531000  0.38084000  0.62216000  1.0
  H  H21  1  0.76615000  0.88056000  0.62209000  1.0
  H  H22  1  0.14468000  0.61916000  0.37784000  1.0
  H  H23  1  0.23384000  0.11944000  0.37791000  1.0
  H  H24  1  0.57164000  0.78759000  0.85554000  1.0
  H  H25  1  0.28297000  0.28747000  0.85537000  1.0
  H  H26  1  0.42837000  0.21242000  0.14445000  1.0
  H  H27  1  0.71703000  0.71252000  0.14464000  1.0
  H  H28  1  0.27839000  0.64762000  0.75933000  1.0
  H  H29  1  0.48029000  0.14732000  0.75948000  1.0
  H  H30  1  0.72162000  0.35240000  0.24069000  1.0
  H  H31  1  0.51971000  0.85267000  0.24052000  1.0
  H  H32  1  0.26828000  0.42182000  0.62599000  1.0
  H  H33  1  0.35716000  0.92161000  0.62589000  1.0
  H  H34  1  0.73173000  0.57819000  0.37404000  1.0
  H  H35  1  0.64284000  0.07838000  0.37410000  1.0
  C  C36  1  0.53569000  0.30359000  0.55783000  1.0
  C  C37  1  0.02142000  0.80350000  0.55755000  1.0
  C  C38  1  0.46430000  0.69642000  0.44217000  1.0
  C  C39  1  0.97857000  0.19649000  0.44244000  1.0
  C  C40  1  0.70950000  0.52088000  0.68953000  1.0
  C  C41  1  0.97931000  0.02070000  0.68939000  1.0
  C  C42  1  0.29049000  0.47912000  0.31048000  1.0
  C  C43  1  0.02069000  0.97930000  0.31061000  1.0
  C  C44  1  0.54462000  0.43832000  0.63986000  1.0
  C  C45  1  0.09457000  0.93820000  0.63963000  1.0
  C  C46  1  0.45537000  0.56168000  0.36014000  1.0
  C  C47  1  0.90543000  0.06179000  0.36037000  1.0
  C  C48  1  0.56184000  0.69004000  0.79447000  1.0
  C  C49  1  0.23181000  0.18994000  0.79431000  1.0
  C  C50  1  0.43816000  0.30996000  0.20554000  1.0
  C  C51  1  0.76820000  0.81006000  0.20569000  1.0
  C  C52  1  0.71908000  0.64700000  0.77178000  1.0
  C  C53  1  0.05185000  0.14688000  0.77161000  1.0
  C  C54  1  0.28092000  0.35300000  0.22822000  1.0
  C  C55  1  0.94816000  0.85311000  0.22839000  1.0
  C  C56  1  0.89153000  0.73348000  0.83730000  1.0
  C  C57  1  0.94476000  0.23353000  0.83696000  1.0
  C  C58  1  0.10847000  0.26652000  0.16270000  1.0
  C  C59  1  0.05525000  0.76647000  0.16304000  1.0
  C  C60  1  0.39948000  0.61184000  0.74239000  1.0
  C  C61  1  0.34219000  0.11161000  0.74236000  1.0
  C  C62  1  0.60052000  0.38817000  0.25762000  1.0
  C  C63  1  0.65781000  0.88838000  0.25764000  1.0
  C  C64  1  0.39395000  0.48546000  0.66666667  1.0
  C  C65  1  0.27208000  0.98528000  0.66654000  1.0
  C  C66  1  0.60605000  0.51455000  0.33333333  1.0
  C  C67  1  0.72792000  0.01472000  0.33345000  1.0
  N  N68  1  0.85308000  0.47984000  0.65492000  1.0
  N  N69  1  0.80128000  0.97953000  0.65495000  1.0
  N  N70  1  0.14691000  0.52016000  0.34508000  1.0
  N  N71  1  0.19872000  0.02047000  0.34505000  1.0
  O  O72  1  0.04014000  0.68781000  0.82958000  1.0
  O  O73  1  0.78858000  0.18779000  0.82955000  1.0
  O  O74  1  0.95986000  0.31219000  0.17043000  1.0
  O  O75  1  0.21143000  0.81221000  0.17045000  1.0
  O  O76  1  0.88584000  0.85020000  0.89846000  1.0
  O  O77  1  0.01136000  0.35048000  0.89758000  1.0
  O  O78  1  0.11417000  0.14980000  0.10154000  1.0
  O  O79  1  0.98866000  0.64952000  0.10241000  1.0
