# generated using pymatgen
data_CdH18C22(SN2)2
_symmetry_space_group_name_H-M   'P 1'
_cell_length_a   7.83504000
_cell_length_b   12.51950000
_cell_length_c   12.51920000
_cell_angle_alpha   95.77960000
_cell_angle_beta   101.30200000
_cell_angle_gamma   101.30200000
_symmetry_Int_Tables_number   1
_chemical_formula_structural   CdH18C22(SN2)2
_chemical_formula_sum   'Cd2 H36 C44 S4 N8'
_cell_volume   1168.42998182
_cell_formula_units_Z   2
loop_
 _symmetry_equiv_pos_site_id
 _symmetry_equiv_pos_as_xyz
  1  'x, y, z'
loop_
 _atom_site_type_symbol
 _atom_site_label
 _atom_site_symmetry_multiplicity
 _atom_site_fract_x
 _atom_site_fract_y
 _atom_site_fract_z
 _atom_site_occupancy
  Cd  Cd0  1  0.75000000  0.88165000  0.11834000  1.0
  Cd  Cd1  1  0.25001000  0.11835000  0.88166000  1.0
  H  H2  1  0.35170000  0.77216000  0.06724000  1.0
  H  H3  1  0.14830000  0.93275000  0.22784000  1.0
  H  H4  1  0.64830000  0.22785000  0.93276000  1.0
  H  H5  1  0.85169000  0.06725000  0.77216000  1.0
  H  H6  1  0.00941000  0.52743000  0.23866000  1.0
  H  H7  1  0.49059000  0.76133000  0.47257000  1.0
  H  H8  1  0.99058000  0.47257000  0.76134000  1.0
  H  H9  1  0.50942000  0.23867000  0.52744000  1.0
  H  H10  1  0.90327000  0.69357000  0.19326000  1.0
  H  H11  1  0.59674000  0.80674000  0.30643000  1.0
  H  H12  1  0.09673000  0.30643000  0.80674000  1.0
  H  H13  1  0.40326000  0.19326000  0.69357000  1.0
  H  H14  1  0.12212000  0.60105000  0.05421000  1.0
  H  H15  1  0.37788000  0.94579000  0.39895000  1.0
  H  H16  1  0.87788000  0.39896000  0.94579000  1.0
  H  H17  1  0.62212000  0.05422000  0.60104000  1.0
  H  H18  1  0.22039000  0.42696000  0.09847000  1.0
  H  H19  1  0.27962000  0.90153000  0.57304000  1.0
  H  H20  1  0.77961000  0.57304000  0.90153000  1.0
  H  H21  1  0.72039000  0.09847000  0.42695000  1.0
  H  H22  1  0.47031000  0.33491000  0.15436000  1.0
  H  H23  1  0.02968000  0.84564000  0.66509000  1.0
  H  H24  1  0.52967000  0.66509000  0.84564000  1.0
  H  H25  1  0.97033000  0.15436000  0.33491000  1.0
  H  H26  1  0.71033000  0.24613000  0.21643000  1.0
  H  H27  1  0.78966000  0.78357000  0.75387000  1.0
  H  H28  1  0.28966000  0.75387000  0.78356000  1.0
  H  H29  1  0.21035000  0.21643000  0.24613000  1.0
  H  H30  1  0.89459000  0.33349000  0.31359000  1.0
  H  H31  1  0.60539000  0.68641000  0.66651000  1.0
  H  H32  1  0.10539000  0.66651000  0.68640000  1.0
  H  H33  1  0.39461000  0.31359000  0.33349000  1.0
  H  H34  1  0.90839000  0.30306000  0.17496000  1.0
  H  H35  1  0.59161000  0.82505000  0.69694000  1.0
  H  H36  1  0.09161000  0.69694000  0.82504000  1.0
  H  H37  1  0.40839000  0.17496000  0.30307000  1.0
  C  C38  1  0.62423000  0.61091000  0.14799000  1.0
  C  C39  1  0.87577000  0.85201000  0.38909000  1.0
  C  C40  1  0.37577000  0.38909000  0.85201000  1.0
  C  C41  1  0.12423000  0.14798000  0.61091000  1.0
  C  C42  1  0.39220000  0.69694000  0.08855000  1.0
  C  C43  1  0.10780000  0.91144000  0.30306000  1.0
  C  C44  1  0.60780000  0.30307000  0.91145000  1.0
  C  C45  1  0.89220000  0.08856000  0.69694000  1.0
  C  C46  1  0.50083000  0.50791000  0.13966000  1.0
  C  C47  1  0.99917000  0.86034000  0.49210000  1.0
  C  C48  1  0.49917000  0.49210000  0.86034000  1.0
  C  C49  1  0.00082000  0.13965000  0.50790000  1.0
  C  C50  1  0.86662000  0.52234000  0.21072000  1.0
  C  C51  1  0.63339000  0.78928000  0.47766000  1.0
  C  C52  1  0.13338000  0.47766000  0.78928000  1.0
  C  C53  1  0.36662000  0.21072000  0.52235000  1.0
  C  C54  1  0.80855000  0.61541000  0.18481000  1.0
  C  C55  1  0.69146000  0.81518000  0.38458000  1.0
  C  C56  1  0.19145000  0.38459000  0.81519000  1.0
  C  C57  1  0.30854000  0.18481000  0.61542000  1.0
  C  C58  1  0.47389000  0.06094000  0.11868000  1.0
  C  C59  1  0.02611000  0.88133000  0.93906000  1.0
  C  C60  1  0.52610000  0.93906000  0.88132000  1.0
  C  C61  1  0.97388000  0.11867000  0.06094000  1.0
  C  C62  1  0.74637000  0.41905000  0.20085000  1.0
  C  C63  1  0.75364000  0.79915000  0.58095000  1.0
  C  C64  1  0.25363000  0.58095000  0.79916000  1.0
  C  C65  1  0.24637000  0.20084000  0.41905000  1.0
  C  C66  1  0.26231000  0.59937000  0.08079000  1.0
  C  C67  1  0.23769000  0.91921000  0.40063000  1.0
  C  C68  1  0.73769000  0.40063000  0.91921000  1.0
  C  C69  1  0.76231000  0.08079000  0.59937000  1.0
  C  C70  1  0.31642000  0.50485000  0.10552000  1.0
  C  C71  1  0.18358000  0.89448000  0.49515000  1.0
  C  C72  1  0.68358000  0.49516000  0.89448000  1.0
  C  C73  1  0.81641000  0.10552000  0.50485000  1.0
  C  C74  1  0.56586000  0.41341000  0.16507000  1.0
  C  C75  1  0.93415000  0.83493000  0.58659000  1.0
  C  C76  1  0.43414000  0.58659000  0.83492000  1.0
  C  C77  1  0.06586000  0.16507000  0.41341000  1.0
  C  C78  1  0.81739000  0.31994000  0.22809000  1.0
  C  C79  1  0.68260000  0.77191000  0.68006000  1.0
  C  C80  1  0.18260000  0.68006000  0.77190000  1.0
  C  C81  1  0.31740000  0.22809000  0.31994000  1.0
  S  S82  1  0.53583000  0.99162000  0.21761000  1.0
  S  S83  1  0.96418000  0.78240000  0.00837000  1.0
  S  S84  1  0.46417000  0.00838000  0.78240000  1.0
  S  S85  1  0.03584000  0.21760000  0.99163000  1.0
  N  N86  1  0.43226000  0.11442000  0.04945000  1.0
  N  N87  1  0.06774000  0.95057000  0.88557000  1.0
  N  N88  1  0.56773000  0.88556000  0.95056000  1.0
  N  N89  1  0.93226000  0.04944000  0.11442000  1.0
  N  N90  1  0.56630000  0.70333000  0.12093000  1.0
  N  N91  1  0.93370000  0.87906000  0.29667000  1.0
  N  N92  1  0.43370000  0.29667000  0.87907000  1.0
  N  N93  1  0.06630000  0.12093000  0.70333000  1.0
