# generated using pymatgen
data_ZnH21C10N3O4
_symmetry_space_group_name_H-M   'P 1'
_cell_length_a   6.95505000
_cell_length_b   9.79478000
_cell_length_c   10.43200000
_cell_angle_alpha   115.81100000
_cell_angle_beta   95.62890000
_cell_angle_gamma   93.02100000
_symmetry_Int_Tables_number   1
_chemical_formula_structural   ZnH21C10N3O4
_chemical_formula_sum   'Zn2 H42 C20 N6 O8'
_cell_volume   633.05655095
_cell_formula_units_Z   2
loop_
 _symmetry_equiv_pos_site_id
 _symmetry_equiv_pos_as_xyz
  1  'x, y, z'
loop_
 _atom_site_type_symbol
 _atom_site_label
 _atom_site_symmetry_multiplicity
 _atom_site_fract_x
 _atom_site_fract_y
 _atom_site_fract_z
 _atom_site_occupancy
  Zn  Zn0  1  0.94459000  0.11909000  0.84248000  1.0
  Zn  Zn1  1  0.05541000  0.88090000  0.15752000  1.0
  H  H2  1  0.49876000  0.70475000  0.56684000  1.0
  H  H3  1  0.50124000  0.29527000  0.43316000  1.0
  H  H4  1  0.65718000  0.63399000  0.66094000  1.0
  H  H5  1  0.34281000  0.36601000  0.33905000  1.0
  H  H6  1  0.67208000  0.58351000  0.47551000  1.0
  H  H7  1  0.32790000  0.41649000  0.52448000  1.0
  H  H8  1  0.89266000  0.50837000  0.33710000  1.0
  H  H9  1  0.10733000  0.49162000  0.66290000  1.0
  H  H10  1  0.92217000  0.32640000  0.33342000  1.0
  H  H11  1  0.07783000  0.67359000  0.66657000  1.0
  H  H12  1  0.69613000  0.35853000  0.26484000  1.0
  H  H13  1  0.30387000  0.64146000  0.73515000  1.0
  H  H14  1  0.21947000  0.89399000  0.66701000  1.0
  H  H15  1  0.78053000  0.10601000  0.33299000  1.0
  H  H16  1  0.44382000  0.92200000  0.78154000  1.0
  H  H17  1  0.55618000  0.07800000  0.21846000  1.0
  H  H18  1  0.49773000  0.02255000  0.61499000  1.0
  H  H19  1  0.50227000  0.97745000  0.38501000  1.0
  H  H20  1  0.29600000  0.13010000  0.65187000  1.0
  H  H21  1  0.70400000  0.86991000  0.34813000  1.0
  H  H22  1  0.32031000  0.35035000  0.91727000  1.0
  H  H23  1  0.67969000  0.64966000  0.08274000  1.0
  H  H24  1  0.54689000  0.38046000  0.02572000  1.0
  H  H25  1  0.45311000  0.61954000  0.97429000  1.0
  H  H26  1  0.48700000  0.13128000  0.02644000  1.0
  H  H27  1  0.51299000  0.86872000  0.97357000  1.0
  H  H28  1  0.28937000  0.24119000  0.08800000  1.0
  H  H29  1  0.71062000  0.75881000  0.91200000  1.0
  H  H30  1  0.68182000  0.42641000  0.85856000  1.0
  H  H31  1  0.31819000  0.57359000  0.14144000  1.0
  H  H32  1  0.49070000  0.35765000  0.71160000  1.0
  H  H33  1  0.50930000  0.64235000  0.28841000  1.0
  H  H34  1  0.71202000  0.14958000  0.57446000  1.0
  H  H35  1  0.28798000  0.85043000  0.42555000  1.0
  H  H36  1  0.78820000  0.34034000  0.61318000  1.0
  H  H37  1  0.21180000  0.65966000  0.38683000  1.0
  H  H38  1  0.18763000  0.97977000  0.91645000  1.0
  H  H39  1  0.81237000  0.02023000  0.08355000  1.0
  H  H40  1  0.99776000  0.36279000  0.81386000  1.0
  H  H41  1  0.00224000  0.63720000  0.18614000  1.0
  H  H42  1  0.04283000  0.21773000  0.66334000  1.0
  H  H43  1  0.95717000  0.78227000  0.33666000  1.0
  C  C44  1  0.78948000  0.81619000  0.62331000  1.0
  C  C45  1  0.21054000  0.18381000  0.37667000  1.0
  C  C46  1  0.64746000  0.67478000  0.57802000  1.0
  C  C47  1  0.35253000  0.32521000  0.42196000  1.0
  C  C48  1  0.91649000  0.32846000  0.12683000  1.0
  C  C49  1  0.08351000  0.67153000  0.87316000  1.0
  C  C50  1  0.85397000  0.38515000  0.27501000  1.0
  C  C51  1  0.14603000  0.61485000  0.72499000  1.0
  C  C52  1  0.32595000  0.97897000  0.75336000  1.0
  C  C53  1  0.67405000  0.02103000  0.24664000  1.0
  C  C54  1  0.41262000  0.08778000  0.70099000  1.0
  C  C55  1  0.58738000  0.91223000  0.29902000  1.0
  C  C56  1  0.44212000  0.29174000  0.94063000  1.0
  C  C57  1  0.55788000  0.70826000  0.05937000  1.0
  C  C58  1  0.36423000  0.18166000  0.99449000  1.0
  C  C59  1  0.63577000  0.81834000  0.00552000  1.0
  C  C60  1  0.61245000  0.32319000  0.76464000  1.0
  C  C61  1  0.38756000  0.67682000  0.23536000  1.0
  C  C62  1  0.76218000  0.26282000  0.66230000  1.0
  C  C63  1  0.23782000  0.73719000  0.33770000  1.0
  N  N64  1  0.22541000  0.05962000  0.88038000  1.0
  N  N65  1  0.77460000  0.94038000  0.11962000  1.0
  N  N66  1  0.54130000  0.21451000  0.81485000  1.0
  N  N67  1  0.45870000  0.78550000  0.18516000  1.0
  N  N68  1  0.94768000  0.25213000  0.73844000  1.0
  N  N69  1  0.05232000  0.74787000  0.26157000  1.0
  O  O70  1  0.79114000  0.91564000  0.75506000  1.0
  O  O71  1  0.20887000  0.08435000  0.24493000  1.0
  O  O72  1  0.89158000  0.83052000  0.53618000  1.0
  O  O73  1  0.10843000  0.16946000  0.46382000  1.0
  O  O74  1  0.87569000  0.18393000  0.04290000  1.0
  O  O75  1  0.12431000  0.81607000  0.95710000  1.0
  O  O76  1  0.00096000  0.41902000  0.08973000  1.0
  O  O77  1  0.99904000  0.58098000  0.91027000  1.0
