# generated using pymatgen
data_LiH13(C7N3)2
_symmetry_space_group_name_H-M   'P 1'
_cell_length_a   8.95218000
_cell_length_b   8.95219000
_cell_length_c   15.29790000
_cell_angle_alpha   90.00110000
_cell_angle_beta   89.99960000
_cell_angle_gamma   59.99988915
_symmetry_Int_Tables_number   1
_chemical_formula_structural   LiH13(C7N3)2
_chemical_formula_sum   'Li3 H39 C42 N18'
_cell_volume   1061.74460036
_cell_formula_units_Z   3
loop_
 _symmetry_equiv_pos_site_id
 _symmetry_equiv_pos_as_xyz
  1  'x, y, z'
loop_
 _atom_site_type_symbol
 _atom_site_label
 _atom_site_symmetry_multiplicity
 _atom_site_fract_x
 _atom_site_fract_y
 _atom_site_fract_z
 _atom_site_occupancy
  Li  Li0  1  0.10707000  0.45104000  0.87721000  1.0
  Li  Li1  1  0.45104000  0.44189000  0.21054000  1.0
  Li  Li2  1  0.44189000  0.10707000  0.54387000  1.0
  H  H3  1  0.60621000  0.80425000  0.12317000  1.0
  H  H4  1  0.80423000  0.58956000  0.45650000  1.0
  H  H5  1  0.58954000  0.60622000  0.78984000  1.0
  H  H6  1  0.78645000  0.67945000  0.98947000  1.0
  H  H7  1  0.67943000  0.53412000  0.32280000  1.0
  H  H8  1  0.53410000  0.78644000  0.65613000  1.0
  H  H9  1  0.73813000  0.74467000  0.27000000  1.0
  H  H10  1  0.74466000  0.51721000  0.60332000  1.0
  H  H11  1  0.51722000  0.73813000  0.93666000  1.0
  H  H12  1  0.68531000  0.12272000  0.71899000  1.0
  H  H13  1  0.12273000  0.19194000  0.05232000  1.0
  H  H14  1  0.19197000  0.68533000  0.38565000  1.0
  H  H15  1  0.85194000  0.12717000  0.65727000  1.0
  H  H16  1  0.12717000  0.02087000  0.99059000  1.0
  H  H17  1  0.02089000  0.85195000  0.32393000  1.0
  H  H18  1  0.05564000  0.55201000  0.28998000  1.0
  H  H19  1  0.55201000  0.39235000  0.62331000  1.0
  H  H20  1  0.39238000  0.05565000  0.95665000  1.0
  H  H21  1  0.76174000  0.43077000  0.96852000  1.0
  H  H22  1  0.43077000  0.80749000  0.30184000  1.0
  H  H23  1  0.80749000  0.76174000  0.63518000  1.0
  H  H24  1  0.62679000  0.25506000  0.87731000  1.0
  H  H25  1  0.25508000  0.11814000  0.21063000  1.0
  H  H26  1  0.11815000  0.62678000  0.54397000  1.0
  H  H27  1  0.01818000  0.26709000  0.72667000  1.0
  H  H28  1  0.26709000  0.71469000  0.06001000  1.0
  H  H29  1  0.71472000  0.01819000  0.39334000  1.0
  H  H30  1  0.76501000  0.85615000  0.81066000  1.0
  H  H31  1  0.85618000  0.37881000  0.14399000  1.0
  H  H32  1  0.37882000  0.76502000  0.47732000  1.0
  H  H33  1  0.17786000  0.91853000  0.71790000  1.0
  H  H34  1  0.91853000  0.90359000  0.05123000  1.0
  H  H35  1  0.90358000  0.17790000  0.38458000  1.0
  H  H36  1  0.30802000  0.60558000  0.80448000  1.0
  H  H37  1  0.60558000  0.08640000  0.13781000  1.0
  H  H38  1  0.08639000  0.30804000  0.47116000  1.0
  H  H39  1  0.42324000  0.30053000  0.02312000  1.0
  H  H40  1  0.30053000  0.27622000  0.35646000  1.0
  H  H41  1  0.27622000  0.42324000  0.68979000  1.0
  C  C42  1  0.74513000  0.72017000  0.12921000  1.0
  C  C43  1  0.72015000  0.53472000  0.46255000  1.0
  C  C44  1  0.53471000  0.74513000  0.79588000  1.0
  C  C45  1  0.84458000  0.64947000  0.05444000  1.0
  C  C46  1  0.64945000  0.50596000  0.38777000  1.0
  C  C47  1  0.50596000  0.84458000  0.72110000  1.0
  C  C48  1  0.10059000  0.50761000  0.15017000  1.0
  C  C49  1  0.50760000  0.39180000  0.48351000  1.0
  C  C50  1  0.39182000  0.10059000  0.81684000  1.0
  C  C51  1  0.82070000  0.68547000  0.21322000  1.0
  C  C52  1  0.68546000  0.49384000  0.54655000  1.0
  C  C53  1  0.49385000  0.82070000  0.87989000  1.0
  C  C54  1  0.81453000  0.10759000  0.72267000  1.0
  C  C55  1  0.10760000  0.07785000  0.05600000  1.0
  C  C56  1  0.07787000  0.81455000  0.38933000  1.0
  C  C57  1  0.02299000  0.54144000  0.06530000  1.0
  C  C58  1  0.54143000  0.43558000  0.39863000  1.0
  C  C59  1  0.43558000  0.02299000  0.73196000  1.0
  C  C60  1  0.99804000  0.57927000  0.22492000  1.0
  C  C61  1  0.57927000  0.42269000  0.55825000  1.0
  C  C62  1  0.42271000  0.99805000  0.89159000  1.0
  C  C63  1  0.79654000  0.36997000  0.90475000  1.0
  C  C64  1  0.36998000  0.83348000  0.23808000  1.0
  C  C65  1  0.83349000  0.79654000  0.57141000  1.0
  C  C66  1  0.72784000  0.28385000  0.86133000  1.0
  C  C67  1  0.28387000  0.98829000  0.19464000  1.0
  C  C68  1  0.98830000  0.72784000  0.52798000  1.0
  C  C69  1  0.93059000  0.29130000  0.78097000  1.0
  C  C70  1  0.29131000  0.77808000  0.11430000  1.0
  C  C71  1  0.77809000  0.93061000  0.44764000  1.0
  C  C72  1  0.89655000  0.82690000  0.79851000  1.0
  C  C73  1  0.82692000  0.27654000  0.13185000  1.0
  C  C74  1  0.27654000  0.89655000  0.46518000  1.0
  C  C75  1  0.11316000  0.85802000  0.74937000  1.0
  C  C76  1  0.85803000  0.02880000  0.08270000  1.0
  C  C77  1  0.02880000  0.11319000  0.41604000  1.0
  C  C78  1  0.17526000  0.70403000  0.79277000  1.0
  C  C79  1  0.70404000  0.12070000  0.12610000  1.0
  C  C80  1  0.12070000  0.17527000  0.45944000  1.0
  C  C81  1  0.29661000  0.37799000  0.05290000  1.0
  C  C82  1  0.37798000  0.32540000  0.38624000  1.0
  C  C83  1  0.32541000  0.29661000  0.71957000  1.0
  N  N84  1  0.81331000  0.23555000  0.78175000  1.0
  N  N85  1  0.23556000  0.95112000  0.11508000  1.0
  N  N86  1  0.95113000  0.81333000  0.44842000  1.0
  N  N87  1  0.03941000  0.68509000  0.82241000  1.0
  N  N88  1  0.68510000  0.27549000  0.15575000  1.0
  N  N89  1  0.27549000  0.03943000  0.48909000  1.0
  N  N90  1  0.93538000  0.93493000  0.75313000  1.0
  N  N91  1  0.93494000  0.12966000  0.08647000  1.0
  N  N92  1  0.12967000  0.93541000  0.41980000  1.0
  N  N93  1  0.92293000  0.37406000  0.85419000  1.0
  N  N94  1  0.37406000  0.70299000  0.18752000  1.0
  N  N95  1  0.70300000  0.92294000  0.52085000  1.0
  N  N96  1  0.15155000  0.45495000  0.00411000  1.0
  N  N97  1  0.45494000  0.39350000  0.33745000  1.0
  N  N98  1  0.39351000  0.15155000  0.67078000  1.0
  N  N99  1  0.27724000  0.40308000  0.14045000  1.0
  N  N100  1  0.40308000  0.31968000  0.47379000  1.0
  N  N101  1  0.31969000  0.27724000  0.80712000  1.0
