# generated using pymatgen
data_MgH16C24(NO2)2
_symmetry_space_group_name_H-M   'P 1'
_cell_length_a   7.13584000
_cell_length_b   12.09310000
_cell_length_c   12.16748317
_cell_angle_alpha   119.78805999
_cell_angle_beta   91.34554402
_cell_angle_gamma   90.00720000
_symmetry_Int_Tables_number   1
_chemical_formula_structural   MgH16C24(NO2)2
_chemical_formula_sum   'Mg2 H32 C48 N4 O8'
_cell_volume   910.91488483
_cell_formula_units_Z   2
loop_
 _symmetry_equiv_pos_site_id
 _symmetry_equiv_pos_as_xyz
  1  'x, y, z'
loop_
 _atom_site_type_symbol
 _atom_site_label
 _atom_site_symmetry_multiplicity
 _atom_site_fract_x
 _atom_site_fract_y
 _atom_site_fract_z
 _atom_site_occupancy
  Mg  Mg0  1  0.74998000  0.12636000  0.00006000  1.0
  Mg  Mg1  1  0.25001000  0.87364000  0.99995000  1.0
  H  H2  1  0.20845000  0.77886000  0.68705000  1.0
  H  H3  1  0.29191000  0.09178000  0.31309000  1.0
  H  H4  1  0.79155000  0.22113000  0.31294000  1.0
  H  H5  1  0.70809000  0.90823000  0.68692000  1.0
  H  H6  1  0.08252000  0.69210000  0.46760000  1.0
  H  H7  1  0.41749000  0.22454000  0.53263000  1.0
  H  H8  1  0.91748000  0.30790000  0.53239000  1.0
  H  H9  1  0.58251000  0.77545000  0.46737000  1.0
  H  H10  1  0.26349000  0.03626000  0.47542000  1.0
  H  H11  1  0.23628000  0.56066000  0.52451000  1.0
  H  H12  1  0.73651000  0.96374000  0.52458000  1.0
  H  H13  1  0.76373000  0.43935000  0.47549000  1.0
  H  H14  1  0.39282000  0.11817000  0.69343000  1.0
  H  H15  1  0.10721000  0.42448000  0.30645000  1.0
  H  H16  1  0.60719000  0.88181000  0.30656000  1.0
  H  H17  1  0.89279000  0.57552000  0.69355000  1.0
  H  H18  1  0.29579000  0.90736000  0.27052000  1.0
  H  H19  1  0.20390000  0.63690000  0.72962000  1.0
  H  H20  1  0.70421000  0.09264000  0.72947000  1.0
  H  H21  1  0.79610000  0.36311000  0.27039000  1.0
  H  H22  1  0.89246000  0.67374000  0.32511000  1.0
  H  H23  1  0.60746000  0.34878000  0.67485000  1.0
  H  H24  1  0.10754000  0.32625000  0.67488000  1.0
  H  H25  1  0.39255000  0.65123000  0.32515000  1.0
  H  H26  1  0.79444000  0.58418000  0.09970000  1.0
  H  H27  1  0.70577000  0.48465000  0.90021000  1.0
  H  H28  1  0.20556000  0.41581000  0.90029000  1.0
  H  H29  1  0.29423000  0.51535000  0.09979000  1.0
  H  H30  1  0.94510000  0.67201000  0.97136000  1.0
  H  H31  1  0.55499000  0.70067000  0.02859000  1.0
  H  H32  1  0.05490000  0.32799000  0.02864000  1.0
  H  H33  1  0.44501000  0.29933000  0.97141000  1.0
  C  C34  1  0.39949000  0.99282000  0.83241000  1.0
  C  C35  1  0.10080000  0.16025000  0.16762000  1.0
  C  C36  1  0.60051000  0.00718000  0.16759000  1.0
  C  C37  1  0.89919000  0.83977000  0.83239000  1.0
  C  C38  1  0.31050000  0.95230000  0.70368000  1.0
  C  C39  1  0.18971000  0.24846000  0.29634000  1.0
  C  C40  1  0.68951000  0.04769000  0.29631000  1.0
  C  C41  1  0.81029000  0.75153000  0.70366000  1.0
  C  C42  1  0.21937000  0.83367000  0.63878000  1.0
  C  C43  1  0.28084000  0.19483000  0.36135000  1.0
  C  C44  1  0.78064000  0.16632000  0.36121000  1.0
  C  C45  1  0.71916000  0.80518000  0.63866000  1.0
  C  C46  1  0.14973000  0.78601000  0.51597000  1.0
  C  C47  1  0.35028000  0.27003000  0.48421000  1.0
  C  C48  1  0.85028000  0.21399000  0.48403000  1.0
  C  C49  1  0.64972000  0.72998000  0.51580000  1.0
  C  C50  1  0.16804000  0.85618000  0.45290000  1.0
  C  C51  1  0.33177000  0.40324000  0.54718000  1.0
  C  C52  1  0.83196000  0.14381000  0.54709000  1.0
  C  C53  1  0.66823000  0.59677000  0.45283000  1.0
  C  C54  1  0.25432000  0.97742000  0.51978000  1.0
  C  C55  1  0.24559000  0.45747000  0.48016000  1.0
  C  C56  1  0.74568000  0.02256000  0.48021000  1.0
  C  C57  1  0.75442000  0.54253000  0.51984000  1.0
  C  C58  1  0.32527000  0.02440000  0.64295000  1.0
  C  C59  1  0.17479000  0.38125000  0.35699000  1.0
  C  C60  1  0.67473000  0.97560000  0.35705000  1.0
  C  C61  1  0.82521000  0.61874000  0.64301000  1.0
  C  C62  1  0.17896000  0.83967000  0.23907000  1.0
  C  C63  1  0.32078000  0.60064000  0.76101000  1.0
  C  C64  1  0.82104000  0.16033000  0.76093000  1.0
  C  C65  1  0.67923000  0.39936000  0.23899000  1.0
  C  C66  1  0.10071000  0.80173000  0.32018000  1.0
  C  C67  1  0.39906000  0.48164000  0.67988000  1.0
  C  C68  1  0.89929000  0.19827000  0.67982000  1.0
  C  C69  1  0.60095000  0.51837000  0.32013000  1.0
  C  C70  1  0.95995000  0.70701000  0.26731000  1.0
  C  C71  1  0.53998000  0.43981000  0.73267000  1.0
  C  C72  1  0.04005000  0.29299000  0.73269000  1.0
  C  C73  1  0.46002000  0.56019000  0.26733000  1.0
  C  C74  1  0.90381000  0.65751000  0.14117000  1.0
  C  C75  1  0.59631000  0.51648000  0.85877000  1.0
  C  C76  1  0.09619000  0.34249000  0.85883000  1.0
  C  C77  1  0.40369000  0.48352000  0.14123000  1.0
  C  C78  1  0.98686000  0.70434000  0.06960000  1.0
  C  C79  1  0.51318000  0.63481000  0.93037000  1.0
  C  C80  1  0.01314000  0.29566000  0.93040000  1.0
  C  C81  1  0.48682000  0.36519000  0.06963000  1.0
  N  N82  1  0.12348000  0.79395000  0.11788000  1.0
  N  N83  1  0.37642000  0.67611000  0.88216000  1.0
  N  N84  1  0.87652000  0.20605000  0.88212000  1.0
  N  N85  1  0.62358000  0.32389000  0.11784000  1.0
  O  O86  1  0.51432000  0.08701000  0.87774000  1.0
  O  O87  1  0.98586000  0.20902000  0.12226000  1.0
  O  O88  1  0.48567000  0.91298000  0.12226000  1.0
  O  O89  1  0.01413000  0.79098000  0.87775000  1.0
  O  O90  1  0.36002000  0.92629000  0.88222000  1.0
  O  O91  1  0.14041000  0.04397000  0.11783000  1.0
  O  O92  1  0.63997000  0.07371000  0.11778000  1.0
  O  O93  1  0.85959000  0.95604000  0.88217000  1.0
