# generated using pymatgen
data_ZnH6(C3N2)2
_symmetry_space_group_name_H-M   'P 1'
_cell_length_a   13.87290000
_cell_length_b   14.36200000
_cell_length_c   17.72570000
_cell_angle_alpha   102.85000000
_cell_angle_beta   90.00000000
_cell_angle_gamma   89.99970000
_symmetry_Int_Tables_number   1
_chemical_formula_structural   ZnH6(C3N2)2
_chemical_formula_sum   'Zn16 H96 C96 N64'
_cell_volume   3443.26486714
_cell_formula_units_Z   16
loop_
 _symmetry_equiv_pos_site_id
 _symmetry_equiv_pos_as_xyz
  1  'x, y, z'
loop_
 _atom_site_type_symbol
 _atom_site_label
 _atom_site_symmetry_multiplicity
 _atom_site_fract_x
 _atom_site_fract_y
 _atom_site_fract_z
 _atom_site_occupancy
  Zn  Zn0  1  0.02520000  0.40860000  0.21430000  1.0
  Zn  Zn1  1  0.52519000  0.09139000  0.78570000  1.0
  Zn  Zn2  1  0.97481000  0.59140000  0.78570000  1.0
  Zn  Zn3  1  0.47481000  0.90860000  0.21430000  1.0
  Zn  Zn4  1  0.73392000  0.60466000  0.05782000  1.0
  Zn  Zn5  1  0.23392000  0.89534000  0.94217000  1.0
  Zn  Zn6  1  0.26608000  0.39534000  0.94218000  1.0
  Zn  Zn7  1  0.76608000  0.10466000  0.05783000  1.0
  Zn  Zn8  1  0.95436000  0.87417000  0.29290000  1.0
  Zn  Zn9  1  0.45436000  0.62583000  0.70711000  1.0
  Zn  Zn10  1  0.04564000  0.12582000  0.70710000  1.0
  Zn  Zn11  1  0.54564000  0.37418000  0.29289000  1.0
  Zn  Zn12  1  0.20027000  0.22038000  0.42608000  1.0
  Zn  Zn13  1  0.70026000  0.27963000  0.57392000  1.0
  Zn  Zn14  1  0.79974000  0.77962000  0.57392000  1.0
  Zn  Zn15  1  0.29974000  0.72038000  0.42608000  1.0
  H  H16  1  0.19861000  0.34840000  0.30578000  1.0
  H  H17  1  0.69862000  0.15160000  0.69422000  1.0
  H  H18  1  0.80138000  0.65160000  0.69423000  1.0
  H  H19  1  0.30138000  0.84840000  0.30578000  1.0
  H  H20  1  0.91989000  0.43510000  0.38688000  1.0
  H  H21  1  0.41990000  0.06490000  0.61312000  1.0
  H  H22  1  0.08011000  0.56490000  0.61313000  1.0
  H  H23  1  0.58010000  0.93510000  0.38689000  1.0
  H  H24  1  0.01311000  0.35815000  0.49589000  1.0
  H  H25  1  0.51311000  0.14185000  0.50411000  1.0
  H  H26  1  0.98690000  0.64185000  0.50411000  1.0
  H  H27  1  0.48688000  0.85815000  0.49589000  1.0
  H  H28  1  0.92102000  0.48351000  0.07899000  1.0
  H  H29  1  0.42101000  0.01648000  0.92100000  1.0
  H  H30  1  0.07899000  0.51649000  0.92101000  1.0
  H  H31  1  0.57898000  0.98351000  0.07900000  1.0
  H  H32  1  0.82362000  0.48776000  0.30492000  1.0
  H  H33  1  0.32361000  0.01224000  0.69508000  1.0
  H  H34  1  0.17638000  0.51223000  0.69508000  1.0
  H  H35  1  0.67638000  0.98776000  0.30492000  1.0
  H  H36  1  0.67826000  0.55329000  0.22304000  1.0
  H  H37  1  0.17826000  0.94672000  0.77695000  1.0
  H  H38  1  0.32174000  0.44670000  0.77695000  1.0
  H  H39  1  0.82173000  0.05328000  0.22304000  1.0
  H  H40  1  0.08636000  0.38702000  0.04335000  1.0
  H  H41  1  0.58637000  0.11298000  0.95665000  1.0
  H  H42  1  0.91365000  0.61298000  0.95665000  1.0
  H  H43  1  0.41364000  0.88702000  0.04334000  1.0
  H  H44  1  0.35870000  0.50407000  0.11465000  1.0
  H  H45  1  0.85870000  0.99592000  0.88536000  1.0
  H  H46  1  0.64130000  0.49593000  0.88536000  1.0
  H  H47  1  0.14130000  0.00407000  0.11464000  1.0
  H  H48  1  0.24491000  0.51210000  0.24316000  1.0
  H  H49  1  0.74492000  0.98789000  0.75684000  1.0
  H  H50  1  0.75508000  0.48790000  0.75684000  1.0
  H  H51  1  0.25508000  0.01209000  0.24316000  1.0
  H  H52  1  0.84140000  0.29444000  0.14726000  1.0
  H  H53  1  0.34140000  0.20557000  0.85274000  1.0
  H  H54  1  0.15859000  0.70557000  0.85273000  1.0
  H  H55  1  0.65860000  0.79443000  0.14726000  1.0
  H  H56  1  0.00876000  0.05385000  0.04788000  1.0
  H  H57  1  0.50877000  0.44615000  0.95212000  1.0
  H  H58  1  0.99124000  0.94616000  0.95212000  1.0
  H  H59  1  0.49123000  0.55385000  0.04788000  1.0
  H  H60  1  0.12868000  0.19779000  0.12503000  1.0
  H  H61  1  0.62868000  0.30221000  0.87496000  1.0
  H  H62  1  0.87132000  0.80222000  0.87497000  1.0
  H  H63  1  0.37132000  0.69779000  0.12503000  1.0
  H  H64  1  0.81707000  0.71183000  0.21786000  1.0
  H  H65  1  0.31707000  0.78817000  0.78214000  1.0
  H  H66  1  0.18293000  0.28816000  0.78214000  1.0
  H  H67  1  0.68293000  0.21184000  0.21786000  1.0
  H  H68  1  0.96761000  0.90213000  0.11059000  1.0
  H  H69  1  0.46759000  0.59786000  0.88941000  1.0
  H  H70  1  0.03239000  0.09787000  0.88940000  1.0
  H  H71  1  0.53239000  0.40214000  0.11059000  1.0
  H  H72  1  0.86173000  0.77722000  0.00049000  1.0
  H  H73  1  0.36172000  0.72276000  0.99951000  1.0
  H  H74  1  0.13826000  0.22278000  0.99951000  1.0
  H  H75  1  0.63828000  0.27724000  0.00049000  1.0
  H  H76  1  0.07993000  0.01893000  0.42223000  1.0
  H  H77  1  0.57993000  0.48108000  0.57777000  1.0
  H  H78  1  0.92007000  0.98107000  0.57777000  1.0
  H  H79  1  0.42007000  0.51893000  0.42223000  1.0
  H  H80  1  0.10462000  0.19202000  0.26040000  1.0
  H  H81  1  0.60462000  0.30798000  0.73960000  1.0
  H  H82  1  0.89537000  0.80798000  0.73960000  1.0
  H  H83  1  0.39537000  0.69202000  0.26039000  1.0
  H  H84  1  0.98453000  0.04046000  0.20077000  1.0
  H  H85  1  0.48453000  0.45954000  0.79923000  1.0
  H  H86  1  0.01547000  0.95954000  0.79923000  1.0
  H  H87  1  0.51547000  0.54047000  0.20077000  1.0
  H  H88  1  0.11783000  0.26250000  0.60217000  1.0
  H  H89  1  0.61783000  0.23749000  0.39783000  1.0
  H  H90  1  0.88218000  0.73751000  0.39784000  1.0
  H  H91  1  0.38218000  0.76250000  0.60217000  1.0
  H  H92  1  0.20069000  0.97963000  0.59871000  1.0
  H  H93  1  0.70068000  0.52036000  0.40129000  1.0
  H  H94  1  0.79930000  0.02037000  0.40129000  1.0
  H  H95  1  0.29931000  0.47964000  0.59871000  1.0
  H  H96  1  0.28120000  0.03467000  0.47235000  1.0
  H  H97  1  0.78119000  0.46533000  0.52765000  1.0
  H  H98  1  0.71879000  0.96532000  0.52765000  1.0
  H  H99  1  0.21881000  0.53468000  0.47235000  1.0
  H  H100  1  0.34220000  0.37264000  0.37830000  1.0
  H  H101  1  0.84220000  0.12736000  0.62169000  1.0
  H  H102  1  0.65779000  0.62736000  0.62170000  1.0
  H  H103  1  0.15780000  0.87264000  0.37831000  1.0
  H  H104  1  0.52220000  0.14322000  0.27542000  1.0
  H  H105  1  0.02221000  0.35678000  0.72458000  1.0
  H  H106  1  0.47780000  0.85678000  0.72460000  1.0
  H  H107  1  0.97779000  0.64322000  0.27542000  1.0
  H  H108  1  0.37234000  0.07499000  0.35089000  1.0
  H  H109  1  0.87233000  0.42501000  0.64911000  1.0
  H  H110  1  0.62767000  0.92501000  0.64911000  1.0
  H  H111  1  0.12767000  0.57500000  0.35090000  1.0
  C  C112  1  0.13602000  0.36279000  0.34336000  1.0
  C  C113  1  0.63602000  0.13722000  0.65665000  1.0
  C  C114  1  0.86398000  0.63721000  0.65665000  1.0
  C  C115  1  0.36398000  0.86278000  0.34335000  1.0
  C  C116  1  0.99226000  0.40631000  0.38573000  1.0
  C  C117  1  0.49227000  0.09369000  0.61427000  1.0
  C  C118  1  0.00774000  0.59369000  0.61428000  1.0
  C  C119  1  0.50773000  0.90631000  0.38573000  1.0
  C  C120  1  0.03890000  0.36786000  0.44033000  1.0
  C  C121  1  0.53890000  0.13214000  0.55967000  1.0
  C  C122  1  0.96110000  0.63213000  0.55967000  1.0
  C  C123  1  0.46109000  0.86787000  0.44034000  1.0
  C  C124  1  0.87466000  0.49342000  0.12950000  1.0
  C  C125  1  0.37466000  0.00657000  0.87049000  1.0
  C  C126  1  0.12535000  0.50659000  0.87050000  1.0
  C  C127  1  0.62534000  0.99341000  0.12951000  1.0
  C  C128  1  0.82321000  0.49743000  0.24602000  1.0
  C  C129  1  0.32321000  0.00257000  0.75398000  1.0
  C  C130  1  0.17679000  0.50256000  0.75398000  1.0
  C  C131  1  0.67678000  0.99744000  0.24602000  1.0
  C  C132  1  0.75032000  0.52877000  0.20493000  1.0
  C  C133  1  0.25031000  0.97124000  0.79506000  1.0
  C  C134  1  0.24968000  0.47122000  0.79507000  1.0
  C  C135  1  0.74968000  0.02877000  0.20493000  1.0
  C  C136  1  0.14452000  0.42132000  0.08021000  1.0
  C  C137  1  0.64452000  0.07868000  0.91978000  1.0
  C  C138  1  0.85548000  0.57868000  0.91979000  1.0
  C  C139  1  0.35548000  0.92132000  0.08021000  1.0
  C  C140  1  0.28484000  0.48096000  0.11815000  1.0
  C  C141  1  0.78484000  0.01903000  0.88186000  1.0
  C  C142  1  0.71516000  0.51904000  0.88185000  1.0
  C  C143  1  0.21516000  0.98095000  0.11814000  1.0
  C  C144  1  0.22814000  0.48441000  0.18258000  1.0
  C  C145  1  0.72814000  0.01558000  0.81742000  1.0
  C  C146  1  0.77187000  0.51559000  0.81742000  1.0
  C  C147  1  0.27186000  0.98441000  0.18257000  1.0
  C  C148  1  0.90336000  0.24836000  0.13097000  1.0
  C  C149  1  0.40336000  0.25165000  0.86903000  1.0
  C  C150  1  0.09664000  0.75165000  0.86902000  1.0
  C  C151  1  0.59664000  0.74836000  0.13098000  1.0
  C  C152  1  0.99104000  0.12517000  0.08011000  1.0
  C  C153  1  0.49104000  0.37483000  0.91989000  1.0
  C  C154  1  0.00896000  0.87483000  0.91990000  1.0
  C  C155  1  0.50896000  0.62517000  0.08010000  1.0
  C  C156  1  0.05089000  0.19713000  0.11831000  1.0
  C  C157  1  0.55089000  0.30287000  0.88168000  1.0
  C  C158  1  0.94911000  0.80288000  0.88170000  1.0
  C  C159  1  0.44911000  0.69712000  0.11831000  1.0
  C  C160  1  0.84355000  0.74689000  0.17356000  1.0
  C  C161  1  0.34354000  0.75311000  0.82645000  1.0
  C  C162  1  0.15646000  0.25310000  0.82644000  1.0
  C  C163  1  0.65645000  0.24690000  0.17356000  1.0
  C  C164  1  0.91978000  0.84476000  0.11708000  1.0
  C  C165  1  0.41976000  0.65523000  0.88292000  1.0
  C  C166  1  0.08022000  0.15524000  0.88292000  1.0
  C  C167  1  0.58023000  0.34477000  0.11708000  1.0
  C  C168  1  0.86751000  0.78194000  0.06210000  1.0
  C  C169  1  0.36749000  0.71805000  0.93791000  1.0
  C  C170  1  0.13249000  0.21805000  0.93790000  1.0
  C  C171  1  0.63250000  0.28196000  0.06209000  1.0
  C  C172  1  0.07115000  0.04450000  0.36940000  1.0
  C  C173  1  0.57114000  0.45551000  0.63060000  1.0
  C  C174  1  0.92885000  0.95550000  0.63060000  1.0
  C  C175  1  0.42885000  0.54450000  0.36940000  1.0
  C  C176  1  0.08268000  0.13285000  0.28496000  1.0
  C  C177  1  0.58268000  0.36715000  0.71504000  1.0
  C  C178  1  0.91732000  0.86715000  0.71504000  1.0
  C  C179  1  0.41732000  0.63286000  0.28496000  1.0
  C  C180  1  0.02237000  0.05755000  0.25552000  1.0
  C  C181  1  0.52237000  0.44244000  0.74448000  1.0
  C  C182  1  0.97764000  0.94244000  0.74448000  1.0
  C  C183  1  0.47763000  0.55756000  0.25552000  1.0
  C  C184  1  0.15292000  0.19350000  0.58457000  1.0
  C  C185  1  0.65291000  0.30650000  0.41542000  1.0
  C  C186  1  0.84709000  0.80651000  0.41543000  1.0
  C  C187  1  0.34709000  0.69350000  0.58458000  1.0
  C  C188  1  0.19696000  0.04759000  0.58164000  1.0
  C  C189  1  0.69696000  0.45239000  0.41836000  1.0
  C  C190  1  0.80303000  0.95240000  0.41836000  1.0
  C  C191  1  0.30304000  0.54760000  0.58164000  1.0
  C  C192  1  0.23615000  0.07475000  0.51833000  1.0
  C  C193  1  0.73614000  0.42524000  0.48167000  1.0
  C  C194  1  0.76384000  0.92524000  0.48167000  1.0
  C  C195  1  0.26386000  0.57476000  0.51833000  1.0
  C  C196  1  0.37065000  0.30074000  0.36023000  1.0
  C  C197  1  0.87065000  0.19926000  0.63976000  1.0
  C  C198  1  0.62934000  0.69926000  0.63978000  1.0
  C  C199  1  0.12935000  0.80074000  0.36023000  1.0
  C  C200  1  0.46298000  0.18137000  0.30861000  1.0
  C  C201  1  0.96298000  0.31863000  0.69139000  1.0
  C  C202  1  0.53703000  0.81864000  0.69141000  1.0
  C  C203  1  0.03703000  0.68137000  0.30861000  1.0
  C  C204  1  0.38774000  0.14730000  0.34562000  1.0
  C  C205  1  0.88774000  0.35270000  0.65438000  1.0
  C  C206  1  0.61227000  0.85270000  0.65438000  1.0
  C  C207  1  0.11226000  0.64730000  0.34563000  1.0
  N  N208  1  0.05432000  0.40275000  0.32396000  1.0
  N  N209  1  0.55432000  0.09725000  0.67604000  1.0
  N  N210  1  0.94568000  0.59724000  0.67605000  1.0
  N  N211  1  0.44568000  0.90276000  0.32396000  1.0
  N  N212  1  0.13045000  0.34005000  0.41326000  1.0
  N  N213  1  0.63045000  0.15995000  0.58674000  1.0
  N  N214  1  0.86955000  0.65994000  0.58674000  1.0
  N  N215  1  0.36954000  0.84005000  0.41326000  1.0
  N  N216  1  0.90234000  0.47535000  0.19786000  1.0
  N  N217  1  0.40234000  0.02465000  0.80214000  1.0
  N  N218  1  0.09766000  0.52465000  0.80214000  1.0
  N  N219  1  0.59766000  0.97535000  0.19786000  1.0
  N  N220  1  0.78337000  0.52562000  0.13088000  1.0
  N  N221  1  0.28337000  0.97437000  0.86911000  1.0
  N  N222  1  0.21663000  0.47438000  0.86912000  1.0
  N  N223  1  0.71663000  0.02562000  0.13089000  1.0
  N  N224  1  0.13904000  0.44619000  0.15801000  1.0
  N  N225  1  0.63905000  0.05381000  0.84199000  1.0
  N  N226  1  0.86096000  0.55381000  0.84199000  1.0
  N  N227  1  0.36095000  0.94618000  0.15800000  1.0
  N  N228  1  0.23139000  0.44080000  0.05322000  1.0
  N  N229  1  0.73139000  0.05919000  0.94678000  1.0
  N  N230  1  0.76861000  0.55920000  0.94678000  1.0
  N  N231  1  0.26862000  0.94080000  0.05321000  1.0
  N  N232  1  0.99455000  0.27503000  0.15047000  1.0
  N  N233  1  0.49454000  0.22497000  0.84953000  1.0
  N  N234  1  0.00545000  0.72497000  0.84953000  1.0
  N  N235  1  0.50545000  0.77503000  0.15047000  1.0
  N  N236  1  0.89719000  0.15809000  0.08843000  1.0
  N  N237  1  0.39718000  0.34191000  0.91157000  1.0
  N  N238  1  0.10281000  0.84192000  0.91157000  1.0
  N  N239  1  0.60281000  0.65809000  0.08843000  1.0
  N  N240  1  0.81987000  0.71968000  0.09823000  1.0
  N  N241  1  0.31986000  0.78032000  0.90177000  1.0
  N  N242  1  0.18013000  0.28032000  0.90177000  1.0
  N  N243  1  0.68014000  0.21969000  0.09823000  1.0
  N  N244  1  0.90357000  0.82243000  0.18784000  1.0
  N  N245  1  0.40355000  0.67756000  0.81216000  1.0
  N  N246  1  0.09644000  0.17756000  0.81215000  1.0
  N  N247  1  0.59644000  0.32244000  0.18784000  1.0
  N  N248  1  0.01537000  0.00150000  0.30924000  1.0
  N  N249  1  0.51537000  0.49850000  0.69076000  1.0
  N  N250  1  0.98463000  0.99850000  0.69076000  1.0
  N  N251  1  0.48463000  0.50151000  0.30924000  1.0
  N  N252  1  0.11367000  0.12399000  0.35687000  1.0
  N  N253  1  0.61367000  0.37602000  0.64313000  1.0
  N  N254  1  0.88633000  0.87601000  0.64313000  1.0
  N  N255  1  0.38633000  0.62399000  0.35687000  1.0
  N  N256  1  0.14451000  0.12348000  0.62349000  1.0
  N  N257  1  0.64451000  0.37651000  0.37650000  1.0
  N  N258  1  0.85549000  0.87652000  0.37651000  1.0
  N  N259  1  0.35549000  0.62348000  0.62350000  1.0
  N  N260  1  0.20754000  0.16779000  0.52055000  1.0
  N  N261  1  0.70753000  0.33221000  0.47945000  1.0
  N  N262  1  0.79246000  0.83221000  0.47945000  1.0
  N  N263  1  0.29247000  0.66780000  0.52055000  1.0
  N  N264  1  0.45144000  0.27886000  0.31823000  1.0
  N  N265  1  0.95144000  0.22114000  0.68176000  1.0
  N  N266  1  0.54856000  0.72115000  0.68177000  1.0
  N  N267  1  0.04856000  0.77886000  0.31824000  1.0
  N  N268  1  0.32909000  0.22347000  0.37784000  1.0
  N  N269  1  0.82909000  0.27653000  0.62216000  1.0
  N  N270  1  0.67091000  0.77653000  0.62216000  1.0
  N  N271  1  0.17091000  0.72347000  0.37784000  1.0
