# generated using pymatgen
data_Zn4H4C24O13F4
_symmetry_space_group_name_H-M   'P 1'
_cell_length_a   15.96290000
_cell_length_b   15.96280000
_cell_length_c   16.86270000
_cell_angle_alpha   116.63290000
_cell_angle_beta   116.63310000
_cell_angle_gamma   90.47200000
_symmetry_Int_Tables_number   1
_chemical_formula_structural   Zn4H4C24O13F4
_chemical_formula_sum   'Zn8 H8 C48 O26 F8'
_cell_volume   3313.63786557
_cell_formula_units_Z   2
loop_
 _symmetry_equiv_pos_site_id
 _symmetry_equiv_pos_as_xyz
  1  'x, y, z'
loop_
 _atom_site_type_symbol
 _atom_site_label
 _atom_site_symmetry_multiplicity
 _atom_site_fract_x
 _atom_site_fract_y
 _atom_site_fract_z
 _atom_site_occupancy
  Zn  Zn0  1  0.79432000  0.19154000  0.58782000  1.0
  Zn  Zn1  1  0.20568000  0.80846000  0.41219000  1.0
  Zn  Zn2  1  0.19153000  0.79432000  0.58782000  1.0
  Zn  Zn3  1  0.80846000  0.20568000  0.41218000  1.0
  Zn  Zn4  1  0.79002000  0.39139000  0.58728000  1.0
  Zn  Zn5  1  0.20998000  0.60861000  0.41272000  1.0
  Zn  Zn6  1  0.39139000  0.79002000  0.58728000  1.0
  Zn  Zn7  1  0.60861000  0.20998000  0.41273000  1.0
  H  H8  1  0.87979000  0.24874000  0.82565000  1.0
  H  H9  1  0.12021000  0.75127000  0.17436000  1.0
  H  H10  1  0.24874000  0.87980000  0.82565000  1.0
  H  H11  1  0.75127000  0.12021000  0.17436000  1.0
  H  H12  1  0.97296000  0.53486000  0.79686000  1.0
  H  H13  1  0.02705000  0.46515000  0.20315000  1.0
  H  H14  1  0.53485000  0.97296000  0.79686000  1.0
  H  H15  1  0.46515000  0.02705000  0.20314000  1.0
  C  C16  1  0.04913000  0.56027000  0.10928000  1.0
  C  C17  1  0.38057000  0.89075000  0.77568000  1.0
  C  C18  1  0.10926000  0.61944000  0.22432000  1.0
  C  C19  1  0.89074000  0.38057000  0.77568000  1.0
  C  C20  1  0.61944000  0.10926000  0.22432000  1.0
  C  C21  1  0.90948000  0.09051000  0.50000000  1.0
  C  C22  1  0.09052000  0.90948000  0.49999000  1.0
  C  C23  1  0.09181000  0.59145000  0.50011000  1.0
  C  C24  1  0.95087000  0.43973000  0.89072000  1.0
  C  C25  1  0.90820000  0.40854000  0.49989000  1.0
  C  C26  1  0.59059000  0.40942000  0.50000000  1.0
  C  C27  1  0.40942000  0.59058000  0.50000000  1.0
  C  C28  1  0.40855000  0.90820000  0.49989000  1.0
  C  C29  1  0.59145000  0.09180000  0.50010000  1.0
  C  C30  1  0.56027000  0.04913000  0.10928000  1.0
  C  C31  1  0.52708000  0.02710000  0.50015000  1.0
  C  C32  1  0.47291000  0.97289000  0.49984000  1.0
  C  C33  1  0.02675000  0.97324000  0.50000000  1.0
  C  C34  1  0.97325000  0.02675000  0.50000000  1.0
  C  C35  1  0.97290000  0.47291000  0.49984000  1.0
  C  C36  1  0.02711000  0.52708000  0.50016000  1.0
  C  C37  1  0.47325000  0.52677000  0.50000000  1.0
  C  C38  1  0.43973000  0.95088000  0.89073000  1.0
  C  C39  1  0.52677000  0.47324000  0.50000000  1.0
  C  C40  1  0.91239000  0.29868000  0.90755000  1.0
  C  C41  1  0.08761000  0.70132000  0.09246000  1.0
  C  C42  1  0.29869000  0.91240000  0.90755000  1.0
  C  C43  1  0.70132000  0.08761000  0.09245000  1.0
  C  C44  1  0.00225000  0.57921000  0.87911000  1.0
  C  C45  1  0.99775000  0.42080000  0.12089000  1.0
  C  C46  1  0.57921000  0.00225000  0.87911000  1.0
  C  C47  1  0.42080000  0.99775000  0.12089000  1.0
  C  C48  1  0.91582000  0.26238000  0.96807000  1.0
  C  C49  1  0.08418000  0.73762000  0.03193000  1.0
  C  C50  1  0.26239000  0.91583000  0.96807000  1.0
  C  C51  1  0.73762000  0.08417000  0.03193000  1.0
  C  C52  1  0.04347000  0.67552000  0.92462000  1.0
  C  C53  1  0.95653000  0.32448000  0.07538000  1.0
  C  C54  1  0.67552000  0.04347000  0.92462000  1.0
  C  C55  1  0.32448000  0.95653000  0.07538000  1.0
  C  C56  1  0.00226000  0.46118000  0.06219000  1.0
  C  C57  1  0.99774000  0.53882000  0.93781000  1.0
  C  C58  1  0.46118000  0.00227000  0.06219000  1.0
  C  C59  1  0.53882000  0.99774000  0.93781000  1.0
  C  C60  1  0.04546000  0.60102000  0.04862000  1.0
  C  C61  1  0.95455000  0.39899000  0.95138000  1.0
  C  C62  1  0.60102000  0.04546000  0.04862000  1.0
  C  C63  1  0.39898000  0.95456000  0.95138000  1.0
  O  O64  1  0.75036000  0.24964000  0.50000000  1.0
  O  O65  1  0.29145000  0.89110000  0.72979000  1.0
  O  O66  1  0.15992000  0.57661000  0.27003000  1.0
  O  O67  1  0.84009000  0.42339000  0.72997000  1.0
  O  O68  1  0.57661000  0.15992000  0.27002000  1.0
  O  O69  1  0.42339000  0.84009000  0.72998000  1.0
  O  O70  1  0.10890000  0.70856000  0.27021000  1.0
  O  O71  1  0.89110000  0.29144000  0.72979000  1.0
  O  O72  1  0.70856000  0.10890000  0.27021000  1.0
  O  O73  1  0.24964000  0.75036000  0.50000000  1.0
  O  O74  1  0.90658000  0.13714000  0.45453000  1.0
  O  O75  1  0.09342000  0.86285000  0.54548000  1.0
  O  O76  1  0.10915000  0.55320000  0.42631000  1.0
  O  O77  1  0.89084000  0.44680000  0.57369000  1.0
  O  O78  1  0.54936000  0.31879000  0.44799000  1.0
  O  O79  1  0.45064000  0.68122000  0.55201000  1.0
  O  O80  1  0.32072000  0.87542000  0.42632000  1.0
  O  O81  1  0.67928000  0.12458000  0.57367000  1.0
  O  O82  1  0.12459000  0.67928000  0.57369000  1.0
  O  O83  1  0.87541000  0.32072000  0.42631000  1.0
  O  O84  1  0.86284000  0.09340000  0.54546000  1.0
  O  O85  1  0.13714000  0.90658000  0.45454000  1.0
  O  O86  1  0.44680000  0.89084000  0.57370000  1.0
  O  O87  1  0.55319000  0.10916000  0.42630000  1.0
  O  O88  1  0.68122000  0.45063000  0.55201000  1.0
  O  O89  1  0.31879000  0.54937000  0.44799000  1.0
  F  F90  1  0.04636000  0.71304000  0.86805000  1.0
  F  F91  1  0.95364000  0.28697000  0.13195000  1.0
  F  F92  1  0.71303000  0.04636000  0.86805000  1.0
  F  F93  1  0.28697000  0.95364000  0.13195000  1.0
  F  F94  1  0.87994000  0.16675000  0.92675000  1.0
  F  F95  1  0.12006000  0.83326000  0.07325000  1.0
  F  F96  1  0.16675000  0.87993000  0.92674000  1.0
  F  F97  1  0.83325000  0.12006000  0.07325000  1.0
