# generated using pymatgen
data_NdH3(C3O2)3
_symmetry_space_group_name_H-M   'P 1'
_cell_length_a   10.54550000
_cell_length_b   10.54550000
_cell_length_c   13.91890000
_cell_angle_alpha   90.00000000
_cell_angle_beta   89.99990000
_cell_angle_gamma   89.99970000
_symmetry_Int_Tables_number   1
_chemical_formula_structural   NdH3(C3O2)3
_chemical_formula_sum   'Nd4 H12 C36 O24'
_cell_volume   1547.88704953
_cell_formula_units_Z   4
loop_
 _symmetry_equiv_pos_site_id
 _symmetry_equiv_pos_as_xyz
  1  'x, y, z'
loop_
 _atom_site_type_symbol
 _atom_site_label
 _atom_site_symmetry_multiplicity
 _atom_site_fract_x
 _atom_site_fract_y
 _atom_site_fract_z
 _atom_site_occupancy
  Nd  Nd0  1  0.87952000  0.87952000  0.12500000  1.0
  Nd  Nd1  1  0.12048000  0.12048000  0.62500000  1.0
  Nd  Nd2  1  0.87952000  0.12048000  0.37500000  1.0
  Nd  Nd3  1  0.12048000  0.87952000  0.87500000  1.0
  H  H4  1  1.00000000  0.88308000  0.50000000  1.0
  H  H5  1  0.00000000  0.11692000  0.00000000  1.0
  H  H6  1  0.88308000  0.00000000  0.75000000  1.0
  H  H7  1  0.11692000  0.00000000  0.25000000  1.0
  H  H8  1  0.93119000  0.52953000  0.35411000  1.0
  H  H9  1  0.06882000  0.47047000  0.85411000  1.0
  H  H10  1  0.52953000  0.06881000  0.60411000  1.0
  H  H11  1  0.47047000  0.93119000  0.10411000  1.0
  H  H12  1  0.06882000  0.52953000  0.64589000  1.0
  H  H13  1  0.93119000  0.47047000  0.14589000  1.0
  H  H14  1  0.47046000  0.06881000  0.39589000  1.0
  H  H15  1  0.52954000  0.93119000  0.89589000  1.0
  C  C16  1  0.93025000  0.78337000  0.32764000  1.0
  C  C17  1  0.06975000  0.21663000  0.82764000  1.0
  C  C18  1  0.78337000  0.06974000  0.57764000  1.0
  C  C19  1  0.21663000  0.93026000  0.07764000  1.0
  C  C20  1  0.06975000  0.78337000  0.67236000  1.0
  C  C21  1  0.93025000  0.21663000  0.17236000  1.0
  C  C22  1  0.21663000  0.06975000  0.42236000  1.0
  C  C23  1  0.78337000  0.93026000  0.92236000  1.0
  C  C24  1  0.96390000  0.71400000  0.41723000  1.0
  C  C25  1  0.03610000  0.28601000  0.91723000  1.0
  C  C26  1  0.71400000  0.03609000  0.66723000  1.0
  C  C27  1  0.28600000  0.96390000  0.16723000  1.0
  C  C28  1  0.03610000  0.71400000  0.58277000  1.0
  C  C29  1  0.96390000  0.28600000  0.08277000  1.0
  C  C30  1  0.28600000  0.03610000  0.33277000  1.0
  C  C31  1  0.71400000  0.96390000  0.83277000  1.0
  C  C32  1  0.00000000  0.77995000  0.50000000  1.0
  C  C33  1  0.00000000  0.22005000  0.00000000  1.0
  C  C34  1  0.77996000  0.00000000  0.75000000  1.0
  C  C35  1  0.22004000  0.00000000  0.25000000  1.0
  C  C36  1  0.96159000  0.58118000  0.41792000  1.0
  C  C37  1  0.03842000  0.41882000  0.91792000  1.0
  C  C38  1  0.58119000  0.03841000  0.66791000  1.0
  C  C39  1  0.41881000  0.96159000  0.16792000  1.0
  C  C40  1  0.03842000  0.58118000  0.58208000  1.0
  C  C41  1  0.96159000  0.41881000  0.08208000  1.0
  C  C42  1  0.41881000  0.03841000  0.33208000  1.0
  C  C43  1  0.58119000  0.96159000  0.83208000  1.0
  C  C44  1  0.00000000  0.51516000  0.50000000  1.0
  C  C45  1  0.00000000  0.48484000  0.00000000  1.0
  C  C46  1  0.51516000  0.00000000  0.75000000  1.0
  C  C47  1  0.48484000  0.00000000  0.25000000  1.0
  C  C48  1  0.00000000  0.37313000  0.50000000  1.0
  C  C49  1  1.00000000  0.62687000  0.00000000  1.0
  C  C50  1  0.37313000  0.00000000  0.75000000  1.0
  C  C51  1  0.62687000  0.00000000  0.25000000  1.0
  O  O52  1  0.91768000  0.90480000  0.32922000  1.0
  O  O53  1  0.08232000  0.09519000  0.82922000  1.0
  O  O54  1  0.90481000  0.08232000  0.57922000  1.0
  O  O55  1  0.09519000  0.91768000  0.07922000  1.0
  O  O56  1  0.08232000  0.90480000  0.67078000  1.0
  O  O57  1  0.91768000  0.09520000  0.17079000  1.0
  O  O58  1  0.09519000  0.08232000  0.42078000  1.0
  O  O59  1  0.90481000  0.91768000  0.92078000  1.0
  O  O60  1  0.91709000  0.72177000  0.24984000  1.0
  O  O61  1  0.08291000  0.27823000  0.74984000  1.0
  O  O62  1  0.72177000  0.08290000  0.49984000  1.0
  O  O63  1  0.27823000  0.91711000  0.99984000  1.0
  O  O64  1  0.08290000  0.72177000  0.75016000  1.0
  O  O65  1  0.91710000  0.27823000  0.25016000  1.0
  O  O66  1  0.27822000  0.08290000  0.50016000  1.0
  O  O67  1  0.72178000  0.91711000  0.00016000  1.0
  O  O68  1  0.91426000  0.31765000  0.45141000  1.0
  O  O69  1  0.08575000  0.68235000  0.95141000  1.0
  O  O70  1  0.31765000  0.08574000  0.70141000  1.0
  O  O71  1  0.68234000  0.91425000  0.20141000  1.0
  O  O72  1  0.08575000  0.31765000  0.54859000  1.0
  O  O73  1  0.91426000  0.68235000  0.04859000  1.0
  O  O74  1  0.68235000  0.08574000  0.29859000  1.0
  O  O75  1  0.31766000  0.91425000  0.79859000  1.0
