# generated using pymatgen
data_CdH24C26(NO4)2
_symmetry_space_group_name_H-M   'P 1'
_cell_length_a   5.58434000
_cell_length_b   13.87000000
_cell_length_c   15.52000000
_cell_angle_alpha   90.00000000
_cell_angle_beta   90.00000000
_cell_angle_gamma   96.87520000
_symmetry_Int_Tables_number   1
_chemical_formula_structural   CdH24C26(NO4)2
_chemical_formula_sum   'Cd2 H48 C52 N4 O16'
_cell_volume   1193.45444051
_cell_formula_units_Z   2
loop_
 _symmetry_equiv_pos_site_id
 _symmetry_equiv_pos_as_xyz
  1  'x, y, z'
loop_
 _atom_site_type_symbol
 _atom_site_label
 _atom_site_symmetry_multiplicity
 _atom_site_fract_x
 _atom_site_fract_y
 _atom_site_fract_z
 _atom_site_occupancy
  Cd  Cd0  1  0.20029000  0.21028000  0.64529000  1.0
  Cd  Cd1  1  0.79971000  0.78971000  0.14529000  1.0
  H  H2  1  0.89874000  0.44648000  0.67218000  1.0
  H  H3  1  0.10124000  0.55351000  0.17218000  1.0
  H  H4  1  0.13295000  0.61112000  0.66974000  1.0
  H  H5  1  0.86703000  0.38888000  0.16974000  1.0
  H  H6  1  0.56233000  0.72436000  0.81146000  1.0
  H  H7  1  0.43767000  0.27565000  0.31146000  1.0
  H  H8  1  0.32988000  0.56079000  0.80896000  1.0
  H  H9  1  0.67011000  0.43921000  0.30896000  1.0
  H  H10  1  0.88977000  0.81936000  0.85924000  1.0
  H  H11  1  0.11021000  0.18064000  0.35924000  1.0
  H  H12  1  0.77067000  0.86169000  0.76096000  1.0
  H  H13  1  0.22932000  0.13830000  0.26095000  1.0
  H  H14  1  0.94668000  0.00934000  0.70024000  1.0
  H  H15  1  0.05331000  0.99066000  0.20023000  1.0
  H  H16  1  0.60872000  0.14829000  0.78033000  1.0
  H  H17  1  0.39127000  0.85170000  0.28033000  1.0
  H  H18  1  0.67365000  0.01088000  0.87874000  1.0
  H  H19  1  0.32634000  0.98912000  0.37874000  1.0
  H  H20  1  0.36117000  0.86610000  0.88481000  1.0
  H  H21  1  0.63882000  0.13391000  0.38480000  1.0
  H  H22  1  0.50323000  0.97890000  0.61503000  1.0
  H  H23  1  0.49679000  0.02110000  0.11502000  1.0
  H  H24  1  0.25197000  0.81809000  0.61262000  1.0
  H  H25  1  0.74805000  0.18191000  0.11261000  1.0
  H  H26  1  0.76616000  0.71024000  0.43988000  1.0
  H  H27  1  0.23385000  0.28975000  0.93987000  1.0
  H  H28  1  0.01179000  0.86971000  0.44325000  1.0
  H  H29  1  0.98822000  0.13029000  0.94325000  1.0
  H  H30  1  0.59942000  0.57098000  0.52368000  1.0
  H  H31  1  0.40060000  0.42902000  0.02367000  1.0
  H  H32  1  0.47714000  0.60036000  0.42208000  1.0
  H  H33  1  0.52287000  0.39965000  0.92208000  1.0
  H  H34  1  0.98422000  0.55405000  0.41081000  1.0
  H  H35  1  0.01580000  0.44595000  0.91081000  1.0
  H  H36  1  0.68187000  0.40702000  0.43104000  1.0
  H  H37  1  0.31814000  0.59298000  0.93105000  1.0
  H  H38  1  0.78244000  0.27239000  0.52358000  1.0
  H  H39  1  0.21757000  0.72761000  0.02358000  1.0
  H  H40  1  0.45225000  0.41945000  0.58370000  1.0
  H  H41  1  0.54774000  0.58054000  0.08370000  1.0
  H  H42  1  0.79105000  0.28576000  0.72858000  1.0
  H  H43  1  0.20895000  0.71425000  0.22858000  1.0
  H  H44  1  0.05086000  0.30620000  0.77526000  1.0
  H  H45  1  0.94914000  0.69380000  0.27526000  1.0
  H  H46  1  0.59662000  0.13374000  0.55865000  1.0
  H  H47  1  0.40338000  0.86626000  0.05865000  1.0
  H  H48  1  0.33372000  0.11493000  0.51178000  1.0
  H  H49  1  0.66630000  0.88507000  0.01178000  1.0
  C  C50  1  0.45195000  0.39536000  0.75011000  1.0
  C  C51  1  0.54804000  0.60464000  0.25011000  1.0
  C  C52  1  0.60190000  0.49193000  0.74525000  1.0
  C  C53  1  0.39809000  0.50807000  0.24525000  1.0
  C  C54  1  0.82668000  0.50707000  0.70345000  1.0
  C  C55  1  0.17331000  0.49293000  0.20345000  1.0
  C  C56  1  0.95954000  0.59837000  0.70254000  1.0
  C  C57  1  0.04044000  0.40163000  0.20254000  1.0
  C  C58  1  0.87087000  0.67650000  0.74485000  1.0
  C  C59  1  0.12911000  0.32351000  0.24485000  1.0
  C  C60  1  0.64109000  0.66390000  0.78273000  1.0
  C  C61  1  0.35890000  0.33610000  0.28273000  1.0
  C  C62  1  0.51061000  0.57209000  0.78208000  1.0
  C  C63  1  0.48938000  0.42792000  0.28207000  1.0
  C  C64  1  0.93438000  0.84166000  0.79239000  1.0
  C  C65  1  0.06562000  0.15835000  0.29239000  1.0
  C  C66  1  0.13018000  0.92537000  0.79145000  1.0
  C  C67  1  0.86983000  0.07464000  0.29144000  1.0
  C  C68  1  0.10650000  0.00593000  0.74000000  1.0
  C  C69  1  0.89350000  0.99408000  0.24001000  1.0
  C  C70  1  0.47531000  0.08433000  0.78464000  1.0
  C  C71  1  0.52467000  0.91567000  0.28464000  1.0
  C  C72  1  0.51256000  0.00720000  0.83858000  1.0
  C  C73  1  0.48742000  0.99280000  0.33857000  1.0
  C  C74  1  0.33809000  0.92669000  0.84187000  1.0
  C  C75  1  0.66190000  0.07332000  0.34187000  1.0
  C  C76  1  0.93460000  0.03017000  0.53029000  1.0
  C  C77  1  0.06540000  0.96983000  0.03029000  1.0
  C  C78  1  0.77572000  0.93563000  0.52886000  1.0
  C  C79  1  0.22429000  0.06437000  0.02886000  1.0
  C  C80  1  0.56022000  0.92003000  0.57658000  1.0
  C  C81  1  0.43979000  0.07997000  0.07657000  1.0
  C  C82  1  0.41850000  0.83063000  0.57551000  1.0
  C  C83  1  0.58150000  0.16936000  0.07551000  1.0
  C  C84  1  0.49187000  0.75405000  0.52666000  1.0
  C  C85  1  0.50814000  0.24595000  0.02666000  1.0
  C  C86  1  0.70655000  0.76810000  0.47877000  1.0
  C  C87  1  0.29347000  0.23189000  0.97877000  1.0
  C  C88  1  0.84493000  0.85844000  0.48015000  1.0
  C  C89  1  0.15508000  0.14156000  0.98015000  1.0
  C  C90  1  0.43316000  0.58523000  0.49026000  1.0
  C  C91  1  0.56686000  0.41476000  0.99025000  1.0
  C  C92  1  0.24318000  0.49954000  0.49747000  1.0
  C  C93  1  0.75682000  0.50046000  0.99747000  1.0
  C  C94  1  0.02397000  0.49506000  0.45300000  1.0
  C  C95  1  0.97604000  0.50493000  0.95300000  1.0
  C  C96  1  0.85627000  0.41310000  0.46295000  1.0
  C  C97  1  0.14373000  0.58690000  0.96296000  1.0
  C  C98  1  0.91147000  0.33706000  0.51488000  1.0
  C  C99  1  0.08855000  0.66294000  0.01488000  1.0
  C  C100  1  0.28396000  0.42009000  0.54825000  1.0
  C  C101  1  0.71605000  0.57991000  0.04824000  1.0
  N  N102  1  0.12295000  0.34035000  0.55669000  1.0
  N  N103  1  0.87705000  0.65964000  0.05669000  1.0
  N  N104  1  0.27553000  0.08353000  0.73602000  1.0
  N  N105  1  0.72447000  0.91648000  0.23602000  1.0
  O  O106  1  0.51684000  0.32452000  0.70505000  1.0
  O  O107  1  0.48314000  0.67549000  0.20505000  1.0
  O  O108  1  0.26569000  0.38860000  0.79765000  1.0
  O  O109  1  0.73429000  0.61140000  0.29764000  1.0
  O  O110  1  0.01997000  0.76197000  0.74610000  1.0
  O  O111  1  0.98002000  0.23804000  0.24609000  1.0
  O  O112  1  0.87646000  0.09865000  0.58015000  1.0
  O  O113  1  0.12355000  0.90134000  0.08015000  1.0
  O  O114  1  0.12229000  0.03849000  0.48361000  1.0
  O  O115  1  0.87773000  0.96151000  0.98361000  1.0
  O  O116  1  0.34286000  0.66814000  0.52946000  1.0
  O  O117  1  0.65715000  0.33184000  0.02946000  1.0
  O  O118  1  0.93034000  0.25363000  0.74950000  1.0
  O  O119  1  0.06966000  0.74638000  0.24950000  1.0
  O  O120  1  0.45848000  0.16678000  0.53771000  1.0
  O  O121  1  0.54153000  0.83323000  0.03771000  1.0
