# generated using pymatgen
data_CsLiH6C4O7
_symmetry_space_group_name_H-M   'P 1'
_cell_length_a   9.82584000
_cell_length_b   9.84895000
_cell_length_c   10.58169494
_cell_angle_alpha   117.73391810
_cell_angle_beta   112.27742838
_cell_angle_gamma   90.00080000
_symmetry_Int_Tables_number   1
_chemical_formula_structural   CsLiH6C4O7
_chemical_formula_sum   'Cs4 Li4 H24 C16 O28'
_cell_volume   819.04823580
_cell_formula_units_Z   4
loop_
 _symmetry_equiv_pos_site_id
 _symmetry_equiv_pos_as_xyz
  1  'x, y, z'
loop_
 _atom_site_type_symbol
 _atom_site_label
 _atom_site_symmetry_multiplicity
 _atom_site_fract_x
 _atom_site_fract_y
 _atom_site_fract_z
 _atom_site_occupancy
  Cs  Cs0  1  0.25000000  0.97151000  0.00000000  1.0
  Cs  Cs1  1  0.75000000  0.02850000  0.00000000  1.0
  Cs  Cs2  1  0.25001000  0.49379000  0.00000000  1.0
  Cs  Cs3  1  0.74999000  0.50621000  0.00000000  1.0
  Li  Li4  1  0.06321000  0.08945000  0.66191000  1.0
  Li  Li5  1  0.43680000  0.42753000  0.33810000  1.0
  Li  Li6  1  0.93679000  0.91055000  0.33809000  1.0
  Li  Li7  1  0.56320000  0.57247000  0.66190000  1.0
  H  H8  1  0.09792000  0.00298000  0.25890000  1.0
  H  H9  1  0.40208000  0.74408000  0.74111000  1.0
  H  H10  1  0.90207000  0.99702000  0.74110000  1.0
  H  H11  1  0.59792000  0.25592000  0.25889000  1.0
  H  H12  1  0.90409000  0.45239000  0.33390000  1.0
  H  H13  1  0.59591000  0.11849000  0.66609000  1.0
  H  H14  1  0.09591000  0.54761000  0.66610000  1.0
  H  H15  1  0.40409000  0.88151000  0.33391000  1.0
  H  H16  1  0.96370000  0.24256000  0.88636000  1.0
  H  H17  1  0.53631000  0.35620000  0.11364000  1.0
  H  H18  1  0.03630000  0.75744000  0.11364000  1.0
  H  H19  1  0.46369000  0.64380000  0.88636000  1.0
  H  H20  1  0.84333000  0.21415000  0.71640000  1.0
  H  H21  1  0.65667000  0.49775000  0.28360000  1.0
  H  H22  1  0.15667000  0.78585000  0.28360000  1.0
  H  H23  1  0.34333000  0.50225000  0.71640000  1.0
  H  H24  1  0.27247000  0.26483000  0.41580000  1.0
  H  H25  1  0.22754000  0.84903000  0.58420000  1.0
  H  H26  1  0.72753000  0.73517000  0.58420000  1.0
  H  H27  1  0.77246000  0.15097000  0.41580000  1.0
  H  H28  1  0.15456000  0.47892000  0.43324000  1.0
  H  H29  1  0.34544000  0.04568000  0.56677000  1.0
  H  H30  1  0.84544000  0.52108000  0.56676000  1.0
  H  H31  1  0.65456000  0.95432000  0.43323000  1.0
  C  C32  1  0.12100000  0.24978000  0.51214000  1.0
  C  C33  1  0.37899000  0.73764000  0.48786000  1.0
  C  C34  1  0.87900000  0.75022000  0.48786000  1.0
  C  C35  1  0.62101000  0.26236000  0.51214000  1.0
  C  C36  1  0.14891000  0.23806000  0.37434000  1.0
  C  C37  1  0.35110000  0.86371000  0.62566000  1.0
  C  C38  1  0.85109000  0.76194000  0.62566000  1.0
  C  C39  1  0.64890000  0.13629000  0.37434000  1.0
  C  C40  1  0.08456000  0.36256000  0.33444000  1.0
  C  C41  1  0.41544000  0.02812000  0.66557000  1.0
  C  C42  1  0.91544000  0.63744000  0.66556000  1.0
  C  C43  1  0.58456000  0.97188000  0.33443000  1.0
  C  C44  1  0.10194000  0.33810000  0.18608000  1.0
  C  C45  1  0.39807000  0.15202000  0.81393000  1.0
  C  C46  1  0.89806000  0.66190000  0.81392000  1.0
  C  C47  1  0.60193000  0.84798000  0.18607000  1.0
  O  O48  1  0.17739000  0.37997000  0.64234000  1.0
  O  O49  1  0.32260000  0.73764000  0.35766000  1.0
  O  O50  1  0.82261000  0.62003000  0.35766000  1.0
  O  O51  1  0.67740000  0.26236000  0.64234000  1.0
  O  O52  1  0.04773000  0.12961000  0.49165000  1.0
  O  O53  1  0.45227000  0.63795000  0.50834000  1.0
  O  O54  1  0.95227000  0.87039000  0.50835000  1.0
  O  O55  1  0.54773000  0.36205000  0.49166000  1.0
  O  O56  1  0.08313000  0.08915000  0.23426000  1.0
  O  O57  1  0.41687000  0.85489000  0.76574000  1.0
  O  O58  1  0.91687000  0.91085000  0.76574000  1.0
  O  O59  1  0.58313000  0.14511000  0.23426000  1.0
  O  O60  1  0.93332000  0.35125000  0.31604000  1.0
  O  O61  1  0.56668000  0.03522000  0.68397000  1.0
  O  O62  1  0.06668000  0.64876000  0.68397000  1.0
  O  O63  1  0.43332000  0.96478000  0.31603000  1.0
  O  O64  1  0.98469000  0.31977000  0.06830000  1.0
  O  O65  1  0.51532000  0.25147000  0.93170000  1.0
  O  O66  1  0.01531000  0.68023000  0.93170000  1.0
  O  O67  1  0.48468000  0.74853000  0.06830000  1.0
  O  O68  1  0.23332000  0.33798000  0.19218000  1.0
  O  O69  1  0.26669000  0.14580000  0.80783000  1.0
  O  O70  1  0.76668000  0.66202000  0.80782000  1.0
  O  O71  1  0.73331000  0.85420000  0.19217000  1.0
  O  O72  1  0.93906000  0.18865000  0.77007000  1.0
  O  O73  1  0.56093000  0.41858000  0.22993000  1.0
  O  O74  1  0.06094000  0.81135000  0.22993000  1.0
  O  O75  1  0.43907000  0.58142000  0.77007000  1.0
