# generated using pymatgen
data_ZnH10C6S2(NO)4
_symmetry_space_group_name_H-M   'P 1'
_cell_length_a   7.78107000
_cell_length_b   8.11695000
_cell_length_c   10.97190000
_cell_angle_alpha   89.72290000
_cell_angle_beta   78.16400000
_cell_angle_gamma   77.46500000
_symmetry_Int_Tables_number   1
_chemical_formula_structural   ZnH10C6S2(NO)4
_chemical_formula_sum   'Zn2 H20 C12 S4 N8 O8'
_cell_volume   661.49798647
_cell_formula_units_Z   2
loop_
 _symmetry_equiv_pos_site_id
 _symmetry_equiv_pos_as_xyz
  1  'x, y, z'
loop_
 _atom_site_type_symbol
 _atom_site_label
 _atom_site_symmetry_multiplicity
 _atom_site_fract_x
 _atom_site_fract_y
 _atom_site_fract_z
 _atom_site_occupancy
  Zn  Zn0  1  0.39902000  0.13243000  0.73375000  1.0
  Zn  Zn1  1  0.60098000  0.86757000  0.26625000  1.0
  H  H2  1  0.12115000  0.86090000  0.14894000  1.0
  H  H3  1  0.87885000  0.13911000  0.85107000  1.0
  H  H4  1  0.11772000  0.74489000  0.01441000  1.0
  H  H5  1  0.88228000  0.25511000  0.98559000  1.0
  H  H6  1  0.25835000  0.07331000  0.13527000  1.0
  H  H7  1  0.74165000  0.92669000  0.86473000  1.0
  H  H8  1  0.35089000  0.15011000  0.98881000  1.0
  H  H9  1  0.64911000  0.84989000  0.01119000  1.0
  H  H10  1  0.46713000  0.38187000  0.37913000  1.0
  H  H11  1  0.53288000  0.61812000  0.62087000  1.0
  H  H12  1  0.49443000  0.21683000  0.48618000  1.0
  H  H13  1  0.50557000  0.78317000  0.51381000  1.0
  H  H14  1  0.23705000  0.60228000  0.41648000  1.0
  H  H15  1  0.76295000  0.39771000  0.58351000  1.0
  H  H16  1  0.06697000  0.61866000  0.55288000  1.0
  H  H17  1  0.93303000  0.38133000  0.44712000  1.0
  H  H18  1  0.59713000  0.61285000  0.90887000  1.0
  H  H19  1  0.40285000  0.38715000  0.09113000  1.0
  H  H20  1  0.87460000  0.03920000  0.40650000  1.0
  H  H21  1  0.12541000  0.96081000  0.59350000  1.0
  C  C22  1  0.23872000  0.94510000  0.98313000  1.0
  C  C23  1  0.76128000  0.05489000  0.01687000  1.0
  C  C24  1  0.26845000  0.40647000  0.53404000  1.0
  C  C25  1  0.73155000  0.59353000  0.46596000  1.0
  C  C26  1  0.51921000  0.39506000  0.83788000  1.0
  C  C27  1  0.48078000  0.60495000  0.16212000  1.0
  C  C28  1  0.53221000  0.50921000  0.93940000  1.0
  C  C29  1  0.46777000  0.49079000  0.06060000  1.0
  C  C30  1  0.76770000  0.02768000  0.60956000  1.0
  C  C31  1  0.23231000  0.97232000  0.39044000  1.0
  C  C32  1  0.91290000  0.01698000  0.49642000  1.0
  C  C33  1  0.08711000  0.98302000  0.50358000  1.0
  S  S34  1  0.29597000  0.90194000  0.82416000  1.0
  S  S35  1  0.70403000  0.09805000  0.17585000  1.0
  S  S36  1  0.16820000  0.32456000  0.66858000  1.0
  S  S37  1  0.83180000  0.67544000  0.33142000  1.0
  N  N38  1  0.15127000  0.84187000  0.05437000  1.0
  N  N39  1  0.84873000  0.15813000  0.94564000  1.0
  N  N40  1  0.27715000  0.07295000  0.03946000  1.0
  N  N41  1  0.72285000  0.92706000  0.96054000  1.0
  N  N42  1  0.42095000  0.32646000  0.45976000  1.0
  N  N43  1  0.57905000  0.67354000  0.54024000  1.0
  N  N44  1  0.18519000  0.55662000  0.49989000  1.0
  N  N45  1  0.81481000  0.44337000  0.50010000  1.0
  O  O46  1  0.45080000  0.26547000  0.87021000  1.0
  O  O47  1  0.54919000  0.73453000  0.12979000  1.0
  O  O48  1  0.57378000  0.42840000  0.72662000  1.0
  O  O49  1  0.42622000  0.57161000  0.27338000  1.0
  O  O50  1  0.60501000  0.06552000  0.58953000  1.0
  O  O51  1  0.39499000  0.93447000  0.41047000  1.0
  O  O52  1  0.80631000  0.00219000  0.71457000  1.0
  O  O53  1  0.19369000  0.99781000  0.28543000  1.0
