# generated using pymatgen
data_CoH30C30(NO)6
_symmetry_space_group_name_H-M   'P 1'
_cell_length_a   8.43970000
_cell_length_b   9.63069354
_cell_length_c   9.76654000
_cell_angle_alpha   119.42971729
_cell_angle_beta   93.56380000
_cell_angle_gamma   91.04987800
_symmetry_Int_Tables_number   1
_chemical_formula_structural   CoH30C30(NO)6
_chemical_formula_sum   'Co1 H30 C30 N6 O6'
_cell_volume   688.96177932
_cell_formula_units_Z   1
loop_
 _symmetry_equiv_pos_site_id
 _symmetry_equiv_pos_as_xyz
  1  'x, y, z'
loop_
 _atom_site_type_symbol
 _atom_site_label
 _atom_site_symmetry_multiplicity
 _atom_site_fract_x
 _atom_site_fract_y
 _atom_site_fract_z
 _atom_site_occupancy
  Co  Co0  1  0.50000000  0.50001000  0.00001000  1.0
  H  H1  1  0.78413000  0.52949000  0.94543000  1.0
  H  H2  1  0.21587000  0.47052000  0.05457000  1.0
  H  H3  1  0.83775000  0.62485000  0.12894000  1.0
  H  H4  1  0.16225000  0.37515000  0.87106000  1.0
  H  H5  1  0.82401000  0.46543000  0.66231000  1.0
  H  H6  1  0.17599000  0.53457000  0.33770000  1.0
  H  H7  1  0.77870000  0.04324000  0.68964000  1.0
  H  H8  1  0.22129000  0.95677000  0.31037000  1.0
  H  H9  1  0.76763000  0.09391000  0.54061000  1.0
  H  H10  1  0.23235000  0.90610000  0.45939000  1.0
  H  H11  1  0.58017000  0.86045000  0.50504000  1.0
  H  H12  1  0.41981000  0.13957000  0.49497000  1.0
  H  H13  1  0.47097000  0.00477000  0.65540000  1.0
  H  H14  1  0.52902000  0.99525000  0.34461000  1.0
  H  H15  1  0.40544000  0.22365000  0.02269000  1.0
  H  H16  1  0.59456000  0.77636000  0.97731000  1.0
  H  H17  1  0.45973000  0.13034000  0.21947000  1.0
  H  H18  1  0.54027000  0.86966000  0.78052000  1.0
  H  H19  1  0.64462000  0.29655000  0.45890000  1.0
  H  H20  1  0.35538000  0.70344000  0.54108000  1.0
  H  H21  1  0.67952000  0.64232000  0.30094000  1.0
  H  H22  1  0.32048000  0.35769000  0.69907000  1.0
  H  H23  1  0.05564000  0.63599000  0.92615000  1.0
  H  H24  1  0.94436000  0.36400000  0.07386000  1.0
  H  H25  1  0.23220000  0.88407000  0.05035000  1.0
  H  H26  1  0.76781000  0.11592000  0.94965000  1.0
  H  H27  1  0.23320000  0.06656000  0.93927000  1.0
  H  H28  1  0.76681000  0.93343000  0.06073000  1.0
  H  H29  1  0.06815000  0.00379000  0.69515000  1.0
  H  H30  1  0.93186000  0.99620000  0.30485000  1.0
  C  C31  1  0.67994000  0.26487000  0.75652000  1.0
  C  C32  1  0.32006000  0.73514000  0.24349000  1.0
  C  C33  1  0.69915000  0.09248000  0.63224000  1.0
  C  C34  1  0.30083000  0.90753000  0.36776000  1.0
  C  C35  1  0.54707000  0.98548000  0.56067000  1.0
  C  C36  1  0.45290000  0.01453000  0.43933000  1.0
  C  C37  1  0.48032000  0.29372000  0.13133000  1.0
  C  C38  1  0.51967000  0.70629000  0.86867000  1.0
  C  C39  1  0.51272000  0.24391000  0.24103000  1.0
  C  C40  1  0.48728000  0.75609000  0.75897000  1.0
  C  C41  1  0.61497000  0.33733000  0.37486000  1.0
  C  C42  1  0.38502000  0.66266000  0.62514000  1.0
  C  C43  1  0.68073000  0.48213000  0.39654000  1.0
  C  C44  1  0.31927000  0.51787000  0.60346000  1.0
  C  C45  1  0.63555000  0.52806000  0.28479000  1.0
  C  C46  1  0.36445000  0.47195000  0.71523000  1.0
  C  C47  1  0.79651000  0.58716000  0.52517000  1.0
  C  C48  1  0.20350000  0.41283000  0.47483000  1.0
  C  C49  1  0.96353000  0.68140000  0.73940000  1.0
  C  C50  1  0.03648000  0.31859000  0.26060000  1.0
  C  C51  1  0.05911000  0.71396000  0.87496000  1.0
  C  C52  1  0.94091000  0.28602000  0.12503000  1.0
  C  C53  1  0.15648000  0.85352000  0.94388000  1.0
  C  C54  1  0.84355000  0.14646000  0.05611000  1.0
  C  C55  1  0.15902000  0.95631000  0.87955000  1.0
  C  C56  1  0.84100000  0.04367000  0.12044000  1.0
  C  C57  1  0.06569000  0.92313000  0.74357000  1.0
  C  C58  1  0.93433000  0.07685000  0.25642000  1.0
  C  C59  1  0.96585000  0.78344000  0.67216000  1.0
  C  C60  1  0.03415000  0.21654000  0.32783000  1.0
  N  N61  1  0.54021000  0.43536000  0.15401000  1.0
  N  N62  1  0.45979000  0.56465000  0.84600000  1.0
  N  N63  1  0.85526000  0.55747000  0.64220000  1.0
  N  N64  1  0.14475000  0.44253000  0.35780000  1.0
  N  N65  1  0.86052000  0.72180000  0.53929000  1.0
  N  N66  1  0.13949000  0.27820000  0.46072000  1.0
  O  O67  1  0.55930000  0.29309000  0.83834000  1.0
  O  O68  1  0.44070000  0.70693000  0.16169000  1.0
  O  O69  1  0.78736000  0.36941000  0.77665000  1.0
  O  O70  1  0.21264000  0.63060000  0.22336000  1.0
  O  O71  1  0.76091000  0.62372000  0.04974000  1.0
  O  O72  1  0.23908000  0.37628000  0.95026000  1.0
