# generated using pymatgen
data_Zr3H23C44N2O16F5
_symmetry_space_group_name_H-M   'P 1'
_cell_length_a   19.00100320
_cell_length_b   19.19288335
_cell_length_c   19.19220000
_cell_angle_alpha   90.50043437
_cell_angle_beta   119.66162575
_cell_angle_gamma   119.66211076
_symmetry_Int_Tables_number   1
_chemical_formula_structural   Zr3H23C44N2O16F5
_chemical_formula_sum   'Zr6 H46 C88 N4 O32 F10'
_cell_volume   4977.88417197
_cell_formula_units_Z   2
loop_
 _symmetry_equiv_pos_site_id
 _symmetry_equiv_pos_as_xyz
  1  'x, y, z'
loop_
 _atom_site_type_symbol
 _atom_site_label
 _atom_site_symmetry_multiplicity
 _atom_site_fract_x
 _atom_site_fract_y
 _atom_site_fract_z
 _atom_site_occupancy
  Zr  Zr0  1  0.68527000  0.09192000  0.09194000  1.0
  Zr  Zr1  1  0.31529000  0.90810000  0.90809000  1.0
  Zr  Zr2  1  0.50146000  0.90810000  0.90804000  1.0
  Zr  Zr3  1  0.49908000  0.09198000  0.09190000  1.0
  Zr  Zr4  1  0.50029000  0.09167000  0.90834000  1.0
  Zr  Zr5  1  0.50025000  0.90834000  0.09166000  1.0
  H  H6  1  0.64686000  0.07209000  0.92787000  1.0
  H  H7  1  0.35370000  0.07213000  0.92792000  1.0
  H  H8  1  0.35525000  0.78285000  0.92715000  1.0
  H  H9  1  0.64522000  0.07288000  0.21718000  1.0
  H  H10  1  0.06564000  0.67958000  0.88907000  1.0
  H  H11  1  0.93460000  0.32261000  0.11345000  1.0
  H  H12  1  0.70886000  0.32285000  0.89156000  1.0
  H  H13  1  0.83639000  0.44954000  0.89127000  1.0
  H  H14  1  0.29183000  0.68298000  0.11428000  1.0
  H  H15  1  0.16450000  0.55479000  0.11327000  1.0
  H  H16  1  0.06611000  0.88682000  0.67759000  1.0
  H  H17  1  0.93479000  0.11111000  0.32055000  1.0
  H  H18  1  0.70879000  0.88587000  0.31732000  1.0
  H  H19  1  0.83619000  0.88711000  0.44561000  1.0
  H  H20  1  0.29185000  0.10881000  0.67745000  1.0
  H  H21  1  0.16430000  0.10924000  0.55089000  1.0
  H  H22  1  0.50339000  0.68209000  0.11294000  1.0
  H  H23  1  0.50252000  0.32054000  0.88965000  1.0
  H  H24  1  0.50357000  0.32406000  0.11421000  1.0
  H  H25  1  0.50203000  0.45047000  0.11261000  1.0
  H  H26  1  0.50535000  0.68021000  0.88985000  1.0
  H  H27  1  0.50277000  0.55164000  0.88939000  1.0
  H  H28  1  0.49740000  0.10998000  0.67911000  1.0
  H  H29  1  0.49669000  0.88683000  0.31762000  1.0
  H  H30  1  0.49460000  0.10981000  0.31943000  1.0
  H  H31  1  0.49701000  0.11022000  0.44794000  1.0
  H  H32  1  0.49670000  0.88561000  0.67577000  1.0
  H  H33  1  0.49787000  0.88703000  0.54916000  1.0
  H  H34  1  0.07018000  0.88655000  0.89233000  1.0
  H  H35  1  0.29121000  0.10938000  0.11136000  1.0
  H  H36  1  0.93034000  0.10750000  0.11367000  1.0
  H  H37  1  0.70927000  0.88878000  0.89053000  1.0
  H  H38  1  0.29261000  0.68031000  0.67768000  1.0
  H  H39  1  0.70822000  0.32237000  0.31977000  1.0
  H  H40  1  0.93491000  0.32357000  0.31910000  1.0
  H  H41  1  0.06135000  0.44991000  0.44667000  1.0
  H  H42  1  0.06590000  0.68106000  0.67634000  1.0
  H  H43  1  0.93947000  0.55349000  0.55002000  1.0
  H  H44  1  0.68591000  0.80170000  0.81689000  1.0
  H  H45  1  0.72252000  0.74857000  0.79103000  1.0
  H  H46  1  0.93319000  0.81703000  0.80194000  1.0
  H  H47  1  0.81812000  0.79228000  0.74889000  1.0
  H  H48  1  0.06734000  0.19835000  0.18270000  1.0
  H  H49  1  0.18261000  0.25098000  0.20797000  1.0
  H  H50  1  0.31455000  0.18332000  0.19799000  1.0
  H  H51  1  0.27810000  0.20871000  0.25155000  1.0
  C  C52  1  0.73480000  0.23598000  0.00256000  1.0
  C  C53  1  0.26588000  0.99760000  0.76414000  1.0
  C  C54  1  0.26558000  0.76886000  0.00226000  1.0
  C  C55  1  0.73489000  0.99775000  0.23125000  1.0
  C  C56  1  0.73673000  0.99777000  0.00244000  1.0
  C  C57  1  0.73452000  0.23632000  0.23179000  1.0
  C  C58  1  0.26380000  0.99765000  0.00219000  1.0
  C  C59  1  0.26619000  0.76824000  0.76370000  1.0
  C  C60  1  0.49646000  0.99719000  0.76407000  1.0
  C  C61  1  0.50601000  0.76886000  0.00187000  1.0
  C  C62  1  0.49428000  0.99800000  0.23099000  1.0
  C  C63  1  0.50390000  0.23581000  0.00267000  1.0
  C  C64  1  0.18830000  0.69090000  0.00226000  1.0
  C  C65  1  0.81219000  0.31363000  0.00239000  1.0
  C  C66  1  0.08823000  0.65259000  0.93877000  1.0
  C  C67  1  0.01699000  0.57963000  0.93869000  1.0
  C  C68  1  0.91224000  0.35010000  0.06417000  1.0
  C  C69  1  0.98367000  0.42154000  0.06284000  1.0
  C  C70  1  0.78671000  0.35092000  0.94027000  1.0
  C  C71  1  0.85963000  0.42275000  0.94047000  1.0
  C  C72  1  0.21396000  0.65388000  0.06465000  1.0
  C  C73  1  0.14120000  0.58099000  0.06350000  1.0
  C  C74  1  0.03846000  0.53967000  0.00062000  1.0
  C  C75  1  0.96237000  0.46235000  0.00173000  1.0
  C  C76  1  0.18851000  0.99793000  0.68661000  1.0
  C  C77  1  0.81222000  0.99789000  0.30931000  1.0
  C  C78  1  0.08845000  0.93619000  0.65018000  1.0
  C  C79  1  0.01703000  0.93761000  0.57883000  1.0
  C  C80  1  0.91228000  0.06149000  0.34765000  1.0
  C  C81  1  0.98360000  0.06171000  0.42069000  1.0
  C  C82  1  0.78665000  0.93555000  0.34640000  1.0
  C  C83  1  0.85948000  0.93684000  0.41937000  1.0
  C  C84  1  0.21400000  0.06012000  0.64938000  1.0
  C  C85  1  0.14108000  0.06001000  0.57765000  1.0
  C  C86  1  0.03832000  0.99873000  0.53804000  1.0
  C  C87  1  0.96220000  0.99980000  0.46069000  1.0
  C  C88  1  0.50510000  0.69079000  0.00136000  1.0
  C  C89  1  0.50356000  0.31326000  0.00259000  1.0
  C  C90  1  0.50344000  0.65399000  0.06344000  1.0
  C  C91  1  0.50161000  0.58101000  0.06218000  1.0
  C  C92  1  0.50249000  0.34870000  0.93914000  1.0
  C  C93  1  0.50130000  0.42019000  0.93890000  1.0
  C  C94  1  0.50324000  0.35145000  0.06468000  1.0
  C  C95  1  0.50217000  0.42319000  0.06315000  1.0
  C  C96  1  0.50457000  0.65220000  0.93881000  1.0
  C  C97  1  0.50301000  0.57917000  0.93903000  1.0
  C  C98  1  0.50171000  0.53938000  0.00085000  1.0
  C  C99  1  0.50140000  0.46195000  0.00030000  1.0
  C  C100  1  0.49654000  0.99715000  0.68649000  1.0
  C  C101  1  0.49493000  0.99837000  0.30893000  1.0
  C  C102  1  0.49740000  0.06048000  0.65093000  1.0
  C  C103  1  0.49840000  0.06065000  0.57935000  1.0
  C  C104  1  0.49658000  0.93629000  0.34571000  1.0
  C  C105  1  0.49829000  0.93748000  0.41864000  1.0
  C  C106  1  0.49535000  0.06086000  0.34746000  1.0
  C  C107  1  0.49682000  0.06061000  0.42044000  1.0
  C  C108  1  0.49692000  0.93509000  0.64831000  1.0
  C  C109  1  0.49777000  0.93652000  0.57647000  1.0
  C  C110  1  0.49834000  0.99927000  0.53761000  1.0
  C  C111  1  0.49805000  0.99874000  0.46020000  1.0
  C  C112  1  0.08588000  0.93483000  0.93865000  1.0
  C  C113  1  0.01059000  0.93412000  0.93647000  1.0
  C  C114  1  0.90772000  0.87088000  0.87114000  1.0
  C  C115  1  0.21229000  0.06152000  0.06472000  1.0
  C  C116  1  0.13997000  0.06323000  0.06606000  1.0
  C  C117  1  0.16573000  0.12765000  0.13029000  1.0
  C  C118  1  0.91460000  0.06126000  0.06528000  1.0
  C  C119  1  0.98987000  0.06347000  0.06592000  1.0
  C  C120  1  0.09273000  0.12882000  0.12916000  1.0
  C  C121  1  0.78819000  0.93534000  0.93843000  1.0
  C  C122  1  0.86052000  0.93401000  0.93674000  1.0
  C  C123  1  0.83473000  0.86977000  0.87231000  1.0
  C  C124  1  0.18550000  0.99782000  0.00201000  1.0
  C  C125  1  0.03744000  0.99871000  0.00125000  1.0
  C  C126  1  0.81499000  0.99795000  0.00223000  1.0
  C  C127  1  0.96304000  0.99874000  0.00129000  1.0
  C  C128  1  0.18842000  0.69049000  0.68622000  1.0
  C  C129  1  0.81238000  0.31375000  0.30959000  1.0
  C  C130  1  0.21503000  0.65306000  0.65010000  1.0
  C  C131  1  0.14243000  0.58045000  0.57867000  1.0
  C  C132  1  0.78579000  0.34990000  0.34703000  1.0
  C  C133  1  0.85840000  0.42137000  0.41959000  1.0
  C  C134  1  0.91302000  0.35130000  0.34731000  1.0
  C  C135  1  0.98445000  0.42308000  0.41992000  1.0
  C  C136  1  0.08779000  0.65282000  0.64863000  1.0
  C  C137  1  0.01636000  0.58019000  0.57686000  1.0
  C  C138  1  0.03939000  0.53976000  0.53750000  1.0
  C  C139  1  0.96144000  0.46255000  0.46029000  1.0
  N  N140  1  0.73572000  0.80659000  0.80705000  1.0
  N  N141  1  0.87823000  0.80681000  0.80672000  1.0
  N  N142  1  0.12217000  0.19326000  0.19314000  1.0
  N  N143  1  0.26474000  0.19298000  0.19341000  1.0
  O  O144  1  0.76417000  0.20550000  0.06121000  1.0
  O  O145  1  0.23651000  0.93883000  0.79451000  1.0
  O  O146  1  0.23621000  0.79852000  0.94281000  1.0
  O  O147  1  0.76429000  0.05721000  0.20159000  1.0
  O  O148  1  0.64645000  0.93901000  0.94307000  1.0
  O  O149  1  0.64440000  0.20581000  0.20196000  1.0
  O  O150  1  0.35408000  0.05701000  0.06097000  1.0
  O  O151  1  0.35633000  0.79808000  0.79431000  1.0
  O  O152  1  0.49706000  0.05684000  0.79506000  1.0
  O  O153  1  0.50535000  0.79925000  0.06089000  1.0
  O  O154  1  0.49504000  0.93904000  0.20065000  1.0
  O  O155  1  0.50338000  0.20489000  0.94305000  1.0
  O  O156  1  0.50573000  0.79865000  0.94253000  1.0
  O  O157  1  0.49475000  0.05744000  0.20131000  1.0
  O  O158  1  0.50320000  0.20547000  0.06151000  1.0
  O  O159  1  0.49729000  0.93842000  0.79447000  1.0
  O  O160  1  0.76458000  0.05715000  0.06124000  1.0
  O  O161  1  0.23670000  0.79833000  0.79435000  1.0
  O  O162  1  0.23595000  0.93887000  0.94280000  1.0
  O  O163  1  0.76396000  0.20563000  0.20169000  1.0
  O  O164  1  0.64479000  0.93878000  0.20071000  1.0
  O  O165  1  0.64478000  0.20504000  0.94302000  1.0
  O  O166  1  0.35590000  0.05712000  0.79507000  1.0
  O  O167  1  0.35568000  0.79931000  0.06119000  1.0
  O  O168  1  0.60396000  0.05206000  0.15546000  1.0
  O  O169  1  0.39654000  0.84457000  0.94794000  1.0
  O  O170  1  0.39559000  0.05181000  0.94818000  1.0
  O  O171  1  0.60496000  0.05181000  0.94819000  1.0
  O  O172  1  0.42371000  0.96157000  0.88531000  1.0
  O  O173  1  0.57684000  0.11472000  0.03845000  1.0
  O  O174  1  0.42306000  0.96199000  0.03803000  1.0
  O  O175  1  0.57741000  0.96200000  0.03804000  1.0
  F  F176  1  0.92169000  0.54783000  0.87267000  1.0
  F  F177  1  0.07904000  0.45072000  0.12644000  1.0
  F  F178  1  0.92166000  0.87409000  0.54975000  1.0
  F  F179  1  0.07888000  0.12782000  0.45253000  1.0
  F  F180  1  0.49959000  0.55098000  0.12618000  1.0
  F  F181  1  0.49993000  0.44857000  0.87321000  1.0
  F  F182  1  0.49954000  0.12625000  0.55088000  1.0
  F  F183  1  0.50035000  0.87351000  0.44868000  1.0
  F  F184  1  0.17824000  0.54979000  0.54978000  1.0
  F  F185  1  0.82259000  0.45031000  0.45022000  1.0
