# generated using pymatgen
data_CuH11C15N2
_symmetry_space_group_name_H-M   'P 1'
_cell_length_a   9.11674000
_cell_length_b   11.36630000
_cell_length_c   12.71637797
_cell_angle_alpha   63.48570699
_cell_angle_beta   85.57023744
_cell_angle_gamma   89.97210000
_symmetry_Int_Tables_number   1
_chemical_formula_structural   CuH11C15N2
_chemical_formula_sum   'Cu4 H44 C60 N8'
_cell_volume   1174.74740977
_cell_formula_units_Z   4
loop_
 _symmetry_equiv_pos_site_id
 _symmetry_equiv_pos_as_xyz
  1  'x, y, z'
loop_
 _atom_site_type_symbol
 _atom_site_label
 _atom_site_symmetry_multiplicity
 _atom_site_fract_x
 _atom_site_fract_y
 _atom_site_fract_z
 _atom_site_occupancy
  Cu  Cu0  1  0.76340000  0.12694000  0.49906000  1.0
  Cu  Cu1  1  0.73683000  0.62600000  0.50097000  1.0
  Cu  Cu2  1  0.23660000  0.87306000  0.50094000  1.0
  Cu  Cu3  1  0.26317000  0.37400000  0.49903000  1.0
  H  H4  1  0.03483000  0.26526000  0.94064000  1.0
  H  H5  1  0.46441000  0.20532000  0.05998000  1.0
  H  H6  1  0.96517000  0.73474000  0.05936000  1.0
  H  H7  1  0.53558000  0.79468000  0.94002000  1.0
  H  H8  1  0.90309000  0.40678000  0.01633000  1.0
  H  H9  1  0.59605000  0.42239000  0.98400000  1.0
  H  H10  1  0.09691000  0.59321000  0.98368000  1.0
  H  H11  1  0.40394000  0.57762000  0.01599000  1.0
  H  H12  1  0.82375000  0.62754000  0.87778000  1.0
  H  H13  1  0.67613000  0.50473000  0.12229000  1.0
  H  H14  1  0.17625000  0.37246000  0.12222000  1.0
  H  H15  1  0.32387000  0.49528000  0.87770000  1.0
  H  H16  1  0.07685000  0.34240000  0.72246000  1.0
  H  H17  1  0.42306000  0.06457000  0.27819000  1.0
  H  H18  1  0.92315000  0.65760000  0.27754000  1.0
  H  H19  1  0.57694000  0.93542000  0.72181000  1.0
  H  H20  1  0.99805000  0.56193000  0.58472000  1.0
  H  H21  1  0.50220000  0.14670000  0.41565000  1.0
  H  H22  1  0.00195000  0.43807000  0.41528000  1.0
  H  H23  1  0.49780000  0.85330000  0.58434000  1.0
  H  H24  1  0.78098000  0.05137000  0.70411000  1.0
  H  H25  1  0.71896000  0.75553000  0.29581000  1.0
  H  H26  1  0.21902000  0.94862000  0.29590000  1.0
  H  H27  1  0.28104000  0.24447000  0.70419000  1.0
  H  H28  1  0.11672000  0.76787000  0.75345000  1.0
  H  H29  1  0.38379000  0.52098000  0.24659000  1.0
  H  H30  1  0.88328000  0.23213000  0.24656000  1.0
  H  H31  1  0.61621000  0.47902000  0.75341000  1.0
  H  H32  1  0.23616000  0.84175000  0.88172000  1.0
  H  H33  1  0.26416000  0.72284000  0.11812000  1.0
  H  H34  1  0.76384000  0.15826000  0.11828000  1.0
  H  H35  1  0.73584000  0.27717000  0.88187000  1.0
  H  H36  1  0.90442000  0.12887000  0.82862000  1.0
  H  H37  1  0.59533000  0.95722000  0.17103000  1.0
  H  H38  1  0.09558000  0.87114000  0.17138000  1.0
  H  H39  1  0.40467000  0.04278000  0.82897000  1.0
  H  H40  1  0.13296000  0.02493000  0.91940000  1.0
  H  H41  1  0.36702000  0.94373000  0.08026000  1.0
  H  H42  1  0.86705000  0.97508000  0.08060000  1.0
  H  H43  1  0.63298000  0.05627000  0.91974000  1.0
  H  H44  1  0.71197000  0.93040000  0.40039000  1.0
  H  H45  1  0.78825000  0.33098000  0.59967000  1.0
  H  H46  1  0.28803000  0.06960000  0.59961000  1.0
  H  H47  1  0.21175000  0.66901000  0.40033000  1.0
  C  C48  1  0.99852000  0.36123000  0.87898000  1.0
  C  C49  1  0.50090000  0.23970000  0.12154000  1.0
  C  C50  1  0.00148000  0.63877000  0.12102000  1.0
  C  C51  1  0.49910000  0.76030000  0.87846000  1.0
  C  C52  1  0.92569000  0.44140000  0.92170000  1.0
  C  C53  1  0.57373000  0.36251000  0.07865000  1.0
  C  C54  1  0.07430000  0.55859000  0.07831000  1.0
  C  C55  1  0.42627000  0.63749000  0.92135000  1.0
  C  C56  1  0.88086000  0.56535000  0.84406000  1.0
  C  C57  1  0.61899000  0.40892000  0.15614000  1.0
  C  C58  1  0.11914000  0.43465000  0.15594000  1.0
  C  C59  1  0.38101000  0.59109000  0.84385000  1.0
  C  C60  1  0.02182000  0.40431000  0.75731000  1.0
  C  C61  1  0.47800000  0.16130000  0.24322000  1.0
  C  C62  1  0.97818000  0.59569000  0.24269000  1.0
  C  C63  1  0.52200000  0.83869000  0.75678000  1.0
  C  C64  1  0.97597000  0.52744000  0.67954000  1.0
  C  C65  1  0.52409000  0.20685000  0.32083000  1.0
  C  C66  1  0.02404000  0.47256000  0.32046000  1.0
  C  C67  1  0.47590000  0.79315000  0.67917000  1.0
  C  C68  1  0.90732000  0.61099000  0.72157000  1.0
  C  C69  1  0.59274000  0.33233000  0.27866000  1.0
  C  C70  1  0.09268000  0.38900000  0.27844000  1.0
  C  C71  1  0.40726000  0.66766000  0.72135000  1.0
  C  C72  1  0.86254000  0.74109000  0.63810000  1.0
  C  C73  1  0.63763000  0.37915000  0.36201000  1.0
  C  C74  1  0.13746000  0.25891000  0.36191000  1.0
  C  C75  1  0.36237000  0.62084000  0.63799000  1.0
  C  C76  1  0.87163000  0.86355000  0.63862000  1.0
  C  C77  1  0.62861000  0.50217000  0.36145000  1.0
  C  C78  1  0.12837000  0.13645000  0.36138000  1.0
  C  C79  1  0.37139000  0.49783000  0.63855000  1.0
  C  C80  1  0.88240000  0.00594000  0.74157000  1.0
  C  C81  1  0.61767000  0.74743000  0.25829000  1.0
  C  C82  1  0.11760000  0.99405000  0.25844000  1.0
  C  C83  1  0.38233000  0.25257000  0.74171000  1.0
  C  C84  1  0.93987000  0.90407000  0.71844000  1.0
  C  C85  1  0.56039000  0.62240000  0.28155000  1.0
  C  C86  1  0.06012000  0.09593000  0.28157000  1.0
  C  C87  1  0.43961000  0.37759000  0.71845000  1.0
  C  C88  1  0.06839000  0.84580000  0.77092000  1.0
  C  C89  1  0.43203000  0.61641000  0.22899000  1.0
  C  C90  1  0.93161000  0.15420000  0.22908000  1.0
  C  C91  1  0.56797000  0.38359000  0.77101000  1.0
  C  C92  1  0.13664000  0.88864000  0.84275000  1.0
  C  C93  1  0.36361000  0.73085000  0.15711000  1.0
  C  C94  1  0.86336000  0.11135000  0.15726000  1.0
  C  C95  1  0.63639000  0.26916000  0.84288000  1.0
  C  C96  1  0.95141000  0.04954000  0.81259000  1.0
  C  C97  1  0.54855000  0.86184000  0.18710000  1.0
  C  C98  1  0.04860000  0.95046000  0.18741000  1.0
  C  C99  1  0.45145000  0.13816000  0.81290000  1.0
  C  C100  1  0.07926000  0.99119000  0.86349000  1.0
  C  C101  1  0.42080000  0.85420000  0.13620000  1.0
  C  C102  1  0.92074000  0.00881000  0.13651000  1.0
  C  C103  1  0.57920000  0.14581000  0.86379000  1.0
  C  C104  1  0.76424000  0.88618000  0.48246000  1.0
  C  C105  1  0.73594000  0.36871000  0.51763000  1.0
  C  C106  1  0.23576000  0.11382000  0.51754000  1.0
  C  C107  1  0.26406000  0.63129000  0.48237000  1.0
  N  N108  1  0.79455000  0.75781000  0.53852000  1.0
  N  N109  1  0.70563000  0.29635000  0.46158000  1.0
  N  N110  1  0.20545000  0.24219000  0.46148000  1.0
  N  N111  1  0.29437000  0.70365000  0.53841000  1.0
  N  N112  1  0.80764000  0.95358000  0.53955000  1.0
  N  N113  1  0.69257000  0.49319000  0.46051000  1.0
  N  N114  1  0.19236000  0.04642000  0.46045000  1.0
  N  N115  1  0.30743000  0.50681000  0.53949000  1.0
