# generated using pymatgen
data_CdH12C16(NO)8
_symmetry_space_group_name_H-M   'P 1'
_cell_length_a   11.42050000
_cell_length_b   13.83970000
_cell_length_c   17.28350000
_cell_angle_alpha   112.62900000
_cell_angle_beta   89.99970000
_cell_angle_gamma   89.99960000
_symmetry_Int_Tables_number   1
_chemical_formula_structural   CdH12C16(NO)8
_chemical_formula_sum   'Cd4 H48 C64 N32 O32'
_cell_volume   2521.46256302
_cell_formula_units_Z   4
loop_
 _symmetry_equiv_pos_site_id
 _symmetry_equiv_pos_as_xyz
  1  'x, y, z'
loop_
 _atom_site_type_symbol
 _atom_site_label
 _atom_site_symmetry_multiplicity
 _atom_site_fract_x
 _atom_site_fract_y
 _atom_site_fract_z
 _atom_site_occupancy
  Cd  Cd0  1  0.25141000  0.29411000  0.76020000  1.0
  Cd  Cd1  1  0.25142000  0.20589000  0.23980000  1.0
  Cd  Cd2  1  0.74859000  0.70589000  0.23980000  1.0
  Cd  Cd3  1  0.74858000  0.79411000  0.76020000  1.0
  H  H4  1  0.55717000  0.34820000  0.61814000  1.0
  H  H5  1  0.55719000  0.15179000  0.38187000  1.0
  H  H6  1  0.44282000  0.65180000  0.38186000  1.0
  H  H7  1  0.44282000  0.84821000  0.61814000  1.0
  H  H8  1  0.94956000  0.36718000  0.94299000  1.0
  H  H9  1  0.94956000  0.13281000  0.05701000  1.0
  H  H10  1  0.05044000  0.63282000  0.05701000  1.0
  H  H11  1  0.05044000  0.86718000  0.94299000  1.0
  H  H12  1  0.10031000  0.37698000  0.64689000  1.0
  H  H13  1  0.10033000  0.12302000  0.35311000  1.0
  H  H14  1  0.89968000  0.62302000  0.35311000  1.0
  H  H15  1  0.89968000  0.87698000  0.64689000  1.0
  H  H16  1  0.11288000  0.40950000  0.51223000  1.0
  H  H17  1  0.11289000  0.09050000  0.48777000  1.0
  H  H18  1  0.88711000  0.59051000  0.48777000  1.0
  H  H19  1  0.88711000  0.90950000  0.51223000  1.0
  H  H20  1  0.31570000  0.40144000  0.44940000  1.0
  H  H21  1  0.31570000  0.09857000  0.55060000  1.0
  H  H22  1  0.68429000  0.59857000  0.55059000  1.0
  H  H23  1  0.68430000  0.90144000  0.44940000  1.0
  H  H24  1  0.60133000  0.29094000  0.84180000  1.0
  H  H25  1  0.60134000  0.20905000  0.15820000  1.0
  H  H26  1  0.39866000  0.70906000  0.15819000  1.0
  H  H27  1  0.39867000  0.79094000  0.84180000  1.0
  H  H28  1  0.80796000  0.28862000  0.88286000  1.0
  H  H29  1  0.80798000  0.21138000  0.11715000  1.0
  H  H30  1  0.19202000  0.71138000  0.11714000  1.0
  H  H31  1  0.19203000  0.78861000  0.88286000  1.0
  H  H32  1  0.90724000  0.45324000  0.72497000  1.0
  H  H33  1  0.90727000  0.04675000  0.27503000  1.0
  H  H34  1  0.09275000  0.54676000  0.27503000  1.0
  H  H35  1  0.09274000  0.95324000  0.72497000  1.0
  H  H36  1  0.70028000  0.45196000  0.68149000  1.0
  H  H37  1  0.70030000  0.04803000  0.31851000  1.0
  H  H38  1  0.29972000  0.54803000  0.31850000  1.0
  H  H39  1  0.29971000  0.95196000  0.68149000  1.0
  H  H40  1  0.19566000  0.38534000  0.13441000  1.0
  H  H41  1  0.19566000  0.11466000  0.86560000  1.0
  H  H42  1  0.80434000  0.61466000  0.86559000  1.0
  H  H43  1  0.80434000  0.88534000  0.13441000  1.0
  H  H44  1  0.39733000  0.39383000  0.07662000  1.0
  H  H45  1  0.39733000  0.10618000  0.92338000  1.0
  H  H46  1  0.60267000  0.60616000  0.92337000  1.0
  H  H47  1  0.60267000  0.89383000  0.07663000  1.0
  H  H48  1  0.40685000  0.37790000  0.92433000  1.0
  H  H49  1  0.40685000  0.12212000  0.07567000  1.0
  H  H50  1  0.59315000  0.62211000  0.07566000  1.0
  H  H51  1  0.59315000  0.87789000  0.92433000  1.0
  C  C52  1  0.18349000  0.37911000  0.61690000  1.0
  C  C53  1  0.18351000  0.12088000  0.38309000  1.0
  C  C54  1  0.81650000  0.62089000  0.38309000  1.0
  C  C55  1  0.81650000  0.87911000  0.61691000  1.0
  C  C56  1  0.19068000  0.39668000  0.54327000  1.0
  C  C57  1  0.19069000  0.10332000  0.45673000  1.0
  C  C58  1  0.80931000  0.60332000  0.45672000  1.0
  C  C59  1  0.80932000  0.89668000  0.54327000  1.0
  C  C60  1  0.30217000  0.39310000  0.50905000  1.0
  C  C61  1  0.30218000  0.10690000  0.49095000  1.0
  C  C62  1  0.69782000  0.60691000  0.49094000  1.0
  C  C63  1  0.69782000  0.89310000  0.50905000  1.0
  C  C64  1  0.38279000  0.36578000  0.61929000  1.0
  C  C65  1  0.38280000  0.13421000  0.38072000  1.0
  C  C66  1  0.61721000  0.63422000  0.38071000  1.0
  C  C67  1  0.61721000  0.86579000  0.61928000  1.0
  C  C68  1  0.51099000  0.37087000  0.73791000  1.0
  C  C69  1  0.51100000  0.12912000  0.26209000  1.0
  C  C70  1  0.48901000  0.62914000  0.26208000  1.0
  C  C71  1  0.48901000  0.87087000  0.73791000  1.0
  C  C72  1  0.63752000  0.37094000  0.75907000  1.0
  C  C73  1  0.63754000  0.12905000  0.24093000  1.0
  C  C74  1  0.36247000  0.62906000  0.24092000  1.0
  C  C75  1  0.36247000  0.87094000  0.75907000  1.0
  C  C76  1  0.66868000  0.32720000  0.81719000  1.0
  C  C77  1  0.66869000  0.17280000  0.18282000  1.0
  C  C78  1  0.33132000  0.67281000  0.18281000  1.0
  C  C79  1  0.33132000  0.82719000  0.81719000  1.0
  C  C80  1  0.78500000  0.32763000  0.84078000  1.0
  C  C81  1  0.78502000  0.17237000  0.15923000  1.0
  C  C82  1  0.21499000  0.67237000  0.15922000  1.0
  C  C83  1  0.21499000  0.82762000  0.84078000  1.0
  C  C84  1  0.87116000  0.37369000  0.80800000  1.0
  C  C85  1  0.87118000  0.12630000  0.19200000  1.0
  C  C86  1  0.12883000  0.62630000  0.19200000  1.0
  C  C87  1  0.12884000  0.87369000  0.80800000  1.0
  C  C88  1  0.84011000  0.41618000  0.74914000  1.0
  C  C89  1  0.84013000  0.08381000  0.25086000  1.0
  C  C90  1  0.15988000  0.58382000  0.25086000  1.0
  C  C91  1  0.15988000  0.91618000  0.74915000  1.0
  C  C92  1  0.72379000  0.41468000  0.72472000  1.0
  C  C93  1  0.72381000  0.08531000  0.27528000  1.0
  C  C94  1  0.27621000  0.58532000  0.27527000  1.0
  C  C95  1  0.27620000  0.91468000  0.72473000  1.0
  C  C96  1  0.99667000  0.38076000  0.83281000  1.0
  C  C97  1  0.99667000  0.11925000  0.16719000  1.0
  C  C98  1  0.00333000  0.61925000  0.16719000  1.0
  C  C99  1  0.00333000  0.88075000  0.83281000  1.0
  C  C100  1  0.12465000  0.37407000  0.94864000  1.0
  C  C101  1  0.12465000  0.12593000  0.05136000  1.0
  C  C102  1  0.87535000  0.62593000  0.05135000  1.0
  C  C103  1  0.87535000  0.87407000  0.94864000  1.0
  C  C104  1  0.20790000  0.38481000  0.07163000  1.0
  C  C105  1  0.20789000  0.11520000  0.92837000  1.0
  C  C106  1  0.79211000  0.61519000  0.92837000  1.0
  C  C107  1  0.79210000  0.88481000  0.07163000  1.0
  C  C108  1  0.31914000  0.38866000  0.03928000  1.0
  C  C109  1  0.31914000  0.11135000  0.96072000  1.0
  C  C110  1  0.68086000  0.61134000  0.96071000  1.0
  C  C111  1  0.68086000  0.88865000  0.03928000  1.0
  C  C112  1  0.32448000  0.38002000  0.95671000  1.0
  C  C113  1  0.32448000  0.11999000  0.04329000  1.0
  C  C114  1  0.67552000  0.61998000  0.04329000  1.0
  C  C115  1  0.67552000  0.88002000  0.95671000  1.0
  N  N116  1  0.27965000  0.36216000  0.65540000  1.0
  N  N117  1  0.27967000  0.13783000  0.34460000  1.0
  N  N118  1  0.72034000  0.63784000  0.34460000  1.0
  N  N119  1  0.72034000  0.86216000  0.65540000  1.0
  N  N120  1  0.39861000  0.37800000  0.54698000  1.0
  N  N121  1  0.39862000  0.12200000  0.45303000  1.0
  N  N122  1  0.60138000  0.62201000  0.45302000  1.0
  N  N123  1  0.60138000  0.87800000  0.54697000  1.0
  N  N124  1  0.48758000  0.35430000  0.65646000  1.0
  N  N125  1  0.48760000  0.14569000  0.34355000  1.0
  N  N126  1  0.51241000  0.64571000  0.34353000  1.0
  N  N127  1  0.51241000  0.85430000  0.65646000  1.0
  N  N128  1  0.01909000  0.37094000  0.90757000  1.0
  N  N129  1  0.01910000  0.12905000  0.09244000  1.0
  N  N130  1  0.98091000  0.62905000  0.09243000  1.0
  N  N131  1  0.98091000  0.87094000  0.90757000  1.0
  N  N132  1  0.11033000  0.37971000  0.02733000  1.0
  N  N133  1  0.11033000  0.12029000  0.97267000  1.0
  N  N134  1  0.88967000  0.62029000  0.97267000  1.0
  N  N135  1  0.88967000  0.87971000  0.02733000  1.0
  N  N136  1  0.22739000  0.37040000  0.90969000  1.0
  N  N137  1  0.22739000  0.12961000  0.09031000  1.0
  N  N138  1  0.77261000  0.62960000  0.09030000  1.0
  N  N139  1  0.77261000  0.87039000  0.90969000  1.0
  N  N140  1  0.43746000  0.13942000  0.74608000  1.0
  N  N141  1  0.43746000  0.36058000  0.25392000  1.0
  N  N142  1  0.56254000  0.86058000  0.25393000  1.0
  N  N143  1  0.56254000  0.63942000  0.74607000  1.0
  N  N144  1  0.07792000  0.13023000  0.69094000  1.0
  N  N145  1  0.07793000  0.36977000  0.30906000  1.0
  N  N146  1  0.92208000  0.86977000  0.30907000  1.0
  N  N147  1  0.92207000  0.63023000  0.69094000  1.0
  O  O148  1  0.43530000  0.38364000  0.79290000  1.0
  O  O149  1  0.43532000  0.11636000  0.20711000  1.0
  O  O150  1  0.56469000  0.61637000  0.20710000  1.0
  O  O151  1  0.56469000  0.88364000  0.79289000  1.0
  O  O152  1  0.07413000  0.39657000  0.78867000  1.0
  O  O153  1  0.07415000  0.10341000  0.21133000  1.0
  O  O154  1  0.92587000  0.60342000  0.21132000  1.0
  O  O155  1  0.92586000  0.89657000  0.78867000  1.0
  O  O156  1  0.37841000  0.15191000  0.68652000  1.0
  O  O157  1  0.37840000  0.34810000  0.31348000  1.0
  O  O158  1  0.62159000  0.84810000  0.31348000  1.0
  O  O159  1  0.62160000  0.65189000  0.68651000  1.0
  O  O160  1  0.52555000  0.08232000  0.72938000  1.0
  O  O161  1  0.52555000  0.41769000  0.27062000  1.0
  O  O162  1  0.47444000  0.91768000  0.27062000  1.0
  O  O163  1  0.47444000  0.58232000  0.72937000  1.0
  O  O164  1  0.40233000  0.18779000  0.82108000  1.0
  O  O165  1  0.40233000  0.31220000  0.17891000  1.0
  O  O166  1  0.59768000  0.81222000  0.17892000  1.0
  O  O167  1  0.59767000  0.68779000  0.82108000  1.0
  O  O168  1  0.11713000  0.16289000  0.76723000  1.0
  O  O169  1  0.11713000  0.33711000  0.23277000  1.0
  O  O170  1  0.88287000  0.83711000  0.23277000  1.0
  O  O171  1  0.88287000  0.66289000  0.76723000  1.0
  O  O172  1  0.01106000  0.05348000  0.66399000  1.0
  O  O173  1  0.01106000  0.44652000  0.33600000  1.0
  O  O174  1  0.98894000  0.94652000  0.33601000  1.0
  O  O175  1  0.98894000  0.55348000  0.66399000  1.0
  O  O176  1  0.11094000  0.17923000  0.64575000  1.0
  O  O177  1  0.11094000  0.32077000  0.35425000  1.0
  O  O178  1  0.88906000  0.82077000  0.35425000  1.0
  O  O179  1  0.88906000  0.67923000  0.64575000  1.0
