# generated using pymatgen
data_CuH14C14N6O7
_symmetry_space_group_name_H-M   'P 1'
_cell_length_a   7.26105000
_cell_length_b   11.56780000
_cell_length_c   11.83293752
_cell_angle_alpha   119.26059581
_cell_angle_beta   95.92489367
_cell_angle_gamma   90.00070000
_symmetry_Int_Tables_number   1
_chemical_formula_structural   CuH14C14N6O7
_chemical_formula_sum   'Cu2 H28 C28 N12 O14'
_cell_volume   860.99239225
_cell_formula_units_Z   2
loop_
 _symmetry_equiv_pos_site_id
 _symmetry_equiv_pos_as_xyz
  1  'x, y, z'
loop_
 _atom_site_type_symbol
 _atom_site_label
 _atom_site_symmetry_multiplicity
 _atom_site_fract_x
 _atom_site_fract_y
 _atom_site_fract_z
 _atom_site_occupancy
  Cu  Cu0  1  0.50000000  1.00000000  1.00000000  1.0
  Cu  Cu1  1  0.00000000  0.00000000  0.00000000  1.0
  H  H2  1  0.47665000  0.12330000  0.82764000  1.0
  H  H3  1  0.02337000  0.29566000  0.17235000  1.0
  H  H4  1  0.52336000  0.87670000  0.17236000  1.0
  H  H5  1  0.97663000  0.70434000  0.82765000  1.0
  H  H6  1  0.35966000  0.05123000  0.59675000  1.0
  H  H7  1  0.14036000  0.45447000  0.40324000  1.0
  H  H8  1  0.64035000  0.94877000  0.40325000  1.0
  H  H9  1  0.85964000  0.54552000  0.59675000  1.0
  H  H10  1  0.26436000  0.65636000  0.53991000  1.0
  H  H11  1  0.23563000  0.11646000  0.46010000  1.0
  H  H12  1  0.73564000  0.34364000  0.46009000  1.0
  H  H13  1  0.76436000  0.88355000  0.53991000  1.0
  H  H14  1  0.38820000  0.74237000  0.77043000  1.0
  H  H15  1  0.11180000  0.97195000  0.22957000  1.0
  H  H16  1  0.61180000  0.25763000  0.22957000  1.0
  H  H17  1  0.88820000  0.02805000  0.77043000  1.0
  H  H18  1  0.93149000  0.69166000  0.21731000  1.0
  H  H19  1  0.56848000  0.47435000  0.78270000  1.0
  H  H20  1  0.06851000  0.30834000  0.78269000  1.0
  H  H21  1  0.43151000  0.52565000  0.21730000  1.0
  H  H22  1  0.02127000  0.53171000  0.17418000  1.0
  H  H23  1  0.47870000  0.35752000  0.82582000  1.0
  H  H24  1  0.97873000  0.46829000  0.82582000  1.0
  H  H25  1  0.52130000  0.64248000  0.17418000  1.0
  H  H26  1  0.15313000  0.65484000  0.16008000  1.0
  H  H27  1  0.34685000  0.49476000  0.83992000  1.0
  H  H28  1  0.84687000  0.34516000  0.83992000  1.0
  H  H29  1  0.65315000  0.50524000  0.16008000  1.0
  C  C30  1  0.42697000  0.02088000  0.76104000  1.0
  C  C31  1  0.07305000  0.25984000  0.23896000  1.0
  C  C32  1  0.57303000  0.97913000  0.23897000  1.0
  C  C33  1  0.92696000  0.74016000  0.76104000  1.0
  C  C34  1  0.36131000  0.98028000  0.63204000  1.0
  C  C35  1  0.13870000  0.34824000  0.36795000  1.0
  C  C36  1  0.63869000  0.01972000  0.36796000  1.0
  C  C37  1  0.86131000  0.65176000  0.63205000  1.0
  C  C38  1  0.29824000  0.84796000  0.54937000  1.0
  C  C39  1  0.20176000  0.29858000  0.45062000  1.0
  C  C40  1  0.70176000  0.15204000  0.45063000  1.0
  C  C41  1  0.79824000  0.70142000  0.54938000  1.0
  C  C42  1  0.30887000  0.76063000  0.59931000  1.0
  C  C43  1  0.19113000  0.16132000  0.40069000  1.0
  C  C44  1  0.69113000  0.23937000  0.40069000  1.0
  C  C45  1  0.80887000  0.83868000  0.59931000  1.0
  C  C46  1  0.37700000  0.80843000  0.72937000  1.0
  C  C47  1  0.12300000  0.07906000  0.27063000  1.0
  C  C48  1  0.62300000  0.19157000  0.27063000  1.0
  C  C49  1  0.87700000  0.92094000  0.72937000  1.0
  C  C50  1  0.22251000  0.80578000  0.41164000  1.0
  C  C51  1  0.27747000  0.39414000  0.58836000  1.0
  C  C52  1  0.77749000  0.19422000  0.58836000  1.0
  C  C53  1  0.72252000  0.60586000  0.41164000  1.0
  C  C54  1  0.05595000  0.63771000  0.21581000  1.0
  C  C55  1  0.44403000  0.42190000  0.78419000  1.0
  C  C56  1  0.94405000  0.36229000  0.78419000  1.0
  C  C57  1  0.55597000  0.57810000  0.21581000  1.0
  N  N58  1  0.25001000  0.91332000  0.00000000  1.0
  N  N59  1  0.75000000  0.08668000  1.00000000  1.0
  N  N60  1  0.25000000  0.80802000  1.00000000  1.0
  N  N61  1  0.75000000  0.19198000  1.00000000  1.0
  N  N62  1  0.24999000  0.70764000  0.00000000  1.0
  N  N63  1  0.75001000  0.29235000  0.00000000  1.0
  N  N64  1  0.74999000  0.75978000  1.00000000  1.0
  N  N65  1  0.25001000  0.24022000  0.00000000  1.0
  N  N66  1  0.43269000  0.93686000  0.80933000  1.0
  N  N67  1  0.06731000  0.12753000  0.19066000  1.0
  N  N68  1  0.56731000  0.06314000  0.19067000  1.0
  N  N69  1  0.93269000  0.87247000  0.80934000  1.0
  O  O70  1  0.87813000  0.85015000  0.06839000  1.0
  O  O71  1  0.62185000  0.78176000  0.93162000  1.0
  O  O72  1  0.12187000  0.14985000  0.93161000  1.0
  O  O73  1  0.37815000  0.21824000  0.06838000  1.0
  O  O74  1  0.75000000  0.65139000  0.00000000  1.0
  O  O75  1  0.25000000  0.34861000  1.00000000  1.0
  O  O76  1  0.23343000  0.87739000  0.36286000  1.0
  O  O77  1  0.26656000  0.51453000  0.63713000  1.0
  O  O78  1  0.76657000  0.12261000  0.63714000  1.0
  O  O79  1  0.73344000  0.48548000  0.36287000  1.0
  O  O80  1  0.14043000  0.68278000  0.34920000  1.0
  O  O81  1  0.35954000  0.33358000  0.65081000  1.0
  O  O82  1  0.85957000  0.31723000  0.65081000  1.0
  O  O83  1  0.64045000  0.66642000  0.34919000  1.0
