# generated using pymatgen
data_NaP2H15C6O7
_symmetry_space_group_name_H-M   'P 1'
_cell_length_a   6.43668000
_cell_length_b   9.11277000
_cell_length_c   12.40320000
_cell_angle_alpha   108.31100000
_cell_angle_beta   93.05660000
_cell_angle_gamma   101.00700000
_symmetry_Int_Tables_number   1
_chemical_formula_structural   NaP2H15C6O7
_chemical_formula_sum   'Na2 P4 H30 C12 O14'
_cell_volume   672.94793492
_cell_formula_units_Z   2
loop_
 _symmetry_equiv_pos_site_id
 _symmetry_equiv_pos_as_xyz
  1  'x, y, z'
loop_
 _atom_site_type_symbol
 _atom_site_label
 _atom_site_symmetry_multiplicity
 _atom_site_fract_x
 _atom_site_fract_y
 _atom_site_fract_z
 _atom_site_occupancy
  Na  Na0  1  0.80165000  0.87502000  0.90343000  1.0
  Na  Na1  1  0.19835000  0.12498000  0.09657000  1.0
  P  P2  1  0.28517000  0.94645000  0.81959000  1.0
  P  P3  1  0.71489000  0.05355000  0.18040000  1.0
  P  P4  1  0.31970000  0.65724000  0.88079000  1.0
  P  P5  1  0.68030000  0.34276000  0.11921000  1.0
  H  H6  1  0.62633000  0.14110000  0.94519000  1.0
  H  H7  1  0.37368000  0.85890000  0.05481000  1.0
  H  H8  1  0.92506000  0.58977000  0.78368000  1.0
  H  H9  1  0.07494000  0.41023000  0.21632000  1.0
  H  H10  1  0.14749000  0.69089000  0.59565000  1.0
  H  H11  1  0.85251000  0.30911000  0.40435000  1.0
  H  H12  1  0.00217000  0.42682000  0.61873000  1.0
  H  H13  1  0.99782000  0.57319000  0.38127000  1.0
  H  H14  1  0.26775000  0.40776000  0.64737000  1.0
  H  H15  1  0.73223000  0.59224000  0.35263000  1.0
  H  H16  1  0.17729000  0.41789000  0.51244000  1.0
  H  H17  1  0.82270000  0.58211000  0.48756000  1.0
  H  H18  1  0.05766000  0.29596000  0.90488000  1.0
  H  H19  1  0.94233000  0.70404000  0.09512000  1.0
  H  H20  1  0.22255000  0.46183000  0.01411000  1.0
  H  H21  1  0.77744000  0.53818000  0.98589000  1.0
  H  H22  1  0.33963000  0.34657000  0.89830000  1.0
  H  H23  1  0.66036000  0.65343000  0.10171000  1.0
  H  H24  1  0.53728000  0.81857000  0.65262000  1.0
  H  H25  1  0.46272000  0.18142000  0.34738000  1.0
  H  H26  1  0.48555000  0.64291000  0.53253000  1.0
  H  H27  1  0.51444000  0.35708000  0.46746000  1.0
  H  H28  1  0.58359000  0.63968000  0.66838000  1.0
  H  H29  1  0.41641000  0.36031000  0.33162000  1.0
  H  H30  1  0.09134000  0.06419000  0.59505000  1.0
  H  H31  1  0.90867000  0.93581000  0.40496000  1.0
  H  H32  1  0.98539000  0.08205000  0.72843000  1.0
  H  H33  1  0.01463000  0.91795000  0.27158000  1.0
  H  H34  1  0.95326000  0.89065000  0.62182000  1.0
  H  H35  1  0.04675000  0.10936000  0.37818000  1.0
  C  C36  1  0.19817000  0.72435000  0.77098000  1.0
  C  C37  1  0.80183000  0.27565000  0.22902000  1.0
  C  C38  1  0.24591000  0.64460000  0.64706000  1.0
  C  C39  1  0.75408000  0.35540000  0.35294000  1.0
  C  C40  1  0.16838000  0.46387000  0.60481000  1.0
  C  C41  1  0.83161000  0.53613000  0.39519000  1.0
  C  C42  1  0.19758000  0.39266000  0.92275000  1.0
  C  C43  1  0.80241000  0.60734000  0.07725000  1.0
  C  C44  1  0.47725000  0.68992000  0.62491000  1.0
  C  C45  1  0.52275000  0.31007000  0.37509000  1.0
  C  C46  1  0.06025000  0.00812000  0.66055000  1.0
  C  C47  1  0.93977000  0.99189000  0.33945000  1.0
  O  O48  1  0.13719000  0.01712000  0.90060000  1.0
  O  O49  1  0.86281000  0.98289000  0.09941000  1.0
  O  O50  1  0.52221000  0.98820000  0.86107000  1.0
  O  O51  1  0.47778000  0.01179000  0.13892000  1.0
  O  O52  1  0.26458000  0.99423000  0.70521000  1.0
  O  O53  1  0.73542000  0.00577000  0.29479000  1.0
  O  O54  1  0.26913000  0.75583000  0.00101000  1.0
  O  O55  1  0.73088000  0.24417000  0.99900000  1.0
  O  O56  1  0.54656000  0.64668000  0.87068000  1.0
  O  O57  1  0.45345000  0.35332000  0.12932000  1.0
  O  O58  1  0.15568000  0.49075000  0.85482000  1.0
  O  O59  1  0.84431000  0.50925000  0.14518000  1.0
  O  O60  1  0.96917000  0.69325000  0.77399000  1.0
  O  O61  1  0.03083000  0.30675000  0.22601000  1.0
