# generated using pymatgen
data_Cd3H22C18(NO2)8
_symmetry_space_group_name_H-M   'P 1'
_cell_length_a   11.27330000
_cell_length_b   11.38150000
_cell_length_c   12.86880000
_cell_angle_alpha   106.57100000
_cell_angle_beta   106.73500000
_cell_angle_gamma   102.17900000
_symmetry_Int_Tables_number   1
_chemical_formula_structural   Cd3H22C18(NO2)8
_chemical_formula_sum   'Cd6 H44 C36 N16 O32'
_cell_volume   1436.21239301
_cell_formula_units_Z   2
loop_
 _symmetry_equiv_pos_site_id
 _symmetry_equiv_pos_as_xyz
  1  'x, y, z'
loop_
 _atom_site_type_symbol
 _atom_site_label
 _atom_site_symmetry_multiplicity
 _atom_site_fract_x
 _atom_site_fract_y
 _atom_site_fract_z
 _atom_site_occupancy
  Cd  Cd0  1  0.27499000  0.82796000  0.44627000  1.0
  Cd  Cd1  1  0.67247000  0.22472000  0.05344000  1.0
  Cd  Cd2  1  0.72501000  0.17204000  0.55374000  1.0
  Cd  Cd3  1  0.32753000  0.77528000  0.94656000  1.0
  Cd  Cd4  1  0.75287000  0.74700000  0.74939000  1.0
  Cd  Cd5  1  0.24713000  0.25300000  0.25061000  1.0
  H  H6  1  0.20656000  0.65588000  0.56448000  1.0
  H  H7  1  0.84485000  0.29315000  0.93562000  1.0
  H  H8  1  0.79344000  0.34412000  0.43552000  1.0
  H  H9  1  0.15515000  0.70685000  0.06438000  1.0
  H  H10  1  0.09113000  0.62738000  0.44589000  1.0
  H  H11  1  0.87398000  0.40769000  0.05392000  1.0
  H  H12  1  0.90887000  0.37262000  0.55410000  1.0
  H  H13  1  0.12602000  0.59231000  0.94608000  1.0
  H  H14  1  0.82873000  0.04557000  0.85184000  1.0
  H  H15  1  0.45296000  0.67226000  0.64818000  1.0
  H  H16  1  0.17127000  0.95443000  0.14816000  1.0
  H  H17  1  0.54704000  0.32775000  0.35182000  1.0
  H  H18  1  0.80716000  0.00129000  0.95188000  1.0
  H  H19  1  0.49773000  0.69427000  0.54833000  1.0
  H  H20  1  0.19284000  0.99871000  0.04812000  1.0
  H  H21  1  0.50226000  0.30573000  0.45166000  1.0
  H  H22  1  0.96695000  0.78125000  0.39191000  1.0
  H  H23  1  0.71904000  0.53195000  0.10762000  1.0
  H  H24  1  0.03305000  0.21874000  0.60809000  1.0
  H  H25  1  0.28095000  0.46804000  0.89237000  1.0
  H  H26  1  0.71993000  0.01851000  0.33706000  1.0
  H  H27  1  0.48242000  0.77940000  0.16300000  1.0
  H  H28  1  0.28007000  0.98148000  0.66294000  1.0
  H  H29  1  0.51758000  0.22060000  0.83700000  1.0
  H  H30  1  0.93654000  0.93091000  0.11711000  1.0
  H  H31  1  0.56839000  0.56266000  0.38215000  1.0
  H  H32  1  0.06347000  0.06909000  0.88290000  1.0
  H  H33  1  0.43161000  0.43734000  0.61784000  1.0
  H  H34  1  0.50418000  0.01691000  0.64650000  1.0
  H  H35  1  0.48299000  0.99644000  0.85361000  1.0
  H  H36  1  0.49582000  0.98309000  0.35350000  1.0
  H  H37  1  0.51701000  0.00356000  0.14639000  1.0
  H  H38  1  0.49661000  0.87226000  0.64365000  1.0
  H  H39  1  0.62919000  0.00484000  0.85715000  1.0
  H  H40  1  0.50339000  0.12774000  0.35635000  1.0
  H  H41  1  0.37081000  0.99516000  0.14285000  1.0
  H  H42  1  0.73848000  0.54192000  0.53630000  1.0
  H  H43  1  0.95693000  0.76003000  0.96256000  1.0
  H  H44  1  0.26152000  0.45808000  0.46370000  1.0
  H  H45  1  0.04308000  0.23997000  0.03744000  1.0
  H  H46  1  0.69116000  0.47504000  0.61593000  1.0
  H  H47  1  0.02555000  0.80777000  0.88400000  1.0
  H  H48  1  0.30884000  0.52496000  0.38406000  1.0
  H  H49  1  0.97445000  0.19224000  0.11600000  1.0
  C  C50  1  0.84323000  0.90177000  0.37931000  1.0
  C  C51  1  0.59868000  0.65581000  0.12039000  1.0
  C  C52  1  0.15676000  0.09822000  0.62069000  1.0
  C  C53  1  0.40132000  0.34420000  0.87960000  1.0
  C  C54  1  0.81290000  0.89627000  0.48137000  1.0
  C  C55  1  0.60470000  0.68655000  0.01871000  1.0
  C  C56  1  0.18710000  0.10373000  0.51863000  1.0
  C  C57  1  0.39530000  0.31345000  0.98129000  1.0
  C  C58  1  0.95865000  0.84608000  0.24838000  1.0
  C  C59  1  0.65373000  0.54032000  0.25098000  1.0
  C  C60  1  0.04135000  0.15392000  0.75163000  1.0
  C  C61  1  0.34627000  0.45968000  0.74901000  1.0
  C  C62  1  0.82413000  0.98355000  0.22239000  1.0
  C  C63  1  0.51646000  0.67515000  0.27725000  1.0
  C  C64  1  0.17588000  0.01645000  0.77762000  1.0
  C  C65  1  0.48354000  0.32484000  0.72275000  1.0
  C  C66  1  0.92635000  0.83742000  0.34386000  1.0
  C  C67  1  0.66267000  0.57259000  0.15561000  1.0
  C  C68  1  0.07365000  0.16257000  0.65615000  1.0
  C  C69  1  0.33732000  0.42741000  0.84439000  1.0
  C  C70  1  0.78969000  0.97227000  0.31594000  1.0
  C  C71  1  0.52819000  0.70955000  0.18388000  1.0
  C  C72  1  0.21031000  0.02773000  0.68407000  1.0
  C  C73  1  0.47181000  0.29046000  0.81612000  1.0
  C  C74  1  0.77037000  0.06187000  0.15809000  1.0
  C  C75  1  0.43830000  0.72933000  0.34187000  1.0
  C  C76  1  0.22964000  0.93813000  0.84191000  1.0
  C  C77  1  0.56170000  0.27067000  0.65813000  1.0
  C  C78  1  0.04965000  0.77901000  0.21133000  1.0
  C  C79  1  0.72100000  0.44960000  0.28803000  1.0
  C  C80  1  0.95035000  0.22099000  0.78868000  1.0
  C  C81  1  0.27900000  0.55040000  0.71196000  1.0
  C  C82  1  0.90941000  0.92159000  0.18961000  1.0
  C  C83  1  0.57803000  0.58979000  0.30979000  1.0
  C  C84  1  0.09060000  0.07841000  0.81039000  1.0
  C  C85  1  0.42197000  0.41020000  0.69020000  1.0
  N  N86  1  0.74695000  0.94358000  0.62555000  1.0
  N  N87  1  0.55732000  0.75348000  0.87528000  1.0
  N  N88  1  0.25305000  0.05642000  0.37445000  1.0
  N  N89  1  0.44268000  0.24652000  0.12472000  1.0
  N  N90  1  0.79052000  0.84398000  0.62198000  1.0
  N  N91  1  0.65705000  0.70921000  0.87810000  1.0
  N  N92  1  0.20948000  0.15601000  0.37802000  1.0
  N  N93  1  0.34295000  0.29080000  0.12190000  1.0
  N  N94  1  0.76034000  0.97836000  0.53779000  1.0
  N  N95  1  0.52252000  0.73997000  0.96305000  1.0
  N  N96  1  0.23966000  0.02165000  0.46221000  1.0
  N  N97  1  0.47748000  0.26003000  0.03694000  1.0
  N  N98  1  0.83226000  0.81104000  0.53335000  1.0
  N  N99  1  0.69009000  0.66683000  0.96629000  1.0
  N  N100  1  0.16774000  0.18895000  0.46665000  1.0
  N  N101  1  0.30991000  0.33317000  0.03371000  1.0
  O  O102  1  0.10005000  0.71751000  0.27005000  1.0
  O  O103  1  0.78263000  0.39933000  0.22926000  1.0
  O  O104  1  0.89995000  0.28248000  0.72995000  1.0
  O  O105  1  0.21736000  0.60068000  0.77074000  1.0
  O  O106  1  0.82651000  0.09803000  0.09301000  1.0
  O  O107  1  0.40084000  0.67349000  0.40645000  1.0
  O  O108  1  0.17349000  0.90196000  0.90700000  1.0
  O  O109  1  0.59916000  0.32651000  0.59354000  1.0
  O  O110  1  0.15815000  0.69826000  0.51418000  1.0
  O  O111  1  0.80221000  0.34144000  0.98568000  1.0
  O  O112  1  0.84184000  0.30174000  0.48581000  1.0
  O  O113  1  0.19779000  0.65857000  0.01432000  1.0
  O  O114  1  0.07189000  0.78882000  0.12098000  1.0
  O  O115  1  0.71146000  0.42772000  0.37860000  1.0
  O  O116  1  0.92811000  0.21119000  0.87902000  1.0
  O  O117  1  0.28854000  0.57228000  0.62140000  1.0
  O  O118  1  0.78078000  0.97165000  0.86584000  1.0
  O  O119  1  0.52740000  0.72060000  0.63441000  1.0
  O  O120  1  0.21922000  0.02835000  0.13416000  1.0
  O  O121  1  0.47260000  0.27940000  0.36559000  1.0
  O  O122  1  0.44486000  0.92814000  0.62312000  1.0
  O  O123  1  0.57233000  0.05591000  0.87673000  1.0
  O  O124  1  0.55514000  0.07186000  0.37688000  1.0
  O  O125  1  0.42768000  0.94409000  0.12327000  1.0
  O  O126  1  0.74516000  0.55706000  0.61730000  1.0
  O  O127  1  0.94322000  0.75196000  0.88142000  1.0
  O  O128  1  0.25484000  0.44293000  0.38270000  1.0
  O  O129  1  0.05678000  0.24805000  0.11859000  1.0
  O  O130  1  0.67127000  0.09340000  0.16754000  1.0
  O  O131  1  0.40817000  0.82852000  0.33315000  1.0
  O  O132  1  0.32873000  0.90660000  0.83246000  1.0
  O  O133  1  0.59183000  0.17148000  0.66685000  1.0
