# generated using pymatgen
data_ZnH13C21NO7
_symmetry_space_group_name_H-M   'P 1'
_cell_length_a   9.75349000
_cell_length_b   11.02120000
_cell_length_c   14.64270000
_cell_angle_alpha   90.03410000
_cell_angle_beta   103.75700000
_cell_angle_gamma   91.61560000
_symmetry_Int_Tables_number   1
_chemical_formula_structural   ZnH13C21NO7
_chemical_formula_sum   'Zn2 H26 C42 N2 O14'
_cell_volume   1528.21462484
_cell_formula_units_Z   2
loop_
 _symmetry_equiv_pos_site_id
 _symmetry_equiv_pos_as_xyz
  1  'x, y, z'
loop_
 _atom_site_type_symbol
 _atom_site_label
 _atom_site_symmetry_multiplicity
 _atom_site_fract_x
 _atom_site_fract_y
 _atom_site_fract_z
 _atom_site_occupancy
  Zn  Zn0  1  0.14789000  0.51400000  0.49841000  1.0
  Zn  Zn1  1  0.86414000  0.50410000  0.50727000  1.0
  H  H2  1  0.74911000  0.74118000  0.92464000  1.0
  H  H3  1  0.83369000  0.08023000  0.67612000  1.0
  H  H4  1  0.69743000  0.09366000  0.57156000  1.0
  H  H5  1  0.83225000  0.85448000  0.65076000  1.0
  H  H6  1  0.69755000  0.86860000  0.54535000  1.0
  H  H7  1  0.67192000  0.35508000  0.59350000  1.0
  H  H8  1  0.30026000  0.64457000  0.32084000  1.0
  H  H9  1  0.30627000  0.62186000  0.78600000  1.0
  H  H10  1  0.34258000  0.75556000  0.41177000  1.0
  H  H11  1  0.55537000  0.64654000  0.30829000  1.0
  H  H12  1  0.60195000  0.75525000  0.40149000  1.0
  H  H13  1  0.96137000  0.70675000  0.04971000  1.0
  H  H14  1  0.07427000  0.61928000  0.20533000  1.0
  H  H15  1  0.67658000  0.47044000  0.23124000  1.0
  H  H16  1  0.47597000  0.46048000  0.18263000  1.0
  H  H17  1  0.89401000  0.41669000  0.94666000  1.0
  H  H18  1  0.22659000  0.98941000  0.38004000  1.0
  H  H19  1  0.17607000  0.23473000  0.44700000  1.0
  H  H20  1  0.35896000  0.46674000  0.71537000  1.0
  H  H21  1  0.30192000  0.31917000  0.82890000  1.0
  H  H22  1  0.32313000  0.09692000  0.80337000  1.0
  H  H23  1  0.40540000  0.02528000  0.66451000  1.0
  H  H24  1  0.46694000  0.17420000  0.55253000  1.0
  H  H25  1  0.85833000  0.49610000  0.74393000  1.0
  H  H26  1  0.26402000  0.40212000  0.19296000  1.0
  H  H27  1  0.56054000  0.76829000  0.82000000  1.0
  C  C28  1  0.00682000  0.74292000  0.48191000  1.0
  C  C29  1  0.66690000  0.56967000  0.10094000  1.0
  C  C30  1  0.75160000  0.63753000  0.05040000  1.0
  C  C31  1  0.51685000  0.55256000  0.06011000  1.0
  C  C32  1  0.45379000  0.59570000  0.96867000  1.0
  C  C33  1  0.54353000  0.66718000  0.92292000  1.0
  C  C34  1  0.68542000  0.68635000  0.96231000  1.0
  C  C35  1  0.42919000  0.49237000  0.11185000  1.0
  C  C36  1  0.28650000  0.47275000  0.07754000  1.0
  C  C37  1  0.21888000  0.50621000  0.98308000  1.0
  C  C38  1  0.30535000  0.56563000  0.92740000  1.0
  C  C39  1  0.94263000  0.49731000  0.32291000  1.0
  C  C40  1  0.07421000  0.47899000  0.94175000  1.0
  C  C41  1  0.01656000  0.50450000  0.84688000  1.0
  C  C42  1  0.24387000  0.58378000  0.83152000  1.0
  C  C43  1  0.90959000  0.93425000  0.53201000  1.0
  C  C44  1  0.00132000  0.87746000  0.48575000  1.0
  C  C45  1  0.09167000  0.95638000  0.45009000  1.0
  C  C46  1  0.09073000  0.08372000  0.46351000  1.0
  C  C47  1  0.99948000  0.13895000  0.51213000  1.0
  C  C48  1  0.90860000  0.05885000  0.54529000  1.0
  C  C49  1  0.79786000  0.05034000  0.60243000  1.0
  C  C50  1  0.00143000  0.27217000  0.52242000  1.0
  C  C51  1  0.79795000  0.90831000  0.58661000  1.0
  C  C52  1  0.55747000  0.57125000  0.44845000  1.0
  C  C53  1  0.59825000  0.41860000  0.55275000  1.0
  C  C54  1  0.45758000  0.41824000  0.56113000  1.0
  C  C55  1  0.41764000  0.57205000  0.45567000  1.0
  C  C56  1  0.37882000  0.67248000  0.38479000  1.0
  C  C57  1  0.53897000  0.67223000  0.37731000  1.0
  C  C58  1  0.05168000  0.54908000  0.68677000  1.0
  C  C59  1  0.87888000  0.54020000  0.22628000  1.0
  C  C60  1  0.10406000  0.55058000  0.79044000  1.0
  C  C61  1  0.89848000  0.65509000  0.08953000  1.0
  C  C62  1  0.96148000  0.60677000  0.17533000  1.0
  C  C63  1  0.73471000  0.52263000  0.18899000  1.0
  C  C64  1  0.41624000  0.33027000  0.62658000  1.0
  C  C65  1  0.36943000  0.37025000  0.70445000  1.0
  C  C66  1  0.33694000  0.28660000  0.76809000  1.0
  C  C67  1  0.34967000  0.16242000  0.75398000  1.0
  C  C68  1  0.39675000  0.12214000  0.67648000  1.0
  C  C69  1  0.43173000  0.20561000  0.61357000  1.0
  N  N70  1  0.65118000  0.49625000  0.49739000  1.0
  N  N71  1  0.36370000  0.49900000  0.51155000  1.0
  O  O72  1  0.12448000  0.69659000  0.48127000  1.0
  O  O73  1  0.89215000  0.68427000  0.48328000  1.0
  O  O74  1  0.07680000  0.50446000  0.35301000  1.0
  O  O75  1  0.85730000  0.45991000  0.37205000  1.0
  O  O76  1  0.10840000  0.33029000  0.50299000  1.0
  O  O77  1  0.90147000  0.32347000  0.54726000  1.0
  O  O78  1  0.14117000  0.55109000  0.63673000  1.0
  O  O79  1  0.91652000  0.53938000  0.65300000  1.0
  O  O80  1  0.98735000  0.42351000  0.99028000  1.0
  O  O81  1  0.18300000  0.91566000  0.39986000  1.0
  O  O82  1  0.18379000  0.14837000  0.42510000  1.0
  O  O83  1  0.87720000  0.47525000  0.81284000  1.0
  O  O84  1  0.20502000  0.41863000  0.13078000  1.0
  O  O85  1  0.48555000  0.72066000  0.83797000  1.0
