# generated using pymatgen
data_CdH30C30(NO)4
_symmetry_space_group_name_H-M   'P 1'
_cell_length_a   9.15421000
_cell_length_b   11.84240000
_cell_length_c   16.21220000
_cell_angle_alpha   78.51610000
_cell_angle_beta   86.05860000
_cell_angle_gamma   76.91210000
_symmetry_Int_Tables_number   1
_chemical_formula_structural   CdH30C30(NO)4
_chemical_formula_sum   'Cd2 H60 C60 N8 O8'
_cell_volume   1677.08960747
_cell_formula_units_Z   2
loop_
 _symmetry_equiv_pos_site_id
 _symmetry_equiv_pos_as_xyz
  1  'x, y, z'
loop_
 _atom_site_type_symbol
 _atom_site_label
 _atom_site_symmetry_multiplicity
 _atom_site_fract_x
 _atom_site_fract_y
 _atom_site_fract_z
 _atom_site_occupancy
  Cd  Cd0  1  0.83415000  0.54576000  0.27127000  1.0
  Cd  Cd1  1  0.16586000  0.45424000  0.72872000  1.0
  H  H2  1  0.84463000  0.47753000  0.98688000  1.0
  H  H3  1  0.15541000  0.52245000  0.01312000  1.0
  H  H4  1  0.41077000  0.45178000  0.44315000  1.0
  H  H5  1  0.58924000  0.54823000  0.55684000  1.0
  H  H6  1  0.15732000  0.37484000  0.34110000  1.0
  H  H7  1  0.84268000  0.62516000  0.65891000  1.0
  H  H8  1  0.27829000  0.16382000  0.39285000  1.0
  H  H9  1  0.72171000  0.83619000  0.60715000  1.0
  H  H10  1  0.85962000  0.07542000  0.35248000  1.0
  H  H11  1  0.14039000  0.92459000  0.64752000  1.0
  H  H12  1  0.75335000  0.29335000  0.30630000  1.0
  H  H13  1  0.24665000  0.70666000  0.69370000  1.0
  H  H14  1  0.93677000  0.60379000  0.44361000  1.0
  H  H15  1  0.06323000  0.39622000  0.55638000  1.0
  H  H16  1  0.12573000  0.69583000  0.49564000  1.0
  H  H17  1  0.87427000  0.30418000  0.50436000  1.0
  H  H18  1  0.33187000  0.72190000  0.24684000  1.0
  H  H19  1  0.66813000  0.27810000  0.75316000  1.0
  H  H20  1  0.13688000  0.62526000  0.20642000  1.0
  H  H21  1  0.86313000  0.37474000  0.79359000  1.0
  H  H22  1  0.16189000  0.95872000  0.47805000  1.0
  H  H23  1  0.83810000  0.04127000  0.52195000  1.0
  H  H24  1  0.05948000  0.92100000  0.40380000  1.0
  H  H25  1  0.94052000  0.07901000  0.59619000  1.0
  H  H26  1  0.37807000  0.96854000  0.37622000  1.0
  H  H27  1  0.62193000  0.03146000  0.62378000  1.0
  H  H28  1  0.27559000  0.93936000  0.29767000  1.0
  H  H29  1  0.72442000  0.06065000  0.70233000  1.0
  H  H30  1  0.45976000  0.76020000  0.37024000  1.0
  H  H31  1  0.54023000  0.23981000  0.62975000  1.0
  H  H32  1  0.35919000  0.77053000  0.46657000  1.0
  H  H33  1  0.64081000  0.22947000  0.53343000  1.0
  H  H34  1  0.80169000  0.82693000  0.29484000  1.0
  H  H35  1  0.19829000  0.17307000  0.70516000  1.0
  H  H36  1  0.65039000  0.02925000  0.24015000  1.0
  H  H37  1  0.34959000  0.97074000  0.75986000  1.0
  H  H38  1  0.43018000  0.86999000  0.07957000  1.0
  H  H39  1  0.56981000  0.13001000  0.92043000  1.0
  H  H40  1  0.59311000  0.67744000  0.13964000  1.0
  H  H41  1  0.40689000  0.32255000  0.86035000  1.0
  H  H42  1  0.85769000  0.12842000  0.88325000  1.0
  H  H43  1  0.14229000  0.87158000  0.11675000  1.0
  H  H44  1  0.10680000  0.15436000  0.91772000  1.0
  H  H45  1  0.89319000  0.84563000  0.08228000  1.0
  H  H46  1  0.90655000  0.25008000  0.14993000  1.0
  H  H47  1  0.09345000  0.74991000  0.85008000  1.0
  H  H48  1  0.66514000  0.22268000  0.10516000  1.0
  H  H49  1  0.33485000  0.77732000  0.89485000  1.0
  H  H50  1  0.49309000  0.12855000  0.06382000  1.0
  H  H51  1  0.50690000  0.87144000  0.93618000  1.0
  H  H52  1  0.42727000  0.14689000  0.16615000  1.0
  H  H53  1  0.57273000  0.85311000  0.83385000  1.0
  H  H54  1  0.28235000  0.03509000  0.04615000  1.0
  H  H55  1  0.71763000  0.96490000  0.95385000  1.0
  H  H56  1  0.21777000  0.04310000  0.15012000  1.0
  H  H57  1  0.78222000  0.95691000  0.84988000  1.0
  H  H58  1  0.23756000  0.25646000  0.01018000  1.0
  H  H59  1  0.76244000  0.74354000  0.98982000  1.0
  H  H60  1  0.16581000  0.26498000  0.11344000  1.0
  H  H61  1  0.83418000  0.73502000  0.88655000  1.0
  C  C62  1  0.90362000  0.51036000  0.10859000  1.0
  C  C63  1  0.09641000  0.48963000  0.89141000  1.0
  C  C64  1  0.93437000  0.49540000  0.01985000  1.0
  C  C65  1  0.06568000  0.50458000  0.98016000  1.0
  C  C66  1  0.61558000  0.51537000  0.39577000  1.0
  C  C67  1  0.38442000  0.48464000  0.60423000  1.0
  C  C68  1  0.49916000  0.48987000  0.46087000  1.0
  C  C69  1  0.50085000  0.51013000  0.53912000  1.0
  C  C70  1  0.09479000  0.30547000  0.34543000  1.0
  C  C71  1  0.90520000  0.69453000  0.65458000  1.0
  C  C72  1  0.16164000  0.18740000  0.37382000  1.0
  C  C73  1  0.83836000  0.81260000  0.62619000  1.0
  C  C74  1  0.07816000  0.10064000  0.37783000  1.0
  C  C75  1  0.92184000  0.89936000  0.62217000  1.0
  C  C76  1  0.92934000  0.13922000  0.35175000  1.0
  C  C77  1  0.07065000  0.86079000  0.64826000  1.0
  C  C78  1  0.86975000  0.25922000  0.32524000  1.0
  C  C79  1  0.13025000  0.74079000  0.67477000  1.0
  C  C80  1  0.02711000  0.63143000  0.40271000  1.0
  C  C81  1  0.97289000  0.36858000  0.59729000  1.0
  C  C82  1  0.13108000  0.68419000  0.43037000  1.0
  C  C83  1  0.86891000  0.31582000  0.56963000  1.0
  C  C84  1  0.24210000  0.72080000  0.37428000  1.0
  C  C85  1  0.75790000  0.27921000  0.62572000  1.0
  C  C86  1  0.24553000  0.69822000  0.29251000  1.0
  C  C87  1  0.75448000  0.30178000  0.70748000  1.0
  C  C88  1  0.13859000  0.64448000  0.26940000  1.0
  C  C89  1  0.86141000  0.35552000  0.73060000  1.0
  C  C90  1  0.14326000  0.97212000  0.40992000  1.0
  C  C91  1  0.85673000  0.02788000  0.59008000  1.0
  C  C92  1  0.29101000  0.92244000  0.36615000  1.0
  C  C93  1  0.70899000  0.07757000  0.63385000  1.0
  C  C94  1  0.34766000  0.78893000  0.39781000  1.0
  C  C95  1  0.65234000  0.21108000  0.60219000  1.0
  C  C96  1  0.71840000  0.84130000  0.24655000  1.0
  C  C97  1  0.28159000  0.15870000  0.75345000  1.0
  C  C98  1  0.63355000  0.95351000  0.21602000  1.0
  C  C99  1  0.36644000  0.04649000  0.78399000  1.0
  C  C100  1  0.52659000  0.96886000  0.15445000  1.0
  C  C101  1  0.47340000  0.03113000  0.84555000  1.0
  C  C102  1  0.51152000  0.86729000  0.12667000  1.0
  C  C103  1  0.48847000  0.13271000  0.87333000  1.0
  C  C104  1  0.60116000  0.75824000  0.16018000  1.0
  C  C105  1  0.39884000  0.24176000  0.83982000  1.0
  C  C106  1  0.87237000  0.15474000  0.94254000  1.0
  C  C107  1  0.12762000  0.84525000  0.05746000  1.0
  C  C108  1  0.01212000  0.16886000  0.96193000  1.0
  C  C109  1  0.98787000  0.83114000  0.03808000  1.0
  C  C110  1  0.02933000  0.20189000  0.03835000  1.0
  C  C111  1  0.97066000  0.79811000  0.96165000  1.0
  C  C112  1  0.90169000  0.22092000  0.09069000  1.0
  C  C113  1  0.09830000  0.77908000  0.90931000  1.0
  C  C114  1  0.76608000  0.20568000  0.06547000  1.0
  C  C115  1  0.23392000  0.79432000  0.93453000  1.0
  C  C116  1  0.43340000  0.08912000  0.11989000  1.0
  C  C117  1  0.56660000  0.91088000  0.88011000  1.0
  C  C118  1  0.27572000  0.08762000  0.09564000  1.0
  C  C119  1  0.72428000  0.91238000  0.90436000  1.0
  C  C120  1  0.17992000  0.21115000  0.06424000  1.0
  C  C121  1  0.82007000  0.78885000  0.93576000  1.0
  N  N122  1  0.95107000  0.34127000  0.32235000  1.0
  N  N123  1  0.04893000  0.65874000  0.67766000  1.0
  N  N124  1  0.02963000  0.61292000  0.32328000  1.0
  N  N125  1  0.97037000  0.38709000  0.67672000  1.0
  N  N126  1  0.70335000  0.74470000  0.21920000  1.0
  N  N127  1  0.29665000  0.25530000  0.78079000  1.0
  N  N128  1  0.74982000  0.17169000  0.99306000  1.0
  N  N129  1  0.25017000  0.82830000  0.00694000  1.0
  O  O130  1  0.00639000  0.52947000  0.15003000  1.0
  O  O131  1  0.99364000  0.47052000  0.84997000  1.0
  O  O132  1  0.77275000  0.50401000  0.13979000  1.0
  O  O133  1  0.22728000  0.49598000  0.86021000  1.0
  O  O134  1  0.71618000  0.56647000  0.41179000  1.0
  O  O135  1  0.28383000  0.43354000  0.58820000  1.0
  O  O136  1  0.60913000  0.48270000  0.32571000  1.0
  O  O137  1  0.39087000  0.51731000  0.67428000  1.0
