# generated using pymatgen
data_NiH8C14(S2N3)2
_symmetry_space_group_name_H-M   'P 1'
_cell_length_a   7.76060000
_cell_length_b   8.48838000
_cell_length_c   14.16600000
_cell_angle_alpha   99.73160000
_cell_angle_beta   101.46300000
_cell_angle_gamma   107.95000000
_symmetry_Int_Tables_number   1
_chemical_formula_structural   NiH8C14(S2N3)2
_chemical_formula_sum   'Ni2 H16 C28 S8 N12'
_cell_volume   843.09833979
_cell_formula_units_Z   2
loop_
 _symmetry_equiv_pos_site_id
 _symmetry_equiv_pos_as_xyz
  1  'x, y, z'
loop_
 _atom_site_type_symbol
 _atom_site_label
 _atom_site_symmetry_multiplicity
 _atom_site_fract_x
 _atom_site_fract_y
 _atom_site_fract_z
 _atom_site_occupancy
  Ni  Ni0  1  0.35055000  0.66250000  0.74082000  1.0
  Ni  Ni1  1  0.64945000  0.33750000  0.25918000  1.0
  H  H2  1  0.96098000  0.22485000  0.94306000  1.0
  H  H3  1  0.03902000  0.77516000  0.05694000  1.0
  H  H4  1  0.04234000  0.44075000  0.10509000  1.0
  H  H5  1  0.95767000  0.55925000  0.89491000  1.0
  H  H6  1  0.33404000  0.48820000  0.23588000  1.0
  H  H7  1  0.66597000  0.51180000  0.76412000  1.0
  H  H8  1  0.47132000  0.13348000  0.05534000  1.0
  H  H9  1  0.52868000  0.86653000  0.94466000  1.0
  H  H10  1  0.21023000  0.86103000  0.46196000  1.0
  H  H11  1  0.78975000  0.13897000  0.53804000  1.0
  H  H12  1  0.28654000  0.74283000  0.30875000  1.0
  H  H13  1  0.71343000  0.25715000  0.69125000  1.0
  H  H14  1  0.47428000  0.94418000  0.22442000  1.0
  H  H15  1  0.52570000  0.05579000  0.77559000  1.0
  H  H16  1  0.49361000  0.36566000  0.42966000  1.0
  H  H17  1  0.50637000  0.63433000  0.57033000  1.0
  C  C18  1  0.09316000  0.81347000  0.74224000  1.0
  C  C19  1  0.90685000  0.18653000  0.25777000  1.0
  C  C20  1  0.18178000  0.02982000  0.89824000  1.0
  C  C21  1  0.81824000  0.97019000  0.10177000  1.0
  C  C22  1  0.21120000  0.16162000  0.98657000  1.0
  C  C23  1  0.78879000  0.83839000  0.01343000  1.0
  C  C24  1  0.08961000  0.25081000  0.00055000  1.0
  C  C25  1  0.91039000  0.74920000  0.99946000  1.0
  C  C26  1  0.13496000  0.37138000  0.09020000  1.0
  C  C27  1  0.86505000  0.62863000  0.90981000  1.0
  C  C28  1  0.29743000  0.39932000  0.16370000  1.0
  C  C29  1  0.70258000  0.60068000  0.83630000  1.0
  C  C30  1  0.37364000  0.20001000  0.06414000  1.0
  C  C31  1  0.62636000  0.80000000  0.93586000  1.0
  C  C32  1  0.21702000  0.32197000  0.68907000  1.0
  C  C33  1  0.78298000  0.67804000  0.31092000  1.0
  C  C34  1  0.30888000  0.21281000  0.54421000  1.0
  C  C35  1  0.69112000  0.78719000  0.45578000  1.0
  C  C36  1  0.34433000  0.12436000  0.45686000  1.0
  C  C37  1  0.65565000  0.87563000  0.54313000  1.0
  C  C38  1  0.28671000  0.94652000  0.42268000  1.0
  C  C39  1  0.71327000  0.05347000  0.57731000  1.0
  C  C40  1  0.33179000  0.88046000  0.33772000  1.0
  C  C41  1  0.66819000  0.11953000  0.66227000  1.0
  C  C42  1  0.43515000  0.99135000  0.29040000  1.0
  C  C43  1  0.56484000  0.00863000  0.70960000  1.0
  C  C44  1  0.44711000  0.22713000  0.40431000  1.0
  C  C45  1  0.55288000  0.77286000  0.59568000  1.0
  S  S46  1  0.99770000  0.96157000  0.78991000  1.0
  S  S47  1  0.00231000  0.03842000  0.21009000  1.0
  S  S48  1  0.02702000  0.67225000  0.63155000  1.0
  S  S49  1  0.97300000  0.32775000  0.36847000  1.0
  S  S50  1  0.14618000  0.39255000  0.78776000  1.0
  S  S51  1  0.85382000  0.60745000  0.21223000  1.0
  S  S52  1  0.16742000  0.11747000  0.61562000  1.0
  S  S53  1  0.83257000  0.88255000  0.38438000  1.0
  N  N54  1  0.25090000  0.82806000  0.80919000  1.0
  N  N55  1  0.74911000  0.17193000  0.19081000  1.0
  N  N56  1  0.29909000  0.94609000  0.89464000  1.0
  N  N57  1  0.70093000  0.05392000  0.10537000  1.0
  N  N58  1  0.41555000  0.31448000  0.15046000  1.0
  N  N59  1  0.58447000  0.68553000  0.84955000  1.0
  N  N60  1  0.33291000  0.44030000  0.65583000  1.0
  N  N61  1  0.66710000  0.55970000  0.34417000  1.0
  N  N62  1  0.38461000  0.38026000  0.57666000  1.0
  N  N63  1  0.61540000  0.61975000  0.42334000  1.0
  N  N64  1  0.49346000  0.16304000  0.32407000  1.0
  N  N65  1  0.50654000  0.83695000  0.67592000  1.0
