# generated using pymatgen
data_ZnCoH13C24N2O9
_symmetry_space_group_name_H-M   'P 1'
_cell_length_a   13.86860000
_cell_length_b   18.90560000
_cell_length_c   19.05740000
_cell_angle_alpha   90.00010000
_cell_angle_beta   89.99940000
_cell_angle_gamma   89.99500000
_symmetry_Int_Tables_number   1
_chemical_formula_structural   ZnCoH13C24N2O9
_chemical_formula_sum   'Zn8 Co8 H104 C192 N16 O72'
_cell_volume   4996.73980705
_cell_formula_units_Z   8
loop_
 _symmetry_equiv_pos_site_id
 _symmetry_equiv_pos_as_xyz
  1  'x, y, z'
loop_
 _atom_site_type_symbol
 _atom_site_label
 _atom_site_symmetry_multiplicity
 _atom_site_fract_x
 _atom_site_fract_y
 _atom_site_fract_z
 _atom_site_occupancy
  Zn  Zn0  1  0.63474000  0.89543000  0.43222000  1.0
  Zn  Zn1  1  0.36531000  0.39542000  0.06778000  1.0
  Zn  Zn2  1  0.36526000  0.10457000  0.56778000  1.0
  Zn  Zn3  1  0.63469000  0.60458000  0.93222000  1.0
  Zn  Zn4  1  0.86527000  0.10457000  0.93222000  1.0
  Zn  Zn5  1  0.13468000  0.60458000  0.56778000  1.0
  Zn  Zn6  1  0.13473000  0.89543000  0.06778000  1.0
  Zn  Zn7  1  0.86531000  0.39542000  0.43223000  1.0
  Co  Co8  1  0.59859000  0.48224000  0.04360000  1.0
  Co  Co9  1  0.40142000  0.98224000  0.45641000  1.0
  Co  Co10  1  0.40140000  0.51776000  0.95640000  1.0
  Co  Co11  1  0.59858000  0.01776000  0.54360000  1.0
  Co  Co12  1  0.90140000  0.51775000  0.54360000  1.0
  Co  Co13  1  0.09858000  0.01776000  0.95641000  1.0
  Co  Co14  1  0.09859000  0.48224000  0.45640000  1.0
  Co  Co15  1  0.90143000  0.98225000  0.04359000  1.0
  H  H16  1  0.57967000  0.71578000  0.30916000  1.0
  H  H17  1  0.57011000  0.62625000  0.21308000  1.0
  H  H18  1  0.62769000  0.78808000  0.06067000  1.0
  H  H19  1  0.62951000  0.87934000  0.15841000  1.0
  H  H20  1  0.87812000  0.07289000  0.56204000  1.0
  H  H21  1  0.94542000  0.90364000  0.42033000  1.0
  H  H22  1  0.61613000  0.37630000  0.91357000  1.0
  H  H23  1  0.64468000  0.24850000  0.89733000  1.0
  H  H24  1  0.65555000  0.16994000  0.00566000  1.0
  H  H25  1  0.65842000  0.34539000  0.32273000  1.0
  H  H26  1  0.64869000  0.47775000  0.31624000  1.0
  H  H27  1  0.62407000  0.53413000  0.19741000  1.0
  H  H28  1  0.56609000  0.01084000  0.40340000  1.0
  H  H29  1  0.42027000  0.21573000  0.19083000  1.0
  H  H30  1  0.42987000  0.12622000  0.28695000  1.0
  H  H31  1  0.37227000  0.28809000  0.43932000  1.0
  H  H32  1  0.37046000  0.37932000  0.34156000  1.0
  H  H33  1  0.12186000  0.57289000  0.93796000  1.0
  H  H34  1  0.05460000  0.40362000  0.07965000  1.0
  H  H35  1  0.38390000  0.87632000  0.58641000  1.0
  H  H36  1  0.35536000  0.74854000  0.60265000  1.0
  H  H37  1  0.34449000  0.66996000  0.49433000  1.0
  H  H38  1  0.34155000  0.84543000  0.17726000  1.0
  H  H39  1  0.35127000  0.97779000  0.18376000  1.0
  H  H40  1  0.37586000  0.03417000  0.30260000  1.0
  H  H41  1  0.43391000  0.51085000  0.09659000  1.0
  H  H42  1  0.42033000  0.28421000  0.69084000  1.0
  H  H43  1  0.42989000  0.37375000  0.78692000  1.0
  H  H44  1  0.37231000  0.21193000  0.93933000  1.0
  H  H45  1  0.37050000  0.12066000  0.84160000  1.0
  H  H46  1  0.12188000  0.92711000  0.43796000  1.0
  H  H47  1  0.05458000  0.09636000  0.57967000  1.0
  H  H48  1  0.38387000  0.62370000  0.08642000  1.0
  H  H49  1  0.35533000  0.75149000  0.10266000  1.0
  H  H50  1  0.34446000  0.83006000  0.99434000  1.0
  H  H51  1  0.34159000  0.65461000  0.67727000  1.0
  H  H52  1  0.35132000  0.52225000  0.68376000  1.0
  H  H53  1  0.37592000  0.46587000  0.80259000  1.0
  H  H54  1  0.43391000  0.98916000  0.59660000  1.0
  H  H55  1  0.57974000  0.78427000  0.80916000  1.0
  H  H56  1  0.57014000  0.87378000  0.71305000  1.0
  H  H57  1  0.62772000  0.71191000  0.56068000  1.0
  H  H58  1  0.62954000  0.62068000  0.65844000  1.0
  H  H59  1  0.87815000  0.42711000  0.06205000  1.0
  H  H60  1  0.94540000  0.59638000  0.92036000  1.0
  H  H61  1  0.61610000  0.12368000  0.41359000  1.0
  H  H62  1  0.64464000  0.25146000  0.39735000  1.0
  H  H63  1  0.65551000  0.33004000  0.50566000  1.0
  H  H64  1  0.65845000  0.15457000  0.82274000  1.0
  H  H65  1  0.64873000  0.02221000  0.81623000  1.0
  H  H66  1  0.62413000  0.96583000  0.69739000  1.0
  H  H67  1  0.56609000  0.48916000  0.90341000  1.0
  H  H68  1  0.92032000  0.28421000  0.80916000  1.0
  H  H69  1  0.92989000  0.37375000  0.71308000  1.0
  H  H70  1  0.87232000  0.21193000  0.56067000  1.0
  H  H71  1  0.87049000  0.12066000  0.65841000  1.0
  H  H72  1  0.62188000  0.92711000  0.06204000  1.0
  H  H73  1  0.55458000  0.09636000  0.92033000  1.0
  H  H74  1  0.88387000  0.62370000  0.41357000  1.0
  H  H75  1  0.85533000  0.75149000  0.39734000  1.0
  H  H76  1  0.84445000  0.83005000  0.50567000  1.0
  H  H77  1  0.84159000  0.65461000  0.82273000  1.0
  H  H78  1  0.85131000  0.52225000  0.81625000  1.0
  H  H79  1  0.87591000  0.46586000  0.69741000  1.0
  H  H80  1  0.93392000  0.98916000  0.90340000  1.0
  H  H81  1  0.07973000  0.78427000  0.69084000  1.0
  H  H82  1  0.07014000  0.87378000  0.78695000  1.0
  H  H83  1  0.12773000  0.71191000  0.93932000  1.0
  H  H84  1  0.12954000  0.62067000  0.84156000  1.0
  H  H85  1  0.37815000  0.42711000  0.43795000  1.0
  H  H86  1  0.44539000  0.59638000  0.57964000  1.0
  H  H87  1  0.11610000  0.12368000  0.08641000  1.0
  H  H88  1  0.14464000  0.25146000  0.10265000  1.0
  H  H89  1  0.15551000  0.33004000  0.99433000  1.0
  H  H90  1  0.15845000  0.15456000  0.67726000  1.0
  H  H91  1  0.14873000  0.02220000  0.68377000  1.0
  H  H92  1  0.12414000  0.96583000  0.80261000  1.0
  H  H93  1  0.06608000  0.48916000  0.59659000  1.0
  H  H94  1  0.07968000  0.71579000  0.19084000  1.0
  H  H95  1  0.07011000  0.62625000  0.28692000  1.0
  H  H96  1  0.12768000  0.78808000  0.43933000  1.0
  H  H97  1  0.12951000  0.87934000  0.34159000  1.0
  H  H98  1  0.37813000  0.07288000  0.93796000  1.0
  H  H99  1  0.44542000  0.90364000  0.07967000  1.0
  H  H100  1  0.11614000  0.37630000  0.58643000  1.0
  H  H101  1  0.14468000  0.24850000  0.60266000  1.0
  H  H102  1  0.15555000  0.16994000  0.49433000  1.0
  H  H103  1  0.15841000  0.34539000  0.17727000  1.0
  H  H104  1  0.14868000  0.47775000  0.18376000  1.0
  H  H105  1  0.12407000  0.53413000  0.30259000  1.0
  H  H106  1  0.06609000  0.01084000  0.09660000  1.0
  H  H107  1  0.92026000  0.21572000  0.30916000  1.0
  H  H108  1  0.92985000  0.12622000  0.21304000  1.0
  H  H109  1  0.87227000  0.28810000  0.06068000  1.0
  H  H110  1  0.87046000  0.37933000  0.15844000  1.0
  H  H111  1  0.62185000  0.57289000  0.56204000  1.0
  H  H112  1  0.55460000  0.40362000  0.42035000  1.0
  H  H113  1  0.88390000  0.87632000  0.91359000  1.0
  H  H114  1  0.85537000  0.74854000  0.89735000  1.0
  H  H115  1  0.84449000  0.66996000  0.00567000  1.0
  H  H116  1  0.84155000  0.84544000  0.32274000  1.0
  H  H117  1  0.85126000  0.97780000  0.31623000  1.0
  H  H118  1  0.87585000  0.03418000  0.19739000  1.0
  H  H119  1  0.93391000  0.51085000  0.40342000  1.0
  C  C120  1  0.61034000  0.85604000  0.29658000  1.0
  C  C121  1  0.60457000  0.80253000  0.23867000  1.0
  C  C122  1  0.58844000  0.73120000  0.25450000  1.0
  C  C123  1  0.58492000  0.68138000  0.20107000  1.0
  C  C124  1  0.60059000  0.70157000  0.13138000  1.0
  C  C125  1  0.61639000  0.77322000  0.11532000  1.0
  C  C126  1  0.61750000  0.82335000  0.16882000  1.0
  C  C127  1  0.60320000  0.64707000  0.07462000  1.0
  C  C128  1  0.79657000  0.97407000  0.48251000  1.0
  C  C129  1  0.90188000  0.98731000  0.49058000  1.0
  C  C130  1  0.93263000  0.04154000  0.53534000  1.0
  C  C131  1  0.96977000  0.94572000  0.45505000  1.0
  C  C132  1  0.62239000  0.34183000  0.95919000  1.0
  C  C133  1  0.63758000  0.26944000  0.95036000  1.0
  C  C134  1  0.64374000  0.22671000  0.00969000  1.0
  C  C135  1  0.63700000  0.25802000  0.07604000  1.0
  C  C136  1  0.64573000  0.21475000  0.14081000  1.0
  C  C137  1  0.64857000  0.25441000  0.21251000  1.0
  C  C138  1  0.63924000  0.33242000  0.21122000  1.0
  C  C139  1  0.64631000  0.37220000  0.27294000  1.0
  C  C140  1  0.64098000  0.44545000  0.26930000  1.0
  C  C141  1  0.62740000  0.47705000  0.20396000  1.0
  C  C142  1  0.62583000  0.36856000  0.14740000  1.0
  C  C143  1  0.62405000  0.33169000  0.08017000  1.0
  C  C144  1  0.38963000  0.35601000  0.20341000  1.0
  C  C145  1  0.39539000  0.30249000  0.26132000  1.0
  C  C146  1  0.41153000  0.23117000  0.24550000  1.0
  C  C147  1  0.41504000  0.18135000  0.29894000  1.0
  C  C148  1  0.39940000  0.20156000  0.36863000  1.0
  C  C149  1  0.38359000  0.27321000  0.38468000  1.0
  C  C150  1  0.38248000  0.32333000  0.33118000  1.0
  C  C151  1  0.39677000  0.14707000  0.42540000  1.0
  C  C152  1  0.20343000  0.47405000  0.01748000  1.0
  C  C153  1  0.09811000  0.48731000  0.00941000  1.0
  C  C154  1  0.06737000  0.54154000  0.96467000  1.0
  C  C155  1  0.03023000  0.44570000  0.04493000  1.0
  C  C156  1  0.37765000  0.84184000  0.54080000  1.0
  C  C157  1  0.36246000  0.76945000  0.54962000  1.0
  C  C158  1  0.35629000  0.72672000  0.49029000  1.0
  C  C159  1  0.36303000  0.75803000  0.42394000  1.0
  C  C160  1  0.35429000  0.71475000  0.35918000  1.0
  C  C161  1  0.35142000  0.75443000  0.28747000  1.0
  C  C162  1  0.36078000  0.83243000  0.28876000  1.0
  C  C163  1  0.35366000  0.87223000  0.22705000  1.0
  C  C164  1  0.35901000  0.94548000  0.23070000  1.0
  C  C165  1  0.37258000  0.97709000  0.29604000  1.0
  C  C166  1  0.37417000  0.86858000  0.35258000  1.0
  C  C167  1  0.37597000  0.83170000  0.41981000  1.0
  C  C168  1  0.38965000  0.14395000  0.70343000  1.0
  C  C169  1  0.39542000  0.19747000  0.76133000  1.0
  C  C170  1  0.41156000  0.26879000  0.74550000  1.0
  C  C171  1  0.41507000  0.31862000  0.79893000  1.0
  C  C172  1  0.39942000  0.29843000  0.86862000  1.0
  C  C173  1  0.38361000  0.22679000  0.88468000  1.0
  C  C174  1  0.38250000  0.17665000  0.83119000  1.0
  C  C175  1  0.39680000  0.35293000  0.92538000  1.0
  C  C176  1  0.20343000  0.02594000  0.51749000  1.0
  C  C177  1  0.09811000  0.01268000  0.50943000  1.0
  C  C178  1  0.06737000  0.95846000  0.46467000  1.0
  C  C179  1  0.03023000  0.05428000  0.54495000  1.0
  C  C180  1  0.37761000  0.65817000  0.04081000  1.0
  C  C181  1  0.36242000  0.73056000  0.04964000  1.0
  C  C182  1  0.35626000  0.77329000  0.99031000  1.0
  C  C183  1  0.36301000  0.74198000  0.92396000  1.0
  C  C184  1  0.35428000  0.78524000  0.85919000  1.0
  C  C185  1  0.35143000  0.74559000  0.78749000  1.0
  C  C186  1  0.36077000  0.66759000  0.78877000  1.0
  C  C187  1  0.35369000  0.62780000  0.72706000  1.0
  C  C188  1  0.35903000  0.55455000  0.73070000  1.0
  C  C189  1  0.37260000  0.52295000  0.79604000  1.0
  C  C190  1  0.37418000  0.63144000  0.85260000  1.0
  C  C191  1  0.37596000  0.66831000  0.91983000  1.0
  C  C192  1  0.61037000  0.64399000  0.79659000  1.0
  C  C193  1  0.60461000  0.69751000  0.73868000  1.0
  C  C194  1  0.58849000  0.76884000  0.75450000  1.0
  C  C195  1  0.58497000  0.81865000  0.70106000  1.0
  C  C196  1  0.60059000  0.79844000  0.63137000  1.0
  C  C197  1  0.61641000  0.72679000  0.61532000  1.0
  C  C198  1  0.61752000  0.67667000  0.66882000  1.0
  C  C199  1  0.60323000  0.85293000  0.57460000  1.0
  C  C200  1  0.79657000  0.52595000  0.98252000  1.0
  C  C201  1  0.90189000  0.51270000  0.99059000  1.0
  C  C202  1  0.93263000  0.45846000  0.03533000  1.0
  C  C203  1  0.96977000  0.55430000  0.95507000  1.0
  C  C204  1  0.62235000  0.15816000  0.45920000  1.0
  C  C205  1  0.63754000  0.23055000  0.45037000  1.0
  C  C206  1  0.64372000  0.27328000  0.50970000  1.0
  C  C207  1  0.63697000  0.24198000  0.57606000  1.0
  C  C208  1  0.64572000  0.28524000  0.64082000  1.0
  C  C209  1  0.64859000  0.24557000  0.71253000  1.0
  C  C210  1  0.63922000  0.16757000  0.71125000  1.0
  C  C211  1  0.64635000  0.12777000  0.77295000  1.0
  C  C212  1  0.64098000  0.05452000  0.76930000  1.0
  C  C213  1  0.62741000  0.02292000  0.70396000  1.0
  C  C214  1  0.62583000  0.13143000  0.64742000  1.0
  C  C215  1  0.62403000  0.16830000  0.58019000  1.0
  C  C216  1  0.88966000  0.14396000  0.79658000  1.0
  C  C217  1  0.89542000  0.19747000  0.73867000  1.0
  C  C218  1  0.91156000  0.26880000  0.75450000  1.0
  C  C219  1  0.91507000  0.31863000  0.70107000  1.0
  C  C220  1  0.89942000  0.29843000  0.63138000  1.0
  C  C221  1  0.88361000  0.22679000  0.61532000  1.0
  C  C222  1  0.88250000  0.17665000  0.66881000  1.0
  C  C223  1  0.89681000  0.35293000  0.57462000  1.0
  C  C224  1  0.70343000  0.02593000  0.98251000  1.0
  C  C225  1  0.59811000  0.01268000  0.99058000  1.0
  C  C226  1  0.56737000  0.95846000  0.03534000  1.0
  C  C227  1  0.53023000  0.05428000  0.95505000  1.0
  C  C228  1  0.87761000  0.65817000  0.45919000  1.0
  C  C229  1  0.86242000  0.73056000  0.45036000  1.0
  C  C230  1  0.85626000  0.77329000  0.50969000  1.0
  C  C231  1  0.86300000  0.74198000  0.57604000  1.0
  C  C232  1  0.85427000  0.78524000  0.64081000  1.0
  C  C233  1  0.85143000  0.74558000  0.71250000  1.0
  C  C234  1  0.86077000  0.66758000  0.71122000  1.0
  C  C235  1  0.85369000  0.62780000  0.77294000  1.0
  C  C236  1  0.85902000  0.55455000  0.76930000  1.0
  C  C237  1  0.87259000  0.52294000  0.70397000  1.0
  C  C238  1  0.87416000  0.63143000  0.64740000  1.0
  C  C239  1  0.87595000  0.66831000  0.58017000  1.0
  C  C240  1  0.11036000  0.64399000  0.70341000  1.0
  C  C241  1  0.10460000  0.69751000  0.76132000  1.0
  C  C242  1  0.08847000  0.76884000  0.74550000  1.0
  C  C243  1  0.08497000  0.81865000  0.79894000  1.0
  C  C244  1  0.10060000  0.79844000  0.86864000  1.0
  C  C245  1  0.11641000  0.72679000  0.88468000  1.0
  C  C246  1  0.11752000  0.67667000  0.83118000  1.0
  C  C247  1  0.10324000  0.85293000  0.92540000  1.0
  C  C248  1  0.29657000  0.52595000  0.51748000  1.0
  C  C249  1  0.40188000  0.51270000  0.50941000  1.0
  C  C250  1  0.43263000  0.45846000  0.46466000  1.0
  C  C251  1  0.46976000  0.55429000  0.54493000  1.0
  C  C252  1  0.12235000  0.15816000  0.04080000  1.0
  C  C253  1  0.13754000  0.23055000  0.04962000  1.0
  C  C254  1  0.14371000  0.27328000  0.99030000  1.0
  C  C255  1  0.13696000  0.24198000  0.92394000  1.0
  C  C256  1  0.14572000  0.28524000  0.85918000  1.0
  C  C257  1  0.14858000  0.24557000  0.78748000  1.0
  C  C258  1  0.13922000  0.16756000  0.78876000  1.0
  C  C259  1  0.14634000  0.12777000  0.72706000  1.0
  C  C260  1  0.14099000  0.05451000  0.73071000  1.0
  C  C261  1  0.12742000  0.02291000  0.79604000  1.0
  C  C262  1  0.12583000  0.13142000  0.85258000  1.0
  C  C263  1  0.12404000  0.16830000  0.91981000  1.0
  C  C264  1  0.11035000  0.85605000  0.20342000  1.0
  C  C265  1  0.10458000  0.80253000  0.26133000  1.0
  C  C266  1  0.08845000  0.73120000  0.24550000  1.0
  C  C267  1  0.08493000  0.68137000  0.29893000  1.0
  C  C268  1  0.10059000  0.70157000  0.36862000  1.0
  C  C269  1  0.11639000  0.77322000  0.38467000  1.0
  C  C270  1  0.11750000  0.82335000  0.33118000  1.0
  C  C271  1  0.10319000  0.64707000  0.42538000  1.0
  C  C272  1  0.29657000  0.97407000  0.01749000  1.0
  C  C273  1  0.40188000  0.98731000  0.00943000  1.0
  C  C274  1  0.43263000  0.04154000  0.96466000  1.0
  C  C275  1  0.46977000  0.94572000  0.04495000  1.0
  C  C276  1  0.12240000  0.34182000  0.54081000  1.0
  C  C277  1  0.13758000  0.26944000  0.54964000  1.0
  C  C278  1  0.14374000  0.22671000  0.49031000  1.0
  C  C279  1  0.13700000  0.25802000  0.42396000  1.0
  C  C280  1  0.14573000  0.21475000  0.35919000  1.0
  C  C281  1  0.14858000  0.25441000  0.28750000  1.0
  C  C282  1  0.13923000  0.33241000  0.28878000  1.0
  C  C283  1  0.14631000  0.37219000  0.22707000  1.0
  C  C284  1  0.14097000  0.44545000  0.23070000  1.0
  C  C285  1  0.12740000  0.47705000  0.29604000  1.0
  C  C286  1  0.12583000  0.36856000  0.35260000  1.0
  C  C287  1  0.12404000  0.33168000  0.41983000  1.0
  C  C288  1  0.88963000  0.35601000  0.29659000  1.0
  C  C289  1  0.89539000  0.30249000  0.23868000  1.0
  C  C290  1  0.91152000  0.23116000  0.25449000  1.0
  C  C291  1  0.91502000  0.18135000  0.20105000  1.0
  C  C292  1  0.89939000  0.20157000  0.13136000  1.0
  C  C293  1  0.88359000  0.27321000  0.11532000  1.0
  C  C294  1  0.88247000  0.32333000  0.16882000  1.0
  C  C295  1  0.89676000  0.14708000  0.07460000  1.0
  C  C296  1  0.70342000  0.47405000  0.48252000  1.0
  C  C297  1  0.59811000  0.48730000  0.49059000  1.0
  C  C298  1  0.56736000  0.54154000  0.53534000  1.0
  C  C299  1  0.53023000  0.44571000  0.45507000  1.0
  C  C300  1  0.87765000  0.84184000  0.95920000  1.0
  C  C301  1  0.86246000  0.76945000  0.95037000  1.0
  C  C302  1  0.85628000  0.72672000  0.00970000  1.0
  C  C303  1  0.86303000  0.75802000  0.07605000  1.0
  C  C304  1  0.85428000  0.71476000  0.14082000  1.0
  C  C305  1  0.85142000  0.75444000  0.21252000  1.0
  C  C306  1  0.86078000  0.83244000  0.21124000  1.0
  C  C307  1  0.85366000  0.87223000  0.27294000  1.0
  C  C308  1  0.85900000  0.94549000  0.26929000  1.0
  C  C309  1  0.87258000  0.97709000  0.20396000  1.0
  C  C310  1  0.87417000  0.86858000  0.14742000  1.0
  C  C311  1  0.87596000  0.83170000  0.08018000  1.0
  N  N312  1  0.61474000  0.37287000  0.02241000  1.0
  N  N313  1  0.61915000  0.43972000  0.14428000  1.0
  N  N314  1  0.38527000  0.87287000  0.47757000  1.0
  N  N315  1  0.38083000  0.93974000  0.35571000  1.0
  N  N316  1  0.38527000  0.62713000  0.97759000  1.0
  N  N317  1  0.38086000  0.56028000  0.85571000  1.0
  N  N318  1  0.61473000  0.12713000  0.52243000  1.0
  N  N319  1  0.61917000  0.06027000  0.64429000  1.0
  N  N320  1  0.88526000  0.62713000  0.52241000  1.0
  N  N321  1  0.88085000  0.56028000  0.64429000  1.0
  N  N322  1  0.11473000  0.12713000  0.97757000  1.0
  N  N323  1  0.11917000  0.06026000  0.85571000  1.0
  N  N324  1  0.11474000  0.37286000  0.47758000  1.0
  N  N325  1  0.11914000  0.43972000  0.35571000  1.0
  N  N326  1  0.88527000  0.87287000  0.02243000  1.0
  N  N327  1  0.88083000  0.93974000  0.14429000  1.0
  O  O328  1  0.61014000  0.82766000  0.35903000  1.0
  O  O329  1  0.61593000  0.92071000  0.28432000  1.0
  O  O330  1  0.58442000  0.58318000  0.09073000  1.0
  O  O331  1  0.62426000  0.66931000  0.01320000  1.0
  O  O332  1  0.74066000  0.00962000  0.52165000  1.0
  O  O333  1  0.77099000  0.92804000  0.43660000  1.0
  O  O334  1  0.65106000  0.15009000  0.13965000  1.0
  O  O335  1  0.65907000  0.22075000  0.26699000  1.0
  O  O336  1  0.55411000  0.98098000  0.44420000  1.0
  O  O337  1  0.38990000  0.32763000  0.14095000  1.0
  O  O338  1  0.38402000  0.42068000  0.21566000  1.0
  O  O339  1  0.41560000  0.08319000  0.40930000  1.0
  O  O340  1  0.37565000  0.16931000  0.48681000  1.0
  O  O341  1  0.25931000  0.50964000  0.97835000  1.0
  O  O342  1  0.22903000  0.42800000  0.06337000  1.0
  O  O343  1  0.34902000  0.65009000  0.36033000  1.0
  O  O344  1  0.34090000  0.72078000  0.23300000  1.0
  O  O345  1  0.44589000  0.48097000  0.05580000  1.0
  O  O346  1  0.38985000  0.17233000  0.64098000  1.0
  O  O347  1  0.38407000  0.07928000  0.71569000  1.0
  O  O348  1  0.41557000  0.41682000  0.90928000  1.0
  O  O349  1  0.37573000  0.33069000  0.98680000  1.0
  O  O350  1  0.25933000  0.99038000  0.47835000  1.0
  O  O351  1  0.22900000  0.07196000  0.56340000  1.0
  O  O352  1  0.34895000  0.84991000  0.86034000  1.0
  O  O353  1  0.34093000  0.77925000  0.73301000  1.0
  O  O354  1  0.44590000  0.01902000  0.55581000  1.0
  O  O355  1  0.61013000  0.67237000  0.85904000  1.0
  O  O356  1  0.61595000  0.57932000  0.78433000  1.0
  O  O357  1  0.58441000  0.91682000  0.59070000  1.0
  O  O358  1  0.62435000  0.83069000  0.51319000  1.0
  O  O359  1  0.74069000  0.49036000  0.02165000  1.0
  O  O360  1  0.77098000  0.57199000  0.93664000  1.0
  O  O361  1  0.65098000  0.34991000  0.63967000  1.0
  O  O362  1  0.65911000  0.27922000  0.76701000  1.0
  O  O363  1  0.55410000  0.51903000  0.94420000  1.0
  O  O364  1  0.88985000  0.17233000  0.85903000  1.0
  O  O365  1  0.88407000  0.07929000  0.78432000  1.0
  O  O366  1  0.91559000  0.41682000  0.59074000  1.0
  O  O367  1  0.87574000  0.33070000  0.51321000  1.0
  O  O368  1  0.75933000  0.99038000  0.02165000  1.0
  O  O369  1  0.72900000  0.07196000  0.93660000  1.0
  O  O370  1  0.84895000  0.84990000  0.63965000  1.0
  O  O371  1  0.84094000  0.77925000  0.76698000  1.0
  O  O372  1  0.94589000  0.01902000  0.94419000  1.0
  O  O373  1  0.11011000  0.67237000  0.64096000  1.0
  O  O374  1  0.11596000  0.57933000  0.71567000  1.0
  O  O375  1  0.08442000  0.91682000  0.90931000  1.0
  O  O376  1  0.12435000  0.83069000  0.98681000  1.0
  O  O377  1  0.24069000  0.49037000  0.47835000  1.0
  O  O378  1  0.27097000  0.57200000  0.56337000  1.0
  O  O379  1  0.15099000  0.34991000  0.86033000  1.0
  O  O380  1  0.15909000  0.27922000  0.73300000  1.0
  O  O381  1  0.05410000  0.51903000  0.55580000  1.0
  O  O382  1  0.11015000  0.82767000  0.14097000  1.0
  O  O383  1  0.11593000  0.92072000  0.21568000  1.0
  O  O384  1  0.08442000  0.58318000  0.40927000  1.0
  O  O385  1  0.12426000  0.66931000  0.48680000  1.0
  O  O386  1  0.24067000  0.00963000  0.97836000  1.0
  O  O387  1  0.27100000  0.92803000  0.06340000  1.0
  O  O388  1  0.15107000  0.15009000  0.36034000  1.0
  O  O389  1  0.15908000  0.22075000  0.23302000  1.0
  O  O390  1  0.05411000  0.98098000  0.05580000  1.0
  O  O391  1  0.88989000  0.32763000  0.35904000  1.0
  O  O392  1  0.88404000  0.42068000  0.28433000  1.0
  O  O393  1  0.91558000  0.08319000  0.09069000  1.0
  O  O394  1  0.87565000  0.16931000  0.01319000  1.0
  O  O395  1  0.75931000  0.50963000  0.52165000  1.0
  O  O396  1  0.72902000  0.42800000  0.43663000  1.0
  O  O397  1  0.84900000  0.65010000  0.13967000  1.0
  O  O398  1  0.84090000  0.72079000  0.26700000  1.0
  O  O399  1  0.94589000  0.48097000  0.44420000  1.0
