# generated using pymatgen
data_CoH8C10NO5
_symmetry_space_group_name_H-M   'P 1'
_cell_length_a   5.96333000
_cell_length_b   7.98312000
_cell_length_c   27.59550000
_cell_angle_alpha   90.00120000
_cell_angle_beta   90.02080000
_cell_angle_gamma   90.95600000
_symmetry_Int_Tables_number   1
_chemical_formula_structural   CoH8C10NO5
_chemical_formula_sum   'Co4 H32 C40 N4 O20'
_cell_volume   1313.52784133
_cell_formula_units_Z   4
loop_
 _symmetry_equiv_pos_site_id
 _symmetry_equiv_pos_as_xyz
  1  'x, y, z'
loop_
 _atom_site_type_symbol
 _atom_site_label
 _atom_site_symmetry_multiplicity
 _atom_site_fract_x
 _atom_site_fract_y
 _atom_site_fract_z
 _atom_site_occupancy
  Co  Co0  1  0.00473000  0.76028000  0.71819000  1.0
  Co  Co1  1  0.00588000  0.74824000  0.27850000  1.0
  Co  Co2  1  0.49402000  0.25170000  0.77837000  1.0
  Co  Co3  1  0.49541000  0.23973000  0.21829000  1.0
  H  H4  1  0.66726000  0.64966000  0.61124000  1.0
  H  H5  1  0.91258000  0.89131000  0.84022000  1.0
  H  H6  1  0.13296000  0.92423000  0.54262000  1.0
  H  H7  1  0.32101000  0.76085000  0.84640000  1.0
  H  H8  1  0.08560000  0.62795000  0.85736000  1.0
  H  H9  1  0.43738000  0.64223000  0.68569000  1.0
  H  H10  1  0.92799000  0.90754000  0.62150000  1.0
  H  H11  1  0.72890000  0.77276000  0.52830000  1.0
  H  H12  1  0.33243000  0.64665000  0.39270000  1.0
  H  H13  1  0.01329000  0.89759000  0.15281000  1.0
  H  H14  1  0.87827000  0.92394000  0.46059000  1.0
  H  H15  1  0.60266000  0.75786000  0.15881000  1.0
  H  H16  1  0.82783000  0.63890000  0.13580000  1.0
  H  H17  1  0.56444000  0.63738000  0.31793000  1.0
  H  H18  1  0.08489000  0.90324000  0.38168000  1.0
  H  H19  1  0.27570000  0.77587000  0.47485000  1.0
  H  H20  1  0.16761000  0.35331000  0.89270000  1.0
  H  H21  1  0.48680000  0.10236000  0.65267000  1.0
  H  H22  1  0.62177000  0.07607000  0.96057000  1.0
  H  H23  1  0.89714000  0.24210000  0.65875000  1.0
  H  H24  1  0.67207000  0.36115000  0.63573000  1.0
  H  H25  1  0.93562000  0.36250000  0.81791000  1.0
  H  H26  1  0.41516000  0.09670000  0.88165000  1.0
  H  H27  1  0.22433000  0.22416000  0.97487000  1.0
  H  H28  1  0.83270000  0.35032000  0.11126000  1.0
  H  H29  1  0.58754000  0.10867000  0.34032000  1.0
  H  H30  1  0.36721000  0.07596000  0.04266000  1.0
  H  H31  1  0.17909000  0.23897000  0.34646000  1.0
  H  H32  1  0.41443000  0.37201000  0.35745000  1.0
  H  H33  1  0.06243000  0.35764000  0.18575000  1.0
  H  H34  1  0.57202000  0.09262000  0.12157000  1.0
  H  H35  1  0.77117000  0.22728000  0.02830000  1.0
  C  C36  1  0.50229000  0.70636000  0.61074000  1.0
  C  C37  1  0.00792000  0.83563000  0.81013000  1.0
  C  C38  1  0.24960000  0.58349000  0.79056000  1.0
  C  C39  1  0.41728000  0.78223000  0.56892000  1.0
  C  C40  1  0.20532000  0.85633000  0.57298000  1.0
  C  C41  1  0.17043000  0.70391000  0.82949000  1.0
  C  C42  1  0.37614000  0.70218000  0.65305000  1.0
  C  C43  1  0.14835000  0.97206000  0.78511000  1.0
  C  C44  1  0.09007000  0.84914000  0.61656000  1.0
  C  C45  1  0.54703000  0.78297000  0.52414000  1.0
  C  C46  1  0.50029000  0.70301000  0.39283000  1.0
  C  C47  1  0.93694000  0.83706000  0.18499000  1.0
  C  C48  1  0.71402000  0.56761000  0.20673000  1.0
  C  C49  1  0.58858000  0.78084000  0.43437000  1.0
  C  C50  1  0.80418000  0.85477000  0.43031000  1.0
  C  C51  1  0.76458000  0.70153000  0.16832000  1.0
  C  C52  1  0.62778000  0.69709000  0.35071000  1.0
  C  C53  1  0.81300000  0.97156000  0.21475000  1.0
  C  C54  1  0.91962000  0.84513000  0.38673000  1.0
  C  C55  1  0.45817000  0.78368000  0.47910000  1.0
  C  C56  1  0.99974000  0.29694000  0.89282000  1.0
  C  C57  1  0.56290000  0.16287000  0.68488000  1.0
  C  C58  1  0.78605000  0.43247000  0.70667000  1.0
  C  C59  1  0.91147000  0.21913000  0.93437000  1.0
  C  C60  1  0.69588000  0.14518000  0.93029000  1.0
  C  C61  1  0.73530000  0.29849000  0.66825000  1.0
  C  C62  1  0.87224000  0.30284000  0.85068000  1.0
  C  C63  1  0.68704000  0.02834000  0.71466000  1.0
  C  C64  1  0.58044000  0.15479000  0.88670000  1.0
  C  C65  1  0.04187000  0.21635000  0.97911000  1.0
  C  C66  1  0.99768000  0.29364000  0.11077000  1.0
  C  C67  1  0.49218000  0.16434000  0.31022000  1.0
  C  C68  1  0.25027000  0.41655000  0.29066000  1.0
  C  C69  1  0.08274000  0.21785000  0.06894000  1.0
  C  C70  1  0.29474000  0.14379000  0.07302000  1.0
  C  C71  1  0.32959000  0.29602000  0.32957000  1.0
  C  C72  1  0.12377000  0.29778000  0.15310000  1.0
  C  C73  1  0.35156000  0.02794000  0.28520000  1.0
  C  C74  1  0.40990000  0.15097000  0.11662000  1.0
  C  C75  1  0.95304000  0.21710000  0.02414000  1.0
  N  N76  1  0.17276000  0.77178000  0.65612000  1.0
  N  N77  1  0.83442000  0.76586000  0.34752000  1.0
  N  N78  1  0.66559000  0.23406000  0.84748000  1.0
  N  N79  1  0.32720000  0.22822000  0.15619000  1.0
  O  O80  1  0.24290000  0.08988000  0.80820000  1.0
  O  O81  1  0.85992000  0.75872000  0.77712000  1.0
  O  O82  1  0.17189000  0.94771000  0.73936000  1.0
  O  O83  1  0.21813000  0.60695000  0.74519000  1.0
  O  O84  1  0.35022000  0.45627000  0.80658000  1.0
  O  O85  1  0.71290000  0.08632000  0.19103000  1.0
  O  O86  1  0.09961000  0.76377000  0.21387000  1.0
  O  O87  1  0.81618000  0.95017000  0.25984000  1.0
  O  O88  1  0.73706000  0.59614000  0.25129000  1.0
  O  O89  1  0.64509000  0.42852000  0.18801000  1.0
  O  O90  1  0.78716000  0.91366000  0.69094000  1.0
  O  O91  1  0.40007000  0.23608000  0.71371000  1.0
  O  O92  1  0.68414000  0.04980000  0.75976000  1.0
  O  O93  1  0.76297000  0.40407000  0.75123000  1.0
  O  O94  1  0.85509000  0.57151000  0.68794000  1.0
  O  O95  1  0.25640000  0.91047000  0.30832000  1.0
  O  O96  1  0.64020000  0.24129000  0.27725000  1.0
  O  O97  1  0.32841000  0.05210000  0.23943000  1.0
  O  O98  1  0.28207000  0.39332000  0.24529000  1.0
  O  O99  1  0.14933000  0.54359000  0.30671000  1.0
