# generated using pymatgen
data_Zn2H16C23N6(ClO2)2
_symmetry_space_group_name_H-M   'P 1'
_cell_length_a   7.13829000
_cell_length_b   9.04668000
_cell_length_c   19.51500000
_cell_angle_alpha   100.80100000
_cell_angle_beta   91.30930000
_cell_angle_gamma   94.89640000
_symmetry_Int_Tables_number   1
_chemical_formula_structural   Zn2H16C23N6(ClO2)2
_chemical_formula_sum   'Zn4 H32 C46 N12 Cl4 O8'
_cell_volume   1232.42046192
_cell_formula_units_Z   2
loop_
 _symmetry_equiv_pos_site_id
 _symmetry_equiv_pos_as_xyz
  1  'x, y, z'
loop_
 _atom_site_type_symbol
 _atom_site_label
 _atom_site_symmetry_multiplicity
 _atom_site_fract_x
 _atom_site_fract_y
 _atom_site_fract_z
 _atom_site_occupancy
  Zn  Zn0  1  0.39493000  0.19494000  0.12093000  1.0
  Zn  Zn1  1  0.60507000  0.80506000  0.87907000  1.0
  Zn  Zn2  1  0.51376000  0.31682000  0.44396000  1.0
  Zn  Zn3  1  0.48623000  0.68318000  0.55603000  1.0
  H  H4  1  0.95895000  0.71227000  0.32119000  1.0
  H  H5  1  0.04105000  0.28773000  0.67882000  1.0
  H  H6  1  0.79023000  0.04997000  0.20816000  1.0
  H  H7  1  0.20977000  0.95003000  0.79184000  1.0
  H  H8  1  0.95001000  0.62657000  0.09650000  1.0
  H  H9  1  0.05000000  0.37343000  0.90350000  1.0
  H  H10  1  0.93660000  0.45708000  0.30636000  1.0
  H  H11  1  0.06341000  0.54292000  0.69364000  1.0
  H  H12  1  0.14643000  0.21425000  0.26483000  1.0
  H  H13  1  0.85357000  0.78575000  0.73517000  1.0
  H  H14  1  0.18539000  0.49253000  0.11396000  1.0
  H  H15  1  0.81461000  0.50747000  0.88604000  1.0
  H  H16  1  0.91419000  0.85754000  0.41365000  1.0
  H  H17  1  0.08581000  0.14247000  0.58635000  1.0
  H  H18  1  0.74972000  0.07671000  0.50178000  1.0
  H  H19  1  0.25028000  0.92330000  0.49822000  1.0
  H  H20  1  0.68280000  0.15740000  0.29733000  1.0
  H  H21  1  0.31720000  0.84260000  0.70267000  1.0
  H  H22  1  0.89207000  0.13365000  0.11325000  1.0
  H  H23  1  0.10793000  0.86635000  0.88675000  1.0
  H  H24  1  0.74499000  0.12432000  0.97908000  1.0
  H  H25  1  0.25502000  0.87568000  0.02092000  1.0
  H  H26  1  0.71385000  0.68037000  0.01820000  1.0
  H  H27  1  0.28616000  0.31963000  0.98180000  1.0
  H  H28  1  0.50091000  0.63429000  0.16578000  1.0
  H  H29  1  0.49909000  0.36571000  0.83422000  1.0
  H  H30  1  0.53585000  0.49668000  0.26329000  1.0
  H  H31  1  0.46414000  0.50332000  0.73671000  1.0
  H  H32  1  0.35083000  0.87492000  0.40572000  1.0
  H  H33  1  0.64916000  0.12508000  0.59428000  1.0
  H  H34  1  0.32337000  0.01503000  0.30940000  1.0
  H  H35  1  0.67662000  0.98498000  0.69060000  1.0
  C  C36  1  0.96361000  0.65699000  0.20928000  1.0
  C  C37  1  0.03639000  0.34301000  0.79072000  1.0
  C  C38  1  0.93308000  0.75034000  0.27259000  1.0
  C  C39  1  0.06692000  0.24966000  0.72741000  1.0
  C  C40  1  0.87068000  0.89224000  0.27221000  1.0
  C  C41  1  0.12932000  0.10777000  0.72779000  1.0
  C  C42  1  0.84374000  0.94170000  0.20944000  1.0
  C  C43  1  0.15627000  0.05831000  0.79056000  1.0
  C  C44  1  0.87071000  0.84448000  0.14671000  1.0
  C  C45  1  0.12930000  0.15552000  0.85329000  1.0
  C  C46  1  0.93082000  0.70168000  0.14575000  1.0
  C  C47  1  0.06919000  0.29832000  0.85425000  1.0
  C  C48  1  0.01840000  0.42769000  0.26048000  1.0
  C  C49  1  0.98161000  0.57231000  0.73952000  1.0
  C  C50  1  0.11939000  0.30624000  0.23860000  1.0
  C  C51  1  0.88062000  0.69376000  0.76140000  1.0
  C  C52  1  0.14145000  0.44473000  0.15856000  1.0
  C  C53  1  0.85855000  0.55527000  0.84144000  1.0
  C  C54  1  0.84391000  0.95184000  0.40220000  1.0
  C  C55  1  0.15609000  0.04816000  0.59780000  1.0
  C  C56  1  0.76174000  0.06174000  0.44587000  1.0
  C  C57  1  0.23826000  0.93827000  0.55413000  1.0
  C  C58  1  0.72936000  0.11042000  0.34124000  1.0
  C  C59  1  0.27063000  0.88958000  0.65876000  1.0
  C  C60  1  0.83607000  0.03944000  0.07351000  1.0
  C  C61  1  0.16393000  0.96056000  0.92649000  1.0
  C  C62  1  0.76661000  0.03435000  0.00722000  1.0
  C  C63  1  0.23339000  0.96565000  0.99278000  1.0
  C  C64  1  0.75146000  0.80078000  0.02339000  1.0
  C  C65  1  0.24855000  0.19922000  0.97661000  1.0
  C  C66  1  0.41133000  0.83350000  0.23103000  1.0
  C  C67  1  0.58867000  0.16650000  0.76897000  1.0
  C  C68  1  0.46726000  0.68646000  0.21844000  1.0
  C  C69  1  0.53274000  0.31354000  0.78156000  1.0
  C  C70  1  0.48731000  0.60937000  0.27307000  1.0
  C  C71  1  0.51269000  0.39063000  0.72694000  1.0
  C  C72  1  0.44511000  0.67681000  0.34090000  1.0
  C  C73  1  0.55488000  0.32319000  0.65910000  1.0
  C  C74  1  0.38289000  0.82218000  0.35305000  1.0
  C  C75  1  0.61711000  0.17782000  0.64695000  1.0
  C  C76  1  0.36812000  0.90101000  0.29880000  1.0
  C  C77  1  0.63188000  0.09899000  0.70120000  1.0
  C  C78  1  0.40467000  0.91625000  0.17137000  1.0
  C  C79  1  0.59533000  0.08375000  0.82863000  1.0
  C  C80  1  0.46933000  0.59678000  0.40022000  1.0
  C  C81  1  0.53066000  0.40322000  0.59978000  1.0
  N  N82  1  0.19490000  0.31834000  0.17484000  1.0
  N  N83  1  0.80511000  0.68166000  0.82516000  1.0
  N  N84  1  0.03334000  0.51494000  0.20907000  1.0
  N  N85  1  0.96666000  0.48506000  0.79093000  1.0
  N  N86  1  0.69124000  0.15975000  0.40732000  1.0
  N  N87  1  0.30876000  0.84025000  0.59268000  1.0
  N  N88  1  0.82412000  0.98363000  0.33558000  1.0
  N  N89  1  0.17588000  0.01637000  0.66442000  1.0
  N  N90  1  0.71482000  0.88514000  0.97660000  1.0
  N  N91  1  0.28519000  0.11486000  0.02340000  1.0
  N  N92  1  0.82786000  0.89102000  0.08320000  1.0
  N  N93  1  0.17214000  0.10898000  0.91680000  1.0
  Cl  Cl94  1  0.63430000  0.36815000  0.11117000  1.0
  Cl  Cl95  1  0.36570000  0.63185000  0.88883000  1.0
  Cl  Cl96  1  0.21480000  0.22400000  0.43038000  1.0
  Cl  Cl97  1  0.78519000  0.77599000  0.56961000  1.0
  O  O98  1  0.38657000  0.84290000  0.11047000  1.0
  O  O99  1  0.61344000  0.15709000  0.88953000  1.0
  O  O100  1  0.42372000  0.06355000  0.18929000  1.0
  O  O101  1  0.57627000  0.93645000  0.81071000  1.0
  O  O102  1  0.56300000  0.48062000  0.38995000  1.0
  O  O103  1  0.43699000  0.51938000  0.61004000  1.0
  O  O104  1  0.39383000  0.64937000  0.45708000  1.0
  O  O105  1  0.60616000  0.35062000  0.54291000  1.0
