# generated using pymatgen
data_Zn2H14C21(NO3)3
_symmetry_space_group_name_H-M   'P 1'
_cell_length_a   7.43559000
_cell_length_b   14.34245920
_cell_length_c   21.60120000
_cell_angle_alpha   101.76076179
_cell_angle_beta   90.00790000
_cell_angle_gamma   104.99529659
_symmetry_Int_Tables_number   1
_chemical_formula_structural   Zn2H14C21(NO3)3
_chemical_formula_sum   'Zn8 H56 C84 N12 O36'
_cell_volume   2175.08492263
_cell_formula_units_Z   4
loop_
 _symmetry_equiv_pos_site_id
 _symmetry_equiv_pos_as_xyz
  1  'x, y, z'
loop_
 _atom_site_type_symbol
 _atom_site_label
 _atom_site_symmetry_multiplicity
 _atom_site_fract_x
 _atom_site_fract_y
 _atom_site_fract_z
 _atom_site_occupancy
  Zn  Zn0  1  0.21826000  0.32698000  0.19906000  1.0
  Zn  Zn1  1  0.89099000  0.67291000  0.30094000  1.0
  Zn  Zn2  1  0.78173000  0.67302000  0.80094000  1.0
  Zn  Zn3  1  0.10901000  0.32709000  0.69906000  1.0
  Zn  Zn4  1  0.77615000  0.29674000  0.12783000  1.0
  Zn  Zn5  1  0.47930000  0.70315000  0.37230000  1.0
  Zn  Zn6  1  0.22387000  0.70326000  0.87217000  1.0
  Zn  Zn7  1  0.52070000  0.29685000  0.62770000  1.0
  H  H8  1  0.18846000  0.16541000  0.24154000  1.0
  H  H9  1  0.02265000  0.83456000  0.25848000  1.0
  H  H10  1  0.81153000  0.83459000  0.75846000  1.0
  H  H11  1  0.97737000  0.16545000  0.74152000  1.0
  H  H12  1  0.28771000  0.15065000  0.17327000  1.0
  H  H13  1  0.13662000  0.84926000  0.32673000  1.0
  H  H14  1  0.71229000  0.84935000  0.82673000  1.0
  H  H15  1  0.86340000  0.15075000  0.67327000  1.0
  H  H16  1  0.99405000  0.32544000  0.49663000  1.0
  H  H17  1  0.66799000  0.67463000  0.00349000  1.0
  H  H18  1  0.00595000  0.67457000  0.50337000  1.0
  H  H19  1  0.33200000  0.32536000  0.99651000  1.0
  H  H20  1  0.94972000  0.42707000  0.59561000  1.0
  H  H21  1  0.52206000  0.57317000  0.90449000  1.0
  H  H22  1  0.05029000  0.57294000  0.40439000  1.0
  H  H23  1  0.47794000  0.42683000  0.09551000  1.0
  H  H24  1  0.10158000  0.48107000  0.31867000  1.0
  H  H25  1  0.62036000  0.51892000  0.18141000  1.0
  H  H26  1  0.89842000  0.51893000  0.68133000  1.0
  H  H27  1  0.37965000  0.48109000  0.81859000  1.0
  H  H28  1  0.03667000  0.23882000  0.40978000  1.0
  H  H29  1  0.79792000  0.76099000  0.09018000  1.0
  H  H30  1  0.96333000  0.76119000  0.59022000  1.0
  H  H31  1  0.20208000  0.23901000  0.90982000  1.0
  H  H32  1  0.48546000  0.05264000  0.96111000  1.0
  H  H33  1  0.43230000  0.94702000  0.53870000  1.0
  H  H34  1  0.51454000  0.94735000  0.03889000  1.0
  H  H35  1  0.56768000  0.05298000  0.46130000  1.0
  H  H36  1  0.25605000  0.97334000  0.87071000  1.0
  H  H37  1  0.28251000  0.02648000  0.62916000  1.0
  H  H38  1  0.74395000  0.02666000  0.12929000  1.0
  H  H39  1  0.71747000  0.97353000  0.37084000  1.0
  H  H40  1  0.94041000  0.00370000  0.87295000  1.0
  H  H41  1  0.93663000  0.99634000  0.62700000  1.0
  H  H42  1  0.05959000  0.99629000  0.12705000  1.0
  H  H43  1  0.06335000  0.00366000  0.37299000  1.0
  H  H44  1  0.85708000  0.11300000  0.96833000  1.0
  H  H45  1  0.74383000  0.88722000  0.53164000  1.0
  H  H46  1  0.14293000  0.88699000  0.03167000  1.0
  H  H47  1  0.25616000  0.11278000  0.46835000  1.0
  H  H48  1  0.49267000  0.45941000  0.45331000  1.0
  H  H49  1  0.03282000  0.54065000  0.04685000  1.0
  H  H50  1  0.50734000  0.54059000  0.54669000  1.0
  H  H51  1  0.96718000  0.45935000  0.95315000  1.0
  H  H52  1  0.47762000  0.29735000  0.48231000  1.0
  H  H53  1  0.18087000  0.70252000  0.01784000  1.0
  H  H54  1  0.52238000  0.70265000  0.51769000  1.0
  H  H55  1  0.81912000  0.29747000  0.98216000  1.0
  H  H56  1  0.52856000  0.15865000  0.40013000  1.0
  H  H57  1  0.37087000  0.84100000  0.09999000  1.0
  H  H58  1  0.47144000  0.84135000  0.59987000  1.0
  H  H59  1  0.62913000  0.15899000  0.90001000  1.0
  H  H60  1  0.59380000  0.18198000  0.29059000  1.0
  H  H61  1  0.41222000  0.81766000  0.20960000  1.0
  H  H62  1  0.40619000  0.81802000  0.70941000  1.0
  H  H63  1  0.58779000  0.18234000  0.79040000  1.0
  C  C64  1  0.02602000  0.44128000  0.44295000  1.0
  C  C65  1  0.58477000  0.55864000  0.05705000  1.0
  C  C66  1  0.97398000  0.55873000  0.55705000  1.0
  C  C67  1  0.41524000  0.44136000  0.94295000  1.0
  C  C68  1  0.99851000  0.40193000  0.49732000  1.0
  C  C69  1  0.59626000  0.59810000  0.00273000  1.0
  C  C70  1  0.00148000  0.59808000  0.50268000  1.0
  C  C71  1  0.40373000  0.40189000  0.99727000  1.0
  C  C72  1  0.97237000  0.46049000  0.55442000  1.0
  C  C73  1  0.51154000  0.53963000  0.94562000  1.0
  C  C74  1  0.02763000  0.53952000  0.44558000  1.0
  C  C75  1  0.48845000  0.46036000  0.05438000  1.0
  C  C76  1  0.09483000  0.40896000  0.32845000  1.0
  C  C77  1  0.68570000  0.59099000  0.17160000  1.0
  C  C78  1  0.90518000  0.59104000  0.67155000  1.0
  C  C79  1  0.31429000  0.40901000  0.82840000  1.0
  C  C80  1  0.06159000  0.28392000  0.37448000  1.0
  C  C81  1  0.77765000  0.71594000  0.12551000  1.0
  C  C82  1  0.93841000  0.71608000  0.62552000  1.0
  C  C83  1  0.22235000  0.28406000  0.87449000  1.0
  C  C84  1  0.12639000  0.14778000  0.01617000  1.0
  C  C85  1  0.97813000  0.85224000  0.48375000  1.0
  C  C86  1  0.87362000  0.85222000  0.98383000  1.0
  C  C87  1  0.02186000  0.14776000  0.51625000  1.0
  C  C88  1  0.30541000  0.13164000  0.01452000  1.0
  C  C89  1  0.17321000  0.86822000  0.48535000  1.0
  C  C90  1  0.69460000  0.86836000  0.98548000  1.0
  C  C91  1  0.82677000  0.13177000  0.51465000  1.0
  C  C92  1  0.34955000  0.06846000  0.96179000  1.0
  C  C93  1  0.28065000  0.93135000  0.53806000  1.0
  C  C94  1  0.65045000  0.93153000  0.03821000  1.0
  C  C95  1  0.71934000  0.06865000  0.46194000  1.0
  C  C96  1  0.21989000  0.02359000  0.91077000  1.0
  C  C97  1  0.19605000  0.97629000  0.58910000  1.0
  C  C98  1  0.78011000  0.97640000  0.08923000  1.0
  C  C99  1  0.80393000  0.02371000  0.41090000  1.0
  C  C100  1  0.04272000  0.04034000  0.91222000  1.0
  C  C101  1  0.00220000  0.95968000  0.58771000  1.0
  C  C102  1  0.95727000  0.95965000  0.08779000  1.0
  C  C103  1  0.99778000  0.04032000  0.41229000  1.0
  C  C104  1  0.99586000  0.10103000  0.96516000  1.0
  C  C105  1  0.89453000  0.89906000  0.53478000  1.0
  C  C106  1  0.00414000  0.89896000  0.03485000  1.0
  C  C107  1  0.10546000  0.10094000  0.46522000  1.0
  C  C108  1  0.07424000  0.21335000  0.07208000  1.0
  C  C109  1  0.86024000  0.78673000  0.42788000  1.0
  C  C110  1  0.92577000  0.78665000  0.92792000  1.0
  C  C111  1  0.13976000  0.21327000  0.57211000  1.0
  C  C112  1  0.44874000  0.17726000  0.06895000  1.0
  C  C113  1  0.27095000  0.82248000  0.43098000  1.0
  C  C114  1  0.55128000  0.82275000  0.93105000  1.0
  C  C115  1  0.72905000  0.17752000  0.56902000  1.0
  C  C116  1  0.57920000  0.33285000  0.31032000  1.0
  C  C117  1  0.24609000  0.66696000  0.18985000  1.0
  C  C118  1  0.42080000  0.66715000  0.68968000  1.0
  C  C119  1  0.75392000  0.33304000  0.81014000  1.0
  C  C120  1  0.55314000  0.41180000  0.35696000  1.0
  C  C121  1  0.14080000  0.58813000  0.14323000  1.0
  C  C122  1  0.44686000  0.58820000  0.64304000  1.0
  C  C123  1  0.85921000  0.41187000  0.85677000  1.0
  C  C124  1  0.51242000  0.39725000  0.41814000  1.0
  C  C125  1  0.11492000  0.60271000  0.08203000  1.0
  C  C126  1  0.48758000  0.60275000  0.58186000  1.0
  C  C127  1  0.88508000  0.39729000  0.91796000  1.0
  C  C128  1  0.50296000  0.30679000  0.43404000  1.0
  C  C129  1  0.19653000  0.69306000  0.06612000  1.0
  C  C130  1  0.49705000  0.69321000  0.56596000  1.0
  C  C131  1  0.80347000  0.30694000  0.93388000  1.0
  C  C132  1  0.53270000  0.22925000  0.38808000  1.0
  C  C133  1  0.30403000  0.77050000  0.11207000  1.0
  C  C134  1  0.46730000  0.77075000  0.61191000  1.0
  C  C135  1  0.69596000  0.22950000  0.88793000  1.0
  C  C136  1  0.57011000  0.24216000  0.32669000  1.0
  C  C137  1  0.32821000  0.75757000  0.17348000  1.0
  C  C138  1  0.42989000  0.75784000  0.67331000  1.0
  C  C139  1  0.67180000  0.24243000  0.82652000  1.0
  C  C140  1  0.61074000  0.33906000  0.24252000  1.0
  C  C141  1  0.27143000  0.66072000  0.25763000  1.0
  C  C142  1  0.38926000  0.66094000  0.75748000  1.0
  C  C143  1  0.72858000  0.33928000  0.74237000  1.0
  C  C144  1  0.58671000  0.51445000  0.34564000  1.0
  C  C145  1  0.07148000  0.48548000  0.15450000  1.0
  C  C146  1  0.41329000  0.48555000  0.65436000  1.0
  C  C147  1  0.92852000  0.51452000  0.84549000  1.0
  N  N148  1  0.12419333  0.33333333  0.28744000  1.0
  N  N149  1  0.79058000  0.66659000  0.21261000  1.0
  N  N150  1  0.87577000  0.66663000  0.71256000  1.0
  N  N151  1  0.20941000  0.33341000  0.78739000  1.0
  N  N152  1  0.10369000  0.25405000  0.31606000  1.0
  N  N153  1  0.84944000  0.74586000  0.18395000  1.0
  N  N154  1  0.89630000  0.74595000  0.68394000  1.0
  N  N155  1  0.15056000  0.25414000  0.81605000  1.0
  N  N156  1  0.05500000  0.38100000  0.38474000  1.0
  N  N157  1  0.67398000  0.61889000  0.11528000  1.0
  N  N158  1  0.94502000  0.61901000  0.61526000  1.0
  N  N159  1  0.32602000  0.38111000  0.88473000  1.0
  O  O160  1  0.20631000  0.28075000  0.10487000  1.0
  O  O161  1  0.92463000  0.71918000  0.39510000  1.0
  O  O162  1  0.79370000  0.71925000  0.89513000  1.0
  O  O163  1  0.07537000  0.28082000  0.60490000  1.0
  O  O164  1  0.90225000  0.19822000  0.08309000  1.0
  O  O165  1  0.70344000  0.80202000  0.41693000  1.0
  O  O166  1  0.09775000  0.80177000  0.91691000  1.0
  O  O167  1  0.29656000  0.19798000  0.58307000  1.0
  O  O168  1  0.57550000  0.25320000  0.06066000  1.0
  O  O169  1  0.32166000  0.74650000  0.43934000  1.0
  O  O170  1  0.42451000  0.74680000  0.93934000  1.0
  O  O171  1  0.67835000  0.25351000  0.56066000  1.0
  O  O172  1  0.44460000  0.13792000  0.11618000  1.0
  O  O173  1  0.30638000  0.86176000  0.38373000  1.0
  O  O174  1  0.55541000  0.86208000  0.88382000  1.0
  O  O175  1  0.69362000  0.13824000  0.61627000  1.0
  O  O176  1  0.50327000  0.37033000  0.21051000  1.0
  O  O177  1  0.13273000  0.62957000  0.28965000  1.0
  O  O178  1  0.49672000  0.62967000  0.78949000  1.0
  O  O179  1  0.86728000  0.37043000  0.71034000  1.0
  O  O180  1  0.74593000  0.30669000  0.21912000  1.0
  O  O181  1  0.43896000  0.69290000  0.28101000  1.0
  O  O182  1  0.25407000  0.69332000  0.78088000  1.0
  O  O183  1  0.56103000  0.30709000  0.71899000  1.0
  O  O184  1  0.71070000  0.54007000  0.30754000  1.0
  O  O185  1  0.16994000  0.45966000  0.19248000  1.0
  O  O186  1  0.28931000  0.45993000  0.69246000  1.0
  O  O187  1  0.83005000  0.54034000  0.80752000  1.0
  O  O188  1  0.49114000  0.56800000  0.37751000  1.0
  O  O189  1  0.92218000  0.43209000  0.12271000  1.0
  O  O190  1  0.50886000  0.43200000  0.62249000  1.0
  O  O191  1  0.07781000  0.56791000  0.87729000  1.0
  O  O192  1  0.18486000  0.17141000  0.19716000  1.0
  O  O193  1  0.01301000  0.82857000  0.30286000  1.0
  O  O194  1  0.81514000  0.82859000  0.80284000  1.0
  O  O195  1  0.98700000  0.17143000  0.69714000  1.0
