# generated using pymatgen
data_TbH10(CO)10
_symmetry_space_group_name_H-M   'P 1'
_cell_length_a   8.94582000
_cell_length_b   9.33293000
_cell_length_c   9.60954000
_cell_angle_alpha   83.81170000
_cell_angle_beta   65.97390000
_cell_angle_gamma   63.40750000
_symmetry_Int_Tables_number   1
_chemical_formula_structural   TbH10(CO)10
_chemical_formula_sum   'Tb2 H20 C20 O20'
_cell_volume   652.54612089
_cell_formula_units_Z   2
loop_
 _symmetry_equiv_pos_site_id
 _symmetry_equiv_pos_as_xyz
  1  'x, y, z'
loop_
 _atom_site_type_symbol
 _atom_site_label
 _atom_site_symmetry_multiplicity
 _atom_site_fract_x
 _atom_site_fract_y
 _atom_site_fract_z
 _atom_site_occupancy
  Tb  Tb0  1  0.24354000  0.50193000  0.54338000  1.0
  Tb  Tb1  1  0.75646000  0.49807000  0.45662000  1.0
  H  H2  1  0.94174000  0.42207000  0.72631000  1.0
  H  H3  1  0.05826000  0.57793000  0.27369000  1.0
  H  H4  1  0.05359000  0.38102000  0.82677000  1.0
  H  H5  1  0.94641000  0.61898000  0.17323000  1.0
  H  H6  1  0.33043000  0.59638000  0.77349000  1.0
  H  H7  1  0.66956000  0.40362000  0.22652000  1.0
  H  H8  1  0.11406000  0.65019000  0.86080000  1.0
  H  H9  1  0.88593000  0.34981000  0.13920000  1.0
  H  H10  1  0.31872000  0.64946000  0.01976000  1.0
  H  H11  1  0.68128000  0.35054000  0.98024000  1.0
  H  H12  1  0.16742000  0.91574000  0.42978000  1.0
  H  H13  1  0.83258000  0.08426000  0.57021000  1.0
  H  H14  1  0.41923000  0.06873000  0.40645000  1.0
  H  H15  1  0.58077000  0.93127000  0.59355000  1.0
  H  H16  1  0.11239000  0.01796000  0.79976000  1.0
  H  H17  1  0.88761000  0.98203000  0.20024000  1.0
  H  H18  1  0.24872000  0.28032000  0.06353000  1.0
  H  H19  1  0.75128000  0.71968000  0.93647000  1.0
  H  H20  1  0.51030000  0.20533000  0.13603000  1.0
  H  H21  1  0.48970000  0.79468000  0.86397000  1.0
  C  C22  1  0.36232000  0.52884000  0.21793000  1.0
  C  C23  1  0.63767000  0.47117000  0.78207000  1.0
  C  C24  1  0.41848000  0.54936000  0.05264000  1.0
  C  C25  1  0.58152000  0.45064000  0.94736000  1.0
  C  C26  1  0.44468000  0.77535000  0.42408000  1.0
  C  C27  1  0.55532000  0.22465000  0.57592000  1.0
  C  C28  1  0.28900000  0.92506000  0.41865000  1.0
  C  C29  1  0.71100000  0.07493000  0.58134000  1.0
  C  C30  1  0.29765000  0.06583000  0.40902000  1.0
  C  C31  1  0.70235000  0.93417000  0.59098000  1.0
  C  C32  1  0.14666000  0.22521000  0.41287000  1.0
  C  C33  1  0.85333000  0.77479000  0.58713000  1.0
  C  C34  1  0.19782000  0.08827000  0.91727000  1.0
  C  C35  1  0.80218000  0.91173000  0.08273000  1.0
  C  C36  1  0.35340000  0.04128000  0.96034000  1.0
  C  C37  1  0.64660000  0.95872000  0.03965000  1.0
  C  C38  1  0.35928000  0.15828000  0.03531000  1.0
  C  C39  1  0.64072000  0.84172000  0.96469000  1.0
  C  C40  1  0.50565000  0.11666000  0.07511000  1.0
  C  C41  1  0.49435000  0.88333000  0.92489000  1.0
  O  O42  1  0.46868000  0.41397000  0.26821000  1.0
  O  O43  1  0.53132000  0.58603000  0.73180000  1.0
  O  O44  1  0.20301000  0.62747000  0.30982000  1.0
  O  O45  1  0.79698000  0.37253000  0.69018000  1.0
  O  O46  1  0.41921000  0.65039000  0.47122000  1.0
  O  O47  1  0.58079000  0.34961000  0.52878000  1.0
  O  O48  1  0.60135000  0.76927000  0.38545000  1.0
  O  O49  1  0.39865000  0.23073000  0.61455000  1.0
  O  O50  1  0.01313000  0.23532000  0.38794000  1.0
  O  O51  1  0.98687000  0.76467000  0.61206000  1.0
  O  O52  1  0.15967000  0.34824000  0.44249000  1.0
  O  O53  1  0.84033000  0.65176000  0.55750000  1.0
  O  O54  1  0.00981000  0.46073000  0.75977000  1.0
  O  O55  1  0.99018000  0.53926000  0.24023000  1.0
  O  O56  1  0.22755000  0.57602000  0.77947000  1.0
  O  O57  1  0.77245000  0.42397000  0.22053000  1.0
  O  O58  1  0.05941000  0.21928000  0.95836000  1.0
  O  O59  1  0.94059000  0.78072000  0.04164000  1.0
  O  O60  1  0.21741000  0.97388000  0.82797000  1.0
  O  O61  1  0.78259000  0.02612000  0.17203000  1.0
