# generated using pymatgen
data_TlH7C8O3
_symmetry_space_group_name_H-M   'P 1'
_cell_length_a   7.46056000
_cell_length_b   10.36983751
_cell_length_c   11.84400000
_cell_angle_alpha   105.41740483
_cell_angle_beta   90.05030000
_cell_angle_gamma   110.98641211
_symmetry_Int_Tables_number   1
_chemical_formula_structural   TlH7C8O3
_chemical_formula_sum   'Tl4 H28 C32 O12'
_cell_volume   820.02580261
_cell_formula_units_Z   4
loop_
 _symmetry_equiv_pos_site_id
 _symmetry_equiv_pos_as_xyz
  1  'x, y, z'
loop_
 _atom_site_type_symbol
 _atom_site_label
 _atom_site_symmetry_multiplicity
 _atom_site_fract_x
 _atom_site_fract_y
 _atom_site_fract_z
 _atom_site_occupancy
  Tl  Tl0  1  0.75917000  0.03261000  0.58566000  1.0
  Tl  Tl1  1  0.27366000  0.03263000  0.08587000  1.0
  Tl  Tl2  1  0.24083000  0.96739000  0.41434000  1.0
  Tl  Tl3  1  0.72634000  0.96737000  0.91413000  1.0
  H  H4  1  0.15523000  0.31260000  0.00862000  1.0
  H  H5  1  0.15782000  0.31294000  0.50866000  1.0
  H  H6  1  0.84477000  0.68740000  0.99138000  1.0
  H  H7  1  0.84218000  0.68706000  0.49134000  1.0
  H  H8  1  0.76895000  0.44020000  0.21526000  1.0
  H  H9  1  0.67139000  0.44006000  0.71552000  1.0
  H  H10  1  0.23105000  0.55980000  0.78474000  1.0
  H  H11  1  0.32861000  0.55994000  0.28448000  1.0
  H  H12  1  0.88972000  0.54218000  0.12035000  1.0
  H  H13  1  0.65235000  0.54219000  0.62064000  1.0
  H  H14  1  0.11028000  0.45782000  0.87965000  1.0
  H  H15  1  0.34765000  0.45781000  0.37936000  1.0
  H  H16  1  0.90723000  0.37318000  0.10976000  1.0
  H  H17  1  0.46620000  0.37334000  0.60996000  1.0
  H  H18  1  0.09277000  0.62682000  0.89024000  1.0
  H  H19  1  0.53380000  0.62666000  0.39003000  1.0
  H  H20  1  0.78253000  0.28227000  0.89331000  1.0
  H  H21  1  0.49952000  0.28190000  0.39361000  1.0
  H  H22  1  0.21747000  0.71773000  0.10669000  1.0
  H  H23  1  0.50047000  0.71809000  0.60638000  1.0
  H  H24  1  0.44104000  0.41988000  0.15909000  1.0
  H  H25  1  0.97908000  0.41984000  0.65927000  1.0
  H  H26  1  0.55896000  0.58012000  0.84091000  1.0
  H  H27  1  0.02092000  0.58016000  0.34073000  1.0
  H  H28  1  0.36641000  0.12989000  0.68178000  1.0
  H  H29  1  0.76368000  0.13016000  0.18191000  1.0
  H  H30  1  0.63358000  0.87011000  0.31823000  1.0
  H  H31  1  0.23632000  0.86984000  0.81809000  1.0
  C  C32  1  0.29360000  0.30638000  0.98465000  1.0
  C  C33  1  0.01310000  0.30660000  0.48478000  1.0
  C  C34  1  0.70640000  0.69362000  0.01535000  1.0
  C  C35  1  0.98690000  0.69340000  0.51522000  1.0
  C  C36  1  0.13548000  0.17565000  0.77690000  1.0
  C  C37  1  0.04056000  0.17614000  0.27696000  1.0
  C  C38  1  0.86451000  0.82435000  0.22310000  1.0
  C  C39  1  0.95944000  0.82386000  0.72304000  1.0
  C  C40  1  0.63284000  0.35985000  0.03709000  1.0
  C  C41  1  0.72704000  0.35972000  0.53734000  1.0
  C  C42  1  0.36716000  0.64015000  0.96291000  1.0
  C  C43  1  0.27297000  0.64028000  0.46266000  1.0
  C  C44  1  0.80895000  0.43208000  0.12530000  1.0
  C  C45  1  0.62320000  0.43204000  0.62554000  1.0
  C  C46  1  0.19105000  0.56792000  0.87470000  1.0
  C  C47  1  0.37680000  0.56796000  0.37446000  1.0
  C  C48  1  0.48465000  0.22727000  0.83647000  1.0
  C  C49  1  0.74270000  0.22728000  0.33666000  1.0
  C  C50  1  0.51535000  0.77274000  0.16353000  1.0
  C  C51  1  0.25730000  0.77272000  0.66334000  1.0
  C  C52  1  0.64603000  0.28920000  0.92101000  1.0
  C  C53  1  0.64311000  0.28898000  0.42129000  1.0
  C  C54  1  0.35397000  0.71080000  0.07899000  1.0
  C  C55  1  0.35689000  0.71102000  0.57871000  1.0
  C  C56  1  0.30510000  0.23691000  0.86732000  1.0
  C  C57  1  0.93209000  0.23720000  0.36744000  1.0
  C  C58  1  0.69489000  0.76309000  0.13268000  1.0
  C  C59  1  0.06791000  0.76280000  0.63256000  1.0
  C  C60  1  0.45335000  0.36593000  0.06875000  1.0
  C  C61  1  0.91278000  0.36594000  0.56894000  1.0
  C  C62  1  0.54664000  0.63407000  0.93125000  1.0
  C  C63  1  0.08722000  0.63406000  0.43106000  1.0
  O  O64  1  0.16169000  0.12100000  0.66923000  1.0
  O  O65  1  0.95964000  0.12153000  0.16929000  1.0
  O  O66  1  0.83831000  0.87900000  0.33077000  1.0
  O  O67  1  0.04036000  0.87847000  0.83071000  1.0
  O  O68  1  0.97311000  0.17926000  0.80602000  1.0
  O  O69  1  0.20667000  0.17981000  0.30605000  1.0
  O  O70  1  0.02690000  0.82075000  0.19398000  1.0
  O  O71  1  0.79333000  0.82019000  0.69395000  1.0
  O  O72  1  0.50196000  0.15875000  0.72514000  1.0
  O  O73  1  0.65687000  0.15881000  0.22533000  1.0
  O  O74  1  0.49804000  0.84126000  0.27486000  1.0
  O  O75  1  0.34314000  0.84119000  0.77467000  1.0
