# generated using pymatgen
data_Zr3H33C42S10N3O16
_symmetry_space_group_name_H-M   'P 1'
_cell_length_a   11.41770000
_cell_length_b   20.53710000
_cell_length_c   33.49070000
_cell_angle_alpha   89.62730000
_cell_angle_beta   98.55070000
_cell_angle_gamma   89.90400000
_symmetry_Int_Tables_number   1
_chemical_formula_structural   Zr3H33C42S10N3O16
_chemical_formula_sum   'Zr6 H66 C84 S20 N6 O32'
_cell_volume   7765.63334068
_cell_formula_units_Z   2
loop_
 _symmetry_equiv_pos_site_id
 _symmetry_equiv_pos_as_xyz
  1  'x, y, z'
loop_
 _atom_site_type_symbol
 _atom_site_label
 _atom_site_symmetry_multiplicity
 _atom_site_fract_x
 _atom_site_fract_y
 _atom_site_fract_z
 _atom_site_occupancy
  Zr  Zr0  1  0.02334000  0.08385000  0.04453000  1.0
  Zr  Zr1  1  0.96476000  0.88354000  0.96339000  1.0
  Zr  Zr2  1  0.16527000  0.93094000  0.04726000  1.0
  Zr  Zr3  1  0.82690000  0.03436000  0.96011000  1.0
  Zr  Zr4  1  0.13765000  0.02875000  0.95475000  1.0
  Zr  Zr5  1  0.84869000  0.93755000  0.04922000  1.0
  H  H6  1  0.99086000  0.13320000  0.95560000  1.0
  H  H7  1  0.21208000  0.89652000  0.96465000  1.0
  H  H8  1  0.72478000  0.91221000  0.96893000  1.0
  H  H9  1  0.03132000  0.98469000  0.10742000  1.0
  H  H10  1  0.34960000  0.97935000  0.00251000  1.0
  H  H11  1  0.14115000  0.82297000  0.09622000  1.0
  H  H12  1  0.86872000  0.83863000  0.10379000  1.0
  H  H13  1  0.11391000  0.09015000  0.88244000  1.0
  H  H14  1  0.70528000  0.08278000  0.88360000  1.0
  H  H15  1  0.59714000  0.06636000  0.97795000  1.0
  H  H16  1  0.60241000  0.92091000  0.03557000  1.0
  H  H17  1  0.18941000  0.98019000  0.88389000  1.0
  H  H18  1  0.95843000  0.82253000  0.89009000  1.0
  H  H19  1  0.99675000  0.11345000  0.12265000  1.0
  H  H20  1  0.72084000  0.02118000  0.08899000  1.0
  H  H21  1  0.72700000  0.14005000  0.91586000  1.0
  H  H22  1  0.05696000  0.78780000  0.92233000  1.0
  H  H23  1  0.39327000  0.95033000  0.06116000  1.0
  H  H24  1  0.35544000  0.98803000  0.95448000  1.0
  H  H25  1  0.63669000  0.99768000  0.00061000  1.0
  H  H26  1  0.03748000  0.87187000  0.10432000  1.0
  H  H27  1  0.85410000  0.05188000  0.09937000  1.0
  H  H28  1  0.70877000  0.48624000  0.00053000  1.0
  H  H29  1  0.27964000  0.47628000  0.00925000  1.0
  H  H30  1  0.23712000  0.03055000  0.50698000  1.0
  H  H31  1  0.80476000  0.00013000  0.49011000  1.0
  H  H32  1  0.84832000  0.98306000  0.70144000  1.0
  H  H33  1  0.85381000  0.89157000  0.49136000  1.0
  H  H34  1  0.66169000  0.87823000  0.58110000  1.0
  H  H35  1  0.00534000  0.02469000  0.60757000  1.0
  H  H36  1  0.39774000  0.81804000  0.65298000  1.0
  H  H37  1  0.09172000  0.10439000  0.56502000  1.0
  H  H38  1  0.36046000  0.05020000  0.64987000  1.0
  H  H39  1  0.16705000  0.87822000  0.55993000  1.0
  H  H40  1  0.18521000  0.04944000  0.29459000  1.0
  H  H41  1  0.17981000  0.14394000  0.50217000  1.0
  H  H42  1  0.37327000  0.15421000  0.41281000  1.0
  H  H43  1  0.02948000  0.00777000  0.38881000  1.0
  H  H44  1  0.58750000  0.20194000  0.35706000  1.0
  H  H45  1  0.96333000  0.92608000  0.42908000  1.0
  H  H46  1  0.68042000  0.97485000  0.34866000  1.0
  H  H47  1  0.86371000  0.14935000  0.43843000  1.0
  H  H48  1  0.82533000  0.18555000  0.08274000  1.0
  H  H49  1  0.64208000  0.44026000  0.93312000  1.0
  H  H50  1  0.74651000  0.25798000  0.94144000  1.0
  H  H51  1  0.62831000  0.34608000  0.06665000  1.0
  H  H52  1  0.35778000  0.54679000  0.93133000  1.0
  H  H53  1  0.29931000  0.76784000  0.09242000  1.0
  H  H54  1  0.36243000  0.59532000  0.07025000  1.0
  H  H55  1  0.22110000  0.72045000  0.94597000  1.0
  H  H56  1  0.69224000  0.80688000  0.06948000  1.0
  H  H57  1  0.56789000  0.57604000  0.91441000  1.0
  H  H58  1  0.77783000  0.70317000  0.94991000  1.0
  H  H59  1  0.56289000  0.63103000  0.05930000  1.0
  H  H60  1  0.28079000  0.15958000  0.93472000  1.0
  H  H61  1  0.39297000  0.42562000  0.07652000  1.0
  H  H62  1  0.22730000  0.25379000  0.06098000  1.0
  H  H63  1  0.41717000  0.33556000  0.94753000  1.0
  H  H64  1  0.81377000  0.86452000  0.71673000  1.0
  H  H65  1  0.55521000  0.99749000  0.88646000  1.0
  H  H66  1  0.50954000  0.99049000  0.76756000  1.0
  H  H67  1  0.84308000  0.85713000  0.83360000  1.0
  H  H68  1  0.19198000  0.16298000  0.11983000  1.0
  H  H69  1  0.56424000  0.97444000  0.27029000  1.0
  H  H70  1  0.38736000  0.96150000  0.15960000  1.0
  H  H71  1  0.30813000  0.15656000  0.23651000  1.0
  C  C72  1  0.20754000  0.16866000  0.00336000  1.0
  C  C73  1  0.80462000  0.17723000  0.00289000  1.0
  C  C74  1  0.24778000  0.04121000  0.11422000  1.0
  C  C75  1  0.16848000  0.78165000  0.00989000  1.0
  C  C76  1  0.78641000  0.79298000  0.00498000  1.0
  C  C77  1  0.76004000  0.92851000  0.88708000  1.0
  C  C78  1  0.55992000  0.42345000  0.00371000  1.0
  C  C79  1  0.43793000  0.42031000  0.00648000  1.0
  C  C80  1  0.37417000  0.47843000  0.00745000  1.0
  C  C81  1  0.42822000  0.53915000  0.00536000  1.0
  C  C82  1  0.55040000  0.54227000  0.00244000  1.0
  C  C83  1  0.61400000  0.48410000  0.00179000  1.0
  C  C84  1  0.42218000  0.07016000  0.28358000  1.0
  C  C85  1  0.35739000  0.09666000  0.34289000  1.0
  C  C86  1  0.55356000  0.08171000  0.34061000  1.0
  C  C87  1  0.61657000  0.93201000  0.71401000  1.0
  C  C88  1  0.48041000  0.93828000  0.65766000  1.0
  C  C89  1  0.67540000  0.93174000  0.65141000  1.0
  C  C90  1  0.07391000  0.04243000  0.46606000  1.0
  C  C91  1  0.95044000  0.03192000  0.46167000  1.0
  C  C92  1  0.90070000  0.00559000  0.49387000  1.0
  C  C93  1  0.96793000  0.98755000  0.53078000  1.0
  C  C94  1  0.09152000  0.99770000  0.53527000  1.0
  C  C95  1  0.14132000  0.02445000  0.50310000  1.0
  C  C96  1  0.76603000  0.93777000  0.62488000  1.0
  C  C97  1  0.74059000  0.90861000  0.58681000  1.0
  C  C98  1  0.81072000  0.91770000  0.55657000  1.0
  C  C99  1  0.90507000  0.96335000  0.56345000  1.0
  C  C100  1  0.93281000  0.98997000  0.60199000  1.0
  C  C101  1  0.86903000  0.97663000  0.63372000  1.0
  C  C102  1  0.36021000  0.94881000  0.63436000  1.0
  C  C103  1  0.31712000  0.01248000  0.63015000  1.0
  C  C104  1  0.22571000  0.02940000  0.59908000  1.0
  C  C105  1  0.17489000  0.98072000  0.57239000  1.0
  C  C106  1  0.21050000  0.91601000  0.57955000  1.0
  C  C107  1  0.30333000  0.89918000  0.60998000  1.0
  C  C108  1  0.26653000  0.09470000  0.36948000  1.0
  C  C109  1  0.29463000  0.12357000  0.40769000  1.0
  C  C110  1  0.22844000  0.11333000  0.43884000  1.0
  C  C111  1  0.13429000  0.06737000  0.43287000  1.0
  C  C112  1  0.10225000  0.04229000  0.39414000  1.0
  C  C113  1  0.16199000  0.05660000  0.36143000  1.0
  C  C114  1  0.67239000  0.07547000  0.36492000  1.0
  C  C115  1  0.72159000  0.01296000  0.36854000  1.0
  C  C116  1  0.81585000  0.99775000  0.39877000  1.0
  C  C117  1  0.86507000  0.04756000  0.42489000  1.0
  C  C118  1  0.82278000  0.11112000  0.41862000  1.0
  C  C119  1  0.72561000  0.12626000  0.38936000  1.0
  C  C120  1  0.74432000  0.24129000  0.00473000  1.0
  C  C121  1  0.72027000  0.27764000  0.96900000  1.0
  C  C122  1  0.66564000  0.33868000  0.96772000  1.0
  C  C123  1  0.62967000  0.36246000  0.00345000  1.0
  C  C124  1  0.65593000  0.32667000  0.03924000  1.0
  C  C125  1  0.71500000  0.26649000  0.04117000  1.0
  C  C126  1  0.35621000  0.59938000  0.00598000  1.0
  C  C127  1  0.33109000  0.62300000  0.04281000  1.0
  C  C128  1  0.27472000  0.68286000  0.04622000  1.0
  C  C129  1  0.23358000  0.71818000  0.01052000  1.0
  C  C130  1  0.25421000  0.69324000  0.97340000  1.0
  C  C131  1  0.31649000  0.63524000  0.97050000  1.0
  C  C132  1  0.72558000  0.72914000  0.00651000  1.0
  C  C133  1  0.73039000  0.68661000  0.97397000  1.0
  C  C134  1  0.67488000  0.62620000  0.97088000  1.0
  C  C135  1  0.61263000  0.60559000  0.00230000  1.0
  C  C136  1  0.60928000  0.64706000  0.03484000  1.0
  C  C137  1  0.66188000  0.70891000  0.03776000  1.0
  C  C138  1  0.26951000  0.23232000  0.00242000  1.0
  C  C139  1  0.27011000  0.27243000  0.03627000  1.0
  C  C140  1  0.32425000  0.33338000  0.03942000  1.0
  C  C141  1  0.37754000  0.35644000  0.00655000  1.0
  C  C142  1  0.37616000  0.31702000  0.97276000  1.0
  C  C143  1  0.32560000  0.25474000  0.96980000  1.0
  C  C144  1  0.64938000  0.92575000  0.75818000  1.0
  C  C145  1  0.58448000  0.96213000  0.78259000  1.0
  C  C146  1  0.61366000  0.96464000  0.82465000  1.0
  C  C147  1  0.70958000  0.92565000  0.84324000  1.0
  C  C148  1  0.76953000  0.88657000  0.81888000  1.0
  C  C149  1  0.74475000  0.88615000  0.77676000  1.0
  C  C150  1  0.30467000  0.05514000  0.15637000  1.0
  C  C151  1  0.37371000  0.00505000  0.17677000  1.0
  C  C152  1  0.42208000  0.00827000  0.21751000  1.0
  C  C153  1  0.39287000  0.06329000  0.23934000  1.0
  C  C154  1  0.32737000  0.11414000  0.21911000  1.0
  C  C155  1  0.28551000  0.11302000  0.17761000  1.0
  S  S156  1  0.77244000  0.86909000  0.51335000  1.0
  S  S157  1  0.92003000  0.01610000  0.67943000  1.0
  S  S158  1  0.18184000  0.11194000  0.59565000  1.0
  S  S159  1  0.34882000  0.81695000  0.61374000  1.0
  S  S160  1  0.27170000  0.15945000  0.48293000  1.0
  S  S161  1  0.10347000  0.02102000  0.31542000  1.0
  S  S162  1  0.86369000  0.91579000  0.40271000  1.0
  S  S163  1  0.68084000  0.20833000  0.38649000  1.0
  S  S164  1  0.63393000  0.37789000  0.92011000  1.0
  S  S165  1  0.73599000  0.22694000  0.08846000  1.0
  S  S166  1  0.25830000  0.70673000  0.09593000  1.0
  S  S167  1  0.34203000  0.61067000  0.92209000  1.0
  S  S168  1  0.68610000  0.57832000  0.92747000  1.0
  S  S169  1  0.63756000  0.75240000  0.08071000  1.0
  S  S170  1  0.32487000  0.37540000  0.08532000  1.0
  S  S171  1  0.33833000  0.21389000  0.92473000  1.0
  S  S172  1  0.52510000  0.01897000  0.84811000  1.0
  S  S173  1  0.83184000  0.83246000  0.75277000  1.0
  S  S174  1  0.50499000  0.94090000  0.23886000  1.0
  S  S175  1  0.21300000  0.18467000  0.15848000  1.0
  N  N176  1  0.33096000  0.08646000  0.30284000  1.0
  N  N177  1  0.46990000  0.10298000  0.36140000  1.0
  N  N178  1  0.53383000  0.06053000  0.30209000  1.0
  N  N179  1  0.50173000  0.94093000  0.69821000  1.0
  N  N180  1  0.56250000  0.93041000  0.63328000  1.0
  N  N181  1  0.70570000  0.93017000  0.69189000  1.0
  O  O182  1  0.94652000  0.10642000  0.09694000  1.0
  O  O183  1  0.13953000  0.16139000  0.03038000  1.0
  O  O184  1  0.18151000  0.08474000  0.09492000  1.0
  O  O185  1  0.75984000  0.13706000  0.97559000  1.0
  O  O186  1  0.26339000  0.98473000  0.10008000  1.0
  O  O187  1  0.89684000  0.16719000  0.02811000  1.0
  O  O188  1  0.22268000  0.12511000  0.97780000  1.0
  O  O189  1  0.13054000  0.01908000  0.01953000  1.0
  O  O190  1  0.98546000  0.09411000  0.97187000  1.0
  O  O191  1  0.02319000  0.98354000  0.07813000  1.0
  O  O192  1  0.87397000  0.02925000  0.02087000  1.0
  O  O193  1  0.63474000  0.02483000  0.97371000  1.0
  O  O194  1  0.33915000  0.01148000  0.97848000  1.0
  O  O195  1  0.96746000  0.97927000  0.94525000  1.0
  O  O196  1  0.15142000  0.91795000  0.97740000  1.0
  O  O197  1  0.99151000  0.89897000  0.02285000  1.0
  O  O198  1  0.80001000  0.93185000  0.97964000  1.0
  O  O199  1  0.34413000  0.93091000  0.03807000  1.0
  O  O200  1  0.20166000  0.82195000  0.03778000  1.0
  O  O201  1  0.08502000  0.79140000  0.98046000  1.0
  O  O202  1  0.80377000  0.00993000  0.09757000  1.0
  O  O203  1  0.84482000  0.80316000  0.97573000  1.0
  O  O204  1  0.12757000  0.86863000  0.10227000  1.0
  O  O205  1  0.90374000  0.88125000  0.10113000  1.0
  O  O206  1  0.66057000  0.95574000  0.03829000  1.0
  O  O207  1  0.77677000  0.83508000  0.03244000  1.0
  O  O208  1  0.03141000  0.82922000  0.90895000  1.0
  O  O209  1  0.76402000  0.10302000  0.90425000  1.0
  O  O210  1  0.82690000  0.88249000  0.90278000  1.0
  O  O211  1  0.73528000  0.97940000  0.90585000  1.0
  O  O212  1  0.08206000  0.09071000  0.90767000  1.0
  O  O213  1  0.21878000  0.97828000  0.91254000  1.0
