# generated using pymatgen
data_NdH6C6(NO4)2
_symmetry_space_group_name_H-M   'P 1'
_cell_length_a   7.68013000
_cell_length_b   8.09943000
_cell_length_c   17.23690000
_cell_angle_alpha   89.99990000
_cell_angle_beta   90.00000000
_cell_angle_gamma   108.89300000
_symmetry_Int_Tables_number   1
_chemical_formula_structural   NdH6C6(NO4)2
_chemical_formula_sum   'Nd4 H24 C24 N8 O32'
_cell_volume   1014.45006400
_cell_formula_units_Z   4
loop_
 _symmetry_equiv_pos_site_id
 _symmetry_equiv_pos_as_xyz
  1  'x, y, z'
loop_
 _atom_site_type_symbol
 _atom_site_label
 _atom_site_symmetry_multiplicity
 _atom_site_fract_x
 _atom_site_fract_y
 _atom_site_fract_z
 _atom_site_occupancy
  Nd  Nd0  1  0.18521000  0.23732000  0.91671000  1.0
  Nd  Nd1  1  0.81480000  0.26269000  0.41671000  1.0
  Nd  Nd2  1  0.81479000  0.76268000  0.08329000  1.0
  Nd  Nd3  1  0.18521000  0.73732000  0.58329000  1.0
  H  H4  1  0.55229000  0.09555000  0.71702000  1.0
  H  H5  1  0.44771000  0.40446000  0.21702000  1.0
  H  H6  1  0.44771000  0.90445000  0.28297000  1.0
  H  H7  1  0.55228000  0.59555000  0.78297000  1.0
  H  H8  1  0.67935000  0.10542000  0.85415000  1.0
  H  H9  1  0.32064000  0.39459000  0.35415000  1.0
  H  H10  1  0.32064000  0.89459000  0.14584000  1.0
  H  H11  1  0.67936000  0.60541000  0.64584000  1.0
  H  H12  1  0.57240000  0.33847000  0.97238000  1.0
  H  H13  1  0.42760000  0.16152000  0.47238000  1.0
  H  H14  1  0.42760000  0.66153000  0.02762000  1.0
  H  H15  1  0.57240000  0.83847000  0.52762000  1.0
  H  H16  1  0.59298000  0.49736000  0.91867000  1.0
  H  H17  1  0.40702000  0.00264000  0.41866000  1.0
  H  H18  1  0.40702000  0.50264000  0.08133000  1.0
  H  H19  1  0.59299000  0.99736000  0.58133000  1.0
  H  H20  1  0.33482000  0.97471000  0.89931000  1.0
  H  H21  1  0.66517000  0.52529000  0.39931000  1.0
  H  H22  1  0.66517000  0.02529000  0.10069000  1.0
  H  H23  1  0.33483000  0.47471000  0.60069000  1.0
  H  H24  1  0.25241000  0.90916000  0.98080000  1.0
  H  H25  1  0.74760000  0.59084000  0.48080000  1.0
  H  H26  1  0.74758000  0.09084000  0.01920000  1.0
  H  H27  1  0.25242000  0.40916000  0.51920000  1.0
  C  C28  1  0.69312000  0.16875000  0.73392000  1.0
  C  C29  1  0.30687000  0.33125000  0.23392000  1.0
  C  C30  1  0.30688000  0.83125000  0.26608000  1.0
  C  C31  1  0.69312000  0.66875000  0.76608000  1.0
  C  C32  1  0.84116000  0.27986000  0.69233000  1.0
  C  C33  1  0.15884000  0.22014000  0.19233000  1.0
  C  C34  1  0.15885000  0.72014000  0.30767000  1.0
  C  C35  1  0.84115000  0.77985000  0.80767000  1.0
  C  C36  1  0.83596000  0.31895000  0.60854000  1.0
  C  C37  1  0.16404000  0.18105000  0.10854000  1.0
  C  C38  1  0.16404000  0.68105000  0.39146000  1.0
  C  C39  1  0.83595000  0.81895000  0.89146000  1.0
  C  C40  1  0.98699000  0.33652000  0.74767000  1.0
  C  C41  1  0.01301000  0.16348000  0.24767000  1.0
  C  C42  1  0.01301000  0.66348000  0.25233000  1.0
  C  C43  1  0.98699000  0.83652000  0.75233000  1.0
  C  C44  1  0.18521000  0.44872000  0.74588000  1.0
  C  C45  1  0.81479000  0.05128000  0.24588000  1.0
  C  C46  1  0.81479000  0.55129000  0.25412000  1.0
  C  C47  1  0.18520000  0.94871000  0.75412000  1.0
  C  C48  1  0.08691000  0.57818000  0.99029000  1.0
  C  C49  1  0.91309000  0.92182000  0.49029000  1.0
  C  C50  1  0.91308000  0.42182000  0.00971000  1.0
  C  C51  1  0.08692000  0.07818000  0.50971000  1.0
  N  N52  1  0.93006000  0.26153000  0.81675000  1.0
  N  N53  1  0.06994000  0.23847000  0.31675000  1.0
  N  N54  1  0.06994000  0.73848000  0.18325000  1.0
  N  N55  1  0.93006000  0.76152000  0.68325000  1.0
  N  N56  1  0.75309000  0.16489000  0.80715000  1.0
  N  N57  1  0.24691000  0.33511000  0.30715000  1.0
  N  N58  1  0.24691000  0.83511000  0.19285000  1.0
  N  N59  1  0.75309000  0.66489000  0.69285000  1.0
  O  O60  1  0.28333000  0.43009000  0.80248000  1.0
  O  O61  1  0.71666000  0.06991000  0.30248000  1.0
  O  O62  1  0.71667000  0.56990000  0.19752000  1.0
  O  O63  1  0.28333000  0.93009000  0.69752000  1.0
  O  O64  1  0.24676000  0.55479000  0.69046000  1.0
  O  O65  1  0.75324000  0.94521000  0.19046000  1.0
  O  O66  1  0.75325000  0.44522000  0.30954000  1.0
  O  O67  1  0.24675000  0.05478000  0.80954000  1.0
  O  O68  1  0.93682000  0.46424000  0.58197000  1.0
  O  O69  1  0.06317000  0.03576000  0.08197000  1.0
  O  O70  1  0.06318000  0.53576000  0.41803000  1.0
  O  O71  1  0.93682000  0.96424000  0.91803000  1.0
  O  O72  1  0.72758000  0.20381000  0.56433000  1.0
  O  O73  1  0.27244000  0.29619000  0.06433000  1.0
  O  O74  1  0.27243000  0.79619000  0.43567000  1.0
  O  O75  1  0.72757000  0.70381000  0.93567000  1.0
  O  O76  1  0.21476000  0.54827000  0.95300000  1.0
  O  O77  1  0.78524000  0.95173000  0.45300000  1.0
  O  O78  1  0.78524000  0.45173000  0.04701000  1.0
  O  O79  1  0.21476000  0.04827000  0.54701000  1.0
  O  O80  1  0.08773000  0.72675000  0.01434000  1.0
  O  O81  1  0.91227000  0.77325000  0.51435000  1.0
  O  O82  1  0.91227000  0.27325000  0.98566000  1.0
  O  O83  1  0.08773000  0.22675000  0.48565000  1.0
  O  O84  1  0.52455000  0.36943000  0.92369000  1.0
  O  O85  1  0.47545000  0.13057000  0.42369000  1.0
  O  O86  1  0.47545000  0.63057000  0.07631000  1.0
  O  O87  1  0.52455000  0.86943000  0.57631000  1.0
  O  O88  1  0.33603000  0.01327000  0.95329000  1.0
  O  O89  1  0.66397000  0.48673000  0.45329000  1.0
  O  O90  1  0.66396000  0.98673000  0.04671000  1.0
  O  O91  1  0.33604000  0.51327000  0.54671000  1.0
