# generated using pymatgen
data_CuH9C9SIN2
_symmetry_space_group_name_H-M   'P 1'
_cell_length_a   8.56463000
_cell_length_b   9.93579000
_cell_length_c   12.14830000
_cell_angle_alpha   91.69310000
_cell_angle_beta   89.99950000
_cell_angle_gamma   89.99940000
_symmetry_Int_Tables_number   1
_chemical_formula_structural   CuH9C9SIN2
_chemical_formula_sum   'Cu4 H36 C36 S4 I4 N8'
_cell_volume   1033.32485183
_cell_formula_units_Z   4
loop_
 _symmetry_equiv_pos_site_id
 _symmetry_equiv_pos_as_xyz
  1  'x, y, z'
loop_
 _atom_site_type_symbol
 _atom_site_label
 _atom_site_symmetry_multiplicity
 _atom_site_fract_x
 _atom_site_fract_y
 _atom_site_fract_z
 _atom_site_occupancy
  Cu  Cu0  1  0.11631000  0.40598000  0.03065000  1.0
  Cu  Cu1  1  0.38369000  0.90599000  0.53066000  1.0
  Cu  Cu2  1  0.88369000  0.59401000  0.96935000  1.0
  Cu  Cu3  1  0.61630000  0.09402000  0.46934000  1.0
  H  H4  1  0.85540000  0.21962000  0.98933000  1.0
  H  H5  1  0.64460000  0.71963000  0.48933000  1.0
  H  H6  1  0.14459000  0.78037000  0.01067000  1.0
  H  H7  1  0.35540000  0.28038000  0.51066000  1.0
  H  H8  1  0.74114000  0.01360000  0.06743000  1.0
  H  H9  1  0.75887000  0.51361000  0.56742000  1.0
  H  H10  1  0.25885000  0.98640000  0.93258000  1.0
  H  H11  1  0.24115000  0.48641000  0.43257000  1.0
  H  H12  1  0.89385000  0.89206000  0.21262000  1.0
  H  H13  1  0.60617000  0.39207000  0.71261000  1.0
  H  H14  1  0.10614000  0.10793000  0.78739000  1.0
  H  H15  1  0.39386000  0.60795000  0.28739000  1.0
  H  H16  1  0.15740000  0.98460000  0.26706000  1.0
  H  H17  1  0.34262000  0.48459000  0.76706000  1.0
  H  H18  1  0.84260000  0.01540000  0.73294000  1.0
  H  H19  1  0.65741000  0.51541000  0.23294000  1.0
  H  H20  1  0.69824000  0.68381000  0.81208000  1.0
  H  H21  1  0.80176000  0.18382000  0.31208000  1.0
  H  H22  1  0.30176000  0.31618000  0.18792000  1.0
  H  H23  1  0.19825000  0.81618000  0.68793000  1.0
  H  H24  1  0.66498000  0.82737000  0.73008000  1.0
  H  H25  1  0.83502000  0.32738000  0.23008000  1.0
  H  H26  1  0.33501000  0.17262000  0.26992000  1.0
  H  H27  1  0.16499000  0.67262000  0.76992000  1.0
  H  H28  1  0.28759000  0.21635000  0.94506000  1.0
  H  H29  1  0.21242000  0.71636000  0.44507000  1.0
  H  H30  1  0.71241000  0.78364000  0.05494000  1.0
  H  H31  1  0.78758000  0.28365000  0.55493000  1.0
  H  H32  1  0.48324000  0.17263000  0.90768000  1.0
  H  H33  1  0.01677000  0.67264000  0.40769000  1.0
  H  H34  1  0.51675000  0.82736000  0.09232000  1.0
  H  H35  1  0.98322000  0.32736000  0.59232000  1.0
  H  H36  1  0.69555000  0.34273000  0.93144000  1.0
  H  H37  1  0.80446000  0.84274000  0.43144000  1.0
  H  H38  1  0.30445000  0.65725000  0.06856000  1.0
  H  H39  1  0.19554000  0.15727000  0.56856000  1.0
  C  C40  1  0.91598000  0.16596000  0.05348000  1.0
  C  C41  1  0.58402000  0.66596000  0.55348000  1.0
  C  C42  1  0.08401000  0.83404000  0.94652000  1.0
  C  C43  1  0.41599000  0.33405000  0.44652000  1.0
  C  C44  1  0.85402000  0.04989000  0.09663000  1.0
  C  C45  1  0.64599000  0.54990000  0.59662000  1.0
  C  C46  1  0.14597000  0.95010000  0.90338000  1.0
  C  C47  1  0.35402000  0.45011000  0.40338000  1.0
  C  C48  1  0.93880000  0.98350000  0.17668000  1.0
  C  C49  1  0.56122000  0.48350000  0.67667000  1.0
  C  C50  1  0.06120000  0.01649000  0.82333000  1.0
  C  C51  1  0.43880000  0.51650000  0.32332000  1.0
  C  C52  1  0.08369000  0.03508000  0.20782000  1.0
  C  C53  1  0.41632000  0.53508000  0.70782000  1.0
  C  C54  1  0.91630000  0.96492000  0.79218000  1.0
  C  C55  1  0.58370000  0.46493000  0.29218000  1.0
  C  C56  1  0.13893000  0.15302000  0.16093000  1.0
  C  C57  1  0.36108000  0.65303000  0.66093000  1.0
  C  C58  1  0.86107000  0.84697000  0.83907000  1.0
  C  C59  1  0.63893000  0.34698000  0.33907000  1.0
  C  C60  1  0.29780000  0.20585000  0.18879000  1.0
  C  C61  1  0.20220000  0.70585000  0.68879000  1.0
  C  C62  1  0.70219000  0.79414000  0.81121000  1.0
  C  C63  1  0.79781000  0.29415000  0.31121000  1.0
  C  C64  1  0.41069000  0.22554000  0.96976000  1.0
  C  C65  1  0.08932000  0.72555000  0.46976000  1.0
  C  C66  1  0.58931000  0.77444000  0.03024000  1.0
  C  C67  1  0.91068000  0.27445000  0.53024000  1.0
  C  C68  1  0.45543000  0.36992000  0.98288000  1.0
  C  C69  1  0.04457000  0.86993000  0.48288000  1.0
  C  C70  1  0.54457000  0.63007000  0.01712000  1.0
  C  C71  1  0.95543000  0.13008000  0.51712000  1.0
  C  C72  1  0.39240000  0.58706000  0.03650000  1.0
  C  C73  1  0.10759000  0.08707000  0.53651000  1.0
  C  C74  1  0.60759000  0.41293000  0.96349000  1.0
  C  C75  1  0.89241000  0.91294000  0.46349000  1.0
  S  S76  1  0.44610000  0.13464000  0.09601000  1.0
  S  S77  1  0.05390000  0.63465000  0.59601000  1.0
  S  S78  1  0.55389000  0.86535000  0.90399000  1.0
  S  S79  1  0.94610000  0.36535000  0.40400000  1.0
  I  I80  1  0.00111000  0.59159000  0.17080000  1.0
  I  I81  1  0.49889000  0.09159000  0.67080000  1.0
  I  I82  1  0.99889000  0.40840000  0.82919000  1.0
  I  I83  1  0.50110000  0.90841000  0.32920000  1.0
  N  N84  1  0.05394000  0.22001000  0.08577000  1.0
  N  N85  1  0.44607000  0.72001000  0.58577000  1.0
  N  N86  1  0.94606000  0.77999000  0.91423000  1.0
  N  N87  1  0.55394000  0.27999000  0.41423000  1.0
  N  N88  1  0.34485000  0.45903000  0.01916000  1.0
  N  N89  1  0.15514000  0.95904000  0.51916000  1.0
  N  N90  1  0.65514000  0.54096000  0.98084000  1.0
  N  N91  1  0.84485000  0.04097000  0.48084000  1.0
