# generated using pymatgen
data_SrH2(CO2)2
_symmetry_space_group_name_H-M   'P 1'
_cell_length_a   7.20933000
_cell_length_b   7.20938000
_cell_length_c   9.31180000
_cell_angle_alpha   89.99920000
_cell_angle_beta   89.99980000
_cell_angle_gamma   89.95510000
_symmetry_Int_Tables_number   1
_chemical_formula_structural   SrH2(CO2)2
_chemical_formula_sum   'Sr4 H8 C8 O16'
_cell_volume   483.97878947
_cell_formula_units_Z   4
loop_
 _symmetry_equiv_pos_site_id
 _symmetry_equiv_pos_as_xyz
  1  'x, y, z'
loop_
 _atom_site_type_symbol
 _atom_site_label
 _atom_site_symmetry_multiplicity
 _atom_site_fract_x
 _atom_site_fract_y
 _atom_site_fract_z
 _atom_site_occupancy
  Sr  Sr0  1  0.71269000  0.28730000  0.50001000  1.0
  Sr  Sr1  1  0.21226000  0.21227000  0.74999000  1.0
  Sr  Sr2  1  0.28731000  0.71270000  0.00000000  1.0
  Sr  Sr3  1  0.78774000  0.78773000  0.25000000  1.0
  H  H4  1  0.88864000  0.31103000  0.06951000  1.0
  H  H5  1  0.18866000  0.38845000  0.31902000  1.0
  H  H6  1  0.11135000  0.68897000  0.56950000  1.0
  H  H7  1  0.81135000  0.61157000  0.81902000  1.0
  H  H8  1  0.68898000  0.11135000  0.93051000  1.0
  H  H9  1  0.61156000  0.81132000  0.68098000  1.0
  H  H10  1  0.31102000  0.88863000  0.43050000  1.0
  H  H11  1  0.38841000  0.18866000  0.18098000  1.0
  C  C12  1  0.81926000  0.29428000  0.17509000  1.0
  C  C13  1  0.20611000  0.31897000  0.42447000  1.0
  C  C14  1  0.18074000  0.70573000  0.67506000  1.0
  C  C15  1  0.79390000  0.68105000  0.92447000  1.0
  C  C16  1  0.70572000  0.18073000  0.82495000  1.0
  C  C17  1  0.68105000  0.79388000  0.57551000  1.0
  C  C18  1  0.29427000  0.81926000  0.32495000  1.0
  C  C19  1  0.31894000  0.20610000  0.07551000  1.0
  O  O20  1  0.78158000  0.43962000  0.24630000  1.0
  O  O21  1  0.06109000  0.28088000  0.49602000  1.0
  O  O22  1  0.21843000  0.56039000  0.74629000  1.0
  O  O23  1  0.93891000  0.71915000  0.99601000  1.0
  O  O24  1  0.56039000  0.21841000  0.75373000  1.0
  O  O25  1  0.71911000  0.93890000  0.50396000  1.0
  O  O26  1  0.43962000  0.78157000  0.25371000  1.0
  O  O27  1  0.28087000  0.06111000  0.00397000  1.0
  O  O28  1  0.78326000  0.13189000  0.21874000  1.0
  O  O29  1  0.36875000  0.28326000  0.46770000  1.0
  O  O30  1  0.21676000  0.86812000  0.71870000  1.0
  O  O31  1  0.63126000  0.71676000  0.96769000  1.0
  O  O32  1  0.86811000  0.21675000  0.78129000  1.0
  O  O33  1  0.71676000  0.63123000  0.53230000  1.0
  O  O34  1  0.13189000  0.78324000  0.28129000  1.0
  O  O35  1  0.28324000  0.36876000  0.03229000  1.0
