# generated using pymatgen
data_CdH10(C5O2)3
_symmetry_space_group_name_H-M   'P 1'
_cell_length_a   7.03125000
_cell_length_b   12.42990000
_cell_length_c   15.53108443
_cell_angle_alpha   90.00001889
_cell_angle_beta   76.90384820
_cell_angle_gamma   89.99960000
_symmetry_Int_Tables_number   1
_chemical_formula_structural   CdH10(C5O2)3
_chemical_formula_sum   'Cd4 H40 C60 O24'
_cell_volume   1322.07770829
_cell_formula_units_Z   4
loop_
 _symmetry_equiv_pos_site_id
 _symmetry_equiv_pos_as_xyz
  1  'x, y, z'
loop_
 _atom_site_type_symbol
 _atom_site_label
 _atom_site_symmetry_multiplicity
 _atom_site_fract_x
 _atom_site_fract_y
 _atom_site_fract_z
 _atom_site_occupancy
  Cd  Cd0  1  0.31582000  0.19301000  0.20030000  1.0
  Cd  Cd1  1  0.51551000  0.80727000  0.79973000  1.0
  Cd  Cd2  1  0.01552000  0.69273000  0.79973000  1.0
  Cd  Cd3  1  0.81581000  0.30699000  0.20031000  1.0
  H  H4  1  0.31329000  0.12700000  0.88991000  1.0
  H  H5  1  0.20186000  0.87279000  0.11006000  1.0
  H  H6  1  0.70186000  0.62722000  0.11007000  1.0
  H  H7  1  0.81330000  0.37301000  0.88991000  1.0
  H  H8  1  0.15582000  0.11289000  0.76357000  1.0
  H  H9  1  0.91796000  0.88701000  0.23641000  1.0
  H  H10  1  0.41795000  0.61299000  0.23641000  1.0
  H  H11  1  0.65582000  0.38711000  0.76357000  1.0
  H  H12  1  0.58877000  0.10972000  0.94386000  1.0
  H  H13  1  0.53136000  0.89051000  0.05617000  1.0
  H  H14  1  0.03136000  0.60949000  0.05617000  1.0
  H  H15  1  0.08878000  0.39027000  0.94386000  1.0
  H  H16  1  0.74789000  0.12882000  0.06946000  1.0
  H  H17  1  0.81591000  0.87112000  0.93055000  1.0
  H  H18  1  0.31591000  0.62888000  0.93055000  1.0
  H  H19  1  0.24790000  0.37117000  0.06946000  1.0
  H  H20  1  0.83535000  0.25170000  0.64618000  1.0
  H  H21  1  0.47863000  0.74855000  0.35391000  1.0
  H  H22  1  0.97865000  0.75144000  0.35390000  1.0
  H  H23  1  0.33534000  0.24831000  0.64619000  1.0
  H  H24  1  0.05751000  0.24536000  0.49639000  1.0
  H  H25  1  0.55159000  0.75451000  0.50363000  1.0
  H  H26  1  0.05160000  0.74549000  0.50362000  1.0
  H  H27  1  0.55751000  0.25463000  0.49639000  1.0
  H  H28  1  0.24252000  0.07838000  0.44470000  1.0
  H  H29  1  0.68631000  0.92114000  0.55519000  1.0
  H  H30  1  0.18631000  0.57885000  0.55519000  1.0
  H  H31  1  0.74253000  0.42161000  0.44470000  1.0
  H  H32  1  0.20299000  0.91692000  0.54265000  1.0
  H  H33  1  0.74580000  0.08259000  0.45722000  1.0
  H  H34  1  0.24580000  0.41740000  0.45721000  1.0
  H  H35  1  0.70299000  0.58307000  0.54265000  1.0
  H  H36  1  0.01977000  0.08006000  0.30947000  1.0
  H  H37  1  0.32919000  0.92147000  0.69081000  1.0
  H  H38  1  0.82919000  0.57855000  0.69081000  1.0
  H  H39  1  0.51977000  0.41995000  0.30948000  1.0
  H  H40  1  0.19744000  0.99434000  0.27931000  1.0
  H  H41  1  0.47782000  0.00645000  0.72088000  1.0
  H  H42  1  0.97781000  0.49356000  0.72088000  1.0
  H  H43  1  0.69745000  0.50567000  0.27931000  1.0
  C  C44  1  0.13813000  0.14378000  0.06295000  1.0
  C  C45  1  0.19997000  0.85624000  0.93699000  1.0
  C  C46  1  0.69996000  0.64376000  0.93699000  1.0
  C  C47  1  0.63813000  0.35622000  0.06295000  1.0
  C  C48  1  0.04036000  0.13154000  0.98779000  1.0
  C  C49  1  0.02691000  0.86844000  0.01216000  1.0
  C  C50  1  0.52691000  0.63156000  0.01216000  1.0
  C  C51  1  0.54037000  0.36846000  0.98779000  1.0
  C  C52  1  0.15490000  0.12472000  0.90145000  1.0
  C  C53  1  0.05506000  0.87519000  0.09851000  1.0
  C  C54  1  0.55507000  0.62481000  0.09851000  1.0
  C  C55  1  0.65491000  0.37528000  0.90145000  1.0
  C  C56  1  0.06570000  0.11565000  0.83059000  1.0
  C  C57  1  0.89500000  0.88429000  0.16939000  1.0
  C  C58  1  0.39500000  0.61571000  0.16939000  1.0
  C  C59  1  0.56570000  0.38435000  0.83059000  1.0
  C  C60  1  0.86105000  0.11065000  0.84460000  1.0
  C  C61  1  0.70442000  0.88943000  0.15539000  1.0
  C  C62  1  0.20441000  0.61057000  0.15539000  1.0
  C  C63  1  0.36105000  0.38936000  0.84460000  1.0
  C  C64  1  0.74706000  0.11612000  0.93140000  1.0
  C  C65  1  0.67717000  0.88398000  0.06862000  1.0
  C  C66  1  0.17717000  0.61601000  0.06862000  1.0
  C  C67  1  0.24706000  0.38388000  0.93140000  1.0
  C  C68  1  0.83627000  0.12724000  0.00213000  1.0
  C  C69  1  0.83711000  0.87279000  0.99785000  1.0
  C  C70  1  0.33711000  0.62721000  0.99785000  1.0
  C  C71  1  0.33627000  0.37276000  0.00213000  1.0
  C  C72  1  0.76516000  0.09870000  0.76948000  1.0
  C  C73  1  0.53348000  0.90148000  0.23052000  1.0
  C  C74  1  0.03348000  0.59851000  0.23052000  1.0
  C  C75  1  0.26515000  0.40130000  0.76949000  1.0
  C  C76  1  0.89329000  0.08804000  0.67822000  1.0
  C  C77  1  0.57045000  0.91192000  0.32175000  1.0
  C  C78  1  0.07045000  0.58807000  0.32175000  1.0
  C  C79  1  0.39327000  0.41196000  0.67823000  1.0
  C  C80  1  0.91525000  0.17825000  0.62291000  1.0
  C  C81  1  0.53617000  0.82178000  0.37711000  1.0
  C  C82  1  0.03617000  0.67821000  0.37711000  1.0
  C  C83  1  0.41524000  0.32176000  0.62292000  1.0
  C  C84  1  0.04134000  0.17490000  0.53931000  1.0
  C  C85  1  0.57875000  0.82496000  0.46069000  1.0
  C  C86  1  0.07874000  0.67503000  0.46069000  1.0
  C  C87  1  0.54133000  0.32509000  0.53932000  1.0
  C  C88  1  0.14699000  0.08145000  0.51040000  1.0
  C  C89  1  0.65629000  0.91821000  0.48954000  1.0
  C  C90  1  0.15628000  0.58178000  0.48954000  1.0
  C  C91  1  0.64699000  0.41854000  0.51040000  1.0
  C  C92  1  0.12369000  0.99092000  0.56473000  1.0
  C  C93  1  0.68804000  0.00871000  0.43520000  1.0
  C  C94  1  0.18803000  0.49128000  0.43520000  1.0
  C  C95  1  0.62369000  0.50907000  0.56473000  1.0
  C  C96  1  0.99665000  0.99308000  0.64851000  1.0
  C  C97  1  0.64487000  0.00667000  0.35142000  1.0
  C  C98  1  0.14487000  0.49333000  0.35142000  1.0
  C  C99  1  0.49664000  0.50692000  0.64851000  1.0
  C  C100  1  0.96775000  0.89419000  0.70512000  1.0
  C  C101  1  0.67347000  0.10549000  0.29479000  1.0
  C  C102  1  0.17349000  0.39451000  0.29478000  1.0
  C  C103  1  0.46775000  0.60581000  0.70512000  1.0
  O  O104  1  0.03805000  0.17987000  0.13791000  1.0
  O  O105  1  0.17507000  0.82007000  0.86203000  1.0
  O  O106  1  0.67507000  0.67993000  0.86203000  1.0
  O  O107  1  0.53805000  0.32013000  0.13791000  1.0
  O  O108  1  0.31627000  0.12061000  0.05445000  1.0
  O  O109  1  0.36949000  0.87956000  0.94556000  1.0
  O  O110  1  0.86949000  0.62044000  0.94556000  1.0
  O  O111  1  0.81627000  0.37940000  0.05445000  1.0
  O  O112  1  0.58510000  0.10623000  0.77869000  1.0
  O  O113  1  0.36253000  0.89427000  0.22139000  1.0
  O  O114  1  0.86253000  0.60573000  0.22139000  1.0
  O  O115  1  0.08511000  0.39377000  0.77869000  1.0
  O  O116  1  0.82004000  0.89028000  0.76999000  1.0
  O  O117  1  0.59067000  0.10981000  0.22995000  1.0
  O  O118  1  0.09067000  0.39019000  0.22995000  1.0
  O  O119  1  0.32005000  0.60973000  0.76999000  1.0
  O  O120  1  0.09617000  0.81982000  0.68634000  1.0
  O  O121  1  0.78387000  0.17953000  0.31351000  1.0
  O  O122  1  0.28388000  0.32047000  0.31350000  1.0
  O  O123  1  0.59618000  0.68018000  0.68634000  1.0
  O  O124  1  0.16024000  0.06761000  0.30259000  1.0
  O  O125  1  0.46285000  0.93322000  0.69771000  1.0
  O  O126  1  0.96285000  0.56679000  0.69771000  1.0
  O  O127  1  0.66024000  0.43239000  0.30259000  1.0
