# generated using pymatgen
data_AlH7C12O7
_symmetry_space_group_name_H-M   'P 1'
_cell_length_a   6.62007000
_cell_length_b   14.89380000
_cell_length_c   15.15460000
_cell_angle_alpha   89.99590000
_cell_angle_beta   91.25820000
_cell_angle_gamma   89.54170000
_symmetry_Int_Tables_number   1
_chemical_formula_structural   AlH7C12O7
_chemical_formula_sum   'Al4 H28 C48 O28'
_cell_volume   1493.80513154
_cell_formula_units_Z   4
loop_
 _symmetry_equiv_pos_site_id
 _symmetry_equiv_pos_as_xyz
  1  'x, y, z'
loop_
 _atom_site_type_symbol
 _atom_site_label
 _atom_site_symmetry_multiplicity
 _atom_site_fract_x
 _atom_site_fract_y
 _atom_site_fract_z
 _atom_site_occupancy
  Al  Al0  1  0.02863000  0.00562000  0.50127000  1.0
  Al  Al1  1  0.53077000  0.00840000  0.50632000  1.0
  Al  Al2  1  0.97328000  0.50098000  0.00538000  1.0
  Al  Al3  1  0.47238000  0.50917000  0.00676000  1.0
  H  H4  1  0.78697000  0.12208000  0.52569000  1.0
  H  H5  1  0.29006000  0.89234000  0.48316000  1.0
  H  H6  1  0.72025000  0.38962000  0.03017000  1.0
  H  H7  1  0.20462000  0.62054000  0.98141000  1.0
  H  H8  1  0.86607000  0.43693000  0.78451000  1.0
  H  H9  1  0.62427000  0.43477000  0.66017000  1.0
  H  H10  1  0.98480000  0.23567000  0.53085000  1.0
  H  H11  1  0.68706000  0.33538000  0.52968000  1.0
  H  H12  1  0.41669000  0.55690000  0.22585000  1.0
  H  H13  1  0.16377000  0.56010000  0.34206000  1.0
  H  H14  1  0.47547000  0.77836000  0.46862000  1.0
  H  H15  1  0.19514000  0.67117000  0.46522000  1.0
  H  H16  1  0.03204000  0.55787000  0.80291000  1.0
  H  H17  1  0.32062000  0.55731000  0.70474000  1.0
  H  H18  1  0.12549000  0.81184000  0.59889000  1.0
  H  H19  1  0.37180000  0.68765000  0.60343000  1.0
  H  H20  1  0.95660000  0.27248000  0.03856000  1.0
  H  H21  1  0.70576000  0.15254000  0.03376000  1.0
  H  H22  1  0.96881000  0.03726000  0.26966000  1.0
  H  H23  1  0.70867000  0.03445000  0.15168000  1.0
  H  H24  1  0.59103000  0.13732000  0.67499000  1.0
  H  H25  1  0.53936000  0.34964000  0.88644000  1.0
  H  H26  1  0.08063000  0.88117000  0.33290000  1.0
  H  H27  1  0.06534000  0.65595000  0.13435000  1.0
  H  H28  1  0.46891000  0.91780000  0.69029000  1.0
  H  H29  1  0.40758000  0.68820000  0.88106000  1.0
  H  H30  1  0.60162000  0.15627000  0.36757000  1.0
  H  H31  1  0.55375000  0.39058000  0.17741000  1.0
  C  C32  1  0.27422000  0.09836000  0.36847000  1.0
  C  C33  1  0.27326000  0.13518000  0.60446000  1.0
  C  C34  1  0.78285000  0.90305000  0.62976000  1.0
  C  C35  1  0.77526000  0.87765000  0.40297000  1.0
  C  C36  1  0.23869000  0.38022000  0.11061000  1.0
  C  C37  1  0.21329000  0.40356000  0.87681000  1.0
  C  C38  1  0.72042000  0.61860000  0.88874000  1.0
  C  C39  1  0.73415000  0.60357000  0.13490000  1.0
  C  C40  1  0.22785000  0.34401000  0.79944000  1.0
  C  C41  1  0.06943000  0.33726000  0.73184000  1.0
  C  C42  1  0.40524000  0.29199000  0.79258000  1.0
  C  C43  1  0.89397000  0.39251000  0.72949000  1.0
  C  C44  1  0.75695000  0.39088000  0.65934000  1.0
  C  C45  1  0.26588000  0.21431000  0.66253000  1.0
  C  C46  1  0.42275000  0.22545000  0.72443000  1.0
  C  C47  1  0.09453000  0.27481000  0.66093000  1.0
  C  C48  1  0.95575000  0.27723000  0.58833000  1.0
  C  C49  1  0.78999000  0.33429000  0.58691000  1.0
  C  C50  1  0.74595000  0.66398000  0.21209000  1.0
  C  C51  1  0.58920000  0.66924000  0.27666000  1.0
  C  C52  1  0.91675000  0.71818000  0.21953000  1.0
  C  C53  1  0.42851000  0.60694000  0.27781000  1.0
  C  C54  1  0.28668000  0.60844000  0.34333000  1.0
  C  C55  1  0.76813000  0.79890000  0.34475000  1.0
  C  C56  1  0.92554000  0.78783000  0.28491000  1.0
  C  C57  1  0.60296000  0.73553000  0.34513000  1.0
  C  C58  1  0.45902000  0.73273000  0.41300000  1.0
  C  C59  1  0.30323000  0.67134000  0.41200000  1.0
  C  C60  1  0.73453000  0.68293000  0.81511000  1.0
  C  C61  1  0.90784000  0.68489000  0.75859000  1.0
  C  C62  1  0.58101000  0.74690000  0.80492000  1.0
  C  C63  1  0.05138000  0.61393000  0.75860000  1.0
  C  C64  1  0.21394000  0.61353000  0.70312000  1.0
  C  C65  1  0.77430000  0.82675000  0.69172000  1.0
  C  C66  1  0.60112000  0.81969000  0.74355000  1.0
  C  C67  1  0.93002000  0.75750000  0.69740000  1.0
  C  C68  1  0.10181000  0.75587000  0.64296000  1.0
  C  C69  1  0.24080000  0.68601000  0.64576000  1.0
  C  C70  1  0.25632000  0.29813000  0.16367000  1.0
  C  C71  1  0.10385000  0.22881000  0.16044000  1.0
  C  C72  1  0.42615000  0.28823000  0.22017000  1.0
  C  C73  1  0.95556000  0.22366000  0.09178000  1.0
  C  C74  1  0.81517000  0.15539000  0.08853000  1.0
  C  C75  1  0.27522000  0.15700000  0.28998000  1.0
  C  C76  1  0.43857000  0.21526000  0.28217000  1.0
  C  C77  1  0.11076000  0.15919000  0.22564000  1.0
  C  C78  1  0.96404000  0.09055000  0.22079000  1.0
  C  C79  1  0.81806000  0.08882000  0.15419000  1.0
  O  O80  1  0.10700000  0.07705000  0.40181000  1.0
  O  O81  1  0.44908000  0.10465000  0.58278000  1.0
  O  O82  1  0.61355000  0.94553000  0.61264000  1.0
  O  O83  1  0.94903000  0.91610000  0.41622000  1.0
  O  O84  1  0.94644000  0.92550000  0.59388000  1.0
  O  O85  1  0.61532000  0.90819000  0.43742000  1.0
  O  O86  1  0.44847000  0.07567000  0.40280000  1.0
  O  O87  1  0.10940000  0.09764000  0.58071000  1.0
  O  O88  1  0.77882000  0.06368000  0.49716000  1.0
  O  O89  1  0.28216000  0.95157000  0.50975000  1.0
  O  O90  1  0.06866000  0.40620000  0.07868000  1.0
  O  O91  1  0.38140000  0.42367000  0.91812000  1.0
  O  O92  1  0.54359000  0.59348000  0.91422000  1.0
  O  O93  1  0.90349000  0.57168000  0.10719000  1.0
  O  O94  1  0.88261000  0.59288000  0.92753000  1.0
  O  O95  1  0.56438000  0.58870000  0.09709000  1.0
  O  O96  1  0.40215000  0.42644000  0.09890000  1.0
  O  O97  1  0.04310000  0.43162000  0.90314000  1.0
  O  O98  1  0.71991000  0.44847000  0.00253000  1.0
  O  O99  1  0.21934000  0.56191000  0.00875000  1.0
  O  O100  1  0.59228000  0.17539000  0.72866000  1.0
  O  O101  1  0.56526000  0.29613000  0.84790000  1.0
  O  O102  1  0.08898000  0.84003000  0.28112000  1.0
  O  O103  1  0.07705000  0.71371000  0.16692000  1.0
  O  O104  1  0.44487000  0.87707000  0.74175000  1.0
  O  O105  1  0.41027000  0.74747000  0.85130000  1.0
  O  O106  1  0.60741000  0.21308000  0.33281000  1.0
  O  O107  1  0.58182000  0.34521000  0.22478000  1.0
