# generated using pymatgen
data_CaH11C15SO6
_symmetry_space_group_name_H-M   'P 1'
_cell_length_a   5.45148000
_cell_length_b   11.82630000
_cell_length_c   23.08040000
_cell_angle_alpha   75.30800000
_cell_angle_beta   90.00080000
_cell_angle_gamma   90.00020000
_symmetry_Int_Tables_number   1
_chemical_formula_structural   CaH11C15SO6
_chemical_formula_sum   'Ca4 H44 C60 S4 O24'
_cell_volume   1439.35943519
_cell_formula_units_Z   4
loop_
 _symmetry_equiv_pos_site_id
 _symmetry_equiv_pos_as_xyz
  1  'x, y, z'
loop_
 _atom_site_type_symbol
 _atom_site_label
 _atom_site_symmetry_multiplicity
 _atom_site_fract_x
 _atom_site_fract_y
 _atom_site_fract_z
 _atom_site_occupancy
  Ca  Ca0  1  0.20448000  0.62702000  0.78122000  1.0
  Ca  Ca1  1  0.70447000  0.87303000  0.71878000  1.0
  Ca  Ca2  1  0.79554000  0.37298000  0.21878000  1.0
  Ca  Ca3  1  0.29552000  0.12696000  0.28123000  1.0
  H  H4  1  0.70140000  0.15609000  0.89259000  1.0
  H  H5  1  0.20141000  0.34393000  0.60741000  1.0
  H  H6  1  0.29861000  0.84391000  0.10741000  1.0
  H  H7  1  0.79858000  0.65608000  0.39259000  1.0
  H  H8  1  0.72614000  0.23097000  0.00790000  1.0
  H  H9  1  0.22614000  0.26905000  0.49211000  1.0
  H  H10  1  0.27386000  0.76903000  0.99211000  1.0
  H  H11  1  0.77386000  0.73095000  0.50790000  1.0
  H  H12  1  0.36756000  0.34388000  0.82738000  1.0
  H  H13  1  0.86764000  0.15618000  0.67260000  1.0
  H  H14  1  0.63246000  0.65613000  0.17260000  1.0
  H  H15  1  0.13231000  0.84381000  0.32741000  1.0
  H  H16  1  0.37121000  0.43569000  0.94523000  1.0
  H  H17  1  0.87123000  0.06432000  0.55477000  1.0
  H  H18  1  0.62876000  0.56432000  0.05476000  1.0
  H  H19  1  0.12876000  0.93567000  0.44523000  1.0
  H  H20  1  0.86580000  0.20440000  0.11355000  1.0
  H  H21  1  0.36578000  0.29558000  0.38646000  1.0
  H  H22  1  0.13423000  0.79558000  0.88646000  1.0
  H  H23  1  0.63421000  0.70442000  0.61355000  1.0
  H  H24  1  0.80601000  0.00643000  0.83747000  1.0
  H  H25  1  0.30601000  0.49357000  0.66254000  1.0
  H  H26  1  0.19398000  0.99357000  0.16254000  1.0
  H  H27  1  0.69400000  0.50643000  0.33746000  1.0
  H  H28  1  0.48132000  0.18695000  0.77765000  1.0
  H  H29  1  0.98137000  0.31311000  0.72232000  1.0
  H  H30  1  0.51870000  0.81304000  0.22235000  1.0
  H  H31  1  0.01861000  0.68688000  0.27768000  1.0
  H  H32  1  0.51752000  0.40182000  0.05128000  1.0
  H  H33  1  0.01748000  0.09815000  0.44871000  1.0
  H  H34  1  0.48251000  0.59818000  0.94871000  1.0
  H  H35  1  0.98249000  0.90183000  0.55129000  1.0
  H  H36  1  0.39051000  0.12430000  0.97512000  1.0
  H  H37  1  0.89054000  0.37570000  0.52488000  1.0
  H  H38  1  0.60950000  0.87571000  0.02494000  1.0
  H  H39  1  0.10946000  0.62432000  0.47505000  1.0
  H  H40  1  0.21706000  0.99810000  0.00793000  1.0
  H  H41  1  0.71706000  0.50190000  0.49207000  1.0
  H  H42  1  0.78293000  0.00191000  0.99214000  1.0
  H  H43  1  0.28294000  0.49811000  0.50786000  1.0
  H  H44  1  0.37044000  0.00916000  0.93902000  1.0
  H  H45  1  0.87046000  0.49085000  0.56098000  1.0
  H  H46  1  0.62958000  0.99084000  0.06104000  1.0
  H  H47  1  0.12956000  0.50916000  0.43895000  1.0
  C  C48  1  0.87294000  0.16151000  0.86787000  1.0
  C  C49  1  0.37296000  0.33853000  0.63212000  1.0
  C  C50  1  0.12708000  0.83848000  0.13213000  1.0
  C  C51  1  0.62703000  0.66148000  0.36788000  1.0
  C  C52  1  0.02994000  0.25705000  0.86344000  1.0
  C  C53  1  0.53000000  0.24298000  0.63655000  1.0
  C  C54  1  0.97006000  0.74295000  0.13657000  1.0
  C  C55  1  0.47000000  0.75702000  0.36345000  1.0
  C  C56  1  0.89910000  0.26835000  0.01763000  1.0
  C  C57  1  0.39912000  0.23167000  0.48236000  1.0
  C  C58  1  0.10091000  0.73168000  0.98236000  1.0
  C  C59  1  0.60091000  0.76833000  0.51764000  1.0
  C  C60  1  0.04079000  0.33655000  0.97119000  1.0
  C  C61  1  0.54085000  0.16348000  0.52878000  1.0
  C  C62  1  0.95918000  0.66346000  0.02879000  1.0
  C  C63  1  0.45919000  0.83651000  0.47121000  1.0
  C  C64  1  0.24922000  0.26829000  0.83112000  1.0
  C  C65  1  0.74930000  0.23176000  0.66886000  1.0
  C  C66  1  0.75079000  0.73171000  0.16888000  1.0
  C  C67  1  0.25069000  0.76824000  0.33113000  1.0
  C  C68  1  0.26301000  0.38552000  0.98236000  1.0
  C  C69  1  0.76300000  0.11446000  0.51764000  1.0
  C  C70  1  0.73696000  0.61449000  0.01763000  1.0
  C  C71  1  0.23699000  0.88552000  0.48236000  1.0
  C  C72  1  0.97855000  0.25295000  0.07662000  1.0
  C  C73  1  0.47856000  0.24703000  0.42337000  1.0
  C  C74  1  0.02148000  0.74704000  0.92339000  1.0
  C  C75  1  0.52144000  0.75297000  0.57663000  1.0
  C  C76  1  0.93335000  0.07740000  0.83761000  1.0
  C  C77  1  0.43336000  0.42264000  0.66239000  1.0
  C  C78  1  0.06666000  0.92260000  0.16239000  1.0
  C  C79  1  0.56667000  0.57738000  0.33761000  1.0
  C  C80  1  0.31134000  0.18101000  0.80303000  1.0
  C  C81  1  0.81136000  0.31904000  0.69696000  1.0
  C  C82  1  0.68867000  0.81899000  0.19698000  1.0
  C  C83  1  0.18861000  0.68096000  0.30304000  1.0
  C  C84  1  0.34323000  0.36672000  0.04111000  1.0
  C  C85  1  0.84317000  0.13326000  0.45889000  1.0
  C  C86  1  0.65678000  0.63327000  0.95889000  1.0
  C  C87  1  0.15680000  0.86673000  0.54111000  1.0
  C  C88  1  0.29250000  0.28926000  0.15135000  1.0
  C  C89  1  0.79250000  0.21070000  0.34865000  1.0
  C  C90  1  0.70749000  0.71074000  0.84865000  1.0
  C  C91  1  0.20749000  0.78930000  0.65135000  1.0
  C  C92  1  0.21693000  0.99943000  0.76985000  1.0
  C  C93  1  0.71695000  0.50060000  0.73015000  1.0
  C  C94  1  0.78304000  0.00057000  0.23016000  1.0
  C  C95  1  0.28303000  0.49941000  0.26984000  1.0
  C  C96  1  0.15353000  0.08652000  0.80531000  1.0
  C  C97  1  0.65353000  0.41353000  0.69467000  1.0
  C  C98  1  0.84650000  0.91348000  0.19469000  1.0
  C  C99  1  0.34646000  0.58648000  0.30533000  1.0
  C  C100  1  0.20068000  0.30265000  0.08853000  1.0
  C  C101  1  0.70063000  0.19733000  0.41147000  1.0
  C  C102  1  0.79932000  0.69735000  0.91148000  1.0
  C  C103  1  0.29933000  0.80266000  0.58854000  1.0
  C  C104  1  0.38656000  0.02858000  0.98302000  1.0
  C  C105  1  0.88658000  0.47143000  0.51698000  1.0
  C  C106  1  0.61349000  0.97143000  0.01706000  1.0
  C  C107  1  0.11344000  0.52858000  0.48294000  1.0
  S  S108  1  0.93625000  0.37045000  0.89593000  1.0
  S  S109  1  0.43628000  0.12956000  0.60407000  1.0
  S  S110  1  0.06376000  0.62954000  0.10406000  1.0
  S  S111  1  0.56371000  0.87043000  0.39594000  1.0
  O  O112  1  0.43975000  0.96819000  0.77010000  1.0
  O  O113  1  0.93977000  0.53185000  0.72990000  1.0
  O  O114  1  0.56020000  0.03181000  0.22989000  1.0
  O  O115  1  0.06023000  0.46814000  0.27010000  1.0
  O  O116  1  0.13530000  0.26376000  0.19422000  1.0
  O  O117  1  0.63530000  0.23620000  0.30577000  1.0
  O  O118  1  0.86470000  0.73624000  0.80577000  1.0
  O  O119  1  0.36471000  0.76380000  0.69423000  1.0
  O  O120  1  0.04292000  0.96710000  0.74145000  1.0
  O  O121  1  0.54291000  0.53292000  0.75855000  1.0
  O  O122  1  0.95707000  0.03291000  0.25855000  1.0
  O  O123  1  0.45708000  0.46707000  0.24145000  1.0
  O  O124  1  0.51936000  0.30145000  0.15873000  1.0
  O  O125  1  0.01932000  0.19850000  0.34127000  1.0
  O  O126  1  0.48065000  0.69854000  0.84127000  1.0
  O  O127  1  0.98067000  0.80151000  0.65873000  1.0
  O  O128  1  0.67072000  0.37153000  0.89686000  1.0
  O  O129  1  0.17068000  0.12851000  0.60315000  1.0
  O  O130  1  0.32930000  0.62848000  0.10314000  1.0
  O  O131  1  0.82927000  0.87149000  0.39685000  1.0
  O  O132  1  0.06854000  0.47612000  0.86530000  1.0
  O  O133  1  0.56863000  0.02391000  0.63471000  1.0
  O  O134  1  0.93146000  0.52389000  0.13471000  1.0
  O  O135  1  0.43139000  0.97608000  0.36530000  1.0
