# generated using pymatgen
data_CdH16C22(NO3)2
_symmetry_space_group_name_H-M   'P 1'
_cell_length_a   8.10603000
_cell_length_b   10.90800000
_cell_length_c   11.97690000
_cell_angle_alpha   113.94060000
_cell_angle_beta   94.89500000
_cell_angle_gamma   90.27760000
_symmetry_Int_Tables_number   1
_chemical_formula_structural   CdH16C22(NO3)2
_chemical_formula_sum   'Cd2 H32 C44 N4 O12'
_cell_volume   963.45819860
_cell_formula_units_Z   2
loop_
 _symmetry_equiv_pos_site_id
 _symmetry_equiv_pos_as_xyz
  1  'x, y, z'
loop_
 _atom_site_type_symbol
 _atom_site_label
 _atom_site_symmetry_multiplicity
 _atom_site_fract_x
 _atom_site_fract_y
 _atom_site_fract_z
 _atom_site_occupancy
  Cd  Cd0  1  0.47221000  0.90315000  0.82905000  1.0
  Cd  Cd1  1  0.52783000  0.09686000  0.17094000  1.0
  H  H2  1  0.82980000  0.66010000  0.18430000  1.0
  H  H3  1  0.17019000  0.33991000  0.81572000  1.0
  H  H4  1  0.14960000  0.12077000  0.78392000  1.0
  H  H5  1  0.85041000  0.87923000  0.21609000  1.0
  H  H6  1  0.72194000  0.76162000  0.96688000  1.0
  H  H7  1  0.27809000  0.23838000  0.03311000  1.0
  H  H8  1  0.91305000  0.56804000  0.91208000  1.0
  H  H9  1  0.08696000  0.43195000  0.08791000  1.0
  H  H10  1  0.94856000  0.43257000  0.69130000  1.0
  H  H11  1  0.05142000  0.56740000  0.30869000  1.0
  H  H12  1  0.87158000  0.38895000  0.46871000  1.0
  H  H13  1  0.12839000  0.61103000  0.53127000  1.0
  H  H14  1  0.72164000  0.45384000  0.31597000  1.0
  H  H15  1  0.27832000  0.54614000  0.68401000  1.0
  H  H16  1  0.52830000  0.61000000  0.26749000  1.0
  H  H17  1  0.47166000  0.38998000  0.73250000  1.0
  H  H18  1  0.36169000  0.81573000  0.34302000  1.0
  H  H19  1  0.63830000  0.18427000  0.65698000  1.0
  H  H20  1  0.34238000  0.93620000  0.57032000  1.0
  H  H21  1  0.65765000  0.06382000  0.42969000  1.0
  H  H22  1  0.84225000  0.30459000  0.94370000  1.0
  H  H23  1  0.15776000  0.69544000  0.05631000  1.0
  H  H24  1  0.77988000  0.30705000  0.08329000  1.0
  H  H25  1  0.22012000  0.69296000  0.91671000  1.0
  H  H26  1  0.42110000  0.26223000  0.86700000  1.0
  H  H27  1  0.57890000  0.73777000  0.13300000  1.0
  H  H28  1  0.89899000  0.81722000  0.66304000  1.0
  H  H29  1  0.10101000  0.18279000  0.33699000  1.0
  H  H30  1  0.89323000  0.98814000  0.76760000  1.0
  H  H31  1  0.10679000  0.01186000  0.23244000  1.0
  H  H32  1  0.88924000  0.77105000  0.45491000  1.0
  H  H33  1  0.11074000  0.22896000  0.54511000  1.0
  C  C34  1  0.74043000  0.69898000  0.87162000  1.0
  C  C35  1  0.25959000  0.30101000  0.12837000  1.0
  C  C36  1  0.84700000  0.59126000  0.84054000  1.0
  C  C37  1  0.15300000  0.40872000  0.15944000  1.0
  C  C38  1  0.86638000  0.51646000  0.71821000  1.0
  C  C39  1  0.13361000  0.48352000  0.28177000  1.0
  C  C40  1  0.77987000  0.54901000  0.62699000  1.0
  C  C41  1  0.22012000  0.45096000  0.37300000  1.0
  C  C42  1  0.79383000  0.47550000  0.49863000  1.0
  C  C43  1  0.20614000  0.52448000  0.50135000  1.0
  C  C44  1  0.70976000  0.51131000  0.41339000  1.0
  C  C45  1  0.29020000  0.48867000  0.58660000  1.0
  C  C46  1  0.60595000  0.62417000  0.45008000  1.0
  C  C47  1  0.39403000  0.37581000  0.54991000  1.0
  C  C48  1  0.51970000  0.66660000  0.36543000  1.0
  C  C49  1  0.48028000  0.33333333  0.63456000  1.0
  C  C50  1  0.42579000  0.77917000  0.40674000  1.0
  C  C51  1  0.57421000  0.22083000  0.59326000  1.0
  C  C52  1  0.41554000  0.84708000  0.53379000  1.0
  C  C53  1  0.58448000  0.15292000  0.46621000  1.0
  C  C54  1  0.58744000  0.69901000  0.57664000  1.0
  C  C55  1  0.41255000  0.30099000  0.42335000  1.0
  C  C56  1  0.67477000  0.65964000  0.66666667  1.0
  C  C57  1  0.32523000  0.34035000  0.33328000  1.0
  C  C58  1  0.65733000  0.15354000  0.92001000  1.0
  C  C59  1  0.34269000  0.84647000  0.07997000  1.0
  C  C60  1  0.73475000  0.29321000  0.98953000  1.0
  C  C61  1  0.26526000  0.70681000  0.01047000  1.0
  C  C62  1  0.61170000  0.39849000  0.99393000  1.0
  C  C63  1  0.38830000  0.60151000  0.00607000  1.0
  C  C64  1  0.45612000  0.36684000  0.92648000  1.0
  C  C65  1  0.54388000  0.63317000  0.07353000  1.0
  C  C66  1  0.65571000  0.53393000  0.06821000  1.0
  C  C67  1  0.34429000  0.46608000  0.93180000  1.0
  C  C68  1  0.13277000  0.90244000  0.76139000  1.0
  C  C69  1  0.86724000  0.09756000  0.23861000  1.0
  C  C70  1  0.96621000  0.91464000  0.69957000  1.0
  C  C71  1  0.03379000  0.08537000  0.30045000  1.0
  C  C72  1  0.98616000  0.95915000  0.59716000  1.0
  C  C73  1  0.01382000  0.04086000  0.40286000  1.0
  C  C74  1  0.94005000  0.87143000  0.47520000  1.0
  C  C75  1  0.05992000  0.12859000  0.52483000  1.0
  C  C76  1  0.04829000  0.08938000  0.62140000  1.0
  C  C77  1  0.95169000  0.91064000  0.37862000  1.0
  N  N78  1  0.65668000  0.73128000  0.78748000  1.0
  N  N79  1  0.34334000  0.26871000  0.21251000  1.0
  N  N80  1  0.49233000  0.80745000  0.61544000  1.0
  N  N81  1  0.50768000  0.19255000  0.38455000  1.0
  O  O82  1  0.66121000  0.09361000  0.80598000  1.0
  O  O83  1  0.33878000  0.90643000  0.19400000  1.0
  O  O84  1  0.58001000  0.10047000  0.98107000  1.0
  O  O85  1  0.42006000  0.89952000  0.01891000  1.0
  O  O86  1  0.18271000  0.79095000  0.75397000  1.0
  O  O87  1  0.81730000  0.20905000  0.24603000  1.0
  O  O88  1  0.22452000  0.01270000  0.81684000  1.0
  O  O89  1  0.77552000  0.98730000  0.18314000  1.0
  O  O90  1  0.80877000  0.56207000  0.13337000  1.0
  O  O91  1  0.19123000  0.43794000  0.86665000  1.0
  O  O92  1  0.09954000  0.17807000  0.73965000  1.0
  O  O93  1  0.90044000  0.82194000  0.26038000  1.0
