# generated using pymatgen
data_PrH6(C2N3)3
_symmetry_space_group_name_H-M   'P 1'
_cell_length_a   9.53807000
_cell_length_b   9.53807000
_cell_length_c   13.01950000
_cell_angle_alpha   92.03280000
_cell_angle_beta   92.03310000
_cell_angle_gamma   119.86600000
_symmetry_Int_Tables_number   1
_chemical_formula_structural   PrH6(C2N3)3
_chemical_formula_sum   'Pr4 H24 C24 N36'
_cell_volume   1024.56474234
_cell_formula_units_Z   4
loop_
 _symmetry_equiv_pos_site_id
 _symmetry_equiv_pos_as_xyz
  1  'x, y, z'
loop_
 _atom_site_type_symbol
 _atom_site_label
 _atom_site_symmetry_multiplicity
 _atom_site_fract_x
 _atom_site_fract_y
 _atom_site_fract_z
 _atom_site_occupancy
  Pr  Pr0  1  0.74351000  0.48033000  0.57262000  1.0
  Pr  Pr1  1  0.51967000  0.25649000  0.92739000  1.0
  Pr  Pr2  1  0.25649000  0.51967000  0.42738000  1.0
  Pr  Pr3  1  0.48033000  0.74351000  0.07261000  1.0
  H  H4  1  0.99597000  0.03369000  0.59943000  1.0
  H  H5  1  0.96631000  0.00403000  0.90057000  1.0
  H  H6  1  0.00404000  0.96631000  0.40057000  1.0
  H  H7  1  0.03369000  0.99597000  0.09943000  1.0
  H  H8  1  0.75614000  0.09774000  0.66606000  1.0
  H  H9  1  0.90226000  0.24386000  0.83394000  1.0
  H  H10  1  0.24386000  0.90226000  0.33394000  1.0
  H  H11  1  0.09774000  0.75614000  0.16606000  1.0
  H  H12  1  0.29640000  0.21831000  0.23250000  1.0
  H  H13  1  0.78169000  0.70360000  0.26750000  1.0
  H  H14  1  0.70360000  0.78169000  0.76751000  1.0
  H  H15  1  0.21831000  0.29640000  0.73250000  1.0
  H  H16  1  0.53269000  0.13164000  0.27399000  1.0
  H  H17  1  0.86836000  0.46732000  0.22601000  1.0
  H  H18  1  0.46731000  0.86835000  0.72601000  1.0
  H  H19  1  0.13164000  0.53269000  0.77399000  1.0
  H  H20  1  0.93453000  0.63846000  0.99298000  1.0
  H  H21  1  0.36154000  0.06547000  0.50702000  1.0
  H  H22  1  0.06547000  0.36153000  0.00702000  1.0
  H  H23  1  0.63846000  0.93453000  0.49298000  1.0
  H  H24  1  0.11425000  0.84128000  0.84061000  1.0
  H  H25  1  0.15872000  0.88575000  0.65939000  1.0
  H  H26  1  0.88575000  0.15872000  0.15939000  1.0
  H  H27  1  0.84128000  0.11425000  0.34061000  1.0
  C  C28  1  0.97758000  0.13529000  0.58689000  1.0
  C  C29  1  0.86471000  0.02242000  0.91311000  1.0
  C  C30  1  0.02242000  0.86471000  0.41311000  1.0
  C  C31  1  0.13529000  0.97758000  0.08689000  1.0
  C  C32  1  0.85840000  0.16702000  0.62015000  1.0
  C  C33  1  0.83298000  0.14160000  0.87985000  1.0
  C  C34  1  0.14160000  0.83298000  0.37985000  1.0
  C  C35  1  0.16702000  0.85840000  0.12015000  1.0
  C  C36  1  0.38984000  0.25968000  0.29436000  1.0
  C  C37  1  0.74032000  0.61016000  0.20564000  1.0
  C  C38  1  0.61015000  0.74032000  0.70564000  1.0
  C  C39  1  0.25968000  0.38985000  0.79436000  1.0
  C  C40  1  0.50710000  0.21642000  0.31512000  1.0
  C  C41  1  0.78358000  0.49290000  0.18488000  1.0
  C  C42  1  0.49290000  0.78358000  0.68488000  1.0
  C  C43  1  0.21642000  0.50710000  0.81512000  1.0
  C  C44  1  0.91469000  0.62357000  0.91003000  1.0
  C  C45  1  0.37643000  0.08531000  0.58997000  1.0
  C  C46  1  0.08531000  0.37643000  0.08997000  1.0
  C  C47  1  0.62357000  0.91469000  0.41003000  1.0
  C  C48  1  0.00351000  0.72458000  0.83421000  1.0
  C  C49  1  0.27542000  0.99648000  0.66579000  1.0
  C  C50  1  0.99648000  0.27541000  0.16579000  1.0
  C  C51  1  0.72458000  0.00351000  0.33421000  1.0
  N  N52  1  0.88751000  0.30954000  0.58314000  1.0
  N  N53  1  0.69046000  0.11248000  0.91686000  1.0
  N  N54  1  0.11249000  0.69046000  0.41686000  1.0
  N  N55  1  0.30954000  0.88751000  0.08314000  1.0
  N  N56  1  0.01941000  0.36230000  0.52955000  1.0
  N  N57  1  0.63770000  0.98059000  0.97045000  1.0
  N  N58  1  0.98059000  0.63770000  0.47045000  1.0
  N  N59  1  0.36230000  0.01941000  0.02955000  1.0
  N  N60  1  0.07635000  0.25958000  0.53027000  1.0
  N  N61  1  0.74042000  0.92365000  0.96973000  1.0
  N  N62  1  0.92365000  0.74042000  0.46973000  1.0
  N  N63  1  0.25958000  0.07635000  0.03027000  1.0
  N  N64  1  0.59615000  0.30557000  0.40076000  1.0
  N  N65  1  0.69443000  0.40385000  0.09924000  1.0
  N  N66  1  0.40385000  0.69443000  0.59924000  1.0
  N  N67  1  0.30557000  0.59615000  0.90076000  1.0
  N  N68  1  0.53534000  0.39872000  0.43064000  1.0
  N  N69  1  0.60128000  0.46466000  0.06936000  1.0
  N  N70  1  0.46466000  0.60128000  0.56936000  1.0
  N  N71  1  0.39872000  0.53534000  0.93063000  1.0
  N  N72  1  0.41003000  0.37334000  0.36810000  1.0
  N  N73  1  0.62666000  0.58997000  0.13190000  1.0
  N  N74  1  0.58997000  0.62666000  0.63190000  1.0
  N  N75  1  0.37334000  0.41003000  0.86810000  1.0
  N  N76  1  0.92778000  0.64908000  0.74201000  1.0
  N  N77  1  0.35092000  0.07222000  0.75799000  1.0
  N  N78  1  0.07222000  0.35092000  0.25799000  1.0
  N  N79  1  0.64908000  0.92778000  0.24201000  1.0
  N  N80  1  0.79850000  0.50807000  0.76148000  1.0
  N  N81  1  0.49193000  0.20150000  0.73852000  1.0
  N  N82  1  0.20150000  0.49193000  0.23852000  1.0
  N  N83  1  0.50807000  0.79850000  0.26148000  1.0
  N  N84  1  0.78717000  0.48949000  0.86256000  1.0
  N  N85  1  0.51051000  0.21283000  0.63744000  1.0
  N  N86  1  0.21283000  0.51051000  0.13744000  1.0
  N  N87  1  0.48949000  0.78717000  0.36256000  1.0
