# generated using pymatgen
data_AgH5C8(NO3)2
_symmetry_space_group_name_H-M   'P 1'
_cell_length_a   5.62926000
_cell_length_b   11.66190000
_cell_length_c   14.85680000
_cell_angle_alpha   89.99870000
_cell_angle_beta   91.65870000
_cell_angle_gamma   89.99620000
_symmetry_Int_Tables_number   1
_chemical_formula_structural   AgH5C8(NO3)2
_chemical_formula_sum   'Ag4 H20 C32 N8 O24'
_cell_volume   974.90855784
_cell_formula_units_Z   4
loop_
 _symmetry_equiv_pos_site_id
 _symmetry_equiv_pos_as_xyz
  1  'x, y, z'
loop_
 _atom_site_type_symbol
 _atom_site_label
 _atom_site_symmetry_multiplicity
 _atom_site_fract_x
 _atom_site_fract_y
 _atom_site_fract_z
 _atom_site_occupancy
  Ag  Ag0  1  0.29910000  0.96402000  0.04597000  1.0
  Ag  Ag1  1  0.20089000  0.46403000  0.45403000  1.0
  Ag  Ag2  1  0.70088000  0.03597000  0.95405000  1.0
  Ag  Ag3  1  0.79909000  0.53596000  0.54596000  1.0
  H  H4  1  0.66931000  0.05723000  0.54280000  1.0
  H  H5  1  0.83071000  0.55724000  0.95719000  1.0
  H  H6  1  0.33072000  0.94275000  0.45721000  1.0
  H  H7  1  0.16929000  0.44277000  0.04279000  1.0
  H  H8  1  0.87240000  0.88609000  0.78995000  1.0
  H  H9  1  0.62759000  0.38606000  0.71007000  1.0
  H  H10  1  0.12757000  0.11391000  0.21007000  1.0
  H  H11  1  0.37241000  0.61394000  0.28992000  1.0
  H  H12  1  0.32195000  0.23866000  0.77700000  1.0
  H  H13  1  0.17802000  0.73867000  0.72299000  1.0
  H  H14  1  0.67808000  0.76133000  0.22301000  1.0
  H  H15  1  0.82196000  0.26133000  0.27700000  1.0
  H  H16  1  0.31087000  0.27770000  0.66043000  1.0
  H  H17  1  0.18908000  0.77770000  0.83955000  1.0
  H  H18  1  0.68914000  0.72229000  0.33958000  1.0
  H  H19  1  0.81090000  0.22230000  0.16043000  1.0
  H  H20  1  0.50016000  0.16640000  0.70051000  1.0
  H  H21  1  0.99983000  0.66641000  0.79948000  1.0
  H  H22  1  0.49985000  0.83358000  0.29949000  1.0
  H  H23  1  0.00016000  0.33359000  0.20051000  1.0
  C  C24  1  0.23306000  0.02048000  0.84198000  1.0
  C  C25  1  0.26692000  0.52047000  0.65803000  1.0
  C  C26  1  0.76693000  0.97951000  0.15804000  1.0
  C  C27  1  0.73306000  0.47953000  0.34196000  1.0
  C  C28  1  0.08732000  0.03208000  0.75579000  1.0
  C  C29  1  0.41266000  0.53206000  0.74421000  1.0
  C  C30  1  0.91266000  0.96792000  0.24423000  1.0
  C  C31  1  0.58733000  0.46794000  0.25577000  1.0
  C  C32  1  0.13212000  0.11982000  0.69256000  1.0
  C  C33  1  0.36787000  0.61982000  0.80743000  1.0
  C  C34  1  0.86789000  0.88017000  0.30745000  1.0
  C  C35  1  0.63212000  0.38019000  0.19255000  1.0
  C  C36  1  0.97310000  0.12492000  0.61796000  1.0
  C  C37  1  0.52690000  0.62492000  0.88203000  1.0
  C  C38  1  0.02692000  0.87507000  0.38205000  1.0
  C  C39  1  0.47309000  0.37509000  0.11795000  1.0
  C  C40  1  0.78758000  0.04833000  0.60160000  1.0
  C  C41  1  0.71242000  0.54832000  0.89839000  1.0
  C  C42  1  0.21243000  0.95166000  0.39841000  1.0
  C  C43  1  0.28757000  0.45169000  0.10159000  1.0
  C  C44  1  0.76371000  0.95950000  0.66278000  1.0
  C  C45  1  0.73630000  0.45949000  0.83723000  1.0
  C  C46  1  0.23629000  0.04049000  0.33724000  1.0
  C  C47  1  0.26370000  0.54053000  0.16276000  1.0
  C  C48  1  0.90640000  0.95228000  0.74048000  1.0
  C  C49  1  0.59359000  0.45226000  0.75953000  1.0
  C  C50  1  0.09358000  0.04772000  0.25954000  1.0
  C  C51  1  0.40641000  0.54775000  0.24045000  1.0
  C  C52  1  0.32520000  0.20621000  0.70782000  1.0
  C  C53  1  0.17477000  0.70621000  0.79217000  1.0
  C  C54  1  0.67481000  0.79378000  0.29219000  1.0
  C  C55  1  0.82521000  0.29379000  0.20782000  1.0
  N  N56  1  0.99126000  0.21850000  0.55193000  1.0
  N  N57  1  0.50874000  0.71851000  0.94804000  1.0
  N  N58  1  0.00879000  0.78149000  0.44808000  1.0
  N  N59  1  0.49125000  0.28149000  0.05194000  1.0
  N  N60  1  0.57879000  0.87341000  0.64708000  1.0
  N  N61  1  0.92124000  0.37339000  0.85294000  1.0
  N  N62  1  0.42122000  0.12659000  0.35293000  1.0
  N  N63  1  0.07876000  0.62663000  0.14705000  1.0
  O  O64  1  0.12023000  0.99128000  0.91169000  1.0
  O  O65  1  0.37977000  0.49127000  0.58832000  1.0
  O  O66  1  0.87975000  0.00872000  0.08833000  1.0
  O  O67  1  0.62022000  0.50872000  0.41167000  1.0
  O  O68  1  0.45486000  0.03672000  0.83718000  1.0
  O  O69  1  0.04512000  0.53671000  0.66282000  1.0
  O  O70  1  0.54512000  0.96327000  0.16284000  1.0
  O  O71  1  0.95487000  0.46329000  0.33716000  1.0
  O  O72  1  0.18072000  0.22885000  0.51165000  1.0
  O  O73  1  0.31930000  0.72887000  0.98834000  1.0
  O  O74  1  0.81932000  0.77113000  0.48836000  1.0
  O  O75  1  0.68069000  0.27114000  0.01164000  1.0
  O  O76  1  0.81489000  0.28095000  0.54093000  1.0
  O  O77  1  0.68510000  0.78096000  0.95903000  1.0
  O  O78  1  0.18518000  0.71906000  0.45909000  1.0
  O  O79  1  0.31489000  0.21904000  0.04096000  1.0
  O  O80  1  0.40332000  0.89999000  0.59877000  1.0
  O  O81  1  0.09671000  0.39997000  0.90123000  1.0
  O  O82  1  0.59669000  0.10001000  0.40124000  1.0
  O  O83  1  0.90328000  0.60004000  0.09875000  1.0
  O  O84  1  0.60771000  0.77854000  0.68345000  1.0
  O  O85  1  0.89232000  0.27851000  0.81659000  1.0
  O  O86  1  0.39230000  0.22145000  0.31655000  1.0
  O  O87  1  0.10767000  0.72149000  0.18341000  1.0
