# generated using pymatgen
data_AlH9C27N7(O2F)3
_symmetry_space_group_name_H-M   'P 1'
_cell_length_a   3.93654000
_cell_length_b   17.63555911
_cell_length_c   18.17020000
_cell_angle_alpha   118.45977329
_cell_angle_beta   95.75720000
_cell_angle_gamma   92.36345982
_symmetry_Int_Tables_number   1
_chemical_formula_structural   AlH9C27N7(O2F)3
_chemical_formula_sum   'Al1 H9 C27 N7 O6 F3'
_cell_volume   1097.66421334
_cell_formula_units_Z   1
loop_
 _symmetry_equiv_pos_site_id
 _symmetry_equiv_pos_as_xyz
  1  'x, y, z'
loop_
 _atom_site_type_symbol
 _atom_site_label
 _atom_site_symmetry_multiplicity
 _atom_site_fract_x
 _atom_site_fract_y
 _atom_site_fract_z
 _atom_site_occupancy
  Al  Al0  1  0.99427000  0.00090000  0.50493000  1.0
  H  H1  1  0.78993000  0.31548000  0.89587000  1.0
  H  H2  1  0.35900000  0.08726000  0.19086000  1.0
  H  H3  1  0.02604000  0.60588000  0.41355000  1.0
  H  H4  1  0.82662000  0.31495000  0.41771000  1.0
  H  H5  1  0.26790000  0.01219000  0.27616000  1.0
  H  H6  1  0.17861000  0.76694000  0.49171000  1.0
  H  H7  1  0.29320000  0.59912000  0.18616000  1.0
  H  H8  1  0.59852000  0.07407000  0.89802000  1.0
  H  H9  1  0.69555000  0.23540000  0.73737000  1.0
  C  C10  1  0.56550000  0.06328000  0.63501000  1.0
  C  C11  1  0.48612000  0.07093000  0.44095000  1.0
  C  C12  1  0.42732000  0.86800000  0.43528000  1.0
  C  C13  1  0.73155000  0.24536000  0.86110000  1.0
  C  C14  1  0.70097000  0.20000000  0.90650000  1.0
  C  C15  1  0.44039000  0.11985000  0.25876000  1.0
  C  C16  1  0.59880000  0.20532000  0.29886000  1.0
  C  C17  1  0.15219000  0.59259000  0.29554000  1.0
  C  C18  1  0.12305000  0.63993000  0.38212000  1.0
  C  C19  1  0.70757000  0.24842000  0.38625000  1.0
  C  C20  1  0.66583000  0.20474000  0.43136000  1.0
  C  C21  1  0.50827000  0.11942000  0.39310000  1.0
  C  C22  1  0.39085000  0.07837000  0.30605000  1.0
  C  C23  1  0.20982000  0.72879000  0.42529000  1.0
  C  C24  1  0.34208000  0.77244000  0.38505000  1.0
  C  C25  1  0.37508000  0.72343000  0.29910000  1.0
  C  C26  1  0.27637000  0.63499000  0.25355000  1.0
  C  C27  1  0.62626000  0.10948000  0.86327000  1.0
  C  C28  1  0.59128000  0.06638000  0.77587000  1.0
  C  C29  1  0.61392000  0.11026000  0.72934000  1.0
  C  C30  1  0.68085000  0.20083000  0.77337000  1.0
  C  C31  1  0.91377000  0.37456000  0.12148000  1.0
  C  C32  1  0.68021000  0.24433000  0.12211000  1.0
  C  C33  1  0.74345000  0.24712000  0.99942000  1.0
  C  C34  1  0.04296000  0.49870000  0.24890000  1.0
  C  C35  1  0.85099000  0.37782000  0.25511000  1.0
  C  C36  1  0.66045000  0.25099000  0.25062000  1.0
  N  N37  1  0.81481000  0.33223000  0.16620000  1.0
  N  N38  1  0.63973000  0.20290000  0.03800000  1.0
  N  N39  1  0.88217000  0.33025000  0.03749000  1.0
  N  N40  1  0.03706000  0.45814000  0.16440000  1.0
  N  N41  1  0.95710000  0.46217000  0.29566000  1.0
  N  N42  1  0.59700000  0.20468000  0.16575000  1.0
  N  N43  1  0.77876000  0.33548000  0.29667000  1.0
  O  O44  1  0.67614000  0.90453000  0.42039000  1.0
  O  O45  1  0.77619000  0.00912000  0.59826000  1.0
  O  O46  1  0.74161000  0.08506000  0.49641000  1.0
  O  O47  1  0.23970000  0.90751000  0.49310000  1.0
  O  O48  1  0.22353000  0.01750000  0.42274000  1.0
  O  O49  1  0.31828000  0.08283000  0.59856000  1.0
  F  F50  1  0.52277000  0.97866000  0.73385000  1.0
  F  F51  1  0.49412000  0.76317000  0.25726000  1.0
  F  F52  1  0.77591000  0.24779000  0.51563000  1.0
