# generated using pymatgen
data_DyH7C8SO9
_symmetry_space_group_name_H-M   'P 1'
_cell_length_a   5.82786000
_cell_length_b   9.12159890
_cell_length_c   10.51220000
_cell_angle_alpha   78.25165521
_cell_angle_beta   87.96440000
_cell_angle_gamma   73.09928626
_symmetry_Int_Tables_number   1
_chemical_formula_structural   DyH7C8SO9
_chemical_formula_sum   'Dy2 H14 C16 S2 O18'
_cell_volume   523.31856320
_cell_formula_units_Z   2
loop_
 _symmetry_equiv_pos_site_id
 _symmetry_equiv_pos_as_xyz
  1  'x, y, z'
loop_
 _atom_site_type_symbol
 _atom_site_label
 _atom_site_symmetry_multiplicity
 _atom_site_fract_x
 _atom_site_fract_y
 _atom_site_fract_z
 _atom_site_occupancy
  Dy  Dy0  1  0.02889000  0.80690000  0.89256000  1.0
  Dy  Dy1  1  0.97110000  0.19310000  0.10744000  1.0
  H  H2  1  0.38768000  0.66373000  0.11224000  1.0
  H  H3  1  0.61232000  0.33627000  0.88776000  1.0
  H  H4  1  0.37548000  0.84437000  0.07059000  1.0
  H  H5  1  0.62452000  0.15563000  0.92941000  1.0
  H  H6  1  0.23425000  0.47529000  0.03255000  1.0
  H  H7  1  0.76575000  0.52471000  0.96745000  1.0
  H  H8  1  0.18886000  0.45929000  0.89332000  1.0
  H  H9  1  0.81114000  0.54072000  0.10668000  1.0
  H  H10  1  0.29855000  0.86738000  0.51433000  1.0
  H  H11  1  0.70144000  0.13263000  0.48567000  1.0
  H  H12  1  0.04044000  0.60365000  0.60013000  1.0
  H  H13  1  0.95957000  0.39635000  0.39988000  1.0
  H  H14  1  0.13132000  0.66975000  0.36719000  1.0
  H  H15  1  0.86868000  0.33025000  0.63281000  1.0
  C  C16  1  0.76670000  0.80407000  0.30842000  1.0
  C  C17  1  0.23330000  0.19593000  0.69158000  1.0
  C  C18  1  0.53298000  0.86327000  0.35141000  1.0
  C  C19  1  0.46703000  0.13673000  0.64859000  1.0
  C  C20  1  0.48054000  0.82140000  0.48246000  1.0
  C  C21  1  0.51947000  0.17860000  0.51754000  1.0
  C  C22  1  0.66099000  0.72420000  0.56980000  1.0
  C  C23  1  0.33902000  0.27580000  0.43020000  1.0
  C  C24  1  0.89750000  0.67386000  0.53020000  1.0
  C  C25  1  0.10251000  0.32614000  0.46981000  1.0
  C  C26  1  0.94864000  0.71286000  0.39945000  1.0
  C  C27  1  0.05137000  0.28713000  0.60055000  1.0
  C  C28  1  0.83538000  0.83663000  0.16822000  1.0
  C  C29  1  0.16462000  0.16338000  0.83178000  1.0
  C  C30  1  0.33595000  0.97435000  0.26380000  1.0
  C  C31  1  0.66405000  0.02565000  0.73619000  1.0
  S  S32  1  0.58316000  0.65541000  0.73058000  1.0
  S  S33  1  0.41683000  0.34459000  0.26942000  1.0
  O  O34  1  0.88368000  0.96280000  0.12055000  1.0
  O  O35  1  0.11632000  0.03719000  0.87945000  1.0
  O  O36  1  0.86040000  0.72988000  0.10260000  1.0
  O  O37  1  0.13959000  0.27011000  0.89740000  1.0
  O  O38  1  0.36092000  0.99877000  0.13956000  1.0
  O  O39  1  0.63908000  0.00123000  0.86044000  1.0
  O  O40  1  0.14494000  0.04712000  0.31296000  1.0
  O  O41  1  0.85506000  0.95287000  0.68704000  1.0
  O  O42  1  0.34593000  0.76304000  0.74751000  1.0
  O  O43  1  0.65406000  0.23697000  0.25248000  1.0
  O  O44  1  0.58141000  0.49370000  0.73869000  1.0
  O  O45  1  0.41859000  0.50630000  0.26130000  1.0
  O  O46  1  0.77090000  0.66312000  0.81940000  1.0
  O  O47  1  0.22909000  0.33688000  0.18060000  1.0
  O  O48  1  0.34725000  0.75483000  0.03959000  1.0
  O  O49  1  0.65275000  0.24517000  0.96041000  1.0
  O  O50  1  0.21545000  0.53498000  0.94207000  1.0
  O  O51  1  0.78455000  0.46502000  0.05793000  1.0
