# generated using pymatgen
data_Mn2H25C33NO10
_symmetry_space_group_name_H-M   'P 1'
_cell_length_a   11.26300000
_cell_length_b   13.04070000
_cell_length_c   25.37020000
_cell_angle_alpha   89.99960000
_cell_angle_beta   82.93310000
_cell_angle_gamma   89.99970000
_symmetry_Int_Tables_number   1
_chemical_formula_structural   Mn2H25C33NO10
_chemical_formula_sum   'Mn8 H100 C132 N4 O40'
_cell_volume   3698.00100789
_cell_formula_units_Z   4
loop_
 _symmetry_equiv_pos_site_id
 _symmetry_equiv_pos_as_xyz
  1  'x, y, z'
loop_
 _atom_site_type_symbol
 _atom_site_label
 _atom_site_symmetry_multiplicity
 _atom_site_fract_x
 _atom_site_fract_y
 _atom_site_fract_z
 _atom_site_occupancy
  Mn  Mn0  1  0.87637000  0.45389000  0.74456000  1.0
  Mn  Mn1  1  0.12363000  0.95390000  0.75544000  1.0
  Mn  Mn2  1  0.12363000  0.54611000  0.25544000  1.0
  Mn  Mn3  1  0.87637000  0.04610000  0.24456000  1.0
  Mn  Mn4  1  0.07630000  0.28429000  0.22456000  1.0
  Mn  Mn5  1  0.92370000  0.78429000  0.27544000  1.0
  Mn  Mn6  1  0.92370000  0.71572000  0.77544000  1.0
  Mn  Mn7  1  0.07630000  0.21572000  0.72456000  1.0
  H  H8  1  0.14002000  0.10601000  0.18071000  1.0
  H  H9  1  0.85997000  0.60602000  0.31929000  1.0
  H  H10  1  0.85998000  0.89398000  0.81929000  1.0
  H  H11  1  0.14003000  0.39398000  0.68071000  1.0
  H  H12  1  0.24958000  0.14787000  0.20814000  1.0
  H  H13  1  0.75041000  0.64788000  0.29186000  1.0
  H  H14  1  0.75042000  0.85213000  0.79186000  1.0
  H  H15  1  0.24958000  0.35213000  0.70814000  1.0
  H  H16  1  0.14099000  0.18474000  0.60582000  1.0
  H  H17  1  0.85901000  0.68474000  0.89418000  1.0
  H  H18  1  0.85902000  0.81526000  0.39418000  1.0
  H  H19  1  0.14099000  0.31526000  0.10582000  1.0
  H  H20  1  0.77202000  0.26176000  0.31236000  1.0
  H  H21  1  0.22800000  0.76176000  0.18765000  1.0
  H  H22  1  0.22799000  0.73824000  0.68764000  1.0
  H  H23  1  0.77203000  0.23824000  0.81236000  1.0
  H  H24  1  0.93479000  0.20517000  0.57117000  1.0
  H  H25  1  0.06521000  0.70516000  0.92883000  1.0
  H  H26  1  0.06521000  0.79483000  0.42883000  1.0
  H  H27  1  0.93480000  0.29483000  0.07117000  1.0
  H  H28  1  0.86572000  0.51588000  0.40760000  1.0
  H  H29  1  0.13428000  0.01588000  0.09241000  1.0
  H  H30  1  0.13428000  0.48412000  0.59240000  1.0
  H  H31  1  0.86573000  0.98412000  0.90760000  1.0
  H  H32  1  0.63321000  0.33631000  0.66756000  1.0
  H  H33  1  0.36679000  0.83631000  0.83244000  1.0
  H  H34  1  0.36679000  0.66370000  0.33244000  1.0
  H  H35  1  0.63321000  0.16369000  0.16756000  1.0
  H  H36  1  0.51464000  0.33117000  0.59046000  1.0
  H  H37  1  0.48536000  0.83118000  0.90954000  1.0
  H  H38  1  0.48536000  0.66883000  0.40954000  1.0
  H  H39  1  0.51465000  0.16882000  0.09045000  1.0
  H  H40  1  0.72954000  0.44843000  0.48471000  1.0
  H  H41  1  0.27045000  0.94843000  0.01529000  1.0
  H  H42  1  0.27046000  0.55157000  0.51529000  1.0
  H  H43  1  0.72954000  0.05157000  0.98471000  1.0
  H  H44  1  0.63414000  0.19612000  0.38805000  1.0
  H  H45  1  0.36587000  0.69611000  0.11195000  1.0
  H  H46  1  0.36586000  0.80388000  0.61195000  1.0
  H  H47  1  0.63415000  0.30389000  0.88805000  1.0
  H  H48  1  0.81887000  0.20262000  0.49332000  1.0
  H  H49  1  0.18113000  0.70262000  0.00668000  1.0
  H  H50  1  0.18112000  0.79738000  0.50668000  1.0
  H  H51  1  0.81888000  0.29737000  0.99332000  1.0
  H  H52  1  0.55476000  0.07538000  0.53766000  1.0
  H  H53  1  0.44525000  0.57539000  0.96234000  1.0
  H  H54  1  0.44525000  0.92462000  0.46234000  1.0
  H  H55  1  0.55475000  0.42461000  0.03766000  1.0
  H  H56  1  0.28085000  0.16384000  0.34100000  1.0
  H  H57  1  0.71915000  0.66384000  0.15900000  1.0
  H  H58  1  0.71915000  0.83615000  0.65900000  1.0
  H  H59  1  0.28085000  0.33616000  0.84100000  1.0
  H  H60  1  0.37554000  0.11540000  0.42171000  1.0
  H  H61  1  0.62447000  0.61540000  0.07829000  1.0
  H  H62  1  0.62446000  0.88459000  0.57829000  1.0
  H  H63  1  0.37553000  0.38459000  0.92171000  1.0
  H  H64  1  0.34296000  0.48170000  0.37097000  1.0
  H  H65  1  0.65703000  0.98170000  0.12903000  1.0
  H  H66  1  0.65703000  0.51830000  0.62903000  1.0
  H  H67  1  0.34297000  0.01830000  0.87098000  1.0
  H  H68  1  0.43980000  0.98228000  0.61380000  1.0
  H  H69  1  0.56020000  0.48228000  0.88620000  1.0
  H  H70  1  0.56021000  0.01772000  0.38620000  1.0
  H  H71  1  0.43980000  0.51772000  0.11379000  1.0
  H  H72  1  0.25270000  0.27428000  0.52861000  1.0
  H  H73  1  0.74730000  0.77429000  0.97138000  1.0
  H  H74  1  0.74731000  0.72572000  0.47138000  1.0
  H  H75  1  0.25270000  0.22571000  0.02862000  1.0
  H  H76  1  0.44844000  0.43395000  0.44849000  1.0
  H  H77  1  0.55155000  0.93395000  0.05151000  1.0
  H  H78  1  0.55155000  0.56605000  0.55151000  1.0
  H  H79  1  0.44845000  0.06605000  0.94849000  1.0
  H  H80  1  0.96244000  0.28908000  0.85512000  1.0
  H  H81  1  0.03755000  0.78909000  0.64488000  1.0
  H  H82  1  0.03757000  0.71091000  0.14488000  1.0
  H  H83  1  0.96243000  0.21091000  0.35512000  1.0
  H  H84  1  0.99809000  0.47645000  0.93964000  1.0
  H  H85  1  0.00189000  0.97646000  0.56037000  1.0
  H  H86  1  0.00191000  0.52354000  0.06036000  1.0
  H  H87  1  0.99809000  0.02354000  0.43964000  1.0
  H  H88  1  0.13416000  0.40416000  0.93578000  1.0
  H  H89  1  0.86583000  0.90417000  0.56422000  1.0
  H  H90  1  0.86583000  0.59583000  0.06422000  1.0
  H  H91  1  0.13417000  0.09583000  0.43578000  1.0
  H  H92  1  0.99506000  0.33979000  0.93304000  1.0
  H  H93  1  0.00493000  0.83979000  0.56696000  1.0
  H  H94  1  0.00494000  0.66021000  0.06696000  1.0
  H  H95  1  0.99506000  0.16021000  0.43304000  1.0
  H  H96  1  0.14509000  0.49778000  0.79798000  1.0
  H  H97  1  0.85490000  0.99780000  0.70202000  1.0
  H  H98  1  0.85491000  0.50222000  0.20201000  1.0
  H  H99  1  0.14509000  0.00220000  0.29799000  1.0
  H  H100  1  0.21486000  0.51041000  0.85784000  1.0
  H  H101  1  0.78513000  0.01042000  0.64216000  1.0
  H  H102  1  0.78514000  0.48959000  0.14216000  1.0
  H  H103  1  0.21486000  0.98958000  0.35785000  1.0
  H  H104  1  0.07969000  0.57822000  0.85021000  1.0
  H  H105  1  0.92030000  0.07823000  0.64979000  1.0
  H  H106  1  0.92031000  0.42178000  0.14979000  1.0
  H  H107  1  0.07969000  0.92177000  0.35022000  1.0
  C  C108  1  0.82762000  0.39277000  0.35533000  1.0
  C  C109  1  0.17239000  0.89276000  0.14468000  1.0
  C  C110  1  0.17239000  0.60724000  0.64467000  1.0
  C  C111  1  0.82763000  0.10723000  0.85533000  1.0
  C  C112  1  0.48173000  0.24301000  0.48625000  1.0
  C  C113  1  0.51827000  0.74301000  0.01375000  1.0
  C  C114  1  0.51827000  0.75699000  0.51375000  1.0
  C  C115  1  0.48173000  0.25699000  0.98625000  1.0
  C  C116  1  0.30577000  0.32559000  0.35124000  1.0
  C  C117  1  0.69422000  0.82559000  0.14876000  1.0
  C  C118  1  0.69422000  0.67441000  0.64876000  1.0
  C  C119  1  0.30578000  0.17441000  0.85124000  1.0
  C  C120  1  0.28426000  0.07826000  0.61480000  1.0
  C  C121  1  0.71573000  0.57826000  0.88520000  1.0
  C  C122  1  0.71573000  0.92173000  0.38520000  1.0
  C  C123  1  0.28427000  0.42174000  0.11480000  1.0
  C  C124  1  0.79070000  0.27099000  0.62406000  1.0
  C  C125  1  0.20929000  0.77099000  0.87594000  1.0
  C  C126  1  0.20929000  0.72901000  0.37594000  1.0
  C  C127  1  0.79071000  0.22901000  0.12406000  1.0
  C  C128  1  0.65897000  0.26666000  0.53652000  1.0
  C  C129  1  0.34103000  0.76666000  0.96349000  1.0
  C  C130  1  0.34102000  0.73334000  0.46348000  1.0
  C  C131  1  0.65897000  0.23334000  0.03651000  1.0
  C  C132  1  0.86261000  0.28086000  0.66944000  1.0
  C  C133  1  0.13739000  0.78086000  0.83055000  1.0
  C  C134  1  0.13738000  0.71914000  0.33055000  1.0
  C  C135  1  0.86261000  0.21914000  0.16945000  1.0
  C  C136  1  0.24355000  0.35514000  0.30455000  1.0
  C  C137  1  0.75644000  0.85514000  0.19545000  1.0
  C  C138  1  0.75645000  0.64485000  0.69545000  1.0
  C  C139  1  0.24355000  0.14485000  0.80456000  1.0
  C  C140  1  0.23083000  0.15967000  0.59020000  1.0
  C  C141  1  0.76917000  0.65967000  0.90980000  1.0
  C  C142  1  0.76917000  0.84032000  0.40980000  1.0
  C  C143  1  0.23084000  0.34032000  0.09020000  1.0
  C  C144  1  0.41277000  0.18299000  0.52894000  1.0
  C  C145  1  0.58723000  0.68300000  0.97105000  1.0
  C  C146  1  0.58723000  0.81700000  0.47106000  1.0
  C  C147  1  0.41277000  0.31700000  0.02894000  1.0
  C  C148  1  0.67113000  0.31826000  0.44165000  1.0
  C  C149  1  0.32886000  0.81826000  0.05835000  1.0
  C  C150  1  0.32886000  0.68174000  0.55835000  1.0
  C  C151  1  0.67114000  0.18174000  0.94165000  1.0
  C  C152  1  0.41917000  0.27141000  0.44022000  1.0
  C  C153  1  0.58083000  0.77141000  0.05977000  1.0
  C  C154  1  0.58083000  0.72859000  0.55978000  1.0
  C  C155  1  0.41918000  0.22859000  0.94023000  1.0
  C  C156  1  0.76052000  0.30349000  0.34988000  1.0
  C  C157  1  0.23949000  0.80348000  0.15012000  1.0
  C  C158  1  0.23948000  0.69651000  0.65012000  1.0
  C  C159  1  0.76053000  0.19651000  0.84988000  1.0
  C  C160  1  0.84237000  0.23183000  0.57503000  1.0
  C  C161  1  0.15763000  0.73183000  0.92496000  1.0
  C  C162  1  0.15763000  0.76817000  0.42497000  1.0
  C  C163  1  0.84238000  0.26816000  0.07504000  1.0
  C  C164  1  0.81380000  0.44630000  0.40371000  1.0
  C  C165  1  0.18620000  0.94630000  0.09629000  1.0
  C  C166  1  0.18620000  0.55370000  0.59629000  1.0
  C  C167  1  0.81381000  0.05370000  0.90372000  1.0
  C  C168  1  0.67180000  0.30551000  0.62931000  1.0
  C  C169  1  0.32819000  0.80551000  0.87069000  1.0
  C  C170  1  0.32819000  0.69449000  0.37069000  1.0
  C  C171  1  0.67181000  0.19449000  0.12931000  1.0
  C  C172  1  0.60645000  0.30283000  0.58623000  1.0
  C  C173  1  0.39355000  0.80283000  0.91377000  1.0
  C  C174  1  0.39355000  0.69718000  0.41377000  1.0
  C  C175  1  0.60646000  0.19717000  0.08623000  1.0
  C  C176  1  0.91836000  0.42458000  0.31067000  1.0
  C  C177  1  0.08165000  0.92457000  0.18934000  1.0
  C  C178  1  0.08165000  0.57544000  0.68934000  1.0
  C  C179  1  0.91837000  0.07542000  0.81067000  1.0
  C  C180  1  0.73748000  0.40856000  0.44659000  1.0
  C  C181  1  0.26252000  0.90855000  0.05341000  1.0
  C  C182  1  0.26252000  0.59144000  0.55341000  1.0
  C  C183  1  0.73749000  0.09145000  0.94660000  1.0
  C  C184  1  0.68284000  0.26708000  0.39251000  1.0
  C  C185  1  0.31717000  0.76708000  0.10749000  1.0
  C  C186  1  0.31716000  0.73292000  0.60749000  1.0
  C  C187  1  0.68285000  0.23292000  0.89251000  1.0
  C  C188  1  0.77765000  0.23059000  0.53183000  1.0
  C  C189  1  0.22234000  0.73059000  0.96817000  1.0
  C  C190  1  0.22234000  0.76941000  0.46817000  1.0
  C  C191  1  0.77766000  0.26941000  0.03183000  1.0
  C  C192  1  0.46394000  0.09878000  0.55266000  1.0
  C  C193  1  0.53606000  0.59878000  0.94734000  1.0
  C  C194  1  0.53606000  0.90122000  0.44734000  1.0
  C  C195  1  0.46394000  0.40122000  0.05266000  1.0
  C  C196  1  0.31566000  0.22235000  0.36557000  1.0
  C  C197  1  0.68434000  0.72235000  0.13442000  1.0
  C  C198  1  0.68434000  0.77764000  0.63442000  1.0
  C  C199  1  0.31566000  0.27764000  0.86558000  1.0
  C  C200  1  0.36898000  0.19576000  0.41029000  1.0
  C  C201  1  0.63102000  0.69576000  0.08971000  1.0
  C  C202  1  0.63102000  0.80423000  0.58971000  1.0
  C  C203  1  0.36898000  0.30424000  0.91030000  1.0
  C  C204  1  0.59699000  0.27390000  0.48848000  1.0
  C  C205  1  0.40301000  0.77390000  0.01152000  1.0
  C  C206  1  0.40301000  0.72610000  0.51152000  1.0
  C  C207  1  0.59700000  0.22610000  0.98848000  1.0
  C  C208  1  0.22183000  0.02775000  0.66285000  1.0
  C  C209  1  0.77818000  0.52775000  0.83715000  1.0
  C  C210  1  0.77817000  0.97225000  0.33715000  1.0
  C  C211  1  0.22183000  0.47225000  0.16285000  1.0
  C  C212  1  0.35248000  0.40160000  0.38191000  1.0
  C  C213  1  0.64751000  0.90160000  0.11809000  1.0
  C  C214  1  0.64751000  0.59839000  0.61809000  1.0
  C  C215  1  0.35249000  0.09839000  0.88191000  1.0
  C  C216  1  0.40030000  0.04669000  0.59478000  1.0
  C  C217  1  0.59970000  0.54669000  0.90522000  1.0
  C  C218  1  0.59970000  0.95331000  0.40522000  1.0
  C  C219  1  0.40030000  0.45331000  0.09477000  1.0
  C  C220  1  0.29383000  0.21009000  0.54719000  1.0
  C  C221  1  0.70617000  0.71009000  0.95280000  1.0
  C  C222  1  0.70617000  0.78991000  0.45280000  1.0
  C  C223  1  0.29383000  0.28990000  0.04720000  1.0
  C  C224  1  0.40996000  0.37470000  0.42537000  1.0
  C  C225  1  0.59003000  0.87470000  0.07463000  1.0
  C  C226  1  0.59003000  0.62529000  0.57463000  1.0
  C  C227  1  0.40997000  0.12530000  0.92538000  1.0
  C  C228  1  0.00915000  0.35356000  0.83343000  1.0
  C  C229  1  0.99084000  0.85357000  0.66659000  1.0
  C  C230  1  0.99085000  0.64644000  0.16658000  1.0
  C  C231  1  0.00915000  0.14643000  0.33341000  1.0
  C  C232  1  0.04622000  0.40939000  0.92133000  1.0
  C  C233  1  0.95376000  0.90940000  0.57867000  1.0
  C  C234  1  0.95377000  0.59061000  0.07867000  1.0
  C  C235  1  0.04623000  0.09060000  0.42133000  1.0
  C  C236  1  0.12940000  0.50675000  0.84114000  1.0
  C  C237  1  0.87059000  0.00677000  0.65886000  1.0
  C  C238  1  0.87060000  0.49325000  0.15886000  1.0
  C  C239  1  0.12940000  0.99324000  0.34115000  1.0
  N  N240  1  0.06069000  0.41941000  0.86386000  1.0
  N  N241  1  0.93929000  0.91942000  0.63614000  1.0
  N  N242  1  0.93931000  0.58059000  0.13614000  1.0
  N  N243  1  0.06069000  0.08058000  0.36386000  1.0
  O  O244  1  0.12718000  0.07101000  0.68789000  1.0
  O  O245  1  0.87283000  0.57100000  0.81212000  1.0
  O  O246  1  0.87282000  0.92900000  0.31211000  1.0
  O  O247  1  0.12718000  0.42900000  0.18788000  1.0
  O  O248  1  0.81372000  0.32446000  0.71159000  1.0
  O  O249  1  0.18627000  0.82446000  0.78841000  1.0
  O  O250  1  0.18628000  0.67554000  0.28841000  1.0
  O  O251  1  0.81372000  0.17555000  0.21159000  1.0
  O  O252  1  0.96962000  0.24614000  0.66329000  1.0
  O  O253  1  0.03038000  0.74613000  0.83671000  1.0
  O  O254  1  0.03038000  0.75387000  0.33671000  1.0
  O  O255  1  0.96962000  0.25387000  0.16329000  1.0
  O  O256  1  0.01128000  0.36265000  0.78381000  1.0
  O  O257  1  0.98872000  0.86266000  0.71619000  1.0
  O  O258  1  0.98872000  0.63734000  0.21619000  1.0
  O  O259  1  0.01128000  0.13734000  0.28381000  1.0
  O  O260  1  0.19494000  0.16601000  0.18273000  1.0
  O  O261  1  0.80505000  0.66601000  0.31727000  1.0
  O  O262  1  0.80506000  0.83399000  0.81727000  1.0
  O  O263  1  0.19494000  0.33399000  0.68273000  1.0
  O  O264  1  0.22634000  0.45021000  0.29760000  1.0
  O  O265  1  0.77365000  0.95021000  0.20240000  1.0
  O  O266  1  0.77365000  0.54977000  0.70241000  1.0
  O  O267  1  0.22636000  0.04979000  0.79759000  1.0
  O  O268  1  0.94530000  0.36066000  0.27355000  1.0
  O  O269  1  0.05471000  0.86065000  0.22646000  1.0
  O  O270  1  0.05471000  0.63935000  0.72645000  1.0
  O  O271  1  0.94529000  0.13934000  0.77354000  1.0
  O  O272  1  0.96562000  0.51431000  0.31181000  1.0
  O  O273  1  0.03438000  0.01430000  0.18819000  1.0
  O  O274  1  0.03438000  0.48570000  0.68819000  1.0
  O  O275  1  0.96563000  0.98569000  0.81182000  1.0
  O  O276  1  0.25948000  0.94443000  0.68016000  1.0
  O  O277  1  0.74052000  0.44443000  0.81984000  1.0
  O  O278  1  0.74050000  0.05558000  0.31984000  1.0
  O  O279  1  0.25949000  0.55557000  0.18016000  1.0
  O  O280  1  0.21080000  0.28274000  0.27554000  1.0
  O  O281  1  0.78920000  0.78273000  0.22446000  1.0
  O  O282  1  0.78920000  0.71726000  0.72446000  1.0
  O  O283  1  0.21079000  0.21727000  0.77555000  1.0
