# generated using pymatgen
data_CoH18C20N6O5
_symmetry_space_group_name_H-M   'P 1'
_cell_length_a   9.88340000
_cell_length_b   10.48410000
_cell_length_c   10.90540000
_cell_angle_alpha   67.96380000
_cell_angle_beta   88.09350000
_cell_angle_gamma   65.54790000
_symmetry_Int_Tables_number   1
_chemical_formula_structural   CoH18C20N6O5
_chemical_formula_sum   'Co2 H36 C40 N12 O10'
_cell_volume   943.47869125
_cell_formula_units_Z   2
loop_
 _symmetry_equiv_pos_site_id
 _symmetry_equiv_pos_as_xyz
  1  'x, y, z'
loop_
 _atom_site_type_symbol
 _atom_site_label
 _atom_site_symmetry_multiplicity
 _atom_site_fract_x
 _atom_site_fract_y
 _atom_site_fract_z
 _atom_site_occupancy
  Co  Co0  1  0.40667000  0.34948000  0.42987000  1.0
  Co  Co1  1  0.59334000  0.65052000  0.57013000  1.0
  H  H2  1  0.98090000  0.22773000  0.83232000  1.0
  H  H3  1  0.01909000  0.77227000  0.16769000  1.0
  H  H4  1  0.77751000  0.16637000  0.77958000  1.0
  H  H5  1  0.22249000  0.83362000  0.22041000  1.0
  H  H6  1  0.84047000  0.90453000  0.79403000  1.0
  H  H7  1  0.15953000  0.09546000  0.20597000  1.0
  H  H8  1  0.10489000  0.71050000  0.85229000  1.0
  H  H9  1  0.89512000  0.28950000  0.14770000  1.0
  H  H10  1  0.36135000  0.65020000  0.87297000  1.0
  H  H11  1  0.63866000  0.34981000  0.12703000  1.0
  H  H12  1  0.43407000  0.77864000  0.87412000  1.0
  H  H13  1  0.56593000  0.22137000  0.12588000  1.0
  H  H14  1  0.22397000  0.14474000  0.93371000  1.0
  H  H15  1  0.77601000  0.85526000  0.06630000  1.0
  H  H16  1  0.36263000  0.95304000  0.98956000  1.0
  H  H17  1  0.63736000  0.04697000  0.01044000  1.0
  H  H18  1  0.57334000  0.57139000  0.33580000  1.0
  H  H19  1  0.42670000  0.42858000  0.66420000  1.0
  H  H20  1  0.27908000  0.51309000  0.11420000  1.0
  H  H21  1  0.72091000  0.48694000  0.88580000  1.0
  H  H22  1  0.61598000  0.99627000  0.62304000  1.0
  H  H23  1  0.38402000  0.00373000  0.37699000  1.0
  H  H24  1  0.20002000  0.31504000  0.66322000  1.0
  H  H25  1  0.79995000  0.68495000  0.33676000  1.0
  H  H26  1  0.79637000  0.92694000  0.47360000  1.0
  H  H27  1  0.20363000  0.07302000  0.52641000  1.0
  H  H28  1  0.06303000  0.73895000  0.51348000  1.0
  H  H29  1  0.93696000  0.26102000  0.48652000  1.0
  H  H30  1  0.26382000  0.31002000  0.09803000  1.0
  H  H31  1  0.73618000  0.68998000  0.90197000  1.0
  H  H32  1  0.17020000  0.38388000  0.86010000  1.0
  H  H33  1  0.82978000  0.61613000  0.13989000  1.0
  H  H34  1  0.14693000  0.52323000  0.41868000  1.0
  H  H35  1  0.85307000  0.47676000  0.58132000  1.0
  H  H36  1  0.25902000  0.59164000  0.46055000  1.0
  H  H37  1  0.74098000  0.40835000  0.53945000  1.0
  C  C38  1  0.19272000  0.85700000  0.87875000  1.0
  C  C39  1  0.80728000  0.14300000  0.12125000  1.0
  C  C40  1  0.15675000  0.00332000  0.87468000  1.0
  C  C41  1  0.84323000  0.99669000  0.12532000  1.0
  C  C42  1  0.00727000  0.11351000  0.83842000  1.0
  C  C43  1  0.99272000  0.88650000  0.16158000  1.0
  C  C44  1  0.89330000  0.07915000  0.80941000  1.0
  C  C45  1  0.10669000  0.92086000  0.19059000  1.0
  C  C46  1  0.92829000  0.93318000  0.81629000  1.0
  C  C47  1  0.07171000  0.06682000  0.18371000  1.0
  C  C48  1  0.07738000  0.82366000  0.84980000  1.0
  C  C49  1  0.92262000  0.17634000  0.15020000  1.0
  C  C50  1  0.35235000  0.73369000  0.91408000  1.0
  C  C51  1  0.64766000  0.26632000  0.08592000  1.0
  C  C52  1  0.27579000  0.04604000  0.90665000  1.0
  C  C53  1  0.72419000  0.95397000  0.09336000  1.0
  C  C54  1  0.50507000  0.58258000  0.25338000  1.0
  C  C55  1  0.49496000  0.41741000  0.74661000  1.0
  C  C56  1  0.35396000  0.55082000  0.14441000  1.0
  C  C57  1  0.64604000  0.44920000  0.85559000  1.0
  C  C58  1  0.51767000  0.05090000  0.66379000  1.0
  C  C59  1  0.48233000  0.94911000  0.33623000  1.0
  C  C60  1  0.30518000  0.21453000  0.68074000  1.0
  C  C61  1  0.69480000  0.78548000  0.31925000  1.0
  C  C62  1  0.85028000  0.10535000  0.47788000  1.0
  C  C63  1  0.14972000  0.89460000  0.52212000  1.0
  C  C64  1  0.88592000  0.95868000  0.48413000  1.0
  C  C65  1  0.11408000  0.04127000  0.51587000  1.0
  C  C66  1  0.03514000  0.85366000  0.50651000  1.0
  C  C67  1  0.96488000  0.14630000  0.49349000  1.0
  C  C68  1  0.69102000  0.21286000  0.46444000  1.0
  C  C69  1  0.30896000  0.78714000  0.53555000  1.0
  C  C70  1  0.05296000  0.46064000  0.13327000  1.0
  C  C71  1  0.94704000  0.53939000  0.86672000  1.0
  C  C72  1  0.14834000  0.39354000  0.05438000  1.0
  C  C73  1  0.85165000  0.60648000  0.94562000  1.0
  C  C74  1  0.09589000  0.43351000  0.92231000  1.0
  C  C75  1  0.90410000  0.56651000  0.07768000  1.0
  C  C76  1  0.11494000  0.43038000  0.27076000  1.0
  C  C77  1  0.88506000  0.56963000  0.72924000  1.0
  N  N78  1  0.39984000  0.65076000  0.05928000  1.0
  N  N79  1  0.60018000  0.34925000  0.94072000  1.0
  N  N80  1  0.49617000  0.67293000  0.12682000  1.0
  N  N81  1  0.50386000  0.32705000  0.87318000  1.0
  N  N82  1  0.41877000  0.50452000  0.26902000  1.0
  N  N83  1  0.58123000  0.49549000  0.73097000  1.0
  N  N84  1  0.35463000  0.08576000  0.79252000  1.0
  N  N85  1  0.64536000  0.91425000  0.20749000  1.0
  N  N86  1  0.48920000  0.98049000  0.78356000  1.0
  N  N87  1  0.51079000  0.01953000  0.21646000  1.0
  N  N88  1  0.40801000  0.19659000  0.59706000  1.0
  N  N89  1  0.59198000  0.80342000  0.40294000  1.0
  O  O90  1  0.58987000  0.19971000  0.40485000  1.0
  O  O91  1  0.41012000  0.80027000  0.59514000  1.0
  O  O92  1  0.65352000  0.31125000  0.51585000  1.0
  O  O93  1  0.34650000  0.68875000  0.48415000  1.0
  O  O94  1  0.24649000  0.32312000  0.31919000  1.0
  O  O95  1  0.75349000  0.67688000  0.68081000  1.0
  O  O96  1  0.03605000  0.52229000  0.32387000  1.0
  O  O97  1  0.96396000  0.47774000  0.67611000  1.0
  O  O98  1  0.24131000  0.49984000  0.47664000  1.0
  O  O99  1  0.75870000  0.50016000  0.52336000  1.0
