# generated using pymatgen
data_SrH10C18(N2O)4
_symmetry_space_group_name_H-M   'P 1'
_cell_length_a   7.14051000
_cell_length_b   7.47536000
_cell_length_c   22.31180000
_cell_angle_alpha   90.00050000
_cell_angle_beta   90.00040000
_cell_angle_gamma   117.35000000
_symmetry_Int_Tables_number   1
_chemical_formula_structural   SrH10C18(N2O)4
_chemical_formula_sum   'Sr2 H20 C36 N16 O8'
_cell_volume   1057.82751902
_cell_formula_units_Z   2
loop_
 _symmetry_equiv_pos_site_id
 _symmetry_equiv_pos_as_xyz
  1  'x, y, z'
loop_
 _atom_site_type_symbol
 _atom_site_label
 _atom_site_symmetry_multiplicity
 _atom_site_fract_x
 _atom_site_fract_y
 _atom_site_fract_z
 _atom_site_occupancy
  Sr  Sr0  1  0.40620000  0.95706000  0.25000000  1.0
  Sr  Sr1  1  0.59380000  0.04294000  0.75000000  1.0
  H  H2  1  0.92735000  0.70444000  0.28557000  1.0
  H  H3  1  0.07265000  0.29556000  0.78557000  1.0
  H  H4  1  0.07264000  0.29556000  0.71444000  1.0
  H  H5  1  0.92736000  0.70445000  0.21444000  1.0
  H  H6  1  0.58753000  0.66119000  0.28525000  1.0
  H  H7  1  0.41248000  0.33881000  0.78524000  1.0
  H  H8  1  0.41247000  0.33881000  0.71475000  1.0
  H  H9  1  0.58752000  0.66119000  0.21476000  1.0
  H  H10  1  0.72550000  0.11479000  0.13780000  1.0
  H  H11  1  0.27450000  0.88522000  0.63780000  1.0
  H  H12  1  0.27450000  0.88522000  0.86220000  1.0
  H  H13  1  0.72550000  0.11478000  0.36220000  1.0
  H  H14  1  0.87811000  0.13747000  0.19060000  1.0
  H  H15  1  0.12190000  0.86254000  0.69060000  1.0
  H  H16  1  0.12189000  0.86253000  0.80940000  1.0
  H  H17  1  0.87811000  0.13747000  0.30940000  1.0
  H  H18  1  0.22295000  0.06855000  0.49451000  1.0
  H  H19  1  0.77706000  0.93146000  0.99451000  1.0
  H  H20  1  0.77705000  0.93144000  0.50549000  1.0
  H  H21  1  0.22295000  0.06854000  0.00548000  1.0
  C  C22  1  0.24382000  0.30425000  0.42958000  1.0
  C  C23  1  0.75619000  0.69577000  0.92959000  1.0
  C  C24  1  0.75619000  0.69573000  0.57042000  1.0
  C  C25  1  0.24381000  0.30426000  0.07042000  1.0
  C  C26  1  0.25478000  0.49899000  0.43840000  1.0
  C  C27  1  0.74525000  0.50103000  0.93840000  1.0
  C  C28  1  0.74523000  0.50099000  0.56160000  1.0
  C  C29  1  0.25477000  0.49899000  0.06160000  1.0
  C  C30  1  0.24811000  0.52763000  0.50082000  1.0
  C  C31  1  0.75191000  0.47239000  0.00082000  1.0
  C  C32  1  0.75189000  0.47235000  0.49918000  1.0
  C  C33  1  0.24810000  0.52763000  0.99917000  1.0
  C  C34  1  0.23096000  0.34972000  0.53010000  1.0
  C  C35  1  0.76903000  0.65029000  0.03010000  1.0
  C  C36  1  0.76904000  0.65027000  0.46990000  1.0
  C  C37  1  0.23096000  0.34971000  0.96990000  1.0
  C  C38  1  0.22865000  0.21383000  0.48597000  1.0
  C  C39  1  0.77134000  0.78618000  0.98598000  1.0
  C  C40  1  0.77136000  0.78616000  0.51403000  1.0
  C  C41  1  0.22865000  0.21383000  0.01403000  1.0
  C  C42  1  0.25892000  0.22481000  0.37383000  1.0
  C  C43  1  0.74109000  0.77520000  0.87384000  1.0
  C  C44  1  0.74109000  0.77518000  0.62616000  1.0
  C  C45  1  0.25892000  0.22482000  0.12616000  1.0
  C  C46  1  0.27606000  0.63883000  0.39378000  1.0
  C  C47  1  0.72395000  0.36118000  0.89378000  1.0
  C  C48  1  0.72393000  0.36115000  0.60622000  1.0
  C  C49  1  0.27605000  0.63883000  0.10621000  1.0
  C  C50  1  0.26671000  0.70049000  0.53029000  1.0
  C  C51  1  0.73330000  0.29953000  0.03028000  1.0
  C  C52  1  0.73329000  0.29950000  0.46971000  1.0
  C  C53  1  0.26671000  0.70048000  0.96971000  1.0
  C  C54  1  0.23126000  0.32818000  0.59256000  1.0
  C  C55  1  0.76872000  0.67182000  0.09256000  1.0
  C  C56  1  0.76874000  0.67181000  0.40744000  1.0
  C  C57  1  0.23126000  0.32817000  0.90744000  1.0
  N  N58  1  0.27518000  0.16098000  0.32734000  1.0
  N  N59  1  0.72482000  0.83902000  0.82734000  1.0
  N  N60  1  0.72481000  0.83901000  0.67266000  1.0
  N  N61  1  0.27520000  0.16099000  0.17266000  1.0
  N  N62  1  0.29684000  0.75563000  0.35631000  1.0
  N  N63  1  0.70317000  0.24438000  0.85631000  1.0
  N  N64  1  0.70316000  0.24436000  0.64369000  1.0
  N  N65  1  0.29683000  0.75563000  0.14369000  1.0
  N  N66  1  0.28446000  0.84227000  0.55696000  1.0
  N  N67  1  0.71554000  0.15775000  0.05696000  1.0
  N  N68  1  0.71554000  0.15771000  0.44304000  1.0
  N  N69  1  0.28447000  0.84227000  0.94304000  1.0
  N  N70  1  0.23661000  0.31925000  0.64483000  1.0
  N  N71  1  0.76338000  0.68075000  0.14484000  1.0
  N  N72  1  0.76339000  0.68073000  0.35517000  1.0
  N  N73  1  0.23661000  0.31925000  0.85517000  1.0
  O  O74  1  0.01655000  0.72729000  0.25000000  1.0
  O  O75  1  0.98345000  0.27271000  0.75000000  1.0
  O  O76  1  0.50973000  0.66985000  0.25000000  1.0
  O  O77  1  0.49027000  0.33015000  0.75000000  1.0
  O  O78  1  0.73827000  0.12280000  0.18192000  1.0
  O  O79  1  0.26173000  0.87720000  0.68192000  1.0
  O  O80  1  0.26172000  0.87720000  0.81808000  1.0
  O  O81  1  0.73827000  0.12280000  0.31808000  1.0
