# generated using pymatgen
data_CdH3C2SN3Cl2
_symmetry_space_group_name_H-M   'P 1'
_cell_length_a   7.24321000
_cell_length_b   7.71196000
_cell_length_c   12.60330000
_cell_angle_alpha   96.54730000
_cell_angle_beta   90.00000000
_cell_angle_gamma   89.99990000
_symmetry_Int_Tables_number   1
_chemical_formula_structural   CdH3C2SN3Cl2
_chemical_formula_sum   'Cd4 H12 C8 S4 N12 Cl8'
_cell_volume   699.42057048
_cell_formula_units_Z   4
loop_
 _symmetry_equiv_pos_site_id
 _symmetry_equiv_pos_as_xyz
  1  'x, y, z'
loop_
 _atom_site_type_symbol
 _atom_site_label
 _atom_site_symmetry_multiplicity
 _atom_site_fract_x
 _atom_site_fract_y
 _atom_site_fract_z
 _atom_site_occupancy
  Cd  Cd0  1  0.83211000  0.26344000  0.25322000  1.0
  Cd  Cd1  1  0.33211000  0.23656000  0.24678000  1.0
  Cd  Cd2  1  0.16789000  0.73656000  0.74678000  1.0
  Cd  Cd3  1  0.66789000  0.76344000  0.75322000  1.0
  H  H4  1  0.17078000  0.15049000  0.01030000  1.0
  H  H5  1  0.67077000  0.34952000  0.48970000  1.0
  H  H6  1  0.82922000  0.84951000  0.98970000  1.0
  H  H7  1  0.32922000  0.65048000  0.51030000  1.0
  H  H8  1  0.21996000  0.17556000  0.87879000  1.0
  H  H9  1  0.71995000  0.32444000  0.62122000  1.0
  H  H10  1  0.78005000  0.82445000  0.12122000  1.0
  H  H11  1  0.28005000  0.67555000  0.37879000  1.0
  H  H12  1  0.88766000  0.36120000  0.99314000  1.0
  H  H13  1  0.38766000  0.13881000  0.50685000  1.0
  H  H14  1  0.11234000  0.63881000  0.00686000  1.0
  H  H15  1  0.61235000  0.86119000  0.49314000  1.0
  C  C16  1  0.74413000  0.32467000  0.00179000  1.0
  C  C17  1  0.24412000  0.17533000  0.49821000  1.0
  C  C18  1  0.25588000  0.67533000  0.99821000  1.0
  C  C19  1  0.75587000  0.82466000  0.50179000  1.0
  C  C20  1  0.42578000  0.24463000  0.98513000  1.0
  C  C21  1  0.92578000  0.25536000  0.51486000  1.0
  C  C22  1  0.57422000  0.75537000  0.01487000  1.0
  C  C23  1  0.07422000  0.74464000  0.48513000  1.0
  S  S24  1  0.59165000  0.30628000  0.89683000  1.0
  S  S25  1  0.09164000  0.19371000  0.60317000  1.0
  S  S26  1  0.40836000  0.69371000  0.10317000  1.0
  S  S27  1  0.90836000  0.80628000  0.39683000  1.0
  N  N28  1  0.67322000  0.28737000  0.09146000  1.0
  N  N29  1  0.17321000  0.21263000  0.40853000  1.0
  N  N30  1  0.32678000  0.71264000  0.90853000  1.0
  N  N31  1  0.82678000  0.78736000  0.59147000  1.0
  N  N32  1  0.49063000  0.24343000  0.08408000  1.0
  N  N33  1  0.99062000  0.25658000  0.41593000  1.0
  N  N34  1  0.50938000  0.75658000  0.91593000  1.0
  N  N35  1  0.00938000  0.74342000  0.58407000  1.0
  N  N36  1  0.24948000  0.20997000  0.95728000  1.0
  N  N37  1  0.74948000  0.29002000  0.54272000  1.0
  N  N38  1  0.75052000  0.79002000  0.04272000  1.0
  N  N39  1  0.25052000  0.70997000  0.45729000  1.0
  Cl  Cl40  1  0.09139000  0.49013000  0.21222000  1.0
  Cl  Cl41  1  0.59139000  0.00988000  0.28778000  1.0
  Cl  Cl42  1  0.90861000  0.50988000  0.78778000  1.0
  Cl  Cl43  1  0.40861000  0.99013000  0.71222000  1.0
  Cl  Cl44  1  0.06879000  0.02804000  0.16030000  1.0
  Cl  Cl45  1  0.56879000  0.47196000  0.33970000  1.0
  Cl  Cl46  1  0.93121000  0.97197000  0.83970000  1.0
  Cl  Cl47  1  0.43121000  0.52804000  0.66030000  1.0
