# generated using pymatgen
data_ZnH14C18BrN7O4
_symmetry_space_group_name_H-M   'P 1'
_cell_length_a   11.07540000
_cell_length_b   16.13310000
_cell_length_c   17.26900000
_cell_angle_alpha   95.87400000
_cell_angle_beta   90.67880000
_cell_angle_gamma   92.40890000
_symmetry_Int_Tables_number   1
_chemical_formula_structural   ZnH14C18BrN7O4
_chemical_formula_sum   'Zn2 H28 C36 Br2 N14 O8'
_cell_volume   3066.31536733
_cell_formula_units_Z   2
loop_
 _symmetry_equiv_pos_site_id
 _symmetry_equiv_pos_as_xyz
  1  'x, y, z'
loop_
 _atom_site_type_symbol
 _atom_site_label
 _atom_site_symmetry_multiplicity
 _atom_site_fract_x
 _atom_site_fract_y
 _atom_site_fract_z
 _atom_site_occupancy
  Zn  Zn0  1  0.49704000  0.41043000  0.49988000  1.0
  Zn  Zn1  1  0.50467000  0.59506000  0.50603000  1.0
  H  H2  1  0.38922000  0.71734000  0.42622000  1.0
  H  H3  1  0.37833000  0.87338000  0.42990000  1.0
  H  H4  1  0.30708000  0.11259000  0.42455000  1.0
  H  H5  1  0.63656000  0.12081000  0.56066000  1.0
  H  H6  1  0.52314000  0.61848000  0.26757000  1.0
  H  H7  1  0.52520000  0.61737000  0.12185000  1.0
  H  H8  1  0.52581000  0.66135000  0.90524000  1.0
  H  H9  1  0.48696000  0.39444000  0.89122000  1.0
  H  H10  1  0.76331000  0.55531000  0.38350000  1.0
  H  H11  1  0.86283000  0.59648000  0.26590000  1.0
  H  H12  1  0.21268000  0.55716000  0.36435000  1.0
  H  H13  1  0.08806000  0.59619000  0.25577000  1.0
  H  H14  1  0.69663000  0.66976000  0.58892000  1.0
  H  H15  1  0.70525000  0.75724000  0.65555000  1.0
  H  H16  1  0.68940000  0.96591000  0.60758000  1.0
  H  H17  1  0.76747000  0.87812000  0.62001000  1.0
  H  H18  1  0.29302000  0.33964000  0.44217000  1.0
  H  H19  1  0.23213000  0.24413000  0.40088000  1.0
  H  H20  1  0.68244000  0.34392000  0.56051000  1.0
  H  H21  1  0.72847000  0.25450000  0.59529000  1.0
  H  H22  1  0.50736000  0.33446000  0.30710000  1.0
  H  H23  1  0.54105000  0.28466000  0.21671000  1.0
  H  H24  1  0.48508000  0.33781000  0.03391000  1.0
  H  H25  1  0.44120000  0.28720000  0.11175000  1.0
  H  H26  1  0.49291000  0.67030000  0.69819000  1.0
  H  H27  1  0.50179000  0.72519000  0.79057000  1.0
  H  H28  1  0.48812000  0.36382000  0.68206000  1.0
  H  H29  1  0.48139000  0.31849000  0.76964000  1.0
  C  C30  1  0.51154000  0.49017000  0.35197000  1.0
  C  C31  1  0.26480000  0.51231000  0.49725000  1.0
  C  C32  1  0.49409000  0.51598000  0.65525000  1.0
  C  C33  1  0.73981000  0.50162000  0.51317000  1.0
  C  C34  1  0.44863000  0.75994000  0.46378000  1.0
  C  C35  1  0.44229000  0.84495000  0.46623000  1.0
  C  C36  1  0.52273000  0.89595000  0.51663000  1.0
  C  C37  1  0.60574000  0.85844000  0.56300000  1.0
  C  C38  1  0.60510000  0.76914000  0.55745000  1.0
  C  C39  1  0.38198000  0.14804000  0.45527000  1.0
  C  C40  1  0.47054000  0.10672000  0.49214000  1.0
  C  C41  1  0.56595000  0.15220000  0.53240000  1.0
  C  C42  1  0.56970000  0.23926000  0.53471000  1.0
  C  C43  1  0.38988000  0.23587000  0.46016000  1.0
  C  C44  1  0.51104000  0.48495000  0.26579000  1.0
  C  C45  1  0.51827000  0.56016000  0.22961000  1.0
  C  C46  1  0.51976000  0.55995000  0.14991000  1.0
  C  C47  1  0.51112000  0.48300000  0.10231000  1.0
  C  C48  1  0.50383000  0.40717000  0.13652000  1.0
  C  C49  1  0.50580000  0.40749000  0.21918000  1.0
  C  C50  1  0.51459000  0.60192000  0.86920000  1.0
  C  C51  1  0.50703000  0.52856000  0.90568000  1.0
  C  C52  1  0.49343000  0.45099000  0.86178000  1.0
  C  C53  1  0.48796000  0.44567000  0.78029000  1.0
  C  C54  1  0.49683000  0.52039000  0.74097000  1.0
  C  C55  1  0.50907000  0.59919000  0.78771000  1.0
  C  C56  1  0.87547000  0.50578000  0.51112000  1.0
  C  C57  1  0.93092000  0.53119000  0.44282000  1.0
  C  C58  1  0.94462000  0.48460000  0.57254000  1.0
  C  C59  1  0.86147000  0.55481000  0.37954000  1.0
  C  C60  1  0.91737000  0.57824000  0.31382000  1.0
  C  C61  1  0.12911000  0.50981000  0.50215000  1.0
  C  C62  1  0.07268000  0.48636000  0.56825000  1.0
  C  C63  1  0.05997000  0.53272000  0.43804000  1.0
  C  C64  1  0.11455000  0.55627000  0.36898000  1.0
  C  C65  1  0.04469000  0.57841000  0.30835000  1.0
  Br  Br66  1  0.16694000  0.45863000  0.65372000  1.0
  Br  Br67  1  0.86452000  0.45551000  0.66362000  1.0
  N  N68  1  0.52744000  0.72247000  0.50918000  1.0
  N  N69  1  0.53349000  0.98294000  0.52275000  1.0
  N  N70  1  0.45452000  0.01850000  0.48543000  1.0
  N  N71  1  0.48328000  0.28102000  0.49868000  1.0
  N  N72  1  0.50448000  0.47371000  0.02103000  1.0
  N  N73  1  0.51530000  0.54051000  0.98803000  1.0
  N  N74  1  0.68979000  0.73299000  0.59955000  1.0
  N  N75  1  0.68612000  0.90373000  0.61347000  1.0
  N  N76  1  0.30458000  0.27772000  0.42505000  1.0
  N  N77  1  0.65885000  0.28590000  0.57596000  1.0
  N  N78  1  0.49749000  0.33080000  0.24796000  1.0
  N  N79  1  0.49807000  0.33092000  0.09139000  1.0
  N  N80  1  0.52042000  0.67358000  0.75506000  1.0
  N  N81  1  0.46948000  0.36841000  0.73987000  1.0
  O  O82  1  0.50308000  0.42174000  0.38409000  1.0
  O  O83  1  0.52075000  0.56250000  0.39007000  1.0
  O  O84  1  0.31772000  0.58324000  0.49707000  1.0
  O  O85  1  0.31481000  0.44232000  0.49281000  1.0
  O  O86  1  0.48488000  0.58339000  0.62224000  1.0
  O  O87  1  0.50188000  0.44442000  0.61549000  1.0
  O  O88  1  0.68763000  0.43007000  0.49909000  1.0
  O  O89  1  0.68812000  0.57029000  0.52490000  1.0
