# generated using pymatgen
data_HoH7C8SO9
_symmetry_space_group_name_H-M   'P 1'
_cell_length_a   6.34940000
_cell_length_b   8.56094000
_cell_length_c   10.58860000
_cell_angle_alpha   90.37640000
_cell_angle_beta   100.00900000
_cell_angle_gamma   107.68100000
_symmetry_Int_Tables_number   1
_chemical_formula_structural   HoH7C8SO9
_chemical_formula_sum   'Ho2 H14 C16 S2 O18'
_cell_volume   538.94676055
_cell_formula_units_Z   2
loop_
 _symmetry_equiv_pos_site_id
 _symmetry_equiv_pos_as_xyz
  1  'x, y, z'
loop_
 _atom_site_type_symbol
 _atom_site_label
 _atom_site_symmetry_multiplicity
 _atom_site_fract_x
 _atom_site_fract_y
 _atom_site_fract_z
 _atom_site_occupancy
  Ho  Ho0  1  0.15346000  0.24854000  0.61656000  1.0
  Ho  Ho1  1  0.84654000  0.75146000  0.38344000  1.0
  H  H2  1  0.61768000  0.41125000  0.14390000  1.0
  H  H3  1  0.38232000  0.58875000  0.85610000  1.0
  H  H4  1  0.65686000  0.36476000  0.91883000  1.0
  H  H5  1  0.34314000  0.63524000  0.08117000  1.0
  H  H6  1  0.18300000  0.15359000  0.05637000  1.0
  H  H7  1  0.81700000  0.84641000  0.94363000  1.0
  H  H8  1  0.52589000  0.08557000  0.67728000  1.0
  H  H9  1  0.47411000  0.91444000  0.32272000  1.0
  H  H10  1  0.29793000  0.95568000  0.60772000  1.0
  H  H11  1  0.70208000  0.04432000  0.39228000  1.0
  H  H12  1  0.65364000  0.35686000  0.70938000  1.0
  H  H13  1  0.34637000  0.64314000  0.29062000  1.0
  H  H14  1  0.58208000  0.50772000  0.64831000  1.0
  H  H15  1  0.41792000  0.49228000  0.35169000  1.0
  C  C16  1  0.02313000  0.22438000  0.20090000  1.0
  C  C17  1  0.97687000  0.77562000  0.79910000  1.0
  C  C18  1  0.86862000  0.30302000  0.22749000  1.0
  C  C19  1  0.13138000  0.69698000  0.77251000  1.0
  C  C20  1  0.73760000  0.35103000  0.12361000  1.0
  C  C21  1  0.26239000  0.64897000  0.87639000  1.0
  C  C22  1  0.76062000  0.32552000  0.99739000  1.0
  C  C23  1  0.23937000  0.67448000  0.00261000  1.0
  C  C24  1  0.92436000  0.25639000  0.97321000  1.0
  C  C25  1  0.07564000  0.74360000  0.02679000  1.0
  C  C26  1  0.05360000  0.20487000  0.07540000  1.0
  C  C27  1  0.94639000  0.79513000  0.92460000  1.0
  C  C28  1  0.84624000  0.34614000  0.36163000  1.0
  C  C29  1  0.15377000  0.65386000  0.63837000  1.0
  C  C30  1  0.98328000  0.24789000  0.84362000  1.0
  C  C31  1  0.01671000  0.75211000  0.15637000  1.0
  S  S32  1  0.21104000  0.16303000  0.32172000  1.0
  S  S33  1  0.78896000  0.83697000  0.67828000  1.0
  O  O34  1  0.08247000  0.02168000  0.38535000  1.0
  O  O35  1  0.91753000  0.97832000  0.61465000  1.0
  O  O36  1  0.30675000  0.30481000  0.41930000  1.0
  O  O37  1  0.69325000  0.69519000  0.58070000  1.0
  O  O38  1  0.37513000  0.12649000  0.25727000  1.0
  O  O39  1  0.62487000  0.87351000  0.74272000  1.0
  O  O40  1  0.85659000  0.24376000  0.44820000  1.0
  O  O41  1  0.14341000  0.75624000  0.55180000  1.0
  O  O42  1  0.81915000  0.48318000  0.38200000  1.0
  O  O43  1  0.18085000  0.51682000  0.61800000  1.0
  O  O44  1  0.17075000  0.22524000  0.83664000  1.0
  O  O45  1  0.82925000  0.77475000  0.16336000  1.0
  O  O46  1  0.85498000  0.26642000  0.74054000  1.0
  O  O47  1  0.14502000  0.73358000  0.25946000  1.0
  O  O48  1  0.37204000  0.07394000  0.63466000  1.0
  O  O49  1  0.62796000  0.92607000  0.36534000  1.0
  O  O50  1  0.52850000  0.40629000  0.69322000  1.0
  O  O51  1  0.47150000  0.59371000  0.30678000  1.0
