# generated using pymatgen
data_Ag2H21C17N6O5
_symmetry_space_group_name_H-M   'P 1'
_cell_length_a   9.94974000
_cell_length_b   9.99117744
_cell_length_c   11.67740000
_cell_angle_alpha   86.69425908
_cell_angle_beta   83.47380000
_cell_angle_gamma   61.84055278
_symmetry_Int_Tables_number   1
_chemical_formula_structural   Ag2H21C17N6O5
_chemical_formula_sum   'Ag4 H42 C34 N12 O10'
_cell_volume   1016.80279516
_cell_formula_units_Z   2
loop_
 _symmetry_equiv_pos_site_id
 _symmetry_equiv_pos_as_xyz
  1  'x, y, z'
loop_
 _atom_site_type_symbol
 _atom_site_label
 _atom_site_symmetry_multiplicity
 _atom_site_fract_x
 _atom_site_fract_y
 _atom_site_fract_z
 _atom_site_occupancy
  Ag  Ag0  1  0.93407000  0.45931000  0.24982000  1.0
  Ag  Ag1  1  0.06592000  0.54068000  0.75019000  1.0
  Ag  Ag2  1  0.21401000  0.66037000  0.88528000  1.0
  Ag  Ag3  1  0.78600000  0.33963000  0.11472000  1.0
  H  H4  1  0.74054000  0.53841000  0.68984000  1.0
  H  H5  1  0.25949000  0.46160000  0.31018000  1.0
  H  H6  1  0.84350000  0.12754000  0.77131000  1.0
  H  H7  1  0.15649000  0.87247000  0.22869000  1.0
  H  H8  1  0.66890000  0.30123000  0.77973000  1.0
  H  H9  1  0.33109000  0.69878000  0.22028000  1.0
  H  H10  1  0.83148000  0.29421000  0.83147000  1.0
  H  H11  1  0.16851000  0.70579000  0.16856000  1.0
  H  H12  1  0.88193000  0.65986000  0.42995000  1.0
  H  H13  1  0.11808000  0.34017000  0.57007000  1.0
  H  H14  1  0.73536000  0.72831000  0.54797000  1.0
  H  H15  1  0.26469000  0.27170000  0.45206000  1.0
  H  H16  1  0.69685000  0.68625000  0.41233000  1.0
  H  H17  1  0.30316000  0.31378000  0.58770000  1.0
  H  H18  1  0.26242000  0.07327000  0.62275000  1.0
  H  H19  1  0.73761000  0.92673000  0.37725000  1.0
  H  H20  1  0.45538000  0.82531000  0.35413000  1.0
  H  H21  1  0.54465000  0.17469000  0.64586000  1.0
  H  H22  1  0.28516000  0.99835000  0.38826000  1.0
  H  H23  1  0.71485000  0.00164000  0.61173000  1.0
  H  H24  1  0.46365000  0.97805000  0.41907000  1.0
  H  H25  1  0.53636000  0.02196000  0.58093000  1.0
  H  H26  1  0.25620000  0.93618000  0.91111000  1.0
  H  H27  1  0.74377000  0.06385000  0.08888000  1.0
  H  H28  1  0.16503000  0.10120000  0.82406000  1.0
  H  H29  1  0.83494000  0.89882000  0.17592000  1.0
  H  H30  1  0.07879000  0.98054000  0.86027000  1.0
  H  H31  1  0.92118000  0.01947000  0.13971000  1.0
  H  H32  1  0.39439000  0.92066000  0.17679000  1.0
  H  H33  1  0.60559000  0.07929000  0.82318000  1.0
  H  H34  1  0.03454000  0.15373000  0.29447000  1.0
  H  H35  1  0.96544000  0.84629000  0.70554000  1.0
  H  H36  1  0.03625000  0.01793000  0.40062000  1.0
  H  H37  1  0.96371000  0.98210000  0.59939000  1.0
  H  H38  1  0.41354000  0.45548000  0.72834000  1.0
  H  H39  1  0.58646000  0.54453000  0.27165000  1.0
  H  H40  1  0.49170000  0.43398000  0.58192000  1.0
  H  H41  1  0.50832000  0.56603000  0.41808000  1.0
  H  H42  1  0.99571000  0.64732000  0.05487000  1.0
  H  H43  1  0.00430000  0.35266000  0.94511000  1.0
  H  H44  1  0.14882000  0.49415000  0.06280000  1.0
  H  H45  1  0.85119000  0.50582000  0.93718000  1.0
  C  C46  1  0.94011000  0.23700000  0.45831000  1.0
  C  C47  1  0.05987000  0.76303000  0.54170000  1.0
  C  C48  1  0.83667000  0.29897000  0.64750000  1.0
  C  C49  1  0.16334000  0.70104000  0.35251000  1.0
  C  C50  1  0.79754000  0.45210000  0.62325000  1.0
  C  C51  1  0.20249000  0.54791000  0.37677000  1.0
  C  C52  1  0.82821000  0.49083000  0.51082000  1.0
  C  C53  1  0.17180000  0.50919000  0.48920000  1.0
  C  C54  1  0.79439000  0.25107000  0.76353000  1.0
  C  C55  1  0.20561000  0.74894000  0.23649000  1.0
  C  C56  1  0.78287000  0.65106000  0.47430000  1.0
  C  C57  1  0.21715000  0.34896000  0.52572000  1.0
  C  C58  1  0.39090000  0.65084000  0.64607000  1.0
  C  C59  1  0.60911000  0.34917000  0.35393000  1.0
  C  C60  1  0.37266000  0.85613000  0.53389000  1.0
  C  C61  1  0.62736000  0.14387000  0.46610000  1.0
  C  C62  1  0.30070000  0.95193000  0.62945000  1.0
  C  C63  1  0.69930000  0.04808000  0.37054000  1.0
  C  C64  1  0.27061000  0.88935000  0.73259000  1.0
  C  C65  1  0.72938000  0.11066000  0.26741000  1.0
  C  C66  1  0.39657000  0.91689000  0.41736000  1.0
  C  C67  1  0.60344000  0.08311000  0.58263000  1.0
  C  C68  1  0.18797000  0.98315000  0.83725000  1.0
  C  C69  1  0.81201000  0.01686000  0.16274000  1.0
  C  C70  1  0.35095000  0.09701000  0.04988000  1.0
  C  C71  1  0.64907000  0.90296000  0.95013000  1.0
  C  C72  1  0.41022000  0.14120000  0.94835000  1.0
  C  C73  1  0.58977000  0.85876000  0.05164000  1.0
  C  C74  1  0.44109000  0.95581000  0.09910000  1.0
  C  C75  1  0.55891000  0.04414000  0.90089000  1.0
  C  C76  1  0.32029000  0.28758000  0.88583000  1.0
  C  C77  1  0.67967000  0.71239000  0.11415000  1.0
  C  C78  1  0.19707000  0.19882000  0.11171000  1.0
  C  C79  1  0.80294000  0.80117000  0.88829000  1.0
  N  N80  1  0.01456000  0.12783000  0.37918000  1.0
  N  N81  1  0.98543000  0.87219000  0.62083000  1.0
  N  N82  1  0.90963000  0.19272000  0.56620000  1.0
  N  N83  1  0.09037000  0.80729000  0.43381000  1.0
  N  N84  1  0.89914000  0.38407000  0.42756000  1.0
  N  N85  1  0.10086000  0.61596000  0.57246000  1.0
  N  N86  1  0.44099000  0.50169000  0.65406000  1.0
  N  N87  1  0.55904000  0.49832000  0.34594000  1.0
  N  N88  1  0.41969000  0.70701000  0.54291000  1.0
  N  N89  1  0.58034000  0.29299000  0.45708000  1.0
  N  N90  1  0.31288000  0.73932000  0.74068000  1.0
  N  N91  1  0.68713000  0.26068000  0.25932000  1.0
  O  O92  1  0.10838000  0.14293000  0.14377000  1.0
  O  O93  1  0.89166000  0.85702000  0.85622000  1.0
  O  O94  1  0.10852000  0.60318000  0.04016000  1.0
  O  O95  1  0.89149000  0.39681000  0.95984000  1.0
  O  O96  1  0.16891000  0.33499000  0.13246000  1.0
  O  O97  1  0.83106000  0.66502000  0.86752000  1.0
  O  O98  1  0.18124000  0.32617000  0.86886000  1.0
  O  O99  1  0.81873000  0.67376000  0.13113000  1.0
  O  O100  1  0.39123000  0.36111000  0.85059000  1.0
  O  O101  1  0.60872000  0.63885000  0.14936000  1.0
