# generated using pymatgen
data_Zn4H30C48O13
_symmetry_space_group_name_H-M   'P 1'
_cell_length_a   18.24950000
_cell_length_b   18.31474446
_cell_length_c   18.34160000
_cell_angle_alpha   60.36966614
_cell_angle_beta   60.75100000
_cell_angle_gamma   60.57854992
_symmetry_Int_Tables_number   1
_chemical_formula_structural   Zn4H30C48O13
_chemical_formula_sum   'Zn8 H60 C96 O26'
_cell_volume   4390.21893468
_cell_formula_units_Z   2
loop_
 _symmetry_equiv_pos_site_id
 _symmetry_equiv_pos_as_xyz
  1  'x, y, z'
loop_
 _atom_site_type_symbol
 _atom_site_label
 _atom_site_symmetry_multiplicity
 _atom_site_fract_x
 _atom_site_fract_y
 _atom_site_fract_z
 _atom_site_occupancy
  Zn  Zn0  1  0.93822000  0.15034000  0.95452000  1.0
  Zn  Zn1  1  0.93945000  0.97848000  0.94428000  1.0
  Zn  Zn2  1  0.93577000  0.97575000  0.12288000  1.0
  Zn  Zn3  1  0.11255000  0.97665000  0.94981000  1.0
  Zn  Zn4  1  0.52517000  0.38973000  0.53783000  1.0
  Zn  Zn5  1  0.52625000  0.56778000  0.53316000  1.0
  Zn  Zn6  1  0.35110000  0.56411000  0.53778000  1.0
  Zn  Zn7  1  0.52491000  0.55916000  0.36253000  1.0
  H  H8  1  0.69037000  0.20736000  0.97183000  1.0
  H  H9  1  0.62629000  0.16992000  0.95837000  1.0
  H  H10  1  0.57783000  0.35620000  0.95767000  1.0
  H  H11  1  0.52279000  0.27772000  0.03457000  1.0
  H  H12  1  0.43186000  0.37235000  0.93427000  1.0
  H  H13  1  0.49844000  0.37363000  0.78170000  1.0
  H  H14  1  0.77107000  0.36454000  0.51401000  1.0
  H  H15  1  0.93430000  0.30812000  0.44907000  1.0
  H  H16  1  0.02903000  0.21068000  0.54735000  1.0
  H  H17  1  0.96007000  0.17043000  0.70976000  1.0
  H  H18  1  0.95675000  0.19850000  0.12943000  1.0
  H  H19  1  0.94713000  0.15934000  0.24239000  1.0
  H  H20  1  0.94259000  0.34713000  0.10875000  1.0
  H  H21  1  0.02223000  0.26930000  0.16265000  1.0
  H  H22  1  0.92395000  0.36266000  0.25893000  1.0
  H  H23  1  0.77188000  0.36117000  0.34505000  1.0
  H  H24  1  0.49988000  0.34697000  0.35480000  1.0
  H  H25  1  0.43234000  0.28980000  0.31458000  1.0
  H  H26  1  0.52844000  0.19473000  0.21814000  1.0
  H  H27  1  0.69144000  0.15700000  0.16298000  1.0
  H  H28  1  0.10724000  0.20052000  0.71385000  1.0
  H  H29  1  0.21965000  0.16260000  0.64940000  1.0
  H  H30  1  0.08294000  0.34843000  0.60049000  1.0
  H  H31  1  0.13645000  0.26961000  0.54682000  1.0
  H  H32  1  0.23038000  0.36658000  0.45351000  1.0
  H  H33  1  0.32037000  0.36840000  0.51603000  1.0
  H  H34  1  0.34256000  0.35641000  0.78320000  1.0
  H  H35  1  0.30544000  0.30203000  0.94560000  1.0
  H  H36  1  0.20589000  0.20893000  0.04361000  1.0
  H  H37  1  0.14597000  0.16900000  0.97842000  1.0
  H  H38  1  0.69793000  0.99345000  0.10935000  1.0
  H  H39  1  0.63692000  0.98375000  0.22210000  1.0
  H  H40  1  0.58045000  0.98272000  0.09007000  1.0
  H  H41  1  0.52910000  0.06005000  0.14530000  1.0
  H  H42  1  0.43675000  0.96139000  0.23995000  1.0
  H  H43  1  0.50213000  0.80900000  0.32646000  1.0
  H  H44  1  0.77143000  0.53783000  0.34796000  1.0
  H  H45  1  0.93439000  0.47024000  0.31195000  1.0
  H  H46  1  0.03148000  0.56551000  0.21165000  1.0
  H  H47  1  0.96509000  0.72800000  0.14830000  1.0
  H  H48  1  0.10463000  0.74035000  0.96156000  1.0
  H  H49  1  0.21615000  0.67366000  0.95689000  1.0
  H  H50  1  0.08127000  0.62953000  0.94474000  1.0
  H  H51  1  0.13145000  0.57346000  0.02755000  1.0
  H  H52  1  0.22775000  0.48032000  0.93080000  1.0
  H  H53  1  0.32030000  0.54248000  0.78156000  1.0
  H  H54  1  0.35175000  0.81127000  0.51020000  1.0
  H  H55  1  0.31823000  0.97377000  0.44201000  1.0
  H  H56  1  0.21881000  0.07119000  0.53601000  1.0
  H  H57  1  0.15395000  0.00530000  0.69772000  1.0
  H  H58  1  0.11518000  0.99617000  0.17255000  1.0
  H  H59  1  0.22954000  0.98161000  0.13481000  1.0
  H  H60  1  0.09575000  0.98500000  0.31967000  1.0
  H  H61  1  0.15378000  0.06060000  0.23970000  1.0
  H  H62  1  0.24920000  0.96070000  0.33542000  1.0
  H  H63  1  0.33016000  0.80679000  0.33948000  1.0
  H  H64  1  0.32929000  0.53704000  0.33394000  1.0
  H  H65  1  0.28253000  0.47076000  0.28170000  1.0
  H  H66  1  0.18411000  0.56826000  0.18718000  1.0
  H  H67  1  0.13363000  0.73148000  0.14477000  1.0
  C  C68  1  0.83958000  0.16297000  0.85842000  1.0
  C  C69  1  0.78208000  0.22274000  0.80033000  1.0
  C  C70  1  0.69098000  0.25413000  0.83795000  1.0
  C  C71  1  0.64482000  0.22829000  0.93704000  1.0
  C  C72  1  0.56019000  0.30305000  0.96403000  1.0
  C  C73  1  0.50360000  0.34191000  0.90723000  1.0
  C  C74  1  0.54036000  0.34334000  0.82273000  1.0
  C  C75  1  0.63657000  0.30934000  0.78188000  1.0
  C  C76  1  0.67653000  0.33060000  0.69054000  1.0
  C  C77  1  0.61959000  0.38729000  0.63184000  1.0
  C  C78  1  0.77033000  0.29994000  0.65049000  1.0
  C  C79  1  0.81211000  0.32205000  0.55717000  1.0
  C  C80  1  0.90337000  0.29070000  0.52089000  1.0
  C  C81  1  0.95693000  0.23575000  0.57639000  1.0
  C  C82  1  0.91827000  0.21318000  0.66734000  1.0
  C  C83  1  0.82462000  0.24445000  0.70670000  1.0
  C  C84  1  0.84207000  0.15488000  0.13690000  1.0
  C  C85  1  0.78488000  0.21112000  0.19548000  1.0
  C  C86  1  0.82402000  0.24234000  0.21733000  1.0
  C  C87  1  0.92369000  0.21811000  0.18871000  1.0
  C  C88  1  0.95097000  0.29352000  0.17167000  1.0
  C  C89  1  0.89585000  0.33141000  0.24581000  1.0
  C  C90  1  0.81161000  0.33128000  0.29288000  1.0
  C  C91  1  0.76921000  0.29636000  0.27296000  1.0
  C  C92  1  0.67748000  0.31658000  0.30379000  1.0
  C  C93  1  0.61977000  0.37561000  0.35959000  1.0
  C  C94  1  0.63593000  0.28513000  0.28190000  1.0
  C  C95  1  0.54224000  0.30562000  0.31256000  1.0
  C  C96  1  0.50440000  0.27381000  0.28991000  1.0
  C  C97  1  0.55874000  0.22009000  0.23538000  1.0
  C  C98  1  0.64997000  0.19910000  0.20445000  1.0
  C  C99  1  0.69091000  0.23077000  0.22656000  1.0
  C  C100  1  0.11983000  0.15941000  0.85978000  1.0
  C  C101  1  0.17689000  0.21776000  0.80163000  1.0
  C  C102  1  0.19657000  0.24783000  0.71096000  1.0
  C  C103  1  0.16597000  0.22134000  0.66716000  1.0
  C  C104  1  0.14636000  0.29558000  0.58292000  1.0
  C  C105  1  0.21962000  0.33542000  0.52473000  1.0
  C  C106  1  0.26883000  0.33714000  0.55931000  1.0
  C  C107  1  0.25183000  0.30278000  0.65487000  1.0
  C  C108  1  0.28561000  0.32395000  0.69268000  1.0
  C  C109  1  0.34325000  0.38169000  0.63376000  1.0
  C  C110  1  0.26589000  0.29384000  0.78596000  1.0
  C  C111  1  0.29942000  0.31550000  0.82558000  1.0
  C  C112  1  0.27835000  0.28538000  0.91647000  1.0
  C  C113  1  0.22242000  0.23245000  0.97179000  1.0
  C  C114  1  0.18893000  0.21010000  0.93529000  1.0
  C  C115  1  0.20963000  0.23975000  0.84208000  1.0
  C  C116  1  0.84554000  0.87912000  0.12255000  1.0
  C  C117  1  0.78761000  0.82157000  0.17834000  1.0
  C  C118  1  0.69655000  0.86092000  0.19893000  1.0
  C  C119  1  0.65214000  0.96065000  0.16925000  1.0
  C  C120  1  0.56550000  0.98905000  0.15326000  1.0
  C  C121  1  0.50852000  0.93347000  0.22719000  1.0
  C  C122  1  0.54471000  0.84895000  0.27451000  1.0
  C  C123  1  0.64083000  0.80643000  0.25549000  1.0
  C  C124  1  0.67947000  0.71489000  0.28948000  1.0
  C  C125  1  0.62128000  0.65768000  0.34915000  1.0
  C  C126  1  0.77316000  0.67314000  0.26910000  1.0
  C  C127  1  0.81349000  0.57976000  0.30402000  1.0
  C  C128  1  0.90463000  0.54193000  0.28360000  1.0
  C  C129  1  0.95952000  0.59581000  0.22694000  1.0
  C  C130  1  0.92232000  0.68673000  0.19168000  1.0
  C  C131  1  0.82881000  0.72772000  0.21176000  1.0
  C  C132  1  0.12122000  0.88643000  0.84864000  1.0
  C  C133  1  0.17907000  0.82839000  0.79170000  1.0
  C  C134  1  0.19701000  0.73753000  0.83113000  1.0
  C  C135  1  0.16382000  0.69319000  0.93039000  1.0
  C  C136  1  0.14359000  0.61008000  0.95606000  1.0
  C  C137  1  0.21775000  0.55153000  0.90283000  1.0
  C  C138  1  0.26848000  0.58600000  0.82005000  1.0
  C  C139  1  0.25290000  0.68166000  0.77734000  1.0
  C  C140  1  0.28920000  0.71980000  0.68636000  1.0
  C  C141  1  0.34607000  0.66171000  0.62955000  1.0
  C  C142  1  0.27193000  0.81324000  0.64458000  1.0
  C  C143  1  0.30798000  0.85335000  0.55164000  1.0
  C  C144  1  0.28916000  0.94433000  0.51343000  1.0
  C  C145  1  0.23311000  0.99935000  0.56661000  1.0
  C  C146  1  0.19694000  0.96241000  0.65708000  1.0
  C  C147  1  0.21504000  0.86912000  0.69840000  1.0
  C  C148  1  0.11797000  0.88168000  0.13300000  1.0
  C  C149  1  0.17474000  0.82349000  0.19190000  1.0
  C  C150  1  0.19935000  0.86185000  0.22118000  1.0
  C  C151  1  0.17441000  0.96133000  0.19347000  1.0
  C  C152  1  0.15966000  0.99002000  0.26655000  1.0
  C  C153  1  0.23369000  0.93306000  0.30585000  1.0
  C  C154  1  0.27791000  0.84781000  0.30882000  1.0
  C  C155  1  0.25477000  0.80614000  0.27621000  1.0
  C  C156  1  0.28352000  0.71439000  0.29851000  1.0
  C  C157  1  0.34183000  0.65616000  0.35587000  1.0
  C  C158  1  0.25848000  0.67362000  0.26937000  1.0
  C  C159  1  0.28641000  0.57990000  0.29260000  1.0
  C  C160  1  0.26013000  0.54287000  0.26351000  1.0
  C  C161  1  0.20465000  0.59800000  0.20993000  1.0
  C  C162  1  0.17648000  0.68933000  0.18615000  1.0
  C  C163  1  0.20235000  0.72946000  0.21497000  1.0
  O  O164  1  0.98175000  0.01990000  0.99262000  1.0
  O  O165  1  0.85703000  0.07968000  0.88174000  1.0
  O  O166  1  0.86641000  0.20100000  0.87838000  1.0
  O  O167  1  0.60533000  0.47066000  0.60150000  1.0
  O  O168  1  0.59096000  0.34622000  0.61758000  1.0
  O  O169  1  0.86286000  0.07094000  0.17518000  1.0
  O  O170  1  0.86442000  0.19643000  0.05370000  1.0
  O  O171  1  0.59032000  0.45837000  0.31847000  1.0
  O  O172  1  0.60515000  0.33788000  0.44290000  1.0
  O  O173  1  0.15973000  0.07611000  0.87540000  1.0
  O  O174  1  0.03650000  0.19861000  0.88806000  1.0
  O  O175  1  0.30387000  0.46508000  0.61746000  1.0
  O  O176  1  0.42641000  0.34189000  0.60539000  1.0
  O  O177  1  0.86025000  0.90626000  0.16445000  1.0
  O  O178  1  0.87475000  0.89558000  0.03910000  1.0
  O  O179  1  0.60529000  0.62650000  0.31194000  1.0
  O  O180  1  0.59348000  0.64534000  0.43162000  1.0
  O  O181  1  0.16078000  0.90173000  0.87809000  1.0
  O  O182  1  0.03782000  0.91505000  0.86267000  1.0
  O  O183  1  0.30507000  0.64067000  0.60706000  1.0
  O  O184  1  0.42998000  0.63895000  0.60857000  1.0
  O  O185  1  0.15877000  0.90583000  0.04992000  1.0
  O  O186  1  0.03420000  0.90120000  0.17157000  1.0
  O  O187  1  0.30264000  0.63264000  0.43928000  1.0
  O  O188  1  0.42534000  0.63559000  0.31555000  1.0
  O  O189  1  0.48186000  0.52044000  0.49276000  1.0
