# generated using pymatgen
data_CdH8C12S(N2O3)2
_symmetry_space_group_name_H-M   'P 1'
_cell_length_a   7.54966000
_cell_length_b   11.81830000
_cell_length_c   16.49480000
_cell_angle_alpha   89.99990000
_cell_angle_beta   90.00000000
_cell_angle_gamma   94.37680000
_symmetry_Int_Tables_number   1
_chemical_formula_structural   CdH8C12S(N2O3)2
_chemical_formula_sum   'Cd4 H32 C48 S4 N16 O24'
_cell_volume   1467.44248900
_cell_formula_units_Z   4
loop_
 _symmetry_equiv_pos_site_id
 _symmetry_equiv_pos_as_xyz
  1  'x, y, z'
loop_
 _atom_site_type_symbol
 _atom_site_label
 _atom_site_symmetry_multiplicity
 _atom_site_fract_x
 _atom_site_fract_y
 _atom_site_fract_z
 _atom_site_occupancy
  Cd  Cd0  1  0.05035000  0.21500000  0.18425000  1.0
  Cd  Cd1  1  0.44964000  0.78500000  0.68425000  1.0
  Cd  Cd2  1  0.94965000  0.78500000  0.81575000  1.0
  Cd  Cd3  1  0.55035000  0.21500000  0.31575000  1.0
  H  H4  1  0.19966000  0.76263000  0.05867000  1.0
  H  H5  1  0.30034000  0.23737000  0.55867000  1.0
  H  H6  1  0.80035000  0.23737000  0.94133000  1.0
  H  H7  1  0.69965000  0.76263000  0.44133000  1.0
  H  H8  1  0.18584000  0.00967000  0.07390000  1.0
  H  H9  1  0.31416000  0.99033000  0.57390000  1.0
  H  H10  1  0.81416000  0.99033000  0.92610000  1.0
  H  H11  1  0.68584000  0.00967000  0.42610000  1.0
  H  H12  1  0.93702000  0.47188000  0.25607000  1.0
  H  H13  1  0.56298000  0.52812000  0.75607000  1.0
  H  H14  1  0.06298000  0.52812000  0.74393000  1.0
  H  H15  1  0.43702000  0.47188000  0.24393000  1.0
  H  H16  1  0.37613000  0.34761000  0.91256000  1.0
  H  H17  1  0.12387000  0.65238000  0.41256000  1.0
  H  H18  1  0.62387000  0.65238000  0.08743000  1.0
  H  H19  1  0.87613000  0.34761000  0.58744000  1.0
  H  H20  1  0.02539000  0.82091000  0.17757000  1.0
  H  H21  1  0.47461000  0.17909000  0.67757000  1.0
  H  H22  1  0.97461000  0.17909000  0.82243000  1.0
  H  H23  1  0.52539000  0.82091000  0.32243000  1.0
  H  H24  1  0.89392000  0.67913000  0.27456000  1.0
  H  H25  1  0.60608000  0.32087000  0.77456000  1.0
  H  H26  1  0.10609000  0.32086000  0.72544000  1.0
  H  H27  1  0.39392000  0.67914000  0.22544000  1.0
  H  H28  1  0.33987000  0.98344000  0.94059000  1.0
  H  H29  1  0.16013000  0.01656000  0.44059000  1.0
  H  H30  1  0.66013000  0.01656000  0.05941000  1.0
  H  H31  1  0.83986000  0.98344000  0.55941000  1.0
  H  H32  1  0.43925000  0.15616000  0.85956000  1.0
  H  H33  1  0.06076000  0.84383000  0.35956000  1.0
  H  H34  1  0.56075000  0.84383000  0.14044000  1.0
  H  H35  1  0.93925000  0.15616000  0.64044000  1.0
  C  C36  1  0.16117000  0.58433000  0.08994000  1.0
  C  C37  1  0.33883000  0.41567000  0.58994000  1.0
  C  C38  1  0.83883000  0.41567000  0.91006000  1.0
  C  C39  1  0.66117000  0.58433000  0.41007000  1.0
  C  C40  1  0.20652000  0.38666000  0.05646000  1.0
  C  C41  1  0.29348000  0.61334000  0.55645000  1.0
  C  C42  1  0.79348000  0.61334000  0.94354000  1.0
  C  C43  1  0.70652000  0.38666000  0.44354000  1.0
  C  C44  1  0.14213000  0.70003000  0.10137000  1.0
  C  C45  1  0.35786000  0.29997000  0.60137000  1.0
  C  C46  1  0.85787000  0.29997000  0.89863000  1.0
  C  C47  1  0.64213000  0.70003000  0.39863000  1.0
  C  C48  1  0.08829000  0.50207000  0.14602000  1.0
  C  C49  1  0.41171000  0.49793000  0.64602000  1.0
  C  C50  1  0.91171000  0.49793000  0.85398000  1.0
  C  C51  1  0.58829000  0.50207000  0.35398000  1.0
  C  C52  1  0.23043000  0.08182000  0.03590000  1.0
  C  C53  1  0.26957000  0.91818000  0.53590000  1.0
  C  C54  1  0.76957000  0.91818000  0.96410000  1.0
  C  C55  1  0.73044000  0.08182000  0.46410000  1.0
  C  C56  1  0.99242000  0.53575000  0.21366000  1.0
  C  C57  1  0.50758000  0.46425000  0.71366000  1.0
  C  C58  1  0.00759000  0.46425000  0.78634000  1.0
  C  C59  1  0.49242000  0.53575000  0.28634000  1.0
  C  C60  1  0.24948000  0.27822000  0.02118000  1.0
  C  C61  1  0.25052000  0.72177000  0.52118000  1.0
  C  C62  1  0.75052000  0.72178000  0.97881000  1.0
  C  C63  1  0.74948000  0.27822000  0.47882000  1.0
  C  C64  1  0.33739000  0.27088000  0.94696000  1.0
  C  C65  1  0.16261000  0.72912000  0.44696000  1.0
  C  C66  1  0.66261000  0.72911000  0.05303000  1.0
  C  C67  1  0.83739000  0.27088000  0.55304000  1.0
  C  C68  1  0.04519000  0.73165000  0.16833000  1.0
  C  C69  1  0.45481000  0.26835000  0.66833000  1.0
  C  C70  1  0.95482000  0.26835000  0.83167000  1.0
  C  C71  1  0.54519000  0.73165000  0.33167000  1.0
  C  C72  1  0.97086000  0.65063000  0.22362000  1.0
  C  C73  1  0.52914000  0.34937000  0.72362000  1.0
  C  C74  1  0.02914000  0.34937000  0.77638000  1.0
  C  C75  1  0.47087000  0.65063000  0.27638000  1.0
  C  C76  1  0.31718000  0.06805000  0.96238000  1.0
  C  C77  1  0.18282000  0.93195000  0.46238000  1.0
  C  C78  1  0.68282000  0.93195000  0.03762000  1.0
  C  C79  1  0.81718000  0.06805000  0.53762000  1.0
  C  C80  1  0.37152000  0.16442000  0.91730000  1.0
  C  C81  1  0.12848000  0.83558000  0.41730000  1.0
  C  C82  1  0.62849000  0.83557000  0.08270000  1.0
  C  C83  1  0.87152000  0.16442000  0.58270000  1.0
  S  S84  1  0.26397000  0.51704000  0.01124000  1.0
  S  S85  1  0.23603000  0.48296000  0.51124000  1.0
  S  S86  1  0.73603000  0.48296000  0.98876000  1.0
  S  S87  1  0.76396000  0.51704000  0.48876000  1.0
  N  N88  1  0.18236000  0.28493000  0.35532000  1.0
  N  N89  1  0.31763000  0.71507000  0.85532000  1.0
  N  N90  1  0.81763000  0.71507000  0.64468000  1.0
  N  N91  1  0.68236000  0.28493000  0.14468000  1.0
  N  N92  1  0.11817000  0.39224000  0.12501000  1.0
  N  N93  1  0.38183000  0.60776000  0.62501000  1.0
  N  N94  1  0.88183000  0.60776000  0.87499000  1.0
  N  N95  1  0.61817000  0.39224000  0.37499000  1.0
  N  N96  1  0.91234000  0.00565000  0.25201000  1.0
  N  N97  1  0.58765000  0.99435000  0.75201000  1.0
  N  N98  1  0.08766000  0.99435000  0.74799000  1.0
  N  N99  1  0.41234000  0.00565000  0.24799000  1.0
  N  N100  1  0.19714000  0.18429000  0.06433000  1.0
  N  N101  1  0.30286000  0.81571000  0.56433000  1.0
  N  N102  1  0.80286000  0.81571000  0.93566000  1.0
  N  N103  1  0.69714000  0.18429000  0.43567000  1.0
  O  O104  1  0.84008000  0.91500000  0.27833000  1.0
  O  O105  1  0.65992000  0.08500000  0.77833000  1.0
  O  O106  1  0.15992000  0.08500000  0.72167000  1.0
  O  O107  1  0.34008000  0.91500000  0.22167000  1.0
  O  O108  1  0.26236000  0.26370000  0.28609000  1.0
  O  O109  1  0.23763000  0.73630000  0.78609000  1.0
  O  O110  1  0.73763000  0.73630000  0.71391000  1.0
  O  O111  1  0.76236000  0.26370000  0.21391000  1.0
  O  O112  1  0.03920000  0.32963000  0.35250000  1.0
  O  O113  1  0.46080000  0.67037000  0.85250000  1.0
  O  O114  1  0.96080000  0.67037000  0.64750000  1.0
  O  O115  1  0.53920000  0.32963000  0.14750000  1.0
  O  O116  1  0.25789000  0.25887000  0.41936000  1.0
  O  O117  1  0.24210000  0.74113000  0.91936000  1.0
  O  O118  1  0.74211000  0.74113000  0.58064000  1.0
  O  O119  1  0.75789000  0.25887000  0.08064000  1.0
  O  O120  1  0.94248000  0.01972000  0.17567000  1.0
  O  O121  1  0.55752000  0.98028000  0.67567000  1.0
  O  O122  1  0.05752000  0.98028000  0.82433000  1.0
  O  O123  1  0.44248000  0.01972000  0.32433000  1.0
  O  O124  1  0.95908000  0.08849000  0.29936000  1.0
  O  O125  1  0.54092000  0.91151000  0.79937000  1.0
  O  O126  1  0.04092000  0.91151000  0.70064000  1.0
  O  O127  1  0.45908000  0.08849000  0.20064000  1.0
