# generated using pymatgen
data_HgH5C6(IN)2
_symmetry_space_group_name_H-M   'P 1'
_cell_length_a   7.39387000
_cell_length_b   7.70445000
_cell_length_c   18.03300000
_cell_angle_alpha   89.99830000
_cell_angle_beta   100.89600000
_cell_angle_gamma   89.99950000
_symmetry_Int_Tables_number   1
_chemical_formula_structural   HgH5C6(IN)2
_chemical_formula_sum   'Hg4 H20 C24 I8 N8'
_cell_volume   1008.74291951
_cell_formula_units_Z   4
loop_
 _symmetry_equiv_pos_site_id
 _symmetry_equiv_pos_as_xyz
  1  'x, y, z'
loop_
 _atom_site_type_symbol
 _atom_site_label
 _atom_site_symmetry_multiplicity
 _atom_site_fract_x
 _atom_site_fract_y
 _atom_site_fract_z
 _atom_site_occupancy
  Hg  Hg0  1  0.45802000  0.84919000  0.15907000  1.0
  Hg  Hg1  1  0.54202000  0.34919000  0.34094000  1.0
  Hg  Hg2  1  0.54200000  0.15081000  0.84093000  1.0
  Hg  Hg3  1  0.45797000  0.65077000  0.65906000  1.0
  H  H4  1  0.60323000  0.80457000  0.93174000  1.0
  H  H5  1  0.39674000  0.30457000  0.56826000  1.0
  H  H6  1  0.39677000  0.19545000  0.06825000  1.0
  H  H7  1  0.60326000  0.69542000  0.43175000  1.0
  H  H8  1  0.76589000  0.53122000  0.94273000  1.0
  H  H9  1  0.23408000  0.03121000  0.55727000  1.0
  H  H10  1  0.23410000  0.46879000  0.05727000  1.0
  H  H11  1  0.76589000  0.96875000  0.44274000  1.0
  H  H12  1  0.71328000  0.50825000  0.21049000  1.0
  H  H13  1  0.28678000  0.00826000  0.28951000  1.0
  H  H14  1  0.28675000  0.49175000  0.78950000  1.0
  H  H15  1  0.71321000  0.99174000  0.71050000  1.0
  H  H16  1  0.90277000  0.27646000  0.02084000  1.0
  H  H17  1  0.09726000  0.77649000  0.47913000  1.0
  H  H18  1  0.09724000  0.72354000  0.97914000  1.0
  H  H19  1  0.90273000  0.22351000  0.52087000  1.0
  H  H20  1  0.88412000  0.27097000  0.15903000  1.0
  H  H21  1  0.11591000  0.77100000  0.34095000  1.0
  H  H22  1  0.11590000  0.72902000  0.84096000  1.0
  H  H23  1  0.88407000  0.22900000  0.65905000  1.0
  C  C24  1  0.66845000  0.65117000  0.03595000  1.0
  C  C25  1  0.33154000  0.15117000  0.46404000  1.0
  C  C26  1  0.33155000  0.34882000  0.96404000  1.0
  C  C27  1  0.66847000  0.84881000  0.53596000  1.0
  C  C28  1  0.59624000  0.80255000  0.99196000  1.0
  C  C29  1  0.40376000  0.30251000  0.50805000  1.0
  C  C30  1  0.40379000  0.19749000  0.00804000  1.0
  C  C31  1  0.59621000  0.69747000  0.49195000  1.0
  C  C32  1  0.75772000  0.52092000  0.00239000  1.0
  C  C33  1  0.24228000  0.02091000  0.49761000  1.0
  C  C34  1  0.24232000  0.47910000  0.99761000  1.0
  C  C35  1  0.75772000  0.97908000  0.50240000  1.0
  C  C36  1  0.72766000  0.50883000  0.15139000  1.0
  C  C37  1  0.27236000  0.00882000  0.34861000  1.0
  C  C38  1  0.27236000  0.49120000  0.84861000  1.0
  C  C39  1  0.72763000  0.99114000  0.65140000  1.0
  C  C40  1  0.83473000  0.38064000  0.04611000  1.0
  C  C41  1  0.16524000  0.88068000  0.45387000  1.0
  C  C42  1  0.16527000  0.61936000  0.95387000  1.0
  C  C43  1  0.83471000  0.11935000  0.54615000  1.0
  C  C44  1  0.82320000  0.37623000  0.12227000  1.0
  C  C45  1  0.17683000  0.87622000  0.37773000  1.0
  C  C46  1  0.17681000  0.62379000  0.87773000  1.0
  C  C47  1  0.82313000  0.12378000  0.62228000  1.0
  I  I48  1  0.09476000  0.93744000  0.11789000  1.0
  I  I49  1  0.90528000  0.43748000  0.38211000  1.0
  I  I50  1  0.90526000  0.06257000  0.88211000  1.0
  I  I51  1  0.09471000  0.56253000  0.61789000  1.0
  I  I52  1  0.71157000  0.00302000  0.27069000  1.0
  I  I53  1  0.28847000  0.50297000  0.22930000  1.0
  I  I54  1  0.28843000  0.99700000  0.72931000  1.0
  I  I55  1  0.71155000  0.49701000  0.77069000  1.0
  N  N56  1  0.64968000  0.64071000  0.10912000  1.0
  N  N57  1  0.35034000  0.14070000  0.39087000  1.0
  N  N58  1  0.35035000  0.35930000  0.89087000  1.0
  N  N59  1  0.64963000  0.85928000  0.60912000  1.0
  N  N60  1  0.53082000  0.93262000  0.02385000  1.0
  N  N61  1  0.46917000  0.43261000  0.47616000  1.0
  N  N62  1  0.46918000  0.06741000  0.97615000  1.0
  N  N63  1  0.53082000  0.56737000  0.52386000  1.0
