# generated using pymatgen
data_CuH14C12(N4O)2
_symmetry_space_group_name_H-M   'P 1'
_cell_length_a   3.75363000
_cell_length_b   8.63981000
_cell_length_c   12.17940000
_cell_angle_alpha   72.80460000
_cell_angle_beta   85.37130000
_cell_angle_gamma   81.51180000
_symmetry_Int_Tables_number   1
_chemical_formula_structural   CuH14C12(N4O)2
_chemical_formula_sum   'Cu1 H14 C12 N8 O2'
_cell_volume   372.91043299
_cell_formula_units_Z   1
loop_
 _symmetry_equiv_pos_site_id
 _symmetry_equiv_pos_as_xyz
  1  'x, y, z'
loop_
 _atom_site_type_symbol
 _atom_site_label
 _atom_site_symmetry_multiplicity
 _atom_site_fract_x
 _atom_site_fract_y
 _atom_site_fract_z
 _atom_site_occupancy
  Cu  Cu0  1  0.50000000  0.50000000  0.50000000  1.0
  H  H1  1  0.23147000  0.35479000  0.73774000  1.0
  H  H2  1  0.76856000  0.64520000  0.26226000  1.0
  H  H3  1  0.11648000  0.43780000  0.91742000  1.0
  H  H4  1  0.88355000  0.56219000  0.08258000  1.0
  H  H5  1  0.55136000  0.88731000  0.73741000  1.0
  H  H6  1  0.44860000  0.11270000  0.26259000  1.0
  H  H7  1  0.64081000  0.78550000  0.56453000  1.0
  H  H8  1  0.35916000  0.21451000  0.43547000  1.0
  H  H9  1  0.65949000  0.85363000  0.93415000  1.0
  H  H10  1  0.34052000  0.14638000  0.06585000  1.0
  H  H11  1  0.29714000  0.85724000  0.03953000  1.0
  H  H12  1  0.70286000  0.14275000  0.96048000  1.0
  H  H13  1  0.22667000  0.96197000  0.88899000  1.0
  H  H14  1  0.77333000  0.03803000  0.11102000  1.0
  C  C15  1  0.29849000  0.47142000  0.74111000  1.0
  C  C16  1  0.70153000  0.52858000  0.25889000  1.0
  C  C17  1  0.23664000  0.51702000  0.84116000  1.0
  C  C18  1  0.76338000  0.48297000  0.15885000  1.0
  C  C19  1  0.32625000  0.66850000  0.84216000  1.0
  C  C20  1  0.67375000  0.33150000  0.15785000  1.0
  C  C21  1  0.47361000  0.76897000  0.74145000  1.0
  C  C22  1  0.52638000  0.23102000  0.25856000  1.0
  C  C23  1  0.52308000  0.71334000  0.64462000  1.0
  C  C24  1  0.47690000  0.28667000  0.35538000  1.0
  C  C25  1  0.36825000  0.85554000  0.95085000  1.0
  C  C26  1  0.63176000  0.14446000  0.04916000  1.0
  N  N27  1  0.90058000  0.31491000  0.56801000  1.0
  N  N28  1  0.09942000  0.68510000  0.43198000  1.0
  N  N29  1  0.84379000  0.21488000  0.65785000  1.0
  N  N30  1  0.15622000  0.78514000  0.34213000  1.0
  N  N31  1  0.79731000  0.11635000  0.74595000  1.0
  N  N32  1  0.20268000  0.88366000  0.25404000  1.0
  N  N33  1  0.43981000  0.56736000  0.64362000  1.0
  N  N34  1  0.56018000  0.43264000  0.35638000  1.0
  O  O35  1  0.25988000  0.70596000  0.94269000  1.0
  O  O36  1  0.74014000  0.29403000  0.05731000  1.0
