# generated using pymatgen
data_AgH6C9ClO2
_symmetry_space_group_name_H-M   'P 1'
_cell_length_a   5.73621000
_cell_length_b   8.34377000
_cell_length_c   18.19230000
_cell_angle_alpha   89.99990000
_cell_angle_beta   89.22880000
_cell_angle_gamma   89.99930000
_symmetry_Int_Tables_number   1
_chemical_formula_structural   AgH6C9ClO2
_chemical_formula_sum   'Ag4 H24 C36 Cl4 O8'
_cell_volume   870.63402049
_cell_formula_units_Z   4
loop_
 _symmetry_equiv_pos_site_id
 _symmetry_equiv_pos_as_xyz
  1  'x, y, z'
loop_
 _atom_site_type_symbol
 _atom_site_label
 _atom_site_symmetry_multiplicity
 _atom_site_fract_x
 _atom_site_fract_y
 _atom_site_fract_z
 _atom_site_occupancy
  Ag  Ag0  1  0.93221000  0.86664000  0.53920000  1.0
  Ag  Ag1  1  0.56778000  0.36664000  0.46081000  1.0
  Ag  Ag2  1  0.06779000  0.13336000  0.46080000  1.0
  Ag  Ag3  1  0.43221000  0.63337000  0.53919000  1.0
  H  H4  1  0.27635000  0.86110000  0.38631000  1.0
  H  H5  1  0.22366000  0.36112000  0.61368000  1.0
  H  H6  1  0.72366000  0.13890000  0.61368000  1.0
  H  H7  1  0.77632000  0.63888000  0.38632000  1.0
  H  H8  1  0.47447000  0.14967000  0.29922000  1.0
  H  H9  1  0.02554000  0.64969000  0.70078000  1.0
  H  H10  1  0.52553000  0.85034000  0.70078000  1.0
  H  H11  1  0.97446000  0.35032000  0.29922000  1.0
  H  H12  1  0.93849000  0.87915000  0.32100000  1.0
  H  H13  1  0.56153000  0.37916000  0.67901000  1.0
  H  H14  1  0.06153000  0.12087000  0.67901000  1.0
  H  H15  1  0.43846000  0.62084000  0.32099000  1.0
  H  H16  1  0.66567000  0.82726000  0.21916000  1.0
  H  H17  1  0.83435000  0.32727000  0.78084000  1.0
  H  H18  1  0.33434000  0.17273000  0.78084000  1.0
  H  H19  1  0.16566000  0.67273000  0.21916000  1.0
  H  H20  1  0.08964000  0.11656000  0.07356000  1.0
  H  H21  1  0.41036000  0.61656000  0.92644000  1.0
  H  H22  1  0.91037000  0.88341000  0.92644000  1.0
  H  H23  1  0.58964000  0.38343000  0.07356000  1.0
  H  H24  1  0.35912000  0.17290000  0.17629000  1.0
  H  H25  1  0.14088000  0.67289000  0.82371000  1.0
  H  H26  1  0.64088000  0.82710000  0.82370000  1.0
  H  H27  1  0.85911000  0.32710000  0.17629000  1.0
  C  C28  1  0.59855000  0.98354000  0.41556000  1.0
  C  C29  1  0.90146000  0.48355000  0.58444000  1.0
  C  C30  1  0.40146000  0.01647000  0.58443000  1.0
  C  C31  1  0.09853000  0.51646000  0.41557000  1.0
  C  C32  1  0.38321000  0.96526000  0.37213000  1.0
  C  C33  1  0.11680000  0.46528000  0.62787000  1.0
  C  C34  1  0.61680000  0.03474000  0.62787000  1.0
  C  C35  1  0.88319000  0.53472000  0.37213000  1.0
  C  C36  1  0.34839000  0.05443000  0.31091000  1.0
  C  C37  1  0.15163000  0.55444000  0.68909000  1.0
  C  C38  1  0.65163000  0.94558000  0.68908000  1.0
  C  C39  1  0.84836000  0.44556000  0.31092000  1.0
  C  C40  1  0.17125000  0.02867000  0.25573000  1.0
  C  C41  1  0.32876000  0.52868000  0.74427000  1.0
  C  C42  1  0.82877000  0.97134000  0.74427000  1.0
  C  C43  1  0.67123000  0.47133000  0.25573000  1.0
  C  C44  1  0.97253000  0.93191000  0.26710000  1.0
  C  C45  1  0.52748000  0.43193000  0.73290000  1.0
  C  C46  1  0.02747000  0.06809000  0.73290000  1.0
  C  C47  1  0.47252000  0.56808000  0.26710000  1.0
  C  C48  1  0.81878000  0.90207000  0.21027000  1.0
  C  C49  1  0.68124000  0.40208000  0.78973000  1.0
  C  C50  1  0.18123000  0.09793000  0.78973000  1.0
  C  C51  1  0.31875000  0.59793000  0.21027000  1.0
  C  C52  1  0.86360000  0.96762000  0.14069000  1.0
  C  C53  1  0.63640000  0.46762000  0.85931000  1.0
  C  C54  1  0.13640000  0.03237000  0.85931000  1.0
  C  C55  1  0.36360000  0.53238000  0.14069000  1.0
  C  C56  1  0.05690000  0.06591000  0.12792000  1.0
  C  C57  1  0.44309000  0.56590000  0.87208000  1.0
  C  C58  1  0.94309000  0.93407000  0.87208000  1.0
  C  C59  1  0.55689000  0.43409000  0.12792000  1.0
  C  C60  1  0.20722000  0.09679000  0.18567000  1.0
  C  C61  1  0.29278000  0.59679000  0.81433000  1.0
  C  C62  1  0.79278000  0.90321000  0.81432000  1.0
  C  C63  1  0.70721000  0.40321000  0.18567000  1.0
  Cl  Cl64  1  0.67492000  0.92596000  0.06963000  1.0
  Cl  Cl65  1  0.82508000  0.42596000  0.93037000  1.0
  Cl  Cl66  1  0.32508000  0.07401000  0.93038000  1.0
  Cl  Cl67  1  0.17492000  0.57403000  0.06963000  1.0
  O  O68  1  0.65388000  0.86340000  0.45523000  1.0
  O  O69  1  0.84613000  0.36342000  0.54478000  1.0
  O  O70  1  0.34613000  0.13661000  0.54477000  1.0
  O  O71  1  0.15386000  0.63659000  0.45523000  1.0
  O  O72  1  0.72023000  0.11173000  0.40854000  1.0
  O  O73  1  0.77977000  0.61175000  0.59146000  1.0
  O  O74  1  0.27979000  0.88828000  0.59146000  1.0
  O  O75  1  0.22023000  0.38827000  0.40854000  1.0
