# generated using pymatgen
data_AgH11C8BrN
_symmetry_space_group_name_H-M   'P 1'
_cell_length_a   4.24288000
_cell_length_b   13.59010000
_cell_length_c   15.55650000
_cell_angle_alpha   90.00040000
_cell_angle_beta   90.00020000
_cell_angle_gamma   89.47930000
_symmetry_Int_Tables_number   1
_chemical_formula_structural   AgH11C8BrN
_chemical_formula_sum   'Ag4 H44 C32 Br4 N4'
_cell_volume   896.96884796
_cell_formula_units_Z   4
loop_
 _symmetry_equiv_pos_site_id
 _symmetry_equiv_pos_as_xyz
  1  'x, y, z'
loop_
 _atom_site_type_symbol
 _atom_site_label
 _atom_site_symmetry_multiplicity
 _atom_site_fract_x
 _atom_site_fract_y
 _atom_site_fract_z
 _atom_site_occupancy
  Ag  Ag0  1  0.18147000  0.57563000  0.43873000  1.0
  Ag  Ag1  1  0.81853000  0.92437000  0.93873000  1.0
  Ag  Ag2  1  0.81853000  0.42437000  0.56127000  1.0
  Ag  Ag3  1  0.18148000  0.07563000  0.06127000  1.0
  H  H4  1  0.67539000  0.67427000  0.52905000  1.0
  H  H5  1  0.32461000  0.82573000  0.02905000  1.0
  H  H6  1  0.32462000  0.32573000  0.47095000  1.0
  H  H7  1  0.67539000  0.17427000  0.97095000  1.0
  H  H8  1  0.99587000  0.72212000  0.58657000  1.0
  H  H9  1  0.00413000  0.77788000  0.08658000  1.0
  H  H10  1  0.00413000  0.27788000  0.41343000  1.0
  H  H11  1  0.99587000  0.22212000  0.91343000  1.0
  H  H12  1  0.63351000  0.79027000  0.58025000  1.0
  H  H13  1  0.36649000  0.70974000  0.08025000  1.0
  H  H14  1  0.36650000  0.20973000  0.41975000  1.0
  H  H15  1  0.63350000  0.29026000  0.91975000  1.0
  H  H16  1  0.66485000  0.92846000  0.48815000  1.0
  H  H17  1  0.33516000  0.57154000  0.98815000  1.0
  H  H18  1  0.33516000  0.07153000  0.51186000  1.0
  H  H19  1  0.66485000  0.42847000  0.01185000  1.0
  H  H20  1  0.57968000  0.04970000  0.36577000  1.0
  H  H21  1  0.42032000  0.45030000  0.86577000  1.0
  H  H22  1  0.42032000  0.95030000  0.63423000  1.0
  H  H23  1  0.57968000  0.54970000  0.13423000  1.0
  H  H24  1  0.83614000  0.04647000  0.27528000  1.0
  H  H25  1  0.16385000  0.45353000  0.77528000  1.0
  H  H26  1  0.16385000  0.95352000  0.72472000  1.0
  H  H27  1  0.83614000  0.54648000  0.22472000  1.0
  H  H28  1  0.97265000  0.08970000  0.37690000  1.0
  H  H29  1  0.02735000  0.41031000  0.87690000  1.0
  H  H30  1  0.02734000  0.91031000  0.62310000  1.0
  H  H31  1  0.97265000  0.58970000  0.12310000  1.0
  H  H32  1  0.20435000  0.90694000  0.25415000  1.0
  H  H33  1  0.79566000  0.59307000  0.75415000  1.0
  H  H34  1  0.79566000  0.09307000  0.74585000  1.0
  H  H35  1  0.20435000  0.40694000  0.24585000  1.0
  H  H36  1  0.58260000  0.67753000  0.31729000  1.0
  H  H37  1  0.41739000  0.82247000  0.81729000  1.0
  H  H38  1  0.41739000  0.32247000  0.68271000  1.0
  H  H39  1  0.58260000  0.17753000  0.18271000  1.0
  H  H40  1  0.26019000  0.66336000  0.24705000  1.0
  H  H41  1  0.73981000  0.83664000  0.74706000  1.0
  H  H42  1  0.73980000  0.33664000  0.75295000  1.0
  H  H43  1  0.26018000  0.16337000  0.25294000  1.0
  H  H44  1  0.52226000  0.76370000  0.23134000  1.0
  H  H45  1  0.47774000  0.73630000  0.73134000  1.0
  H  H46  1  0.47773000  0.23630000  0.76866000  1.0
  H  H47  1  0.52226000  0.26370000  0.26866000  1.0
  C  C48  1  0.91080000  0.79223000  0.46459000  1.0
  C  C49  1  0.08921000  0.70777000  0.96460000  1.0
  C  C50  1  0.08921000  0.20777000  0.53541000  1.0
  C  C51  1  0.91079000  0.29223000  0.03540000  1.0
  C  C52  1  0.79795000  0.74302000  0.54451000  1.0
  C  C53  1  0.20205000  0.75698000  0.04451000  1.0
  C  C54  1  0.20205000  0.25698000  0.45549000  1.0
  C  C55  1  0.79795000  0.24302000  0.95549000  1.0
  C  C56  1  0.82191000  0.88857000  0.44462000  1.0
  C  C57  1  0.17811000  0.61143000  0.94462000  1.0
  C  C58  1  0.17811000  0.11143000  0.55538000  1.0
  C  C59  1  0.82190000  0.38857000  0.05538000  1.0
  C  C60  1  0.92310000  0.93255000  0.36832000  1.0
  C  C61  1  0.07691000  0.56746000  0.86832000  1.0
  C  C62  1  0.07690000  0.06745000  0.63168000  1.0
  C  C63  1  0.92310000  0.43255000  0.13168000  1.0
  C  C64  1  0.82295000  0.03509000  0.34497000  1.0
  C  C65  1  0.17705000  0.46491000  0.84497000  1.0
  C  C66  1  0.17705000  0.96491000  0.65504000  1.0
  C  C67  1  0.82295000  0.53509000  0.15503000  1.0
  C  C68  1  0.11941000  0.87673000  0.31479000  1.0
  C  C69  1  0.88060000  0.62327000  0.81479000  1.0
  C  C70  1  0.88060000  0.12327000  0.68521000  1.0
  C  C71  1  0.11941000  0.37673000  0.18521000  1.0
  C  C72  1  0.20320000  0.78054000  0.33766000  1.0
  C  C73  1  0.79679000  0.71946000  0.83766000  1.0
  C  C74  1  0.79679000  0.21946000  0.66234000  1.0
  C  C75  1  0.20321000  0.28054000  0.16234000  1.0
  C  C76  1  0.40519000  0.71847000  0.27997000  1.0
  C  C77  1  0.59480000  0.78153000  0.77997000  1.0
  C  C78  1  0.59480000  0.28152000  0.72003000  1.0
  C  C79  1  0.40520000  0.21848000  0.22003000  1.0
  Br  Br80  1  0.68167000  0.46756000  0.38477000  1.0
  Br  Br81  1  0.31831000  0.03243000  0.88478000  1.0
  Br  Br82  1  0.31833000  0.53243000  0.61522000  1.0
  Br  Br83  1  0.68167000  0.96757000  0.11522000  1.0
  N  N84  1  0.09850000  0.73895000  0.41125000  1.0
  N  N85  1  0.90150000  0.76105000  0.91126000  1.0
  N  N86  1  0.90151000  0.26104000  0.58874000  1.0
  N  N87  1  0.09849000  0.23895000  0.08874000  1.0
