# generated using pymatgen
data_Zr6H28C57(ClO21)2
_symmetry_space_group_name_H-M   'P 1'
_cell_length_a   14.74329695
_cell_length_b   14.75154166
_cell_length_c   14.75780000
_cell_angle_alpha   60.06336040
_cell_angle_beta   60.12807733
_cell_angle_gamma   60.15995932
_symmetry_Int_Tables_number   1
_chemical_formula_structural   Zr6H28C57(ClO21)2
_chemical_formula_sum   'Zr6 H28 C57 Cl2 O42'
_cell_volume   2275.56358143
_cell_formula_units_Z   1
loop_
 _symmetry_equiv_pos_site_id
 _symmetry_equiv_pos_as_xyz
  1  'x, y, z'
loop_
 _atom_site_type_symbol
 _atom_site_label
 _atom_site_symmetry_multiplicity
 _atom_site_fract_x
 _atom_site_fract_y
 _atom_site_fract_z
 _atom_site_occupancy
  Zr  Zr0  1  0.62229000  0.88266000  0.62050000  1.0
  Zr  Zr1  1  0.38248000  0.11988000  0.38147000  1.0
  Zr  Zr2  1  0.62295000  0.88118000  0.38123000  1.0
  Zr  Zr3  1  0.38289000  0.12039000  0.62093000  1.0
  Zr  Zr4  1  0.38292000  0.88081000  0.62016000  1.0
  Zr  Zr5  1  0.62165000  0.12211000  0.38120000  1.0
  H  H6  1  0.59690000  0.71853000  0.59279000  1.0
  H  H7  1  0.21996000  0.09228000  0.59427000  1.0
  H  H8  1  0.59666000  0.09595000  0.21862000  1.0
  H  H9  1  0.59634000  0.09696000  0.59436000  1.0
  H  H10  1  0.64207000  0.59020000  0.92454000  1.0
  H  H11  1  0.34661000  0.59996000  0.92275000  1.0
  H  H12  1  0.63632000  0.42130000  0.09550000  1.0
  H  H13  1  0.91436000  0.85988000  0.64935000  1.0
  H  H14  1  0.93406000  0.12785000  0.33794000  1.0
  H  H15  1  0.08673000  0.85874000  0.64569000  1.0
  H  H16  1  0.09479000  0.84476000  0.92730000  1.0
  H  H17  1  0.09565000  0.14035000  0.91774000  1.0
  H  H18  1  0.92566000  0.84737000  0.09769000  1.0
  H  H19  1  0.63796000  0.42702000  0.34504000  1.0
  H  H20  1  0.34396000  0.42783000  0.63263000  1.0
  H  H21  1  0.63564000  0.59789000  0.34521000  1.0
  H  H22  1  0.72750000  0.56433000  0.67511000  1.0
  H  H23  1  0.71237000  0.38468000  0.81667000  1.0
  H  H24  1  0.05978000  0.22384000  0.67006000  1.0
  H  H25  1  0.87986000  0.21224000  0.81272000  1.0
  H  H26  1  0.35236000  0.14246000  0.92147000  1.0
  H  H27  1  0.63691000  0.84587000  0.92391000  1.0
  H  H28  1  0.35343000  0.13868000  0.09190000  1.0
  H  H29  1  0.39678000  0.28362000  0.09192000  1.0
  H  H30  1  0.04474000  0.25897000  0.36615000  1.0
  H  H31  1  0.83806000  0.26302000  0.99406000  1.0
  H  H32  1  0.40373000  0.53649000  0.74801000  1.0
  H  H33  1  0.75074000  0.90379000  0.04646000  1.0
  C  C34  1  0.49952000  0.70112000  0.80837000  1.0
  C  C35  1  0.20342000  0.99529000  0.49575000  1.0
  C  C36  1  0.49575000  0.31068000  0.20109000  1.0
  C  C37  1  0.80936000  0.99873000  0.49753000  1.0
  C  C38  1  0.81102000  0.70295000  0.49800000  1.0
  C  C39  1  0.49771000  0.99747000  0.80910000  1.0
  C  C40  1  0.20218000  0.30746000  0.49923000  1.0
  C  C41  1  0.49978000  0.99763000  0.19919000  1.0
  C  C42  1  0.49759000  0.70250000  0.49411000  1.0
  C  C43  1  0.81042000  0.99847000  0.19979000  1.0
  C  C44  1  0.49606000  0.31143000  0.49490000  1.0
  C  C45  1  0.20296000  0.99514000  0.80921000  1.0
  C  C46  1  0.49149000  0.41352000  0.10179000  1.0
  C  C47  1  0.49632000  0.60259000  0.91199000  1.0
  C  C48  1  0.40774000  0.46395000  0.05419000  1.0
  C  C49  1  0.57762000  0.55401000  0.96105000  1.0
  C  C50  1  0.41134000  0.55885000  0.95970000  1.0
  C  C51  1  0.57440000  0.46051000  0.05548000  1.0
  C  C52  1  0.10388000  0.99546000  0.49272000  1.0
  C  C53  1  0.91232000  0.99674000  0.49579000  1.0
  C  C54  1  0.06222000  0.07120000  0.40415000  1.0
  C  C55  1  0.95556000  0.91944000  0.58216000  1.0
  C  C56  1  0.96597000  0.07167000  0.40675000  1.0
  C  C57  1  0.05068000  0.91921000  0.58047000  1.0
  C  C58  1  0.91382000  0.99704000  0.10100000  1.0
  C  C59  1  0.10354000  0.99364000  0.91211000  1.0
  C  C60  1  0.96201000  0.08004000  0.05138000  1.0
  C  C61  1  0.05676000  0.91020000  0.96244000  1.0
  C  C62  1  0.05676000  0.07737000  0.95724000  1.0
  C  C63  1  0.96272000  0.91207000  0.05653000  1.0
  C  C64  1  0.49191000  0.60542000  0.49204000  1.0
  C  C65  1  0.49271000  0.41618000  0.49086000  1.0
  C  C66  1  0.40714000  0.55941000  0.57281000  1.0
  C  C67  1  0.57431000  0.46442000  0.40844000  1.0
  C  C68  1  0.40845000  0.46488000  0.57124000  1.0
  C  C69  1  0.57353000  0.55863000  0.40918000  1.0
  C  C70  1  0.91255000  0.60129000  0.50036000  1.0
  C  C71  1  0.90186000  0.49853000  0.58501000  1.0
  C  C72  1  0.01464000  0.60832000  0.42212000  1.0
  C  C73  1  0.79964000  0.48958000  0.67076000  1.0
  C  C74  1  0.79161000  0.38891000  0.75114000  1.0
  C  C75  1  0.10142000  0.40980000  0.50067000  1.0
  C  C76  1  0.11063000  0.51154000  0.42321000  1.0
  C  C77  1  0.99789000  0.40066000  0.58426000  1.0
  C  C78  1  0.98675000  0.29819000  0.66814000  1.0
  C  C79  1  0.88599000  0.29212000  0.74942000  1.0
  C  C80  1  0.49992000  0.99430000  0.09980000  1.0
  C  C81  1  0.49658000  0.99577000  0.91154000  1.0
  C  C82  1  0.57963000  0.90916000  0.05428000  1.0
  C  C83  1  0.41612000  0.07851000  0.95844000  1.0
  C  C84  1  0.57686000  0.91092000  0.96020000  1.0
  C  C85  1  0.41796000  0.07737000  0.05215000  1.0
  C  C86  1  0.30729000  0.43179000  0.09586000  1.0
  C  C87  1  0.12127000  0.14573000  0.29911000  1.0
  C  C88  1  0.92015000  0.17104000  0.09622000  1.0
  C  C89  1  0.30984000  0.60815000  0.65973000  1.0
  C  C90  1  0.66593000  0.81018000  0.10278000  1.0
  Cl  Cl91  1  0.23846000  0.52205000  0.33114000  1.0
  Cl  Cl92  1  0.02683000  0.73443000  0.32556000  1.0
  O  O93  1  0.57813000  0.73886000  0.76791000  1.0
  O  O94  1  0.24337000  0.07267000  0.41959000  1.0
  O  O95  1  0.42084000  0.26818000  0.24013000  1.0
  O  O96  1  0.76779000  0.92363000  0.57653000  1.0
  O  O97  1  0.77187000  0.73893000  0.42205000  1.0
  O  O98  1  0.42200000  0.07562000  0.76835000  1.0
  O  O99  1  0.24087000  0.26757000  0.57665000  1.0
  O  O100  1  0.57599000  0.92085000  0.23999000  1.0
  O  O101  1  0.42289000  0.74034000  0.57297000  1.0
  O  O102  1  0.76862000  0.07761000  0.23695000  1.0
  O  O103  1  0.57462000  0.27022000  0.41971000  1.0
  O  O104  1  0.24126000  0.91911000  0.76903000  1.0
  O  O105  1  0.77011000  0.92241000  0.23777000  1.0
  O  O106  1  0.42196000  0.26911000  0.57448000  1.0
  O  O107  1  0.24053000  0.07408000  0.76808000  1.0
  O  O108  1  0.57721000  0.73905000  0.42019000  1.0
  O  O109  1  0.77086000  0.74155000  0.57542000  1.0
  O  O110  1  0.42605000  0.07798000  0.23467000  1.0
  O  O111  1  0.23747000  0.26780000  0.42399000  1.0
  O  O112  1  0.57555000  0.92176000  0.76842000  1.0
  O  O113  1  0.76857000  0.07602000  0.42144000  1.0
  O  O114  1  0.42460000  0.73856000  0.76674000  1.0
  O  O115  1  0.24050000  0.92086000  0.57492000  1.0
  O  O116  1  0.57448000  0.27084000  0.23797000  1.0
  O  O117  1  0.56910000  0.06978000  0.56822000  1.0
  O  O118  1  0.56983000  0.06885000  0.29890000  1.0
  O  O119  1  0.30025000  0.06742000  0.56832000  1.0
  O  O120  1  0.57082000  0.79885000  0.56745000  1.0
  O  O121  1  0.45339000  0.95095000  0.45048000  1.0
  O  O122  1  0.45294000  0.95115000  0.64962000  1.0
  O  O123  1  0.45209000  0.15027000  0.45120000  1.0
  O  O124  1  0.65170000  0.95227000  0.45082000  1.0
  O  O125  1  0.32352000  0.33644000  0.08816000  1.0
  O  O126  1  0.21436000  0.49637000  0.12188000  1.0
  O  O127  1  0.09217000  0.25093000  0.29335000  1.0
  O  O128  1  0.18561000  0.11655000  0.21869000  1.0
  O  O129  1  0.85097000  0.27000000  0.04881000  1.0
  O  O130  1  0.95169000  0.16286000  0.16249000  1.0
  O  O131  1  0.32502000  0.57546000  0.75700000  1.0
  O  O132  1  0.21884000  0.66456000  0.65019000  1.0
  O  O133  1  0.76130000  0.82465000  0.07767000  1.0
  O  O134  1  0.65771000  0.71821000  0.15215000  1.0
