# generated using pymatgen
data_ZnH20C19N4O5
_symmetry_space_group_name_H-M   'P 1'
_cell_length_a   8.35173000
_cell_length_b   16.50780000
_cell_length_c   17.34960000
_cell_angle_alpha   89.99970000
_cell_angle_beta   97.84280000
_cell_angle_gamma   90.00000000
_symmetry_Int_Tables_number   1
_chemical_formula_structural   ZnH20C19N4O5
_chemical_formula_sum   'Zn4 H80 C76 N16 O20'
_cell_volume   2369.59258338
_cell_formula_units_Z   4
loop_
 _symmetry_equiv_pos_site_id
 _symmetry_equiv_pos_as_xyz
  1  'x, y, z'
loop_
 _atom_site_type_symbol
 _atom_site_label
 _atom_site_symmetry_multiplicity
 _atom_site_fract_x
 _atom_site_fract_y
 _atom_site_fract_z
 _atom_site_occupancy
  Zn  Zn0  1  0.88848000  0.18135000  0.77637000  1.0
  Zn  Zn1  1  0.61152000  0.68136000  0.72363000  1.0
  Zn  Zn2  1  0.11152000  0.81864000  0.22363000  1.0
  Zn  Zn3  1  0.38849000  0.31864000  0.27637000  1.0
  H  H4  1  0.12867000  0.33333333  0.61916000  1.0
  H  H5  1  0.37132000  0.83332000  0.88085000  1.0
  H  H6  1  0.87132000  0.66666667  0.38085000  1.0
  H  H7  1  0.62867000  0.16669000  0.11916000  1.0
  H  H8  1  0.25071000  0.42233000  0.39407000  1.0
  H  H9  1  0.24930000  0.92233000  0.10593000  1.0
  H  H10  1  0.74929000  0.57767000  0.60593000  1.0
  H  H11  1  0.75071000  0.07767000  0.89407000  1.0
  H  H12  1  0.39275000  0.47722000  0.46076000  1.0
  H  H13  1  0.10725000  0.97723000  0.03924000  1.0
  H  H14  1  0.60725000  0.52277000  0.53924000  1.0
  H  H15  1  0.89275000  0.02278000  0.96077000  1.0
  H  H16  1  0.19189000  0.51618000  0.43498000  1.0
  H  H17  1  0.30811000  0.01619000  0.06503000  1.0
  H  H18  1  0.80811000  0.48382000  0.56503000  1.0
  H  H19  1  0.69189000  0.98382000  0.93498000  1.0
  H  H20  1  0.97516000  0.43030000  0.38935000  1.0
  H  H21  1  0.52483000  0.93030000  0.11065000  1.0
  H  H22  1  0.02483000  0.56970000  0.61065000  1.0
  H  H23  1  0.47517000  0.06969000  0.88935000  1.0
  H  H24  1  0.64657000  0.28894000  0.50419000  1.0
  H  H25  1  0.85343000  0.78894000  0.99581000  1.0
  H  H26  1  0.35342000  0.71106000  0.49581000  1.0
  H  H27  1  0.14656000  0.21106000  0.00418000  1.0
  H  H28  1  0.50897000  0.23536000  0.73546000  1.0
  H  H29  1  0.99104000  0.73536000  0.76454000  1.0
  H  H30  1  0.49104000  0.76464000  0.26454000  1.0
  H  H31  1  0.00897000  0.26464000  0.23546000  1.0
  H  H32  1  0.53887000  0.33026000  0.96363000  1.0
  H  H33  1  0.96114000  0.83026000  0.53637000  1.0
  H  H34  1  0.46114000  0.66974000  0.03636000  1.0
  H  H35  1  0.03886000  0.16974000  0.46363000  1.0
  H  H36  1  0.83598000  0.26242000  0.94154000  1.0
  H  H37  1  0.66403000  0.76243000  0.55846000  1.0
  H  H38  1  0.16402000  0.73758000  0.05846000  1.0
  H  H39  1  0.33597000  0.23757000  0.44154000  1.0
  H  H40  1  0.25385000  0.31259000  0.88172000  1.0
  H  H41  1  0.24616000  0.81260000  0.61829000  1.0
  H  H42  1  0.74616000  0.68740000  0.11829000  1.0
  H  H43  1  0.75384000  0.18740000  0.38171000  1.0
  H  H44  1  0.24363000  0.27734000  0.78517000  1.0
  H  H45  1  0.25638000  0.77734000  0.71483000  1.0
  H  H46  1  0.75638000  0.72266000  0.21483000  1.0
  H  H47  1  0.74362000  0.22266000  0.28517000  1.0
  H  H48  1  0.36964000  0.40776000  0.74718000  1.0
  H  H49  1  0.13036000  0.90776000  0.75282000  1.0
  H  H50  1  0.63036000  0.59224000  0.25281000  1.0
  H  H51  1  0.86963000  0.09224000  0.24718000  1.0
  H  H52  1  0.36363000  0.44682000  0.84092000  1.0
  H  H53  1  0.13637000  0.94682000  0.65908000  1.0
  H  H54  1  0.63637000  0.55318000  0.15908000  1.0
  H  H55  1  0.86363000  0.05318000  0.34092000  1.0
  H  H56  1  0.13954000  0.49550000  0.74342000  1.0
  H  H57  1  0.36047000  0.99550000  0.75658000  1.0
  H  H58  1  0.86046000  0.50450000  0.25658000  1.0
  H  H59  1  0.63953000  0.00449000  0.24342000  1.0
  H  H60  1  0.07225000  0.39475000  0.72323000  1.0
  H  H61  1  0.42776000  0.89475000  0.77677000  1.0
  H  H62  1  0.92776000  0.60525000  0.27677000  1.0
  H  H63  1  0.57224000  0.10524000  0.22323000  1.0
  H  H64  1  0.99649000  0.37956000  0.85585000  1.0
  H  H65  1  0.50351000  0.87957000  0.64415000  1.0
  H  H66  1  0.00351000  0.62043000  0.14415000  1.0
  H  H67  1  0.49649000  0.12044000  0.35585000  1.0
  H  H68  1  0.07637000  0.47701000  0.88220000  1.0
  H  H69  1  0.42364000  0.97702000  0.61780000  1.0
  H  H70  1  0.92363000  0.52299000  0.11780000  1.0
  H  H71  1  0.57637000  0.02299000  0.38220000  1.0
  H  H72  1  0.90750000  0.60200000  0.83561000  1.0
  H  H73  1  0.59251000  0.10200000  0.66439000  1.0
  H  H74  1  0.09250000  0.39800000  0.16439000  1.0
  H  H75  1  0.40750000  0.89800000  0.33561000  1.0
  H  H76  1  0.74431000  0.37366000  0.74436000  1.0
  H  H77  1  0.75569000  0.87366000  0.75564000  1.0
  H  H78  1  0.25569000  0.62634000  0.25564000  1.0
  H  H79  1  0.24431000  0.12634000  0.24436000  1.0
  H  H80  1  0.51959000  0.49439000  0.69125000  1.0
  H  H81  1  0.98041000  0.99438000  0.80876000  1.0
  H  H82  1  0.48041000  0.50561000  0.30875000  1.0
  H  H83  1  0.01960000  0.00561000  0.19125000  1.0
  C  C84  1  0.84255000  0.26011000  0.63834000  1.0
  C  C85  1  0.65744000  0.76011000  0.86166000  1.0
  C  C86  1  0.15745000  0.73990000  0.36166000  1.0
  C  C87  1  0.34255000  0.23990000  0.13834000  1.0
  C  C88  1  0.88231000  0.30757000  0.56961000  1.0
  C  C89  1  0.61769000  0.80757000  0.93039000  1.0
  C  C90  1  0.11769000  0.69244000  0.43039000  1.0
  C  C91  1  0.38231000  0.19243000  0.06961000  1.0
  C  C92  1  0.03503000  0.34197000  0.56973000  1.0
  C  C93  1  0.46497000  0.84198000  0.93026000  1.0
  C  C94  1  0.96496000  0.65803000  0.43027000  1.0
  C  C95  1  0.53502000  0.15802000  0.06974000  1.0
  C  C96  1  0.07041000  0.38698000  0.50562000  1.0
  C  C97  1  0.42959000  0.88698000  0.99438000  1.0
  C  C98  1  0.92958000  0.61302000  0.49438000  1.0
  C  C99  1  0.57041000  0.11302000  0.00562000  1.0
  C  C100  1  0.26526000  0.46099000  0.44607000  1.0
  C  C101  1  0.23474000  0.96100000  0.05393000  1.0
  C  C102  1  0.73474000  0.53900000  0.55393000  1.0
  C  C103  1  0.76526000  0.03901000  0.94607000  1.0
  C  C104  1  0.95280000  0.39638000  0.44057000  1.0
  C  C105  1  0.54720000  0.89638000  0.05943000  1.0
  C  C106  1  0.04719000  0.60362000  0.55943000  1.0
  C  C107  1  0.45280000  0.10362000  0.94057000  1.0
  C  C108  1  0.80101000  0.35978000  0.43981000  1.0
  C  C109  1  0.69898000  0.85977000  0.06020000  1.0
  C  C110  1  0.19898000  0.64023000  0.56020000  1.0
  C  C111  1  0.30101000  0.14022000  0.93980000  1.0
  C  C112  1  0.67984000  0.36463000  0.36725000  1.0
  C  C113  1  0.82016000  0.86461000  0.13275000  1.0
  C  C114  1  0.32016000  0.63538000  0.63275000  1.0
  C  C115  1  0.17983000  0.13537000  0.86725000  1.0
  C  C116  1  0.76491000  0.31638000  0.50431000  1.0
  C  C117  1  0.73508000  0.81637000  0.99569000  1.0
  C  C118  1  0.23508000  0.68363000  0.49569000  1.0
  C  C119  1  0.26491000  0.18362000  0.00431000  1.0
  C  C120  1  0.55865000  0.25120000  0.79454000  1.0
  C  C121  1  0.94135000  0.75120000  0.70546000  1.0
  C  C122  1  0.44136000  0.74880000  0.20546000  1.0
  C  C123  1  0.05864000  0.24880000  0.29454000  1.0
  C  C124  1  0.57924000  0.30209000  0.91328000  1.0
  C  C125  1  0.92076000  0.80210000  0.58673000  1.0
  C  C126  1  0.42076000  0.69791000  0.08672000  1.0
  C  C127  1  0.07924000  0.19791000  0.41327000  1.0
  C  C128  1  0.72469000  0.26853000  0.90179000  1.0
  C  C129  1  0.77531000  0.76854000  0.59821000  1.0
  C  C130  1  0.27531000  0.73147000  0.09821000  1.0
  C  C131  1  0.22468000  0.23147000  0.40178000  1.0
  C  C132  1  0.30877000  0.31875000  0.82805000  1.0
  C  C133  1  0.19124000  0.81876000  0.67195000  1.0
  C  C134  1  0.69124000  0.68125000  0.17195000  1.0
  C  C135  1  0.80876000  0.18125000  0.32804000  1.0
  C  C136  1  0.30136000  0.40532000  0.79689000  1.0
  C  C137  1  0.19864000  0.90532000  0.70311000  1.0
  C  C138  1  0.69865000  0.59467000  0.20311000  1.0
  C  C139  1  0.80136000  0.09468000  0.29689000  1.0
  C  C140  1  0.13048000  0.43506000  0.76918000  1.0
  C  C141  1  0.36952000  0.93506000  0.73082000  1.0
  C  C142  1  0.86952000  0.56494000  0.23082000  1.0
  C  C143  1  0.63048000  0.06494000  0.26918000  1.0
  C  C144  1  0.02168000  0.43965000  0.83304000  1.0
  C  C145  1  0.47833000  0.93966000  0.66696000  1.0
  C  C146  1  0.97833000  0.56035000  0.16696000  1.0
  C  C147  1  0.52168000  0.06034000  0.33304000  1.0
  C  C148  1  0.83272000  0.55656000  0.80305000  1.0
  C  C149  1  0.66728000  0.05656000  0.69696000  1.0
  C  C150  1  0.16729000  0.44344000  0.19695000  1.0
  C  C151  1  0.33272000  0.94344000  0.30305000  1.0
  C  C152  1  0.74315000  0.43836000  0.75460000  1.0
  C  C153  1  0.75685000  0.93835000  0.74540000  1.0
  C  C154  1  0.25685000  0.56165000  0.24540000  1.0
  C  C155  1  0.24315000  0.06165000  0.25460000  1.0
  C  C156  1  0.63443000  0.49791000  0.72858000  1.0
  C  C157  1  0.86558000  0.99791000  0.77142000  1.0
  C  C158  1  0.36558000  0.50209000  0.27142000  1.0
  C  C159  1  0.13443000  0.00209000  0.22858000  1.0
  N  N160  1  0.71022000  0.23715000  0.82724000  1.0
  N  N161  1  0.78979000  0.73715000  0.67276000  1.0
  N  N162  1  0.28979000  0.76285000  0.17276000  1.0
  N  N163  1  0.21021000  0.26285000  0.32723000  1.0
  N  N164  1  0.47565000  0.29024000  0.84508000  1.0
  N  N165  1  0.02435000  0.79024000  0.65492000  1.0
  N  N166  1  0.52435000  0.70976000  0.15492000  1.0
  N  N167  1  0.97564000  0.20976000  0.34507000  1.0
  N  N168  1  0.86721000  0.47649000  0.80203000  1.0
  N  N169  1  0.63279000  0.97649000  0.69797000  1.0
  N  N170  1  0.13279000  0.52351000  0.19797000  1.0
  N  N171  1  0.36721000  0.02351000  0.30203000  1.0
  N  N172  1  0.69175000  0.57125000  0.75923000  1.0
  N  N173  1  0.80825000  0.07125000  0.74077000  1.0
  N  N174  1  0.30826000  0.42874000  0.24077000  1.0
  N  N175  1  0.19175000  0.92875000  0.25923000  1.0
  O  O176  1  0.95915000  0.25289000  0.69616000  1.0
  O  O177  1  0.54084000  0.75289000  0.80384000  1.0
  O  O178  1  0.04084000  0.74711000  0.30384000  1.0
  O  O179  1  0.45915000  0.24711000  0.19615000  1.0
  O  O180  1  0.70416000  0.23044000  0.63819000  1.0
  O  O181  1  0.79584000  0.73046000  0.86180000  1.0
  O  O182  1  0.29584000  0.76955000  0.36180000  1.0
  O  O183  1  0.20415000  0.26955000  0.13819000  1.0
  O  O184  1  0.54769000  0.32345000  0.37051000  1.0
  O  O185  1  0.95231000  0.82345000  0.12948000  1.0
  O  O186  1  0.45231000  0.67655000  0.62949000  1.0
  O  O187  1  0.04769000  0.17653000  0.87051000  1.0
  O  O188  1  0.70986000  0.40373000  0.30922000  1.0
  O  O189  1  0.79013000  0.90370000  0.19079000  1.0
  O  O190  1  0.29013000  0.59628000  0.69078000  1.0
  O  O191  1  0.20987000  0.09627000  0.80922000  1.0
  O  O192  1  0.22337000  0.41766000  0.51191000  1.0
  O  O193  1  0.27663000  0.91767000  0.98809000  1.0
  O  O194  1  0.77662000  0.58234000  0.48809000  1.0
  O  O195  1  0.72337000  0.08234000  0.01192000  1.0
