# generated using pymatgen
data_CuH14C19N2O3
_symmetry_space_group_name_H-M   'P 1'
_cell_length_a   9.10979000
_cell_length_b   11.25950000
_cell_length_c   19.80830000
_cell_angle_alpha   90.00020000
_cell_angle_beta   90.00030000
_cell_angle_gamma   110.23400000
_symmetry_Int_Tables_number   1
_chemical_formula_structural   CuH14C19N2O3
_chemical_formula_sum   'Cu4 H56 C76 N8 O12'
_cell_volume   1906.38589589
_cell_formula_units_Z   4
loop_
 _symmetry_equiv_pos_site_id
 _symmetry_equiv_pos_as_xyz
  1  'x, y, z'
loop_
 _atom_site_type_symbol
 _atom_site_label
 _atom_site_symmetry_multiplicity
 _atom_site_fract_x
 _atom_site_fract_y
 _atom_site_fract_z
 _atom_site_occupancy
  Cu  Cu0  1  0.79690000  0.24980000  0.27953000  1.0
  Cu  Cu1  1  0.70309000  0.75021000  0.77953000  1.0
  Cu  Cu2  1  0.20308000  0.75021000  0.72047000  1.0
  Cu  Cu3  1  0.29689000  0.24978000  0.22047000  1.0
  H  H4  1  0.27177000  0.94673000  0.38848000  1.0
  H  H5  1  0.22822000  0.05328000  0.88846000  1.0
  H  H6  1  0.72824000  0.05323000  0.61151000  1.0
  H  H7  1  0.77177000  0.94670000  0.11154000  1.0
  H  H8  1  0.32075000  0.79488000  0.46915000  1.0
  H  H9  1  0.17925000  0.20513000  0.96913000  1.0
  H  H10  1  0.67927000  0.20507000  0.53083000  1.0
  H  H11  1  0.82074000  0.79486000  0.03085000  1.0
  H  H12  1  0.59307000  0.78897000  0.47964000  1.0
  H  H13  1  0.90693000  0.21103000  0.97963000  1.0
  H  H14  1  0.40694000  0.21101000  0.52036000  1.0
  H  H15  1  0.09308000  0.78900000  0.02035000  1.0
  H  H16  1  0.80731000  0.92953000  0.41117000  1.0
  H  H17  1  0.69267000  0.07045000  0.91116000  1.0
  H  H18  1  0.19271000  0.07048000  0.58884000  1.0
  H  H19  1  0.30733000  0.92958000  0.08880000  1.0
  H  H20  1  0.34821000  0.09924000  0.30594000  1.0
  H  H21  1  0.15180000  0.90075000  0.80592000  1.0
  H  H22  1  0.65178000  0.90074000  0.69406000  1.0
  H  H23  1  0.84820000  0.09923000  0.19407000  1.0
  H  H24  1  0.58227000  0.55323000  0.20646000  1.0
  H  H25  1  0.91768000  0.44676000  0.70646000  1.0
  H  H26  1  0.41770000  0.44676000  0.79355000  1.0
  H  H27  1  0.08227000  0.55322000  0.29355000  1.0
  H  H28  1  0.69278000  0.51956000  0.13844000  1.0
  H  H29  1  0.80718000  0.48042000  0.63844000  1.0
  H  H30  1  0.30720000  0.48044000  0.86157000  1.0
  H  H31  1  0.19278000  0.51955000  0.36157000  1.0
  H  H32  1  0.58200000  0.65970000  0.10054000  1.0
  H  H33  1  0.91795000  0.34027000  0.60052000  1.0
  H  H34  1  0.41799000  0.34029000  0.89947000  1.0
  H  H35  1  0.08201000  0.65970000  0.39947000  1.0
  H  H36  1  0.58988000  0.84367000  0.02914000  1.0
  H  H37  1  0.91010000  0.15629000  0.52913000  1.0
  H  H38  1  0.41017000  0.15635000  0.97088000  1.0
  H  H39  1  0.08989000  0.84368000  0.47086000  1.0
  H  H40  1  0.47852000  0.93277000  0.93689000  1.0
  H  H41  1  0.02147000  0.06723000  0.43688000  1.0
  H  H42  1  0.52154000  0.06727000  0.06314000  1.0
  H  H43  1  0.97857000  0.93276000  0.56312000  1.0
  H  H44  1  0.23520000  0.80005000  0.87819000  1.0
  H  H45  1  0.26480000  0.19998000  0.37820000  1.0
  H  H46  1  0.76488000  0.20002000  0.12182000  1.0
  H  H47  1  0.73526000  0.80004000  0.62181000  1.0
  H  H48  1  0.09956000  0.57841000  0.91344000  1.0
  H  H49  1  0.40043000  0.42160000  0.41346000  1.0
  H  H50  1  0.90051000  0.42167000  0.08656000  1.0
  H  H51  1  0.59958000  0.57841000  0.58656000  1.0
  H  H52  1  0.08376000  0.39892000  0.98825000  1.0
  H  H53  1  0.41622000  0.60107000  0.48827000  1.0
  H  H54  1  0.91624000  0.60111000  0.01174000  1.0
  H  H55  1  0.58377000  0.39892000  0.51175000  1.0
  H  H56  1  0.20117000  0.30446000  0.07804000  1.0
  H  H57  1  0.29878000  0.69554000  0.57805000  1.0
  H  H58  1  0.79879000  0.69555000  0.92195000  1.0
  H  H59  1  0.70117000  0.30446000  0.42197000  1.0
  C  C60  1  0.66845000  0.02592000  0.36247000  1.0
  C  C61  1  0.83154000  0.97408000  0.86246000  1.0
  C  C62  1  0.33155000  0.97408000  0.63754000  1.0
  C  C63  1  0.16845000  0.02593000  0.13752000  1.0
  C  C64  1  0.51173000  0.02747000  0.35581000  1.0
  C  C65  1  0.98826000  0.97252000  0.85579000  1.0
  C  C66  1  0.48827000  0.97251000  0.64419000  1.0
  C  C67  1  0.01174000  0.02748000  0.14419000  1.0
  C  C68  1  0.38888000  0.94176000  0.39410000  1.0
  C  C69  1  0.11110000  0.05824000  0.89409000  1.0
  C  C70  1  0.61112000  0.05821000  0.60589000  1.0
  C  C71  1  0.88889000  0.94177000  0.10589000  1.0
  C  C72  1  0.41553000  0.85713000  0.43860000  1.0
  C  C73  1  0.08448000  0.14287000  0.93859000  1.0
  C  C74  1  0.58449000  0.14286000  0.56140000  1.0
  C  C75  1  0.91551000  0.85713000  0.06140000  1.0
  C  C76  1  0.56829000  0.85408000  0.44443000  1.0
  C  C77  1  0.93172000  0.14592000  0.94442000  1.0
  C  C78  1  0.43174000  0.14591000  0.55557000  1.0
  C  C79  1  0.06828000  0.85410000  0.05556000  1.0
  C  C80  1  0.69033000  0.93421000  0.40680000  1.0
  C  C81  1  0.80967000  0.06580000  0.90680000  1.0
  C  C82  1  0.30970000  0.06583000  0.59321000  1.0
  C  C83  1  0.19032000  0.93419000  0.09319000  1.0
  C  C84  1  0.47266000  0.11299000  0.31250000  1.0
  C  C85  1  0.02734000  0.88701000  0.81249000  1.0
  C  C86  1  0.52733000  0.88699000  0.68750000  1.0
  C  C87  1  0.97265000  0.11299000  0.18750000  1.0
  C  C88  1  0.63764000  0.38329000  0.21762000  1.0
  C  C89  1  0.86234000  0.61672000  0.71761000  1.0
  C  C90  1  0.36233000  0.61670000  0.78238000  1.0
  C  C91  1  0.13764000  0.38326000  0.28239000  1.0
  C  C92  1  0.59680000  0.47785000  0.17437000  1.0
  C  C93  1  0.90316000  0.52214000  0.67436000  1.0
  C  C94  1  0.40317000  0.52214000  0.82564000  1.0
  C  C95  1  0.09680000  0.47783000  0.32564000  1.0
  C  C96  1  0.39858000  0.47686000  0.09370000  1.0
  C  C97  1  0.10138000  0.52312000  0.59370000  1.0
  C  C98  1  0.60140000  0.52313000  0.90630000  1.0
  C  C99  1  0.89859000  0.47686000  0.40631000  1.0
  C  C100  1  0.47250000  0.60247000  0.07675000  1.0
  C  C101  1  0.02746000  0.39752000  0.57675000  1.0
  C  C102  1  0.52749000  0.39753000  0.92325000  1.0
  C  C103  1  0.97252000  0.60247000  0.42324000  1.0
  C  C104  1  0.40800000  0.65813000  0.02560000  1.0
  C  C105  1  0.09199000  0.34186000  0.52561000  1.0
  C  C106  1  0.59204000  0.34188000  0.97440000  1.0
  C  C107  1  0.90802000  0.65814000  0.47438000  1.0
  C  C108  1  0.48142000  0.78563000  0.00474000  1.0
  C  C109  1  0.01856000  0.21435000  0.50474000  1.0
  C  C110  1  0.51863000  0.21439000  0.99528000  1.0
  C  C111  1  0.98145000  0.78563000  0.49526000  1.0
  C  C112  1  0.41947000  0.83543000  0.95297000  1.0
  C  C113  1  0.08052000  0.16456000  0.45298000  1.0
  C  C114  1  0.58060000  0.16461000  0.04705000  1.0
  C  C115  1  0.91951000  0.83542000  0.54702000  1.0
  C  C116  1  0.28150000  0.76047000  0.91973000  1.0
  C  C117  1  0.21849000  0.23954000  0.41974000  1.0
  C  C118  1  0.71856000  0.23959000  0.08029000  1.0
  C  C119  1  0.78156000  0.76047000  0.58026000  1.0
  C  C120  1  0.20575000  0.63675000  0.93932000  1.0
  C  C121  1  0.29423000  0.36325000  0.43933000  1.0
  C  C122  1  0.79429000  0.36331000  0.06069000  1.0
  C  C123  1  0.70577000  0.63676000  0.56068000  1.0
  C  C124  1  0.26624000  0.58297000  0.99241000  1.0
  C  C125  1  0.23374000  0.41702000  0.49242000  1.0
  C  C126  1  0.73377000  0.41706000  0.00760000  1.0
  C  C127  1  0.76625000  0.58298000  0.50758000  1.0
  C  C128  1  0.19233000  0.45533000  0.01299000  1.0
  C  C129  1  0.30764000  0.54466000  0.51300000  1.0
  C  C130  1  0.80765000  0.54470000  0.98701000  1.0
  C  C131  1  0.69233000  0.45533000  0.48701000  1.0
  C  C132  1  0.25610000  0.40287000  0.06245000  1.0
  C  C133  1  0.24386000  0.59712000  0.56246000  1.0
  C  C134  1  0.74388000  0.59714000  0.93754000  1.0
  C  C135  1  0.75611000  0.40287000  0.43755000  1.0
  N  N136  1  0.57364000  0.20748000  0.28046000  1.0
  N  N137  1  0.92635000  0.79252000  0.78046000  1.0
  N  N138  1  0.42634000  0.79251000  0.71954000  1.0
  N  N139  1  0.07363000  0.20747000  0.21953000  1.0
  N  N140  1  0.52061000  0.28714000  0.24301000  1.0
  N  N141  1  0.97938000  0.71286000  0.74301000  1.0
  N  N142  1  0.47937000  0.71286000  0.75700000  1.0
  N  N143  1  0.02060000  0.28713000  0.25699000  1.0
  O  O144  1  0.79069000  0.10216000  0.33028000  1.0
  O  O145  1  0.70931000  0.89782000  0.83028000  1.0
  O  O146  1  0.20932000  0.89785000  0.66973000  1.0
  O  O147  1  0.29069000  0.10218000  0.16970000  1.0
  O  O148  1  0.78255000  0.40077000  0.22824000  1.0
  O  O149  1  0.71745000  0.59926000  0.72823000  1.0
  O  O150  1  0.21742000  0.59924000  0.77178000  1.0
  O  O151  1  0.28254000  0.40073000  0.27177000  1.0
  O  O152  1  0.45416000  0.41181000  0.13975000  1.0
  O  O153  1  0.04580000  0.58817000  0.63973000  1.0
  O  O154  1  0.54582000  0.58818000  0.86025000  1.0
  O  O155  1  0.95416000  0.41180000  0.36027000  1.0
