# generated using pymatgen
data_ZnH13C10N5O4
_symmetry_space_group_name_H-M   'P 1'
_cell_length_a   8.99397000
_cell_length_b   9.67658000
_cell_length_c   11.59590000
_cell_angle_alpha   109.64800000
_cell_angle_beta   89.99980000
_cell_angle_gamma   89.99990000
_symmetry_Int_Tables_number   1
_chemical_formula_structural   ZnH13C10N5O4
_chemical_formula_sum   'Zn2 H26 C20 N10 O8'
_cell_volume   950.44162923
_cell_formula_units_Z   2
loop_
 _symmetry_equiv_pos_site_id
 _symmetry_equiv_pos_as_xyz
  1  'x, y, z'
loop_
 _atom_site_type_symbol
 _atom_site_label
 _atom_site_symmetry_multiplicity
 _atom_site_fract_x
 _atom_site_fract_y
 _atom_site_fract_z
 _atom_site_occupancy
  Zn  Zn0  1  0.58447000  0.20427000  0.07436000  1.0
  Zn  Zn1  1  0.08447000  0.79573000  0.92564000  1.0
  H  H2  1  0.58318000  0.59255000  0.92641000  1.0
  H  H3  1  0.08317000  0.40746000  0.07359000  1.0
  H  H4  1  0.45712000  0.41089000  0.24868000  1.0
  H  H5  1  0.95713000  0.58911000  0.75133000  1.0
  H  H6  1  0.44272000  0.25971000  0.27934000  1.0
  H  H7  1  0.94272000  0.74029000  0.72066000  1.0
  H  H8  1  0.73667000  0.52433000  0.55791000  1.0
  H  H9  1  0.23666000  0.47567000  0.44208000  1.0
  H  H10  1  0.57983000  0.91975000  0.16622000  1.0
  H  H11  1  0.07983000  0.08025000  0.83378000  1.0
  H  H12  1  0.90503000  0.08419000  0.98568000  1.0
  H  H13  1  0.40503000  0.91581000  0.01432000  1.0
  H  H14  1  0.70713000  0.67041000  0.15588000  1.0
  H  H15  1  0.20713000  0.32959000  0.84413000  1.0
  H  H16  1  0.90440000  0.67045000  0.14863000  1.0
  H  H17  1  0.40440000  0.32955000  0.85137000  1.0
  H  H18  1  0.49308000  0.43985000  0.69297000  1.0
  H  H19  1  0.99308000  0.56016000  0.30703000  1.0
  H  H20  1  0.53058000  0.62928000  0.73717000  1.0
  H  H21  1  0.03058000  0.37072000  0.26282000  1.0
  H  H22  1  0.91047000  0.53443000  0.93491000  1.0
  H  H23  1  0.41046000  0.46557000  0.06510000  1.0
  H  H24  1  0.68943000  0.46769000  0.34009000  1.0
  H  H25  1  0.18943000  0.53231000  0.65990000  1.0
  H  H26  1  0.70851000  0.28823000  0.34589000  1.0
  H  H27  1  0.20851000  0.71177000  0.65411000  1.0
  C  C28  1  0.68032000  0.92414000  0.11570000  1.0
  C  C29  1  0.18032000  0.07586000  0.88430000  1.0
  C  C30  1  0.54812000  0.41856000  0.47425000  1.0
  C  C31  1  0.04812000  0.58143000  0.52575000  1.0
  C  C32  1  0.84616000  0.00905000  0.02102000  1.0
  C  C33  1  0.34616000  0.99095000  0.97898000  1.0
  C  C34  1  0.78275000  0.40392000  0.01507000  1.0
  C  C35  1  0.28274000  0.59607000  0.98492000  1.0
  C  C36  1  0.80245000  0.67750000  0.09851000  1.0
  C  C37  1  0.30245000  0.32250000  0.90150000  1.0
  C  C38  1  0.58078000  0.52004000  0.69535000  1.0
  C  C39  1  0.08077000  0.47996000  0.30465000  1.0
  C  C40  1  0.79257000  0.82155000  0.07830000  1.0
  C  C41  1  0.29257000  0.17845000  0.92170000  1.0
  C  C42  1  0.80191000  0.54239000  0.97962000  1.0
  C  C43  1  0.30191000  0.45761000  0.02038000  1.0
  C  C44  1  0.62712000  0.37476000  0.35006000  1.0
  C  C45  1  0.12711000  0.62524000  0.64994000  1.0
  C  C46  1  0.71065000  0.50109000  0.77363000  1.0
  C  C47  1  0.21065000  0.49891000  0.22637000  1.0
  N  N48  1  0.68880000  0.55553000  0.89490000  1.0
  N  N49  1  0.18880000  0.44448000  0.10510000  1.0
  N  N50  1  0.51845000  0.32060000  0.25038000  1.0
  N  N51  1  0.01846000  0.67940000  0.74962000  1.0
  N  N52  1  0.89760000  0.87688000  0.01761000  1.0
  N  N53  1  0.39760000  0.12312000  0.98239000  1.0
  N  N54  1  0.71486000  0.04243000  0.07927000  1.0
  N  N55  1  0.21487000  0.95757000  0.92073000  1.0
  N  N56  1  0.63017000  0.49461000  0.57126000  1.0
  N  N57  1  0.13016000  0.50539000  0.42874000  1.0
  O  O58  1  0.64912000  0.35320000  0.00461000  1.0
  O  O59  1  0.14912000  0.64680000  0.99539000  1.0
  O  O60  1  0.82954000  0.44225000  0.72490000  1.0
  O  O61  1  0.32954000  0.55775000  0.27510000  1.0
  O  O62  1  0.41690000  0.37931000  0.48154000  1.0
  O  O63  1  0.91689000  0.62069000  0.51846000  1.0
  O  O64  1  0.89161000  0.35347000  0.05544000  1.0
  O  O65  1  0.39161000  0.64653000  0.94456000  1.0
