# generated using pymatgen
data_GdP3H33C18(NO5)3
_symmetry_space_group_name_H-M   'P 1'
_cell_length_a   12.33790000
_cell_length_b   12.33790000
_cell_length_c   18.66150000
_cell_angle_alpha   90.00020000
_cell_angle_beta   89.99980000
_cell_angle_gamma   89.99930000
_symmetry_Int_Tables_number   1
_chemical_formula_structural   GdP3H33C18(NO5)3
_chemical_formula_sum   'Gd4 P12 H132 C72 N12 O60'
_cell_volume   2840.72400323
_cell_formula_units_Z   4
loop_
 _symmetry_equiv_pos_site_id
 _symmetry_equiv_pos_as_xyz
  1  'x, y, z'
loop_
 _atom_site_type_symbol
 _atom_site_label
 _atom_site_symmetry_multiplicity
 _atom_site_fract_x
 _atom_site_fract_y
 _atom_site_fract_z
 _atom_site_occupancy
  Gd  Gd0  1  0.06263000  0.02743000  0.61551000  1.0
  Gd  Gd1  1  0.93737000  0.97257000  0.11550000  1.0
  Gd  Gd2  1  0.02746000  0.93737000  0.36551000  1.0
  Gd  Gd3  1  0.97254000  0.06263000  0.86551000  1.0
  P  P4  1  0.98373000  0.78340000  0.53855000  1.0
  P  P5  1  0.01627000  0.21659000  0.03855000  1.0
  P  P6  1  0.78343000  0.01629000  0.28856000  1.0
  P  P7  1  0.21656000  0.98371000  0.78856000  1.0
  P  P8  1  0.81643000  0.05240000  0.69235000  1.0
  P  P9  1  0.18357000  0.94760000  0.19235000  1.0
  P  P10  1  0.05239000  0.18355000  0.44235000  1.0
  P  P11  1  0.94761000  0.81645000  0.94235000  1.0
  P  P12  1  0.06586000  0.26029000  0.73446000  1.0
  P  P13  1  0.93414000  0.73971000  0.23446000  1.0
  P  P14  1  0.26031000  0.93415000  0.48447000  1.0
  P  P15  1  0.73969000  0.06586000  0.98447000  1.0
  H  H16  1  0.86213000  0.68864000  0.60118000  1.0
  H  H17  1  0.13787000  0.31136000  0.10118000  1.0
  H  H18  1  0.68867000  0.13789000  0.35120000  1.0
  H  H19  1  0.31133000  0.86211000  0.85120000  1.0
  H  H20  1  0.66420000  0.12790000  0.73862000  1.0
  H  H21  1  0.33580000  0.87210000  0.23863000  1.0
  H  H22  1  0.12788000  0.33577000  0.48864000  1.0
  H  H23  1  0.87212000  0.66423000  0.98863000  1.0
  H  H24  1  0.19977000  0.34755000  0.68680000  1.0
  H  H25  1  0.80023000  0.65245000  0.18680000  1.0
  H  H26  1  0.34758000  0.80023000  0.43682000  1.0
  H  H27  1  0.65242000  0.19977000  0.93683000  1.0
  H  H28  1  0.07344000  0.61541000  0.63224000  1.0
  H  H29  1  0.92656000  0.38459000  0.13224000  1.0
  H  H30  1  0.61540000  0.92656000  0.38224000  1.0
  H  H31  1  0.38460000  0.07344000  0.88224000  1.0
  H  H32  1  0.60299000  0.95725000  0.72085000  1.0
  H  H33  1  0.39701000  0.04274000  0.22085000  1.0
  H  H34  1  0.95725000  0.39700000  0.47084000  1.0
  H  H35  1  0.04275000  0.60299000  0.97084000  1.0
  H  H36  1  0.98792000  0.46095000  0.80387000  1.0
  H  H37  1  0.01208000  0.53904000  0.30387000  1.0
  H  H38  1  0.46096000  0.01208000  0.55386000  1.0
  H  H39  1  0.53904000  0.98792000  0.05386000  1.0
  H  H40  1  0.27879000  0.58880000  0.55128000  1.0
  H  H41  1  0.72122000  0.41120000  0.05127000  1.0
  H  H42  1  0.58885000  0.72123000  0.30125000  1.0
  H  H43  1  0.41116000  0.27877000  0.80125000  1.0
  H  H44  1  0.30119000  0.49151000  0.69409000  1.0
  H  H45  1  0.69882000  0.50849000  0.19409000  1.0
  H  H46  1  0.49156000  0.69872000  0.44404000  1.0
  H  H47  1  0.50844000  0.30128000  0.94404000  1.0
  H  H48  1  0.37866000  0.59693000  0.65301000  1.0
  H  H49  1  0.62135000  0.40307000  0.15300000  1.0
  H  H50  1  0.59705000  0.62132000  0.40296000  1.0
  H  H51  1  0.40295000  0.37868000  0.90296000  1.0
  H  H52  1  0.29531000  0.70109000  0.74699000  1.0
  H  H53  1  0.70469000  0.29891000  0.24698000  1.0
  H  H54  1  0.70111000  0.70469000  0.49698000  1.0
  H  H55  1  0.29889000  0.29531000  0.99699000  1.0
  H  H56  1  0.17749000  0.61824000  0.74664000  1.0
  H  H57  1  0.82251000  0.38175000  0.24664000  1.0
  H  H58  1  0.61823000  0.82248000  0.49664000  1.0
  H  H59  1  0.38177000  0.17752000  0.99664000  1.0
  H  H60  1  0.12207000  0.78019000  0.67752000  1.0
  H  H61  1  0.87793000  0.21980000  0.17751000  1.0
  H  H62  1  0.78019000  0.87796000  0.42753000  1.0
  H  H63  1  0.21981000  0.12203000  0.92753000  1.0
  H  H64  1  0.24776000  0.77871000  0.62905000  1.0
  H  H65  1  0.75224000  0.22129000  0.12904000  1.0
  H  H66  1  0.77874000  0.75228000  0.37905000  1.0
  H  H67  1  0.22125000  0.24772000  0.87906000  1.0
  H  H68  1  0.08175000  0.62634000  0.50095000  1.0
  H  H69  1  0.91825000  0.37366000  0.00095000  1.0
  H  H70  1  0.62637000  0.91828000  0.25096000  1.0
  H  H71  1  0.37363000  0.08172000  0.75096000  1.0
  H  H72  1  0.17202000  0.73900000  0.51151000  1.0
  H  H73  1  0.82798000  0.26100000  0.01151000  1.0
  H  H74  1  0.73901000  0.82800000  0.26151000  1.0
  H  H75  1  0.26099000  0.17200000  0.76151000  1.0
  H  H76  1  0.65329000  0.74390000  0.66489000  1.0
  H  H77  1  0.34671000  0.25610000  0.16490000  1.0
  H  H78  1  0.74389000  0.34672000  0.41488000  1.0
  H  H79  1  0.25611000  0.65329000  0.91489000  1.0
  H  H80  1  0.45404000  0.75393000  0.75524000  1.0
  H  H81  1  0.54596000  0.24607000  0.25524000  1.0
  H  H82  1  0.75391000  0.54595000  0.50525000  1.0
  H  H83  1  0.24609000  0.45405000  0.00525000  1.0
  H  H84  1  0.56003000  0.65731000  0.75584000  1.0
  H  H85  1  0.43997000  0.34269000  0.25584000  1.0
  H  H86  1  0.65732000  0.43996000  0.50584000  1.0
  H  H87  1  0.34268000  0.56004000  0.00584000  1.0
  H  H88  1  0.53347000  0.86155000  0.84231000  1.0
  H  H89  1  0.46652000  0.13845000  0.34231000  1.0
  H  H90  1  0.86155000  0.46651000  0.59230000  1.0
  H  H91  1  0.13845000  0.53349000  0.09230000  1.0
  H  H92  1  0.61344000  0.74684000  0.86490000  1.0
  H  H93  1  0.38656000  0.25317000  0.36490000  1.0
  H  H94  1  0.74685000  0.38655000  0.61490000  1.0
  H  H95  1  0.25315000  0.61346000  0.11490000  1.0
  H  H96  1  0.71693000  0.93306000  0.82318000  1.0
  H  H97  1  0.28307000  0.06695000  0.32318000  1.0
  H  H98  1  0.93302000  0.28303000  0.57317000  1.0
  H  H99  1  0.06697000  0.71697000  0.07317000  1.0
  H  H100  1  0.76183000  0.80757000  0.78735000  1.0
  H  H101  1  0.23817000  0.19243000  0.28735000  1.0
  H  H102  1  0.80754000  0.23816000  0.53733000  1.0
  H  H103  1  0.19246000  0.76184000  0.03733000  1.0
  H  H104  1  0.71358000  0.93537000  0.61705000  1.0
  H  H105  1  0.28642000  0.06463000  0.11705000  1.0
  H  H106  1  0.93537000  0.28642000  0.36704000  1.0
  H  H107  1  0.06463000  0.71358000  0.86704000  1.0
  H  H108  1  0.80813000  0.85988000  0.67013000  1.0
  H  H109  1  0.19187000  0.14012000  0.17013000  1.0
  H  H110  1  0.85988000  0.19187000  0.42012000  1.0
  H  H111  1  0.14011000  0.80813000  0.92012000  1.0
  H  H112  1  0.77289000  0.46076000  0.72737000  1.0
  H  H113  1  0.22710000  0.53923000  0.22737000  1.0
  H  H114  1  0.46076000  0.22712000  0.47737000  1.0
  H  H115  1  0.53924000  0.77288000  0.97737000  1.0
  H  H116  1  0.84956000  0.61170000  0.84742000  1.0
  H  H117  1  0.15045000  0.38830000  0.34742000  1.0
  H  H118  1  0.61171000  0.15046000  0.59742000  1.0
  H  H119  1  0.38829000  0.84954000  0.09742000  1.0
  H  H120  1  0.71501000  0.59081000  0.81704000  1.0
  H  H121  1  0.28500000  0.40919000  0.31703000  1.0
  H  H122  1  0.59082000  0.28501000  0.56703000  1.0
  H  H123  1  0.40918000  0.71499000  0.06703000  1.0
  H  H124  1  0.70374000  0.41877000  0.87720000  1.0
  H  H125  1  0.29626000  0.58123000  0.37720000  1.0
  H  H126  1  0.41876000  0.29628000  0.62716000  1.0
  H  H127  1  0.58124000  0.70372000  0.12716000  1.0
  H  H128  1  0.81145000  0.47338000  0.92959000  1.0
  H  H129  1  0.18855000  0.52662000  0.42959000  1.0
  H  H130  1  0.47338000  0.18862000  0.67959000  1.0
  H  H131  1  0.52662000  0.81138000  0.17959000  1.0
  H  H132  1  0.92547000  0.33651000  0.87842000  1.0
  H  H133  1  0.07453000  0.66349000  0.37841000  1.0
  H  H134  1  0.33659000  0.07450000  0.62843000  1.0
  H  H135  1  0.66341000  0.92550000  0.12844000  1.0
  H  H136  1  0.81585000  0.29676000  0.82115000  1.0
  H  H137  1  0.18416000  0.70324000  0.32115000  1.0
  H  H138  1  0.29674000  0.18411000  0.57119000  1.0
  H  H139  1  0.70326000  0.81589000  0.07119000  1.0
  H  H140  1  0.96914000  0.40005000  0.67433000  1.0
  H  H141  1  0.03085000  0.59995000  0.17433000  1.0
  H  H142  1  0.40003000  0.03087000  0.42433000  1.0
  H  H143  1  0.59997000  0.96913000  0.92433000  1.0
  H  H144  1  0.87982000  0.29672000  0.70734000  1.0
  H  H145  1  0.12018000  0.70328000  0.20734000  1.0
  H  H146  1  0.29670000  0.12019000  0.45735000  1.0
  H  H147  1  0.70330000  0.87981000  0.95735000  1.0
  C  C148  1  0.22933000  0.56244000  0.59727000  1.0
  C  C149  1  0.77068000  0.43756000  0.09726000  1.0
  C  C150  1  0.56248000  0.77065000  0.34725000  1.0
  C  C151  1  0.43752000  0.22935000  0.84726000  1.0
  C  C152  1  0.29666000  0.56973000  0.66679000  1.0
  C  C153  1  0.70335000  0.43028000  0.16679000  1.0
  C  C154  1  0.56979000  0.70330000  0.41676000  1.0
  C  C155  1  0.43021000  0.29670000  0.91676000  1.0
  C  C156  1  0.23979000  0.65565000  0.71266000  1.0
  C  C157  1  0.76021000  0.34436000  0.21265000  1.0
  C  C158  1  0.65566000  0.76020000  0.46265000  1.0
  C  C159  1  0.34434000  0.23980000  0.96265000  1.0
  C  C160  1  0.18780000  0.72928000  0.65758000  1.0
  C  C161  1  0.81220000  0.27072000  0.15758000  1.0
  C  C162  1  0.72929000  0.81222000  0.40758000  1.0
  C  C163  1  0.27071000  0.18777000  0.90759000  1.0
  C  C164  1  0.10376000  0.69509000  0.53532000  1.0
  C  C165  1  0.89625000  0.30491000  0.03532000  1.0
  C  C166  1  0.69511000  0.89627000  0.28532000  1.0
  C  C167  1  0.30488000  0.10373000  0.78532000  1.0
  C  C168  1  0.18560000  0.44917000  0.57726000  1.0
  C  C169  1  0.81441000  0.55083000  0.07726000  1.0
  C  C170  1  0.44920000  0.81438000  0.32727000  1.0
  C  C171  1  0.55079000  0.18561000  0.82727000  1.0
  C  C172  1  0.59346000  0.79809000  0.68955000  1.0
  C  C173  1  0.40654000  0.20190000  0.18955000  1.0
  C  C174  1  0.79809000  0.40654000  0.43955000  1.0
  C  C175  1  0.20191000  0.59346000  0.93955000  1.0
  C  C176  1  0.54223000  0.74437000  0.75599000  1.0
  C  C177  1  0.45777000  0.25563000  0.25599000  1.0
  C  C178  1  0.74437000  0.45776000  0.50599000  1.0
  C  C179  1  0.25563000  0.54224000  0.00599000  1.0
  C  C180  1  0.59186000  0.80249000  0.82137000  1.0
  C  C181  1  0.40814000  0.19751000  0.32137000  1.0
  C  C182  1  0.80249000  0.40812000  0.57137000  1.0
  C  C183  1  0.19751000  0.59188000  0.07137000  1.0
  C  C184  1  0.69151000  0.86119000  0.79312000  1.0
  C  C185  1  0.30849000  0.13881000  0.29312000  1.0
  C  C186  1  0.86117000  0.30847000  0.54311000  1.0
  C  C187  1  0.13883000  0.69153000  0.04311000  1.0
  C  C188  1  0.74801000  0.92545000  0.67084000  1.0
  C  C189  1  0.25198000  0.07455000  0.17084000  1.0
  C  C190  1  0.92545000  0.25198000  0.42084000  1.0
  C  C191  1  0.07455000  0.74802000  0.92084000  1.0
  C  C192  1  0.51139000  0.83510000  0.63233000  1.0
  C  C193  1  0.48861000  0.16490000  0.13233000  1.0
  C  C194  1  0.83511000  0.48861000  0.38232000  1.0
  C  C195  1  0.16489000  0.51139000  0.88232000  1.0
  C  C196  1  0.83729000  0.50557000  0.75556000  1.0
  C  C197  1  0.16271000  0.49443000  0.25556000  1.0
  C  C198  1  0.50558000  0.16273000  0.50556000  1.0
  C  C199  1  0.49442000  0.83727000  0.00556000  1.0
  C  C200  1  0.79342000  0.55130000  0.82559000  1.0
  C  C201  1  0.20658000  0.44870000  0.32558000  1.0
  C  C202  1  0.55131000  0.20659000  0.57558000  1.0
  C  C203  1  0.44869000  0.79340000  0.07558000  1.0
  C  C204  1  0.78628000  0.45166000  0.87519000  1.0
  C  C205  1  0.21373000  0.54833000  0.37519000  1.0
  C  C206  1  0.45167000  0.21375000  0.62518000  1.0
  C  C207  1  0.54833000  0.78625000  0.12518000  1.0
  C  C208  1  0.86206000  0.36570000  0.84229000  1.0
  C  C209  1  0.13795000  0.63429000  0.34229000  1.0
  C  C210  1  0.36572000  0.13794000  0.59230000  1.0
  C  C211  1  0.63427000  0.86206000  0.09230000  1.0
  C  C212  1  0.94969000  0.34848000  0.72028000  1.0
  C  C213  1  0.05031000  0.65152000  0.22028000  1.0
  C  C214  1  0.34847000  0.05033000  0.47028000  1.0
  C  C215  1  0.65153000  0.94968000  0.97029000  1.0
  C  C216  1  0.88678000  0.58658000  0.70295000  1.0
  C  C217  1  0.11322000  0.41342000  0.20295000  1.0
  C  C218  1  0.58657000  0.11324000  0.45294000  1.0
  C  C219  1  0.41342000  0.88676000  0.95294000  1.0
  N  N220  1  0.14114000  0.64880000  0.60474000  1.0
  N  N221  1  0.85886000  0.35120000  0.10474000  1.0
  N  N222  1  0.64881000  0.85887000  0.35474000  1.0
  N  N223  1  0.35118000  0.14113000  0.85474000  1.0
  N  N224  1  0.65769000  0.89336000  0.71895000  1.0
  N  N225  1  0.34231000  0.10664000  0.21895000  1.0
  N  N226  1  0.89335000  0.34230000  0.46894000  1.0
  N  N227  1  0.10665000  0.65770000  0.96894000  1.0
  N  N228  1  0.91793000  0.42142000  0.78025000  1.0
  N  N229  1  0.08207000  0.57858000  0.28025000  1.0
  N  N230  1  0.42143000  0.08209000  0.53024000  1.0
  N  N231  1  0.57857000  0.91791000  0.03025000  1.0
  O  O232  1  0.98897000  0.86003000  0.60260000  1.0
  O  O233  1  0.01104000  0.13996000  0.10260000  1.0
  O  O234  1  0.86006000  0.01104000  0.35261000  1.0
  O  O235  1  0.13994000  0.98896000  0.85260000  1.0
  O  O236  1  0.97930000  0.83680000  0.46529000  1.0
  O  O237  1  0.02070000  0.16321000  0.96529000  1.0
  O  O238  1  0.83683000  0.02071000  0.21530000  1.0
  O  O239  1  0.16318000  0.97929000  0.71530000  1.0
  O  O240  1  0.88448000  0.70426000  0.54814000  1.0
  O  O241  1  0.11553000  0.29574000  0.04814000  1.0
  O  O242  1  0.70432000  0.11556000  0.29815000  1.0
  O  O243  1  0.29568000  0.88444000  0.79815000  1.0
  O  O244  1  0.23128000  0.36825000  0.60531000  1.0
  O  O245  1  0.76873000  0.63175000  0.10530000  1.0
  O  O246  1  0.36829000  0.76872000  0.35532000  1.0
  O  O247  1  0.63171000  0.23126000  0.85534000  1.0
  O  O248  1  0.11106000  0.44342000  0.52956000  1.0
  O  O249  1  0.88894000  0.55658000  0.02955000  1.0
  O  O250  1  0.44344000  0.88890000  0.27955000  1.0
  O  O251  1  0.55656000  0.11110000  0.77955000  1.0
  O  O252  1  0.88114000  0.07616000  0.62536000  1.0
  O  O253  1  0.11886000  0.92383000  0.12536000  1.0
  O  O254  1  0.07619000  0.11886000  0.37536000  1.0
  O  O255  1  0.92382000  0.88114000  0.87536000  1.0
  O  O256  1  0.88382000  0.04039000  0.76018000  1.0
  O  O257  1  0.11618000  0.95962000  0.26019000  1.0
  O  O258  1  0.04035000  0.11615000  0.51017000  1.0
  O  O259  1  0.95964000  0.88385000  0.01018000  1.0
  O  O260  1  0.72552000  0.14150000  0.70139000  1.0
  O  O261  1  0.27448000  0.85850000  0.20140000  1.0
  O  O262  1  0.14148000  0.27445000  0.45143000  1.0
  O  O263  1  0.85851000  0.72555000  0.95142000  1.0
  O  O264  1  0.45487000  0.76100000  0.60712000  1.0
  O  O265  1  0.54513000  0.23901000  0.10712000  1.0
  O  O266  1  0.76101000  0.54513000  0.35710000  1.0
  O  O267  1  0.23899000  0.45487000  0.85709000  1.0
  O  O268  1  0.51150000  0.93727000  0.61813000  1.0
  O  O269  1  0.48850000  0.06273000  0.11813000  1.0
  O  O270  1  0.93729000  0.48849000  0.36814000  1.0
  O  O271  1  0.06272000  0.51150000  0.86814000  1.0
  O  O272  1  0.07134000  0.19065000  0.66774000  1.0
  O  O273  1  0.92866000  0.80934000  0.16775000  1.0
  O  O274  1  0.19067000  0.92865000  0.41775000  1.0
  O  O275  1  0.80933000  0.07135000  0.91776000  1.0
  O  O276  1  0.05080000  0.20479000  0.80610000  1.0
  O  O277  1  0.94920000  0.79522000  0.30610000  1.0
  O  O278  1  0.20480000  0.94920000  0.55611000  1.0
  O  O279  1  0.79520000  0.05080000  0.05611000  1.0
  O  O280  1  0.17119000  0.33261000  0.73696000  1.0
  O  O281  1  0.82881000  0.66739000  0.23697000  1.0
  O  O282  1  0.33264000  0.82883000  0.48698000  1.0
  O  O283  1  0.66735000  0.17117000  0.98699000  1.0
  O  O284  1  0.82050000  0.65136000  0.67302000  1.0
  O  O285  1  0.17950000  0.34864000  0.17302000  1.0
  O  O286  1  0.65137000  0.17952000  0.42302000  1.0
  O  O287  1  0.34863000  0.82048000  0.92302000  1.0
  O  O288  1  0.98749000  0.57968000  0.69225000  1.0
  O  O289  1  0.01251000  0.42032000  0.19224000  1.0
  O  O290  1  0.57967000  0.01254000  0.44222000  1.0
  O  O291  1  0.42033000  0.98746000  0.94222000  1.0
