# generated using pymatgen
data_ZnH20C26(NO)6
_symmetry_space_group_name_H-M   'P 1'
_cell_length_a   8.52074000
_cell_length_b   10.60950000
_cell_length_c   13.81550000
_cell_angle_alpha   89.99990000
_cell_angle_beta   89.99980000
_cell_angle_gamma   73.24700000
_symmetry_Int_Tables_number   1
_chemical_formula_structural   ZnH20C26(NO)6
_chemical_formula_sum   'Zn2 H40 C52 N12 O12'
_cell_volume   1195.92278988
_cell_formula_units_Z   2
loop_
 _symmetry_equiv_pos_site_id
 _symmetry_equiv_pos_as_xyz
  1  'x, y, z'
loop_
 _atom_site_type_symbol
 _atom_site_label
 _atom_site_symmetry_multiplicity
 _atom_site_fract_x
 _atom_site_fract_y
 _atom_site_fract_z
 _atom_site_occupancy
  Zn  Zn0  1  0.00000000  0.50000000  0.50000000  1.0
  Zn  Zn1  1  0.00000000  0.00000000  0.00000000  1.0
  H  H2  1  0.21351000  0.51504000  0.00682000  1.0
  H  H3  1  0.78649000  0.98497000  0.50682000  1.0
  H  H4  1  0.78649000  0.48496000  0.99318000  1.0
  H  H5  1  0.21351000  0.01503000  0.49318000  1.0
  H  H6  1  0.09095000  0.18418000  0.78065000  1.0
  H  H7  1  0.90906000  0.31582000  0.28065000  1.0
  H  H8  1  0.90905000  0.81582000  0.21935000  1.0
  H  H9  1  0.09095000  0.68418000  0.71935000  1.0
  H  H10  1  0.91832000  0.33415000  0.90355000  1.0
  H  H11  1  0.08168000  0.16585000  0.40355000  1.0
  H  H12  1  0.08168000  0.66585000  0.09645000  1.0
  H  H13  1  0.91832000  0.83415000  0.59645000  1.0
  H  H14  1  0.80820000  0.63809000  0.68445000  1.0
  H  H15  1  0.19179000  0.86190000  0.18445000  1.0
  H  H16  1  0.19180000  0.36191000  0.31555000  1.0
  H  H17  1  0.80821000  0.13810000  0.81555000  1.0
  H  H18  1  0.58053000  0.59364000  0.08414000  1.0
  H  H19  1  0.41947000  0.90636000  0.58413000  1.0
  H  H20  1  0.41947000  0.40636000  0.91586000  1.0
  H  H21  1  0.58053000  0.09364000  0.41587000  1.0
  H  H22  1  0.47687000  0.68388000  0.98310000  1.0
  H  H23  1  0.52313000  0.81612000  0.48310000  1.0
  H  H24  1  0.52312000  0.31612000  0.01690000  1.0
  H  H25  1  0.47687000  0.18388000  0.51691000  1.0
  H  H26  1  0.44311000  0.81126000  0.17039000  1.0
  H  H27  1  0.55689000  0.68874000  0.67039000  1.0
  H  H28  1  0.55689000  0.18875000  0.82961000  1.0
  H  H29  1  0.44311000  0.31125000  0.32961000  1.0
  H  H30  1  0.47827000  0.02990000  0.21773000  1.0
  H  H31  1  0.52173000  0.47010000  0.71773000  1.0
  H  H32  1  0.52173000  0.97010000  0.78227000  1.0
  H  H33  1  0.47827000  0.52990000  0.28227000  1.0
  H  H34  1  0.30440000  0.89434000  0.86222000  1.0
  H  H35  1  0.69560000  0.60566000  0.36222000  1.0
  H  H36  1  0.69561000  0.10566000  0.13778000  1.0
  H  H37  1  0.30440000  0.39433000  0.63778000  1.0
  H  H38  1  0.16931000  0.22640000  0.03648000  1.0
  H  H39  1  0.83069000  0.27359000  0.53648000  1.0
  H  H40  1  0.83069000  0.77360000  0.96352000  1.0
  H  H41  1  0.16931000  0.72640000  0.46352000  1.0
  C  C42  1  0.87865000  0.75926000  0.41279000  1.0
  C  C43  1  0.12135000  0.74074000  0.91279000  1.0
  C  C44  1  0.12135000  0.24074000  0.58721000  1.0
  C  C45  1  0.87865000  0.25926000  0.08721000  1.0
  C  C46  1  0.96617000  0.67017000  0.33130000  1.0
  C  C47  1  0.03383000  0.82983000  0.83130000  1.0
  C  C48  1  0.03383000  0.32983000  0.66870000  1.0
  C  C49  1  0.96617000  0.17017000  0.16870000  1.0
  C  C50  1  0.97445000  0.71443000  0.23714000  1.0
  C  C51  1  0.02555000  0.78557000  0.73714000  1.0
  C  C52  1  0.02555000  0.28557000  0.76286000  1.0
  C  C53  1  0.97445000  0.21443000  0.26286000  1.0
  C  C54  1  0.06934000  0.62869000  0.16886000  1.0
  C  C55  1  0.93066000  0.87131000  0.66887000  1.0
  C  C56  1  0.93066000  0.37131000  0.83113000  1.0
  C  C57  1  0.06934000  0.12869000  0.33114000  1.0
  C  C58  1  0.15332000  0.50000000  0.19638000  1.0
  C  C59  1  0.84668000  0.00001000  0.69638000  1.0
  C  C60  1  0.84668000  0.50000000  0.80362000  1.0
  C  C61  1  0.15332000  0.99999000  0.30362000  1.0
  C  C62  1  0.86737000  0.53809000  0.70861000  1.0
  C  C63  1  0.13262000  0.96191000  0.20861000  1.0
  C  C64  1  0.13262000  0.46191000  0.29139000  1.0
  C  C65  1  0.86738000  0.03809000  0.79139000  1.0
  C  C66  1  0.27081000  0.40000000  0.13414000  1.0
  C  C67  1  0.72919000  0.10000000  0.63414000  1.0
  C  C68  1  0.72919000  0.60000000  0.86586000  1.0
  C  C69  1  0.27081000  0.90000000  0.36586000  1.0
  C  C70  1  0.40538000  0.34546000  0.97774000  1.0
  C  C71  1  0.59461000  0.15454000  0.47774000  1.0
  C  C72  1  0.59462000  0.65454000  0.02226000  1.0
  C  C73  1  0.40539000  0.84545000  0.52226000  1.0
  C  C74  1  0.37098000  0.22186000  0.94104000  1.0
  C  C75  1  0.62902000  0.27814000  0.44104000  1.0
  C  C76  1  0.62902000  0.77814000  0.05896000  1.0
  C  C77  1  0.37098000  0.72186000  0.55896000  1.0
  C  C78  1  0.46708000  0.15039000  0.86631000  1.0
  C  C79  1  0.53292000  0.34961000  0.36631000  1.0
  C  C80  1  0.53292000  0.84961000  0.13369000  1.0
  C  C81  1  0.46708000  0.65039000  0.63369000  1.0
  C  C82  1  0.44542000  0.03083000  0.83778000  1.0
  C  C83  1  0.55458000  0.46918000  0.33778000  1.0
  C  C84  1  0.55459000  0.96918000  0.16222000  1.0
  C  C85  1  0.44542000  0.53082000  0.66222000  1.0
  C  C86  1  0.32339000  0.98806000  0.88221000  1.0
  C  C87  1  0.67661000  0.51194000  0.38221000  1.0
  C  C88  1  0.67661000  0.01194000  0.11779000  1.0
  C  C89  1  0.32339000  0.48806000  0.61779000  1.0
  C  C90  1  0.24960000  0.17248000  0.97979000  1.0
  C  C91  1  0.75039000  0.32752000  0.47979000  1.0
  C  C92  1  0.75039000  0.82752000  0.02021000  1.0
  C  C93  1  0.24961000  0.67248000  0.52021000  1.0
  N  N94  1  0.04210000  0.54446000  0.35635000  1.0
  N  N95  1  0.95790000  0.95554000  0.85635000  1.0
  N  N96  1  0.95790000  0.45554000  0.64365000  1.0
  N  N97  1  0.04210000  0.04446000  0.14365000  1.0
  N  N98  1  0.28084000  0.42896000  0.03970000  1.0
  N  N99  1  0.71915000  0.07104000  0.53970000  1.0
  N  N100  1  0.71916000  0.57104000  0.96030000  1.0
  N  N101  1  0.28085000  0.92896000  0.46030000  1.0
  N  N102  1  0.22375000  0.05921000  0.95035000  1.0
  N  N103  1  0.77625000  0.44079000  0.45035000  1.0
  N  N104  1  0.77625000  0.94079000  0.04965000  1.0
  N  N105  1  0.22375000  0.55921000  0.54965000  1.0
  O  O106  1  0.86171000  0.70211000  0.49250000  1.0
  O  O107  1  0.13829000  0.79790000  0.99249000  1.0
  O  O108  1  0.13829000  0.29790000  0.50750000  1.0
  O  O109  1  0.86171000  0.20210000  0.00750000  1.0
  O  O110  1  0.83443000  0.88114000  0.39781000  1.0
  O  O111  1  0.16556000  0.61886000  0.89781000  1.0
  O  O112  1  0.16556000  0.11886000  0.60219000  1.0
  O  O113  1  0.83444000  0.38114000  0.10219000  1.0
  O  O114  1  0.35677000  0.29513000  0.17091000  1.0
  O  O115  1  0.64323000  0.20487000  0.67091000  1.0
  O  O116  1  0.64323000  0.70487000  0.82909000  1.0
  O  O117  1  0.35677000  0.79513000  0.32909000  1.0
