# generated using pymatgen
data_ZnH18C26(N3O4)2
_symmetry_space_group_name_H-M   'P 1'
_cell_length_a   5.63184000
_cell_length_b   13.85894740
_cell_length_c   20.97918779
_cell_angle_alpha   79.34666789
_cell_angle_beta   82.30585592
_cell_angle_gamma   78.30017800
_symmetry_Int_Tables_number   1
_chemical_formula_structural   ZnH18C26(N3O4)2
_chemical_formula_sum   'Zn2 H36 C52 N12 O16'
_cell_volume   1567.87096850
_cell_formula_units_Z   2
loop_
 _symmetry_equiv_pos_site_id
 _symmetry_equiv_pos_as_xyz
  1  'x, y, z'
loop_
 _atom_site_type_symbol
 _atom_site_label
 _atom_site_symmetry_multiplicity
 _atom_site_fract_x
 _atom_site_fract_y
 _atom_site_fract_z
 _atom_site_occupancy
  Zn  Zn0  1  0.41678000  0.24960000  0.74989000  1.0
  Zn  Zn1  1  0.58322000  0.75040000  0.25010000  1.0
  H  H2  1  0.47210000  0.24869000  0.60588000  1.0
  H  H3  1  0.32750000  0.25084000  0.89376000  1.0
  H  H4  1  0.52791000  0.75131000  0.39412000  1.0
  H  H5  1  0.67252000  0.74919000  0.10622000  1.0
  H  H6  1  0.22498000  0.31520000  0.51267000  1.0
  H  H7  1  0.05222000  0.18533000  0.98694000  1.0
  H  H8  1  0.77505000  0.68481000  0.48733000  1.0
  H  H9  1  0.94787000  0.81469000  0.01305000  1.0
  H  H10  1  0.65336000  0.44645000  0.64717000  1.0
  H  H11  1  0.74799000  0.05258000  0.85275000  1.0
  H  H12  1  0.34664000  0.55358000  0.35281000  1.0
  H  H13  1  0.25200000  0.94745000  0.14725000  1.0
  H  H14  1  0.92732000  0.37493000  0.73566000  1.0
  H  H15  1  0.04043000  0.12321000  0.76431000  1.0
  H  H16  1  0.07265000  0.62508000  0.26434000  1.0
  H  H17  1  0.95950000  0.87681000  0.23569000  1.0
  H  H18  1  0.84530000  0.41607000  0.46911000  1.0
  H  H19  1  0.72992000  0.08454000  0.03064000  1.0
  H  H20  1  0.15474000  0.58393000  0.53089000  1.0
  H  H21  1  0.27011000  0.91549000  0.96936000  1.0
  H  H22  1  0.05209000  0.12064000  0.62599000  1.0
  H  H23  1  0.79741000  0.37901000  0.87401000  1.0
  H  H24  1  0.94790000  0.87930000  0.37404000  1.0
  H  H25  1  0.20260000  0.62101000  0.12597000  1.0
  H  H26  1  0.32871000  0.01455000  0.55173000  1.0
  H  H27  1  0.89392000  0.48536000  0.94812000  1.0
  H  H28  1  0.67129000  0.98538000  0.44830000  1.0
  H  H29  1  0.10612000  0.51467000  0.05185000  1.0
  H  H30  1  0.84580000  0.80119000  0.59356000  1.0
  H  H31  1  0.24011000  0.69871000  0.90598000  1.0
  H  H32  1  0.15417000  0.19875000  0.40646000  1.0
  H  H33  1  0.75989000  0.30131000  0.09401000  1.0
  H  H34  1  0.56641000  0.90996000  0.66729000  1.0
  H  H35  1  0.14327000  0.58978000  0.83228000  1.0
  H  H36  1  0.43357000  0.08998000  0.33274000  1.0
  H  H37  1  0.85671000  0.41024000  0.16772000  1.0
  C  C38  1  0.29028000  0.29309000  0.61302000  1.0
  C  C39  1  0.19718000  0.20636000  0.88670000  1.0
  C  C40  1  0.70972000  0.70692000  0.38698000  1.0
  C  C41  1  0.80285000  0.79366000  0.11328000  1.0
  C  C42  1  0.15089000  0.33070000  0.56113000  1.0
  C  C43  1  0.04273000  0.16928000  0.93857000  1.0
  C  C44  1  0.84912000  0.66932000  0.43886000  1.0
  C  C45  1  0.95732000  0.83074000  0.06142000  1.0
  C  C46  1  0.91822000  0.38810000  0.57230000  1.0
  C  C47  1  0.87873000  0.11169000  0.92749000  1.0
  C  C48  1  0.08181000  0.61191000  0.42769000  1.0
  C  C49  1  0.12131000  0.88833000  0.07251000  1.0
  C  C50  1  0.83440000  0.40357000  0.63640000  1.0
  C  C51  1  0.87536000  0.09555000  0.86348000  1.0
  C  C52  1  0.16560000  0.59645000  0.36359000  1.0
  C  C53  1  0.12463000  0.90448000  0.13652000  1.0
  C  C54  1  0.98451000  0.36384000  0.68558000  1.0
  C  C55  1  0.03563000  0.13481000  0.81432000  1.0
  C  C56  1  0.01547000  0.63618000  0.31442000  1.0
  C  C57  1  0.96434000  0.86521000  0.18568000  1.0
  C  C58  1  0.77103000  0.43033000  0.51829000  1.0
  C  C59  1  0.71932000  0.06988000  0.98153000  1.0
  C  C60  1  0.22900000  0.56969000  0.48170000  1.0
  C  C61  1  0.28072000  0.93015000  0.01846000  1.0
  C  C62  1  0.61631000  0.08562000  0.69272000  1.0
  C  C63  1  0.39362000  0.41391000  0.80715000  1.0
  C  C64  1  0.38366000  0.91436000  0.30729000  1.0
  C  C65  1  0.60632000  0.58612000  0.19284000  1.0
  C  C66  1  0.79330000  0.02119000  0.65052000  1.0
  C  C67  1  0.46427000  0.47855000  0.84920000  1.0
  C  C68  1  0.20671000  0.97875000  0.34950000  1.0
  C  C69  1  0.53571000  0.52147000  0.15079000  1.0
  C  C70  1  0.00802000  0.05094000  0.61856000  1.0
  C  C71  1  0.67653000  0.44882000  0.88129000  1.0
  C  C72  1  0.99198000  0.94899000  0.38147000  1.0
  C  C73  1  0.32347000  0.55120000  0.11870000  1.0
  C  C74  1  0.16328000  0.99188000  0.57768000  1.0
  C  C75  1  0.73183000  0.50796000  0.92215000  1.0
  C  C76  1  0.83673000  0.00804000  0.42235000  1.0
  C  C77  1  0.26819000  0.49207000  0.07783000  1.0
  C  C78  1  0.09987000  0.90277000  0.56975000  1.0
  C  C79  1  0.57157000  0.59710000  0.92998000  1.0
  C  C80  1  0.90012000  0.09716000  0.43028000  1.0
  C  C81  1  0.42845000  0.40292000  0.07001000  1.0
  C  C82  1  0.88780000  0.87097000  0.60151000  1.0
  C  C83  1  0.35970000  0.62891000  0.89811000  1.0
  C  C84  1  0.11219000  0.12897000  0.39852000  1.0
  C  C85  1  0.64030000  0.37112000  0.10188000  1.0
  C  C86  1  0.73494000  0.93091000  0.64196000  1.0
  C  C87  1  0.30733000  0.56890000  0.85765000  1.0
  C  C88  1  0.26505000  0.06903000  0.35808000  1.0
  C  C89  1  0.69266000  0.43113000  0.14234000  1.0
  N  N90  1  0.20975000  0.30993000  0.67410000  1.0
  N  N91  1  0.19526000  0.18894000  0.82571000  1.0
  N  N92  1  0.79025000  0.69008000  0.32589000  1.0
  N  N93  1  0.80475000  0.81107000  0.17427000  1.0
  N  N94  1  0.55637000  0.48343000  0.52840000  1.0
  N  N95  1  0.56816000  0.01647000  0.97157000  1.0
  N  N96  1  0.44368000  0.51658000  0.47158000  1.0
  N  N97  1  0.43185000  0.98356000  0.02843000  1.0
  N  N98  1  0.25815000  0.84077000  0.52595000  1.0
  N  N99  1  0.62424000  0.65913000  0.97378000  1.0
  N  N100  1  0.74184000  0.15917000  0.47407000  1.0
  N  N101  1  0.37578000  0.34088000  0.02622000  1.0
  O  O102  1  0.68954000  0.16315000  0.70486000  1.0
  O  O103  1  0.55690000  0.33660000  0.79486000  1.0
  O  O104  1  0.31043000  0.83683000  0.29514000  1.0
  O  O105  1  0.44304000  0.66342000  0.20513000  1.0
  O  O106  1  0.41189000  0.06353000  0.71223000  1.0
  O  O107  1  0.18615000  0.43556000  0.78794000  1.0
  O  O108  1  0.58806000  0.93647000  0.28777000  1.0
  O  O109  1  0.81379000  0.56447000  0.21206000  1.0
  O  O110  1  0.45778000  0.86385000  0.50227000  1.0
  O  O111  1  0.82254000  0.63563000  0.99783000  1.0
  O  O112  1  0.54220000  0.13610000  0.49775000  1.0
  O  O113  1  0.17750000  0.36436000  0.00216000  1.0
  O  O114  1  0.18566000  0.76751000  0.51412000  1.0
  O  O115  1  0.46761000  0.73284000  0.98522000  1.0
  O  O116  1  0.81431000  0.23245000  0.48589000  1.0
  O  O117  1  0.53242000  0.26717000  0.01479000  1.0
