# generated using pymatgen
data_PrH13C26S(N2O3)2
_symmetry_space_group_name_H-M   'P 1'
_cell_length_a   9.89464000
_cell_length_b   13.31830000
_cell_length_c   19.46020000
_cell_angle_alpha   90.00000000
_cell_angle_beta   89.99990000
_cell_angle_gamma   91.61160000
_symmetry_Int_Tables_number   1
_chemical_formula_structural   PrH13C26S(N2O3)2
_chemical_formula_sum   'Pr4 H52 C104 S4 N16 O24'
_cell_volume   2563.44655678
_cell_formula_units_Z   4
loop_
 _symmetry_equiv_pos_site_id
 _symmetry_equiv_pos_as_xyz
  1  'x, y, z'
loop_
 _atom_site_type_symbol
 _atom_site_label
 _atom_site_symmetry_multiplicity
 _atom_site_fract_x
 _atom_site_fract_y
 _atom_site_fract_z
 _atom_site_occupancy
  Pr  Pr0  1  0.55478000  0.12998000  0.54565000  1.0
  Pr  Pr1  1  0.94522000  0.37002000  0.04565000  1.0
  Pr  Pr2  1  0.44522000  0.87002000  0.45435000  1.0
  Pr  Pr3  1  0.05478000  0.62998000  0.95435000  1.0
  H  H4  1  0.20975000  0.64249000  0.46200000  1.0
  H  H5  1  0.29025000  0.85751000  0.96200000  1.0
  H  H6  1  0.79025000  0.35751000  0.53800000  1.0
  H  H7  1  0.70975000  0.14249000  0.03800000  1.0
  H  H8  1  0.74374000  0.80254000  0.64342000  1.0
  H  H9  1  0.75626000  0.69746000  0.14341000  1.0
  H  H10  1  0.25626000  0.19746000  0.35658000  1.0
  H  H11  1  0.24374000  0.30254000  0.85659000  1.0
  H  H12  1  0.89382000  0.65548000  0.64390000  1.0
  H  H13  1  0.60618000  0.84452000  0.14390000  1.0
  H  H14  1  0.10618000  0.34452000  0.35610000  1.0
  H  H15  1  0.39382000  0.15548000  0.85610000  1.0
  H  H16  1  0.09047000  0.77042000  0.46077000  1.0
  H  H17  1  0.40952000  0.72958000  0.96077000  1.0
  H  H18  1  0.90952000  0.22958000  0.53923000  1.0
  H  H19  1  0.59048000  0.27042000  0.03923000  1.0
  H  H20  1  0.94845000  0.91703000  0.46274000  1.0
  H  H21  1  0.55155000  0.58297000  0.96274000  1.0
  H  H22  1  0.05155000  0.08297000  0.53726000  1.0
  H  H23  1  0.44845000  0.41703000  0.03726000  1.0
  H  H24  1  0.36848000  0.54848000  0.39371000  1.0
  H  H25  1  0.13152000  0.95152000  0.89371000  1.0
  H  H26  1  0.63152000  0.45152000  0.60629000  1.0
  H  H27  1  0.86848000  0.04848000  0.10629000  1.0
  H  H28  1  0.53927000  0.43688000  0.33998000  1.0
  H  H29  1  0.96073000  0.06312000  0.83998000  1.0
  H  H30  1  0.46073000  0.56312000  0.66002000  1.0
  H  H31  1  0.03927000  0.93688000  0.16002000  1.0
  H  H32  1  0.60056000  0.27921000  0.40131000  1.0
  H  H33  1  0.89944000  0.22079000  0.90131000  1.0
  H  H34  1  0.39944000  0.72079000  0.59869000  1.0
  H  H35  1  0.10056000  0.77921000  0.09869000  1.0
  H  H36  1  0.34962000  0.13663000  0.68428000  1.0
  H  H37  1  0.15037000  0.36337000  0.18428000  1.0
  H  H38  1  0.65037000  0.86337000  0.31572000  1.0
  H  H39  1  0.84963000  0.63663000  0.81572000  1.0
  H  H40  1  0.17452000  0.22934000  0.74983000  1.0
  H  H41  1  0.32548000  0.27066000  0.24983000  1.0
  H  H42  1  0.82548000  0.77066000  0.25017000  1.0
  H  H43  1  0.67452000  0.72934000  0.75017000  1.0
  H  H44  1  0.09210000  0.39178000  0.70098000  1.0
  H  H45  1  0.40790000  0.10823000  0.20098000  1.0
  H  H46  1  0.90790000  0.60823000  0.29902000  1.0
  H  H47  1  0.59210000  0.89178000  0.79902000  1.0
  H  H48  1  0.86178000  0.42541000  0.64000000  1.0
  H  H49  1  0.63822000  0.07459000  0.14000000  1.0
  H  H50  1  0.13822000  0.57459000  0.36000000  1.0
  H  H51  1  0.36178000  0.92541000  0.86000000  1.0
  H  H52  1  0.94077000  0.51550000  0.75374000  1.0
  H  H53  1  0.55923000  0.98450000  0.25374000  1.0
  H  H54  1  0.05923000  0.48450000  0.24626000  1.0
  H  H55  1  0.44077000  0.01550000  0.74626000  1.0
  C  C56  1  0.74278000  0.95627000  0.55097000  1.0
  C  C57  1  0.75722000  0.54373000  0.05097000  1.0
  C  C58  1  0.25722000  0.04373000  0.44903000  1.0
  C  C59  1  0.24278000  0.45627000  0.94903000  1.0
  C  C60  1  0.83499000  0.86904000  0.55275000  1.0
  C  C61  1  0.66501000  0.63096000  0.05275000  1.0
  C  C62  1  0.16501000  0.13096000  0.44725000  1.0
  C  C63  1  0.33499000  0.36904000  0.94725000  1.0
  C  C64  1  0.82041000  0.79498000  0.60368000  1.0
  C  C65  1  0.67959000  0.70502000  0.10368000  1.0
  C  C66  1  0.17959000  0.20502000  0.39632000  1.0
  C  C67  1  0.32041000  0.29498000  0.89632000  1.0
  C  C68  1  0.90351000  0.71255000  0.60393000  1.0
  C  C69  1  0.59649000  0.78745000  0.10393000  1.0
  C  C70  1  0.09649000  0.28745000  0.39607000  1.0
  C  C71  1  0.40351000  0.21255000  0.89607000  1.0
  C  C72  1  0.00101000  0.70106000  0.55204000  1.0
  C  C73  1  0.49898000  0.79894000  0.05204000  1.0
  C  C74  1  0.99898000  0.29894000  0.44796000  1.0
  C  C75  1  0.50102000  0.20106000  0.94796000  1.0
  C  C76  1  0.01499000  0.77572000  0.50123000  1.0
  C  C77  1  0.48501000  0.72429000  0.00123000  1.0
  C  C78  1  0.98501000  0.22429000  0.49877000  1.0
  C  C79  1  0.51499000  0.27571000  0.99877000  1.0
  C  C80  1  0.93405000  0.85943000  0.50204000  1.0
  C  C81  1  0.56595000  0.64057000  0.00204000  1.0
  C  C82  1  0.06595000  0.14057000  0.49796000  1.0
  C  C83  1  0.43405000  0.35943000  0.99796000  1.0
  C  C84  1  0.08487000  0.61266000  0.55178000  1.0
  C  C85  1  0.41513000  0.88734000  0.05177000  1.0
  C  C86  1  0.91513000  0.38734000  0.44823000  1.0
  C  C87  1  0.58488000  0.11266000  0.94823000  1.0
  C  C88  1  0.17578000  0.47247000  0.57794000  1.0
  C  C89  1  0.32423000  0.02753000  0.07794000  1.0
  C  C90  1  0.82422000  0.52753000  0.42206000  1.0
  C  C91  1  0.67578000  0.97247000  0.92206000  1.0
  C  C92  1  0.23588000  0.50442000  0.51618000  1.0
  C  C93  1  0.26412000  0.99558000  0.01618000  1.0
  C  C94  1  0.76412000  0.49558000  0.48382000  1.0
  C  C95  1  0.73588000  0.00442000  0.98382000  1.0
  C  C96  1  0.33507000  0.44897000  0.48073000  1.0
  C  C97  1  0.16493000  0.05103000  0.98073000  1.0
  C  C98  1  0.66493000  0.55103000  0.51927000  1.0
  C  C99  1  0.83507000  0.94897000  0.01928000  1.0
  C  C100  1  0.39550000  0.47802000  0.41786000  1.0
  C  C101  1  0.10450000  0.02198000  0.91786000  1.0
  C  C102  1  0.60450000  0.52198000  0.58214000  1.0
  C  C103  1  0.89550000  0.97802000  0.08214000  1.0
  C  C104  1  0.48988000  0.41685000  0.38833000  1.0
  C  C105  1  0.01012000  0.08315000  0.88833000  1.0
  C  C106  1  0.51012000  0.58315000  0.61167000  1.0
  C  C107  1  0.98988000  0.91685000  0.11167000  1.0
  C  C108  1  0.52470000  0.32834000  0.42241000  1.0
  C  C109  1  0.97530000  0.17166000  0.92241000  1.0
  C  C110  1  0.47530000  0.67166000  0.57759000  1.0
  C  C111  1  0.02470000  0.82834000  0.07759000  1.0
  C  C112  1  0.37572000  0.35735000  0.51181000  1.0
  C  C113  1  0.12428000  0.14265000  0.01181000  1.0
  C  C114  1  0.62428000  0.64265000  0.48819000  1.0
  C  C115  1  0.87572000  0.85735000  0.98819000  1.0
  C  C116  1  0.31737000  0.32455000  0.57696000  1.0
  C  C117  1  0.18263000  0.17545000  0.07696000  1.0
  C  C118  1  0.68263000  0.67545000  0.42304000  1.0
  C  C119  1  0.81737000  0.82455000  0.92304000  1.0
  C  C120  1  0.31061000  0.20669000  0.66483000  1.0
  C  C121  1  0.18939000  0.29331000  0.16483000  1.0
  C  C122  1  0.68939000  0.79331000  0.33517000  1.0
  C  C123  1  0.81061000  0.70669000  0.83517000  1.0
  C  C124  1  0.21253000  0.25913000  0.70114000  1.0
  C  C125  1  0.28746000  0.24087000  0.20114000  1.0
  C  C126  1  0.78746000  0.74087000  0.29886000  1.0
  C  C127  1  0.71254000  0.75913000  0.79886000  1.0
  C  C128  1  0.16655000  0.34780000  0.67417000  1.0
  C  C129  1  0.33345000  0.15221000  0.17417000  1.0
  C  C130  1  0.83345000  0.65221000  0.32583000  1.0
  C  C131  1  0.66655000  0.84779000  0.82583000  1.0
  C  C132  1  0.21733000  0.38212000  0.61050000  1.0
  C  C133  1  0.28268000  0.11788000  0.11050000  1.0
  C  C134  1  0.78268000  0.61789000  0.38950000  1.0
  C  C135  1  0.71733000  0.88211000  0.88950000  1.0
  C  C136  1  0.69029000  0.24697000  0.65304000  1.0
  C  C137  1  0.80971000  0.25303000  0.15304000  1.0
  C  C138  1  0.30971000  0.75303000  0.34696000  1.0
  C  C139  1  0.19029000  0.74697000  0.84696000  1.0
  C  C140  1  0.75411000  0.31406000  0.70417000  1.0
  C  C141  1  0.74589000  0.18594000  0.20417000  1.0
  C  C142  1  0.24589000  0.68594000  0.29583000  1.0
  C  C143  1  0.25411000  0.81406000  0.79583000  1.0
  C  C144  1  0.83270000  0.39986000  0.69112000  1.0
  C  C145  1  0.66730000  0.10014000  0.19112000  1.0
  C  C146  1  0.16730000  0.60014000  0.30888000  1.0
  C  C147  1  0.33270000  0.89986000  0.80888000  1.0
  C  C148  1  0.87518000  0.44854000  0.75175000  1.0
  C  C149  1  0.62482000  0.05146000  0.25175000  1.0
  C  C150  1  0.12482000  0.55146000  0.24825000  1.0
  C  C151  1  0.37519000  0.94854000  0.74825000  1.0
  C  C152  1  0.82890000  0.39912000  0.81040000  1.0
  C  C153  1  0.67110000  0.10087000  0.31040000  1.0
  C  C154  1  0.17110000  0.60087000  0.18960000  1.0
  C  C155  1  0.32890000  0.89913000  0.68961000  1.0
  C  C156  1  0.86150000  0.43104000  0.88149000  1.0
  C  C157  1  0.63850000  0.06896000  0.38149000  1.0
  C  C158  1  0.13850000  0.56896000  0.11851000  1.0
  C  C159  1  0.36150000  0.93104000  0.61851000  1.0
  S  S160  1  0.73301000  0.29315000  0.79095000  1.0
  S  S161  1  0.76699000  0.20685000  0.29095000  1.0
  S  S162  1  0.26699000  0.70685000  0.20905000  1.0
  S  S163  1  0.23301000  0.79315000  0.70905000  1.0
  N  N164  1  0.47053000  0.29928000  0.48228000  1.0
  N  N165  1  0.02947000  0.20072000  0.98228000  1.0
  N  N166  1  0.52947000  0.70072000  0.51772000  1.0
  N  N167  1  0.97053000  0.79928000  0.01772000  1.0
  N  N168  1  0.36200000  0.23806000  0.60490000  1.0
  N  N169  1  0.13800000  0.26194000  0.10490000  1.0
  N  N170  1  0.63800000  0.76194000  0.39510000  1.0
  N  N171  1  0.86200000  0.73806000  0.89510000  1.0
  N  N172  1  0.08155000  0.53966000  0.59924000  1.0
  N  N173  1  0.41845000  0.96034000  0.09924000  1.0
  N  N174  1  0.91845000  0.46034000  0.40076000  1.0
  N  N175  1  0.58155000  0.03966000  0.90076000  1.0
  N  N176  1  0.17731000  0.59370000  0.50061000  1.0
  N  N177  1  0.32269000  0.90630000  0.00061000  1.0
  N  N178  1  0.82269000  0.40630000  0.49939000  1.0
  N  N179  1  0.67731000  0.09370000  0.99939000  1.0
  O  O180  1  0.78306000  0.04329000  0.56806000  1.0
  O  O181  1  0.71693000  0.45671000  0.06806000  1.0
  O  O182  1  0.21694000  0.95671000  0.43194000  1.0
  O  O183  1  0.28307000  0.54329000  0.93194000  1.0
  O  O184  1  0.61985000  0.93861000  0.53097000  1.0
  O  O185  1  0.88014000  0.56139000  0.03097000  1.0
  O  O186  1  0.38015000  0.06139000  0.46903000  1.0
  O  O187  1  0.11985000  0.43861000  0.96903000  1.0
  O  O188  1  0.70208000  0.27252000  0.58882000  1.0
  O  O189  1  0.79792000  0.22748000  0.08882000  1.0
  O  O190  1  0.29792000  0.72748000  0.41118000  1.0
  O  O191  1  0.20208000  0.77252000  0.91118000  1.0
  O  O192  1  0.62385000  0.16889000  0.67106000  1.0
  O  O193  1  0.87615000  0.33111000  0.17106000  1.0
  O  O194  1  0.37615000  0.83111000  0.32894000  1.0
  O  O195  1  0.12385000  0.66889000  0.82894000  1.0
  O  O196  1  0.91747000  0.51771000  0.88625000  1.0
  O  O197  1  0.58253000  0.98229000  0.38625000  1.0
  O  O198  1  0.08253000  0.48229000  0.11375000  1.0
  O  O199  1  0.41747000  0.01771000  0.61375000  1.0
  O  O200  1  0.83487000  0.37165000  0.93138000  1.0
  O  O201  1  0.66513000  0.12835000  0.43138000  1.0
  O  O202  1  0.16513000  0.62835000  0.06862000  1.0
  O  O203  1  0.33487000  0.87165000  0.56862000  1.0
