# generated using pymatgen
data_ZnH12C14INO4
_symmetry_space_group_name_H-M   'P 1'
_cell_length_a   10.16340000
_cell_length_b   11.34120000
_cell_length_c   17.12879509
_cell_angle_alpha   87.35677858
_cell_angle_beta   74.70774252
_cell_angle_gamma   76.54500000
_symmetry_Int_Tables_number   1
_chemical_formula_structural   ZnH12C14INO4
_chemical_formula_sum   'Zn2 H24 C28 I2 N2 O8'
_cell_volume   1851.93116442
_cell_formula_units_Z   2
loop_
 _symmetry_equiv_pos_site_id
 _symmetry_equiv_pos_as_xyz
  1  'x, y, z'
loop_
 _atom_site_type_symbol
 _atom_site_label
 _atom_site_symmetry_multiplicity
 _atom_site_fract_x
 _atom_site_fract_y
 _atom_site_fract_z
 _atom_site_occupancy
  Zn  Zn0  1  0.87630000  0.50018000  0.47813000  1.0
  Zn  Zn1  1  0.12046000  0.49089000  0.52194000  1.0
  H  H2  1  0.39208000  0.50056000  0.28350000  1.0
  H  H3  1  0.88534000  0.10953000  0.48410000  1.0
  H  H4  1  0.81365000  0.91066000  0.48555000  1.0
  H  H5  1  0.17540000  0.07989000  0.51689000  1.0
  H  H6  1  0.69531000  0.40860000  0.42927000  1.0
  H  H7  1  0.29695000  0.58787000  0.57183000  1.0
  H  H8  1  0.30962000  0.23217000  0.00518000  1.0
  H  H9  1  0.16909000  0.20540000  0.08537000  1.0
  H  H10  1  0.14234000  0.24194000  0.98772000  1.0
  H  H11  1  0.03880000  0.42226000  0.08121000  1.0
  H  H12  1  0.17525000  0.45074000  0.00066000  1.0
  H  H13  1  0.63730000  0.41281000  0.70680000  1.0
  H  H14  1  0.83383000  0.64743000  0.95111000  1.0
  H  H15  1  0.70509000  0.58923000  0.02297000  1.0
  H  H16  1  0.87169000  0.58060000  0.04105000  1.0
  H  H17  1  0.86298000  0.37708000  0.99466000  1.0
  H  H18  1  0.98776000  0.43732000  0.92291000  1.0
  H  H19  1  0.97833000  0.47420000  0.78999000  1.0
  H  H20  1  0.03581000  0.44199000  0.21506000  1.0
  H  H21  1  0.64849000  0.39034000  0.03030000  1.0
  H  H22  1  0.38726000  0.44108000  0.96548000  1.0
  H  H23  1  0.51142000  0.37743000  0.84792000  1.0
  H  H24  1  0.53131000  0.47338000  0.14058000  1.0
  H  H25  1  0.10354000  0.88150000  0.51853000  1.0
  C  C26  1  0.04911000  0.25771000  0.49608000  1.0
  C  C27  1  0.88811000  0.47353000  0.65539000  1.0
  C  C28  1  0.20515000  0.47208000  0.25822000  1.0
  C  C29  1  0.81396000  0.44947000  0.74020000  1.0
  C  C30  1  0.34619000  0.47909000  0.23674000  1.0
  C  C31  1  0.68232000  0.42076000  0.75688000  1.0
  C  C32  1  0.42371000  0.46232000  0.15675000  1.0
  C  C33  1  0.61238000  0.40204000  0.83593000  1.0
  C  C34  1  0.36529000  0.43621000  0.09516000  1.0
  C  C35  1  0.66914000  0.41328000  0.90133000  1.0
  C  C36  1  0.22266000  0.42814000  0.11681000  1.0
  C  C37  1  0.94099000  0.73256000  0.50457000  1.0
  C  C38  1  0.80533000  0.43672000  0.88421000  1.0
  C  C39  1  0.14574000  0.44683000  0.19772000  1.0
  C  C40  1  0.87453000  0.45452000  0.80404000  1.0
  C  C41  1  0.44729000  0.42584000  0.01083000  1.0
  C  C42  1  0.58865000  0.40648000  0.98494000  1.0
  C  C43  1  0.15290000  0.39636000  0.05555000  1.0
  C  C44  1  0.19608000  0.26120000  0.03193000  1.0
  C  C45  1  0.87450000  0.45001000  0.95031000  1.0
  C  C46  1  0.81801000  0.57380000  0.99407000  1.0
  C  C47  1  0.07652000  0.12413000  0.50341000  1.0
  C  C48  1  0.91271000  0.86636000  0.49876000  1.0
  C  C49  1  0.98323000  0.06000000  0.49686000  1.0
  C  C50  1  0.00540000  0.93079000  0.50590000  1.0
  C  C51  1  0.43740000  0.46747000  0.50133000  1.0
  C  C52  1  0.55819000  0.51931000  0.50802000  1.0
  C  C53  1  0.12079000  0.49055000  0.34445000  1.0
  I  I54  1  0.50655000  0.66407000  0.59135000  1.0
  I  I55  1  0.49157000  0.31235000  0.42630000  1.0
  N  N56  1  0.30988000  0.51173000  0.53691000  1.0
  N  N57  1  0.68395000  0.48137000  0.46684000  1.0
  O  O58  1  0.94071000  0.31212000  0.47381000  1.0
  O  O59  1  0.05074000  0.67723000  0.52524000  1.0
  O  O60  1  0.13818000  0.30804000  0.51391000  1.0
  O  O61  1  0.85132000  0.68269000  0.48700000  1.0
  O  O62  1  0.98966000  0.49622000  0.35968000  1.0
  O  O63  1  0.01413000  0.48485000  0.64152000  1.0
  O  O64  1  0.18723000  0.49838000  0.39707000  1.0
  O  O65  1  0.81863000  0.48099000  0.60242000  1.0
