# generated using pymatgen
data_ZnPH10C9NO5
_symmetry_space_group_name_H-M   'P 1'
_cell_length_a   8.56170000
_cell_length_b   9.86823000
_cell_length_c   12.48500000
_cell_angle_alpha   90.00000000
_cell_angle_beta   90.00000000
_cell_angle_gamma   90.00000000
_symmetry_Int_Tables_number   1
_chemical_formula_structural   ZnPH10C9NO5
_chemical_formula_sum   'Zn4 P4 H40 C36 N4 O20'
_cell_volume   1054.84297752
_cell_formula_units_Z   4
loop_
 _symmetry_equiv_pos_site_id
 _symmetry_equiv_pos_as_xyz
  1  'x, y, z'
loop_
 _atom_site_type_symbol
 _atom_site_label
 _atom_site_symmetry_multiplicity
 _atom_site_fract_x
 _atom_site_fract_y
 _atom_site_fract_z
 _atom_site_occupancy
  Zn  Zn0  1  0.22167000  0.92350000  0.87891000  1.0
  Zn  Zn1  1  0.72167000  0.07650000  0.12109000  1.0
  Zn  Zn2  1  0.22167000  0.42350000  0.12109000  1.0
  Zn  Zn3  1  0.72167000  0.57650000  0.87891000  1.0
  P  P4  1  0.07535000  0.14567000  0.02476000  1.0
  P  P5  1  0.57535000  0.85433000  0.97524000  1.0
  P  P6  1  0.07535000  0.64567000  0.97524000  1.0
  P  P7  1  0.57535000  0.35433000  0.02476000  1.0
  H  H8  1  0.12413000  0.87936000  0.08672000  1.0
  H  H9  1  0.62413000  0.12064000  0.91328000  1.0
  H  H10  1  0.12413000  0.37936000  0.91328000  1.0
  H  H11  1  0.62413000  0.62064000  0.08672000  1.0
  H  H12  1  0.05209000  0.93595000  0.20422000  1.0
  H  H13  1  0.55209000  0.06405000  0.79578000  1.0
  H  H14  1  0.05209000  0.43595000  0.79578000  1.0
  H  H15  1  0.55209000  0.56405000  0.20422000  1.0
  H  H16  1  0.32049000  0.07602000  0.10531000  1.0
  H  H17  1  0.82049000  0.92398000  0.89469000  1.0
  H  H18  1  0.32049000  0.57602000  0.89469000  1.0
  H  H19  1  0.82049000  0.42398000  0.10531000  1.0
  H  H20  1  0.18633000  0.13560000  0.20491000  1.0
  H  H21  1  0.68633000  0.86440000  0.79509000  1.0
  H  H22  1  0.18633000  0.63560000  0.79509000  1.0
  H  H23  1  0.68633000  0.36440000  0.20491000  1.0
  H  H24  1  0.38922000  0.87518000  0.17476000  1.0
  H  H25  1  0.88922000  0.12482000  0.82524000  1.0
  H  H26  1  0.38922000  0.37518000  0.82524000  1.0
  H  H27  1  0.88922000  0.62482000  0.17476000  1.0
  H  H28  1  0.25127000  0.74334000  0.19611000  1.0
  H  H29  1  0.75127000  0.25666000  0.80389000  1.0
  H  H30  1  0.25127000  0.24334000  0.80389000  1.0
  H  H31  1  0.75127000  0.75666000  0.19611000  1.0
  H  H32  1  0.44437000  0.04334000  0.32354000  1.0
  H  H33  1  0.94437000  0.95666000  0.67646000  1.0
  H  H34  1  0.44436000  0.54334000  0.67646000  1.0
  H  H35  1  0.94437000  0.45666000  0.32354000  1.0
  H  H36  1  0.45416000  0.07511000  0.52133000  1.0
  H  H37  1  0.95416000  0.92489000  0.47867000  1.0
  H  H38  1  0.45416000  0.57511000  0.47867000  1.0
  H  H39  1  0.95416000  0.42489000  0.52133000  1.0
  H  H40  1  0.14400000  0.73789000  0.56498000  1.0
  H  H41  1  0.64401000  0.26211000  0.43502000  1.0
  H  H42  1  0.14400000  0.23789000  0.43502000  1.0
  H  H43  1  0.64400000  0.76211000  0.56498000  1.0
  H  H44  1  0.13048000  0.70577000  0.36784000  1.0
  H  H45  1  0.63048000  0.29423000  0.63216000  1.0
  H  H46  1  0.13048000  0.20576000  0.63216000  1.0
  H  H47  1  0.63048000  0.79424000  0.36784000  1.0
  C  C48  1  0.19836000  0.07434000  0.13201000  1.0
  C  C49  1  0.69836000  0.92566000  0.86799000  1.0
  C  C50  1  0.19836000  0.57434000  0.86799000  1.0
  C  C51  1  0.69836000  0.42566000  0.13201000  1.0
  C  C52  1  0.27834000  0.84956000  0.21373000  1.0
  C  C53  1  0.77834000  0.15044000  0.78627000  1.0
  C  C54  1  0.27834000  0.34956000  0.78627000  1.0
  C  C55  1  0.77834000  0.65044000  0.21373000  1.0
  C  C56  1  0.28462000  0.87327000  0.33229000  1.0
  C  C57  1  0.78462000  0.12672000  0.66771000  1.0
  C  C58  1  0.28461000  0.37327000  0.66771000  1.0
  C  C59  1  0.78462000  0.62673000  0.33229000  1.0
  C  C60  1  0.37651000  0.97708000  0.37589000  1.0
  C  C61  1  0.87651000  0.02292000  0.62411000  1.0
  C  C62  1  0.37651000  0.47708000  0.62411000  1.0
  C  C63  1  0.87651000  0.52292000  0.37589000  1.0
  C  C64  1  0.38378000  0.99481000  0.48638000  1.0
  C  C65  1  0.88378000  0.00519000  0.51361000  1.0
  C  C66  1  0.38378000  0.49481000  0.51362000  1.0
  C  C67  1  0.88378000  0.50519000  0.48638000  1.0
  C  C68  1  0.29999000  0.90928000  0.55483000  1.0
  C  C69  1  0.79999000  0.09072000  0.44517000  1.0
  C  C70  1  0.29999000  0.40928000  0.44517000  1.0
  C  C71  1  0.79999000  0.59072000  0.55483000  1.0
  C  C72  1  0.20879000  0.80468000  0.51161000  1.0
  C  C73  1  0.70880000  0.19532000  0.48839000  1.0
  C  C74  1  0.20879000  0.30468000  0.48839000  1.0
  C  C75  1  0.70879000  0.69532000  0.51161000  1.0
  C  C76  1  0.20139000  0.78728000  0.40119000  1.0
  C  C77  1  0.70139000  0.21272000  0.59882000  1.0
  C  C78  1  0.20138000  0.28728000  0.59881000  1.0
  C  C79  1  0.70139000  0.71272000  0.40119000  1.0
  C  C80  1  0.30595000  0.93399000  0.67254000  1.0
  C  C81  1  0.80595000  0.06601000  0.32746000  1.0
  C  C82  1  0.30595000  0.43399000  0.32747000  1.0
  C  C83  1  0.80595000  0.56601000  0.67254000  1.0
  N  N84  1  0.15357000  0.93142000  0.15750000  1.0
  N  N85  1  0.65357000  0.06858000  0.84250000  1.0
  N  N86  1  0.15357000  0.43142000  0.84250000  1.0
  N  N87  1  0.65357000  0.56858000  0.15750000  1.0
  O  O88  1  0.14308000  0.10352000  0.91550000  1.0
  O  O89  1  0.64308000  0.89648000  0.08450000  1.0
  O  O90  1  0.14308000  0.60352000  0.08450000  1.0
  O  O91  1  0.64308000  0.39648000  0.91550000  1.0
  O  O92  1  0.91237000  0.08696000  0.03868000  1.0
  O  O93  1  0.41237000  0.91304000  0.96132000  1.0
  O  O94  1  0.91237000  0.58696000  0.96132000  1.0
  O  O95  1  0.41237000  0.41304000  0.03868000  1.0
  O  O96  1  0.08178000  0.30110000  0.03628000  1.0
  O  O97  1  0.58178000  0.69891000  0.96372000  1.0
  O  O98  1  0.08178000  0.80109000  0.96372000  1.0
  O  O99  1  0.58178000  0.19890000  0.03628000  1.0
  O  O100  1  0.39690000  0.02162000  0.71094000  1.0
  O  O101  1  0.89691000  0.97838000  0.28906000  1.0
  O  O102  1  0.39691000  0.52162000  0.28906000  1.0
  O  O103  1  0.89691000  0.47838000  0.71094000  1.0
  O  O104  1  0.20946000  0.86331000  0.73056000  1.0
  O  O105  1  0.70947000  0.13669000  0.26944000  1.0
  O  O106  1  0.20947000  0.36331000  0.26944000  1.0
  O  O107  1  0.70946000  0.63669000  0.73056000  1.0
