# generated using pymatgen
data_AgH6C7NO2
_symmetry_space_group_name_H-M   'P 1'
_cell_length_a   7.50991000
_cell_length_b   12.01310000
_cell_length_c   16.31400000
_cell_angle_alpha   90.00000000
_cell_angle_beta   90.00000000
_cell_angle_gamma   93.71180000
_symmetry_Int_Tables_number   1
_chemical_formula_structural   AgH6C7NO2
_chemical_formula_sum   'Ag8 H48 C56 N8 O16'
_cell_volume   1468.71763381
_cell_formula_units_Z   8
loop_
 _symmetry_equiv_pos_site_id
 _symmetry_equiv_pos_as_xyz
  1  'x, y, z'
loop_
 _atom_site_type_symbol
 _atom_site_label
 _atom_site_symmetry_multiplicity
 _atom_site_fract_x
 _atom_site_fract_y
 _atom_site_fract_z
 _atom_site_occupancy
  Ag  Ag0  1  0.00619000  0.46570000  0.10532000  1.0
  Ag  Ag1  1  0.99382000  0.03430000  0.60532000  1.0
  Ag  Ag2  1  0.99382000  0.53430000  0.89468000  1.0
  Ag  Ag3  1  0.00619000  0.96570000  0.39468000  1.0
  Ag  Ag4  1  0.63126000  0.42915000  0.02984000  1.0
  Ag  Ag5  1  0.36874000  0.07085000  0.52984000  1.0
  Ag  Ag6  1  0.36874000  0.57085000  0.97016000  1.0
  Ag  Ag7  1  0.63126000  0.92915000  0.47016000  1.0
  H  H8  1  0.44657000  0.72585000  0.52230000  1.0
  H  H9  1  0.55344000  0.77414000  0.02230000  1.0
  H  H10  1  0.55344000  0.27415000  0.47770000  1.0
  H  H11  1  0.44656000  0.22585000  0.97770000  1.0
  H  H12  1  0.28782000  0.81106000  0.48844000  1.0
  H  H13  1  0.71218000  0.68894000  0.98844000  1.0
  H  H14  1  0.71218000  0.18894000  0.51156000  1.0
  H  H15  1  0.28782000  0.31106000  0.01156000  1.0
  H  H16  1  0.22077000  0.97737000  0.70930000  1.0
  H  H17  1  0.77923000  0.52263000  0.20930000  1.0
  H  H18  1  0.77924000  0.02264000  0.29070000  1.0
  H  H19  1  0.22076000  0.47736000  0.79070000  1.0
  H  H20  1  0.03177000  0.90231000  0.73772000  1.0
  H  H21  1  0.96823000  0.59769000  0.23772000  1.0
  H  H22  1  0.96824000  0.09769000  0.26228000  1.0
  H  H23  1  0.03176000  0.40231000  0.76228000  1.0
  H  H24  1  0.24711000  0.73931000  0.20310000  1.0
  H  H25  1  0.75288000  0.76069000  0.70310000  1.0
  H  H26  1  0.75288000  0.26069000  0.79690000  1.0
  H  H27  1  0.24712000  0.23931000  0.29690000  1.0
  H  H28  1  0.23068000  0.83025000  0.33969000  1.0
  H  H29  1  0.76932000  0.66975000  0.83969000  1.0
  H  H30  1  0.76931000  0.16975000  0.66030000  1.0
  H  H31  1  0.23068000  0.33025000  0.16031000  1.0
  H  H32  1  0.56966000  0.58790000  0.44058000  1.0
  H  H33  1  0.43034000  0.91210000  0.94058000  1.0
  H  H34  1  0.43033000  0.41211000  0.55942000  1.0
  H  H35  1  0.56966000  0.08790000  0.05942000  1.0
  H  H36  1  0.58168000  0.49669000  0.30525000  1.0
  H  H37  1  0.41831000  0.00332000  0.80525000  1.0
  H  H38  1  0.41831000  0.50332000  0.69475000  1.0
  H  H39  1  0.58169000  0.99668000  0.19475000  1.0
  H  H40  1  0.21101000  0.30816000  0.86732000  1.0
  H  H41  1  0.78900000  0.19184000  0.36732000  1.0
  H  H42  1  0.78900000  0.69184000  0.13268000  1.0
  H  H43  1  0.21100000  0.80815000  0.63268000  1.0
  H  H44  1  0.26144000  0.17977000  0.75106000  1.0
  H  H45  1  0.73856000  0.32023000  0.25106000  1.0
  H  H46  1  0.73857000  0.82023000  0.24894000  1.0
  H  H47  1  0.26143000  0.67976000  0.74894000  1.0
  H  H48  1  0.85780000  0.94486000  0.84977000  1.0
  H  H49  1  0.14220000  0.55514000  0.34977000  1.0
  H  H50  1  0.14220000  0.05514000  0.15023000  1.0
  H  H51  1  0.85779000  0.44486000  0.65023000  1.0
  H  H52  1  0.80023000  0.07796000  0.96189000  1.0
  H  H53  1  0.19977000  0.42204000  0.46189000  1.0
  H  H54  1  0.19977000  0.92204000  0.03810000  1.0
  H  H55  1  0.80022000  0.57796000  0.53810000  1.0
  C  C56  1  0.43876000  0.56363000  0.16174000  1.0
  C  C57  1  0.56124000  0.93637000  0.66174000  1.0
  C  C58  1  0.56124000  0.43637000  0.83826000  1.0
  C  C59  1  0.43877000  0.06363000  0.33826000  1.0
  C  C60  1  0.41932000  0.61343000  0.24418000  1.0
  C  C61  1  0.58068000  0.88657000  0.74418000  1.0
  C  C62  1  0.58068000  0.38657000  0.75582000  1.0
  C  C63  1  0.41933000  0.11343000  0.25582000  1.0
  C  C64  1  0.31707000  0.70624000  0.25549000  1.0
  C  C65  1  0.68293000  0.79376000  0.75549000  1.0
  C  C66  1  0.68293000  0.29376000  0.74450000  1.0
  C  C67  1  0.31707000  0.20624000  0.24451000  1.0
  C  C68  1  0.30792000  0.75691000  0.33178000  1.0
  C  C69  1  0.69208000  0.74309000  0.83178000  1.0
  C  C70  1  0.69208000  0.24309000  0.66822000  1.0
  C  C71  1  0.30792000  0.25690000  0.16822000  1.0
  C  C72  1  0.40002000  0.71553000  0.39957000  1.0
  C  C73  1  0.59998000  0.78447000  0.89957000  1.0
  C  C74  1  0.59997000  0.28447000  0.60043000  1.0
  C  C75  1  0.40003000  0.21553000  0.10043000  1.0
  C  C76  1  0.49835000  0.62065000  0.38857000  1.0
  C  C77  1  0.50165000  0.87935000  0.88857000  1.0
  C  C78  1  0.50164000  0.37935000  0.61143000  1.0
  C  C79  1  0.49835000  0.12065000  0.11143000  1.0
  C  C80  1  0.50802000  0.57123000  0.31218000  1.0
  C  C81  1  0.49198000  0.92877000  0.81219000  1.0
  C  C82  1  0.49198000  0.42877000  0.68781000  1.0
  C  C83  1  0.50802000  0.07123000  0.18781000  1.0
  C  C84  1  0.95770000  0.28172000  0.98782000  1.0
  C  C85  1  0.04231000  0.21828000  0.48782000  1.0
  C  C86  1  0.04230000  0.71828000  0.01218000  1.0
  C  C87  1  0.95770000  0.78172000  0.51218000  1.0
  C  C88  1  0.99942000  0.20237000  0.92140000  1.0
  C  C89  1  0.00058000  0.29763000  0.42140000  1.0
  C  C90  1  0.00058000  0.79763000  0.07860000  1.0
  C  C91  1  0.99942000  0.70237000  0.57860000  1.0
  C  C92  1  0.13220000  0.22897000  0.86256000  1.0
  C  C93  1  0.86780000  0.27103000  0.36256000  1.0
  C  C94  1  0.86780000  0.77103000  0.13745000  1.0
  C  C95  1  0.13219000  0.72896000  0.63745000  1.0
  C  C96  1  0.16194000  0.15675000  0.79796000  1.0
  C  C97  1  0.83806000  0.34325000  0.29796000  1.0
  C  C98  1  0.83806000  0.84325000  0.20204000  1.0
  C  C99  1  0.16194000  0.65675000  0.70204000  1.0
  C  C100  1  0.06123000  0.05415000  0.79271000  1.0
  C  C101  1  0.93877000  0.44585000  0.29271000  1.0
  C  C102  1  0.93877000  0.94585000  0.20729000  1.0
  C  C103  1  0.06122000  0.55414000  0.70729000  1.0
  C  C104  1  0.93308000  0.02534000  0.85284000  1.0
  C  C105  1  0.06692000  0.47467000  0.35285000  1.0
  C  C106  1  0.06692000  0.97467000  0.14715000  1.0
  C  C107  1  0.93307000  0.52533000  0.64715000  1.0
  C  C108  1  0.90143000  0.09936000  0.91571000  1.0
  C  C109  1  0.09857000  0.40064000  0.41571000  1.0
  C  C110  1  0.09857000  0.90064000  0.08429000  1.0
  C  C111  1  0.90143000  0.59936000  0.58429000  1.0
  N  N112  1  0.40011000  0.76974000  0.47451000  1.0
  N  N113  1  0.59989000  0.73026000  0.97451000  1.0
  N  N114  1  0.59989000  0.23026000  0.52549000  1.0
  N  N115  1  0.40011000  0.26974000  0.02549000  1.0
  N  N116  1  0.08737000  0.98064000  0.72631000  1.0
  N  N117  1  0.91263000  0.51936000  0.22631000  1.0
  N  N118  1  0.91263000  0.01936000  0.27369000  1.0
  N  N119  1  0.08737000  0.48064000  0.77369000  1.0
  O  O120  1  0.07136000  0.36808000  0.99732000  1.0
  O  O121  1  0.92865000  0.13192000  0.49732000  1.0
  O  O122  1  0.92865000  0.63192000  0.00268000  1.0
  O  O123  1  0.07136000  0.86808000  0.50268000  1.0
  O  O124  1  0.81987000  0.26417000  0.03054000  1.0
  O  O125  1  0.18013000  0.23584000  0.53054000  1.0
  O  O126  1  0.18013000  0.73583000  0.96946000  1.0
  O  O127  1  0.81987000  0.76417000  0.46946000  1.0
  O  O128  1  0.58058000  0.51142000  0.14928000  1.0
  O  O129  1  0.41941000  0.98859000  0.64928000  1.0
  O  O130  1  0.41941000  0.48858000  0.85072000  1.0
  O  O131  1  0.58061000  0.01143000  0.35072000  1.0
  O  O132  1  0.31853000  0.57738000  0.10815000  1.0
  O  O133  1  0.68145000  0.92261000  0.60815000  1.0
  O  O134  1  0.68147000  0.42262000  0.89185000  1.0
  O  O135  1  0.31855000  0.07738000  0.39185000  1.0
