# generated using pymatgen
data_TlH3C6N2O5
_symmetry_space_group_name_H-M   'P 1'
_cell_length_a   4.12881000
_cell_length_b   9.29375000
_cell_length_c   20.98290000
_cell_angle_alpha   90.00060000
_cell_angle_beta   90.00000000
_cell_angle_gamma   94.16470000
_symmetry_Int_Tables_number   1
_chemical_formula_structural   TlH3C6N2O5
_chemical_formula_sum   'Tl4 H12 C24 N8 O20'
_cell_volume   803.03242978
_cell_formula_units_Z   4
loop_
 _symmetry_equiv_pos_site_id
 _symmetry_equiv_pos_as_xyz
  1  'x, y, z'
loop_
 _atom_site_type_symbol
 _atom_site_label
 _atom_site_symmetry_multiplicity
 _atom_site_fract_x
 _atom_site_fract_y
 _atom_site_fract_z
 _atom_site_occupancy
  Tl  Tl0  1  0.51604000  0.23321000  0.52781000  1.0
  Tl  Tl1  1  0.51603000  0.73319000  0.97219000  1.0
  Tl  Tl2  1  0.48396000  0.76683000  0.47219000  1.0
  Tl  Tl3  1  0.48395000  0.26681000  0.02781000  1.0
  H  H4  1  0.57983000  0.92105000  0.30909000  1.0
  H  H5  1  0.57981000  0.42104000  0.19091000  1.0
  H  H6  1  0.42020000  0.07896000  0.69090000  1.0
  H  H7  1  0.42018000  0.57895000  0.80911000  1.0
  H  H8  1  0.71786000  0.23886000  0.27401000  1.0
  H  H9  1  0.71784000  0.73884000  0.22599000  1.0
  H  H10  1  0.28216000  0.76116000  0.72598000  1.0
  H  H11  1  0.28215000  0.26115000  0.77402000  1.0
  H  H12  1  0.40532000  0.97943000  0.19601000  1.0
  H  H13  1  0.40531000  0.47942000  0.30399000  1.0
  H  H14  1  0.59469000  0.02057000  0.80398000  1.0
  H  H15  1  0.59466000  0.52058000  0.69602000  1.0
  C  C16  1  0.29348000  0.07269000  0.35743000  1.0
  C  C17  1  0.29347000  0.57267000  0.14257000  1.0
  C  C18  1  0.70652000  0.92733000  0.64257000  1.0
  C  C19  1  0.70651000  0.42731000  0.85744000  1.0
  C  C20  1  0.48150000  0.02526000  0.29875000  1.0
  C  C21  1  0.48149000  0.52524000  0.20125000  1.0
  C  C22  1  0.51852000  0.97477000  0.70124000  1.0
  C  C23  1  0.51851000  0.47475000  0.79876000  1.0
  C  C24  1  0.29584000  0.02176000  0.23876000  1.0
  C  C25  1  0.29582000  0.52175000  0.26124000  1.0
  C  C26  1  0.70419000  0.97825000  0.76123000  1.0
  C  C27  1  0.70418000  0.47826000  0.73878000  1.0
  C  C28  1  0.01194000  0.08402000  0.23253000  1.0
  C  C29  1  0.01193000  0.58401000  0.26747000  1.0
  C  C30  1  0.98809000  0.91599000  0.76746000  1.0
  C  C31  1  0.98806000  0.41598000  0.73254000  1.0
  C  C32  1  0.81320000  0.13569000  0.28629000  1.0
  C  C33  1  0.81319000  0.63568000  0.21371000  1.0
  C  C34  1  0.18682000  0.86432000  0.71370000  1.0
  C  C35  1  0.18680000  0.36431000  0.78629000  1.0
  C  C36  1  0.01301000  0.15262000  0.34535000  1.0
  C  C37  1  0.01302000  0.65261000  0.15465000  1.0
  C  C38  1  0.98698000  0.84739000  0.65464000  1.0
  C  C39  1  0.98698000  0.34738000  0.84536000  1.0
  N  N40  1  0.92465000  0.12405000  0.16805000  1.0
  N  N41  1  0.92463000  0.62405000  0.33195000  1.0
  N  N42  1  0.07537000  0.87594000  0.83194000  1.0
  N  N43  1  0.07534000  0.37595000  0.66806000  1.0
  N  N44  1  0.90198000  0.25067000  0.38795000  1.0
  N  N45  1  0.90197000  0.75065000  0.11205000  1.0
  N  N46  1  0.09802000  0.74934000  0.61204000  1.0
  N  N47  1  0.09802000  0.24932000  0.88795000  1.0
  O  O48  1  0.39865000  0.03996000  0.41129000  1.0
  O  O49  1  0.39863000  0.53992000  0.08871000  1.0
  O  O50  1  0.60137000  0.96008000  0.58871000  1.0
  O  O51  1  0.60136000  0.46005000  0.91130000  1.0
  O  O52  1  0.70934000  0.21232000  0.16281000  1.0
  O  O53  1  0.70933000  0.71231000  0.33718000  1.0
  O  O54  1  0.29068000  0.78768000  0.83718000  1.0
  O  O55  1  0.29065000  0.28768000  0.66282000  1.0
  O  O56  1  0.07313000  0.07937000  0.12156000  1.0
  O  O57  1  0.07313000  0.57939000  0.37843000  1.0
  O  O58  1  0.92686000  0.92061000  0.87843000  1.0
  O  O59  1  0.92684000  0.42062000  0.62158000  1.0
  O  O60  1  0.03220000  0.27205000  0.44272000  1.0
  O  O61  1  0.03217000  0.77202000  0.05728000  1.0
  O  O62  1  0.96782000  0.72797000  0.55727000  1.0
  O  O63  1  0.96780000  0.22793000  0.94272000  1.0
  O  O64  1  0.66745000  0.32399000  0.37196000  1.0
  O  O65  1  0.66744000  0.82398000  0.12804000  1.0
  O  O66  1  0.33257000  0.67602000  0.62803000  1.0
  O  O67  1  0.33257000  0.17600000  0.87196000  1.0
