# generated using pymatgen
data_ZnH60C52S2(NO2)6
_symmetry_space_group_name_H-M   'P 1'
_cell_length_a   10.97940000
_cell_length_b   12.27210000
_cell_length_c   12.54130523
_cell_angle_alpha   60.93411535
_cell_angle_beta   76.19434893
_cell_angle_gamma   65.20280000
_symmetry_Int_Tables_number   1
_chemical_formula_structural   ZnH60C52S2(NO2)6
_chemical_formula_sum   'Zn1 H60 C52 S2 N6 O12'
_cell_volume   1339.52744936
_cell_formula_units_Z   1
loop_
 _symmetry_equiv_pos_site_id
 _symmetry_equiv_pos_as_xyz
  1  'x, y, z'
loop_
 _atom_site_type_symbol
 _atom_site_label
 _atom_site_symmetry_multiplicity
 _atom_site_fract_x
 _atom_site_fract_y
 _atom_site_fract_z
 _atom_site_occupancy
  Zn  Zn0  1  0.00000000  0.00000000  0.00000000  1.0
  H  H1  1  0.45247000  0.14624000  0.81822000  1.0
  H  H2  1  0.54754000  0.85376000  0.18178000  1.0
  H  H3  1  0.33752000  0.38871000  0.68994000  1.0
  H  H4  1  0.66248000  0.61129000  0.31006000  1.0
  H  H5  1  0.41090000  0.31224000  0.37444000  1.0
  H  H6  1  0.58910000  0.68776000  0.62556000  1.0
  H  H7  1  0.52737000  0.07374000  0.50030000  1.0
  H  H8  1  0.47263000  0.92627000  0.49969000  1.0
  H  H9  1  0.19514000  0.53956000  0.42796000  1.0
  H  H10  1  0.80486000  0.46044000  0.57204000  1.0
  H  H11  1  0.35254000  0.54735000  0.35437000  1.0
  H  H12  1  0.64745000  0.45265000  0.64563000  1.0
  H  H13  1  0.29745000  0.57592000  0.48691000  1.0
  H  H14  1  0.70255000  0.42408000  0.51309000  1.0
  H  H15  1  0.42035000  0.81400000  0.88148000  1.0
  H  H16  1  0.57965000  0.18600000  0.11852000  1.0
  H  H17  1  0.53458000  0.70496000  0.12845000  1.0
  H  H18  1  0.46542000  0.29503000  0.87155000  1.0
  H  H19  1  0.40761000  0.66548000  0.10701000  1.0
  H  H20  1  0.59239000  0.33452000  0.89299000  1.0
  H  H21  1  0.68569000  0.61824000  0.97640000  1.0
  H  H22  1  0.31430000  0.38176000  0.02360000  1.0
  H  H23  1  0.56227000  0.56449000  0.97187000  1.0
  H  H24  1  0.43773000  0.43550000  0.02814000  1.0
  H  H25  1  0.83401000  0.21892000  0.25175000  1.0
  H  H26  1  0.16599000  0.78108000  0.74826000  1.0
  H  H27  1  0.77801000  0.14899000  0.18389000  1.0
  H  H28  1  0.22199000  0.85101000  0.81612000  1.0
  H  H29  1  0.67554000  0.19615000  0.30140000  1.0
  H  H30  1  0.32446000  0.80385000  0.69861000  1.0
  H  H31  1  0.17198000  0.11314000  0.78023000  1.0
  H  H32  1  0.82802000  0.88687000  0.21977000  1.0
  H  H33  1  0.19257000  0.18449000  0.55650000  1.0
  H  H34  1  0.80743000  0.81551000  0.44350000  1.0
  H  H35  1  0.82713000  0.11343000  0.59338000  1.0
  H  H36  1  0.17287000  0.88656000  0.40662000  1.0
  H  H37  1  0.82385000  0.04202000  0.81551000  1.0
  H  H38  1  0.17615000  0.95798000  0.18448000  1.0
  H  H39  1  0.11011000  0.13513000  0.39301000  1.0
  H  H40  1  0.88990000  0.86487000  0.60699000  1.0
  H  H41  1  0.93295000  0.19195000  0.39493000  1.0
  H  H42  1  0.06706000  0.80805000  0.60507000  1.0
  H  H43  1  0.09128000  0.35503000  0.37918000  1.0
  H  H44  1  0.90872000  0.64498000  0.62081000  1.0
  H  H45  1  0.91637000  0.41332000  0.36497000  1.0
  H  H46  1  0.08362000  0.58668000  0.63503000  1.0
  H  H47  1  0.13449000  0.31830000  0.19252000  1.0
  H  H48  1  0.86551000  0.68170000  0.80748000  1.0
  H  H49  1  0.95952000  0.37864000  0.17500000  1.0
  H  H50  1  0.04048000  0.62137000  0.82499000  1.0
  H  H51  1  0.22212000  0.48136000  0.21267000  1.0
  H  H52  1  0.77788000  0.51864000  0.78733000  1.0
  H  H53  1  0.19814000  0.72128000  0.12076000  1.0
  H  H54  1  0.80187000  0.27871000  0.87924000  1.0
  H  H55  1  0.83705000  0.84854000  0.97336000  1.0
  H  H56  1  0.16295000  0.15146000  0.02664000  1.0
  H  H57  1  0.84386000  0.61574000  0.06043000  1.0
  H  H58  1  0.15614000  0.38426000  0.93957000  1.0
  H  H59  1  0.58350000  0.92365000  0.93467000  1.0
  H  H60  1  0.41650000  0.07634000  0.06533000  1.0
  C  C61  1  0.44275000  0.18361000  0.72088000  1.0
  C  C62  1  0.55725000  0.81639000  0.27912000  1.0
  C  C63  1  0.37773000  0.31938000  0.64850000  1.0
  C  C64  1  0.62227000  0.68062000  0.35150000  1.0
  C  C65  1  0.36658000  0.36876000  0.52269000  1.0
  C  C66  1  0.63342000  0.63125000  0.47730000  1.0
  C  C67  1  0.41952000  0.27767000  0.47154000  1.0
  C  C68  1  0.58048000  0.72233000  0.52846000  1.0
  C  C69  1  0.48512000  0.14208000  0.54245000  1.0
  C  C70  1  0.51488000  0.85792000  0.45755000  1.0
  C  C71  1  0.49763000  0.09559000  0.66711000  1.0
  C  C72  1  0.50237000  0.90442000  0.33289000  1.0
  C  C73  1  0.29967000  0.51548000  0.44415000  1.0
  C  C74  1  0.70033000  0.48452000  0.55585000  1.0
  C  C75  1  0.45054000  0.82854000  0.94942000  1.0
  C  C76  1  0.54946000  0.17146000  0.05058000  1.0
  C  C77  1  0.32795000  0.92599000  0.98752000  1.0
  C  C78  1  0.67205000  0.07401000  0.01248000  1.0
  C  C79  1  0.49600000  0.69373000  0.06262000  1.0
  C  C80  1  0.50400000  0.30627000  0.93738000  1.0
  C  C81  1  0.60240000  0.58427000  0.03015000  1.0
  C  C82  1  0.39759000  0.41573000  0.96985000  1.0
  C  C83  1  0.66150000  0.45676000  0.14136000  1.0
  C  C84  1  0.33851000  0.54324000  0.85865000  1.0
  C  C85  1  0.74682000  0.21944000  0.22323000  1.0
  C  C86  1  0.25317000  0.78057000  0.77677000  1.0
  C  C87  1  0.09800000  0.11448000  0.73474000  1.0
  C  C88  1  0.90200000  0.88553000  0.26526000  1.0
  C  C89  1  0.10820000  0.15467000  0.60985000  1.0
  C  C90  1  0.89180000  0.84533000  0.39015000  1.0
  C  C91  1  0.01037000  0.15574000  0.55438000  1.0
  C  C92  1  0.98963000  0.84425000  0.44563000  1.0
  C  C93  1  0.90633000  0.11527000  0.63011000  1.0
  C  C94  1  0.09367000  0.88472000  0.36989000  1.0
  C  C95  1  0.90383000  0.07459000  0.75504000  1.0
  C  C96  1  0.09617000  0.92540000  0.24496000  1.0
  C  C97  1  0.01696000  0.20079000  0.41935000  1.0
  C  C98  1  0.98304000  0.79920000  0.58065000  1.0
  C  C99  1  0.01345000  0.34468000  0.34712000  1.0
  C  C100  1  0.98655000  0.65532000  0.65288000  1.0
  C  C101  1  0.03687000  0.38706000  0.20917000  1.0
  C  C102  1  0.96313000  0.61294000  0.79083000  1.0
  C  C103  1  0.03363000  0.52782000  0.14467000  1.0
  C  C104  1  0.96637000  0.47218000  0.85532000  1.0
  C  C105  1  0.13501000  0.55982000  0.15980000  1.0
  C  C106  1  0.86499000  0.44017000  0.84020000  1.0
  C  C107  1  0.12286000  0.69246000  0.10894000  1.0
  C  C108  1  0.87714000  0.30754000  0.89106000  1.0
  C  C109  1  0.92224000  0.76450000  0.02496000  1.0
  C  C110  1  0.07777000  0.23550000  0.97504000  1.0
  C  C111  1  0.92635000  0.63399000  0.07454000  1.0
  C  C112  1  0.07365000  0.36600000  0.92547000  1.0
  S  S113  1  0.60285000  0.92696000  0.75055000  1.0
  S  S114  1  0.39715000  0.07304000  0.24945000  1.0
  N  N115  1  0.56207000  0.87682000  0.89521000  1.0
  N  N116  1  0.43793000  0.12319000  0.10479000  1.0
  N  N117  1  0.99834000  0.07355000  0.80709000  1.0
  N  N118  1  0.00165000  0.92645000  0.19291000  1.0
  N  N119  1  0.01816000  0.79434000  0.04281000  1.0
  N  N120  1  0.98184000  0.20567000  0.95718000  1.0
  O  O121  1  0.21555000  0.92325000  0.98027000  1.0
  O  O122  1  0.78446000  0.07675000  0.01973000  1.0
  O  O123  1  0.34721000  0.99429000  0.02650000  1.0
  O  O124  1  0.65279000  0.00571000  0.97350000  1.0
  O  O125  1  0.58095000  0.84454000  0.70977000  1.0
  O  O126  1  0.41905000  0.15546000  0.29023000  1.0
  O  O127  1  0.73643000  0.93027000  0.73660000  1.0
  O  O128  1  0.26357000  0.06973000  0.26340000  1.0
  O  O129  1  0.69029000  0.44988000  0.23361000  1.0
  O  O130  1  0.30972000  0.55013000  0.76638000  1.0
  O  O131  1  0.68201000  0.34861000  0.12576000  1.0
  O  O132  1  0.31799000  0.65138000  0.87425000  1.0
