# generated using pymatgen
data_ZnH20(C7N)4
_symmetry_space_group_name_H-M   'P 1'
_cell_length_a   19.83540000
_cell_length_b   20.58390000
_cell_length_c   21.12910000
_cell_angle_alpha   109.21100000
_cell_angle_beta   102.70400000
_cell_angle_gamma   113.46900000
_symmetry_Int_Tables_number   1
_chemical_formula_structural   ZnH20(C7N)4
_chemical_formula_sum   'Zn4 H80 C112 N16'
_cell_volume   6831.65491175
_cell_formula_units_Z   4
loop_
 _symmetry_equiv_pos_site_id
 _symmetry_equiv_pos_as_xyz
  1  'x, y, z'
loop_
 _atom_site_type_symbol
 _atom_site_label
 _atom_site_symmetry_multiplicity
 _atom_site_fract_x
 _atom_site_fract_y
 _atom_site_fract_z
 _atom_site_occupancy
  Zn  Zn0  1  0.59471000  0.60633000  0.49601000  1.0
  Zn  Zn1  1  0.39519000  0.37814000  0.48957000  1.0
  Zn  Zn2  1  0.49132000  0.58291000  0.60007000  1.0
  Zn  Zn3  1  0.50349000  0.40126000  0.38201000  1.0
  H  H4  1  0.78453000  0.75597000  0.63595000  1.0
  H  H5  1  0.21911000  0.34590000  0.51406000  1.0
  H  H6  1  0.50364000  0.76665000  0.64916000  1.0
  H  H7  1  0.35626000  0.23207000  0.23394000  1.0
  H  H8  1  0.22927000  0.27973000  0.36894000  1.0
  H  H9  1  0.55614000  0.72057000  0.45588000  1.0
  H  H10  1  0.34099000  0.59586000  0.56474000  1.0
  H  H11  1  0.39797000  0.22167000  0.50796000  1.0
  H  H12  1  0.94223000  0.50609000  0.49241000  1.0
  H  H13  1  0.96955000  0.37916000  0.48869000  1.0
  H  H14  1  0.91236000  0.37631000  0.60068000  1.0
  H  H15  1  0.71929000  0.15806000  0.59208000  1.0
  H  H16  1  0.67440000  0.10692000  0.69307000  1.0
  H  H17  1  0.63424000  0.99575000  0.48253000  1.0
  H  H18  1  0.49397000  0.00651000  0.44000000  1.0
  H  H19  1  0.44890000  0.95491000  0.54170000  1.0
  H  H20  1  0.53480000  0.11771000  0.65135000  1.0
  H  H21  1  0.53157000  0.60171000  0.18510000  1.0
  H  H22  1  0.53304000  0.57550000  0.76300000  1.0
  H  H23  1  0.66817000  0.60074000  0.83919000  1.0
  H  H24  1  0.54065000  0.34296000  0.73120000  1.0
  H  H25  1  0.71392000  0.49847000  0.14097000  1.0
  H  H26  1  0.71973000  0.60317000  0.95740000  1.0
  H  H27  1  0.67874000  0.50762000  0.24759000  1.0
  H  H28  1  0.63948000  0.57126000  0.01145000  1.0
  H  H29  1  0.56909000  0.59578000  0.07996000  1.0
  H  H30  1  0.59088000  0.34535000  0.85036000  1.0
  H  H31  1  0.77526000  0.65816000  0.81378000  1.0
  H  H32  1  0.68710000  0.40423000  0.41124000  1.0
  H  H33  1  0.27322000  0.09734000  0.19681000  1.0
  H  H34  1  0.10362000  0.15367000  0.26090000  1.0
  H  H35  1  0.99759000  0.92942000  0.89094000  1.0
  H  H36  1  0.16250000  0.96074000  0.10616000  1.0
  H  H37  1  0.88616000  0.85541000  0.76874000  1.0
  H  H38  1  0.06189000  0.94181000  0.00323000  1.0
  H  H39  1  0.88343000  0.73440000  0.93757000  1.0
  H  H40  1  0.99392000  0.01518000  0.17374000  1.0
  H  H41  1  0.53188000  0.37479000  0.60862000  1.0
  H  H42  1  0.71517000  0.58326000  0.61039000  1.0
  H  H43  1  0.60183000  0.32448000  0.45580000  1.0
  H  H44  1  0.64907000  0.63510000  0.73745000  1.0
  H  H45  1  0.41118000  0.28432000  0.06708000  1.0
  H  H46  1  0.35751000  0.23763000  0.11142000  1.0
  H  H47  1  0.31229000  0.26635000  0.05200000  1.0
  H  H48  1  0.36106000  0.36621000  0.18347000  1.0
  H  H49  1  0.41511000  0.41178000  0.13924000  1.0
  H  H50  1  0.52523000  0.38791000  0.19098000  1.0
  H  H51  1  0.47256000  0.34754000  0.23846000  1.0
  H  H52  1  0.17321000  0.65703000  0.77479000  1.0
  H  H53  1  0.21775000  0.77657000  0.88971000  1.0
  H  H54  1  0.12130000  0.82065000  0.91337000  1.0
  H  H55  1  0.98024000  0.74401000  0.82033000  1.0
  H  H56  1  0.93601000  0.62498000  0.70473000  1.0
  H  H57  1  0.98891000  0.48845000  0.76653000  1.0
  H  H58  1  0.05147000  0.48431000  0.87920000  1.0
  H  H59  1  0.17897000  0.48169000  0.90451000  1.0
  H  H60  1  0.24297000  0.48284000  0.81541000  1.0
  H  H61  1  0.18020000  0.48673000  0.70234000  1.0
  H  H62  1  0.19462000  0.80633000  0.65130000  1.0
  H  H63  1  0.15846000  0.75757000  0.55424000  1.0
  H  H64  1  0.11338000  0.80764000  0.59702000  1.0
  H  H65  1  0.02563000  0.65945000  0.54710000  1.0
  H  H66  1  0.06231000  0.70806000  0.64346000  1.0
  H  H67  1  0.17133000  0.67361000  0.65254000  1.0
  H  H68  1  0.13444000  0.62410000  0.55597000  1.0
  H  H69  1  0.54397000  0.36491000  0.00201000  1.0
  H  H70  1  0.54460000  0.25371000  0.02410000  1.0
  H  H71  1  0.66267000  0.23520000  0.03358000  1.0
  H  H72  1  0.77814000  0.32668000  0.01803000  1.0
  H  H73  1  0.77617000  0.43652000  0.99412000  1.0
  H  H74  1  0.99265000  0.82816000  0.14722000  1.0
  H  H75  1  0.87137000  0.74264000  0.15998000  1.0
  H  H76  1  0.73890000  0.72409000  0.09569000  1.0
  H  H77  1  0.72820000  0.79145000  0.01789000  1.0
  H  H78  1  0.84911000  0.87470000  0.00352000  1.0
  H  H79  1  0.72656000  0.69652000  0.48497000  1.0
  H  H80  1  0.80542000  0.84484000  0.55503000  1.0
  H  H81  1  0.78029000  0.92647000  0.49871000  1.0
  H  H82  1  0.67579000  0.85858000  0.37192000  1.0
  H  H83  1  0.59334000  0.71034000  0.30389000  1.0
  C  C84  1  0.73959000  0.72122000  0.65118000  1.0
  C  C85  1  0.51378000  0.25415000  0.49232000  1.0
  C  C86  1  0.55275000  0.47337000  0.71221000  1.0
  C  C87  1  0.73135000  0.49498000  0.52866000  1.0
  C  C88  1  0.60014000  0.60576000  0.35331000  1.0
  C  C89  1  0.25994000  0.40588000  0.52422000  1.0
  C  C90  1  0.51343000  0.74209000  0.60039000  1.0
  C  C91  1  0.33690000  0.25569000  0.27575000  1.0
  C  C92  1  0.27170000  0.28029000  0.34385000  1.0
  C  C93  1  0.53971000  0.71809000  0.50113000  1.0
  C  C94  1  0.52479000  0.47402000  0.27965000  1.0
  C  C95  1  0.44205000  0.25339000  0.49033000  1.0
  C  C96  1  0.32220000  0.53371000  0.55001000  1.0
  C  C97  1  0.57439000  0.54705000  0.28164000  1.0
  C  C98  1  0.25257000  0.47439000  0.54761000  1.0
  C  C99  1  0.53968000  0.77829000  0.55756000  1.0
  C  C100  1  0.26271000  0.21995000  0.28089000  1.0
  C  C101  1  0.04228000  0.49146000  0.65977000  1.0
  C  C102  1  0.02636000  0.56250000  0.66228000  1.0
  C  C103  1  0.80207000  0.49828000  0.56533000  1.0
  C  C104  1  0.19172000  0.48242000  0.56685000  1.0
  C  C105  1  0.95409000  0.42969000  0.59944000  1.0
  C  C106  1  0.52624000  0.52785000  0.71528000  1.0
  C  C107  1  0.93799000  0.49935000  0.60068000  1.0
  C  C108  1  0.98484000  0.43148000  0.53782000  1.0
  C  C109  1  0.07381000  0.49381000  0.59708000  1.0
  C  C110  1  0.97175000  0.50166000  0.53978000  1.0
  C  C111  1  0.05846000  0.56464000  0.60003000  1.0
  C  C112  1  0.86443000  0.49889000  0.58940000  1.0
  C  C113  1  0.14011000  0.48936000  0.58605000  1.0
  C  C114  1  0.63404000  0.08466000  0.63672000  1.0
  C  C115  1  0.65907000  0.11241000  0.58062000  1.0
  C  C116  1  0.54488000  0.21271000  0.51792000  1.0
  C  C117  1  0.68212000  0.44786000  0.45292000  1.0
  C  C118  1  0.56124000  0.85630000  0.56864000  1.0
  C  C119  1  0.55637000  0.08963000  0.61362000  1.0
  C  C120  1  0.58079000  0.11800000  0.55679000  1.0
  C  C121  1  0.50851000  0.00085000  0.55239000  1.0
  C  C122  1  0.58602000  0.99394000  0.57537000  1.0
  C  C123  1  0.53370000  0.02732000  0.49611000  1.0
  C  C124  1  0.61167000  0.02328000  0.51951000  1.0
  C  C125  1  0.56880000  0.17539000  0.54114000  1.0
  C  C126  1  0.58014000  0.92386000  0.57752000  1.0
  C  C127  1  0.60097000  0.55314000  0.22292000  1.0
  C  C128  1  0.52499000  0.42489000  0.63659000  1.0
  C  C129  1  0.57237000  0.58000000  0.17617000  1.0
  C  C130  1  0.59317000  0.57625000  0.11688000  1.0
  C  C131  1  0.64124000  0.54338000  0.10055000  1.0
  C  C132  1  0.67376000  0.52089000  0.15006000  1.0
  C  C133  1  0.65390000  0.52595000  0.20992000  1.0
  C  C134  1  0.67901000  0.54584000  0.90816000  1.0
  C  C135  1  0.65004000  0.54432000  0.84139000  1.0
  C  C136  1  0.58009000  0.40031000  0.78071000  1.0
  C  C137  1  0.60865000  0.40163000  0.84794000  1.0
  C  C138  1  0.65321000  0.47418000  0.91363000  1.0
  C  C139  1  0.69571000  0.53912000  0.55479000  1.0
  C  C140  1  0.64996000  0.53218000  0.03172000  1.0
  C  C141  1  0.65906000  0.47546000  0.98498000  1.0
  C  C142  1  0.59567000  0.47153000  0.77693000  1.0
  C  C143  1  0.81973000  0.75296000  0.78350000  1.0
  C  C144  1  0.82253000  0.71903000  0.83152000  1.0
  C  C145  1  0.88397000  0.76164000  0.90118000  1.0
  C  C146  1  0.94640000  0.83997000  0.92528000  1.0
  C  C147  1  0.94798000  0.87002000  0.87414000  1.0
  C  C148  1  0.88559000  0.82822000  0.80522000  1.0
  C  C149  1  0.14956000  0.00334000  0.13987000  1.0
  C  C150  1  0.54643000  0.30666000  0.46386000  1.0
  C  C151  1  0.21162000  0.08055000  0.19026000  1.0
  C  C152  1  0.11738000  0.11143000  0.22787000  1.0
  C  C153  1  0.05536000  0.03333000  0.17870000  1.0
  C  C154  1  0.06956000  0.97917000  0.13079000  1.0
  C  C155  1  0.00700000  0.89538000  0.99992000  1.0
  C  C156  1  0.00157000  0.90601000  0.06531000  1.0
  C  C157  1  0.19654000  0.13760000  0.23301000  1.0
  C  C158  1  0.67024000  0.65796000  0.70197000  1.0
  C  C159  1  0.74883000  0.71286000  0.71553000  1.0
  C  C160  1  0.48372000  0.39150000  0.21727000  1.0
  C  C161  1  0.40423000  0.36635000  0.15844000  1.0
  C  C162  1  0.36930000  0.28426000  0.09370000  1.0
  C  C163  1  0.05153000  0.63310000  0.73099000  1.0
  C  C164  1  0.13106000  0.67669000  0.78408000  1.0
  C  C165  1  0.15601000  0.74381000  0.84901000  1.0
  C  C166  1  0.10200000  0.76848000  0.86236000  1.0
  C  C167  1  0.02288000  0.72550000  0.81024000  1.0
  C  C168  1  0.99790000  0.65841000  0.74516000  1.0
  C  C169  1  0.07982000  0.48717000  0.72595000  1.0
  C  C170  1  0.04429000  0.48646000  0.77671000  1.0
  C  C171  1  0.07965000  0.48442000  0.84029000  1.0
  C  C172  1  0.15127000  0.48313000  0.85466000  1.0
  C  C173  1  0.18707000  0.48385000  0.80473000  1.0
  C  C174  1  0.15176000  0.48595000  0.74098000  1.0
  C  C175  1  0.11605000  0.63993000  0.60180000  1.0
  C  C176  1  0.08083000  0.69337000  0.59774000  1.0
  C  C177  1  0.13995000  0.77044000  0.60013000  1.0
  C  C178  1  0.66026000  0.40872000  0.99727000  1.0
  C  C179  1  0.59510000  0.35610000  0.00532000  1.0
  C  C180  1  0.59579000  0.29401000  0.01807000  1.0
  C  C181  1  0.66182000  0.28344000  0.02317000  1.0
  C  C182  1  0.72653000  0.33475000  0.01433000  1.0
  C  C183  1  0.72549000  0.39650000  0.00090000  1.0
  C  C184  1  0.92894000  0.85644000  0.07367000  1.0
  C  C185  1  0.93446000  0.81964000  0.11851000  1.0
  C  C186  1  0.86636000  0.77173000  0.12577000  1.0
  C  C187  1  0.79185000  0.76107000  0.08944000  1.0
  C  C188  1  0.78594000  0.79870000  0.04586000  1.0
  C  C189  1  0.85383000  0.84584000  0.03794000  1.0
  C  C190  1  0.65273000  0.69307000  0.39035000  1.0
  C  C191  1  0.71360000  0.73218000  0.46110000  1.0
  C  C192  1  0.75896000  0.81553000  0.49997000  1.0
  C  C193  1  0.74525000  0.86131000  0.46824000  1.0
  C  C194  1  0.68656000  0.82316000  0.39714000  1.0
  C  C195  1  0.64053000  0.73981000  0.35851000  1.0
  N  N196  1  0.66167000  0.67472000  0.60392000  1.0
  N  N197  1  0.32891000  0.42452000  0.51517000  1.0
  N  N198  1  0.50014000  0.66733000  0.57156000  1.0
  N  N199  1  0.38557000  0.32989000  0.33193000  1.0
  N  N200  1  0.34639000  0.34588000  0.37527000  1.0
  N  N201  1  0.51662000  0.65181000  0.51032000  1.0
  N  N202  1  0.52042000  0.48849000  0.34542000  1.0
  N  N203  1  0.36782000  0.50327000  0.53089000  1.0
  N  N204  1  0.43383000  0.30173000  0.46323000  1.0
  N  N205  1  0.48599000  0.51289000  0.64730000  1.0
  N  N206  1  0.62331000  0.46378000  0.43600000  1.0
  N  N207  1  0.48525000  0.44903000  0.59798000  1.0
  N  N208  1  0.63164000  0.52109000  0.49896000  1.0
  N  N209  1  0.49858000  0.33519000  0.44702000  1.0
  N  N210  1  0.61855000  0.63541000  0.63527000  1.0
  N  N211  1  0.56739000  0.56871000  0.39054000  1.0
