# generated using pymatgen
data_NiH17C22N5O6
_symmetry_space_group_name_H-M   'P 1'
_cell_length_a   8.28363000
_cell_length_b   10.23040000
_cell_length_c   13.34068204
_cell_angle_alpha   75.98296744
_cell_angle_beta   72.04752780
_cell_angle_gamma   75.22800000
_symmetry_Int_Tables_number   1
_chemical_formula_structural   NiH17C22N5O6
_chemical_formula_sum   'Ni2 H34 C44 N10 O12'
_cell_volume   1023.37869999
_cell_formula_units_Z   2
loop_
 _symmetry_equiv_pos_site_id
 _symmetry_equiv_pos_as_xyz
  1  'x, y, z'
loop_
 _atom_site_type_symbol
 _atom_site_label
 _atom_site_symmetry_multiplicity
 _atom_site_fract_x
 _atom_site_fract_y
 _atom_site_fract_z
 _atom_site_occupancy
  Ni  Ni0  1  0.29904000  0.18998000  0.56521000  1.0
  Ni  Ni1  1  0.70073000  0.81004000  0.43493000  1.0
  H  H2  1  0.15554000  0.18547000  0.13573000  1.0
  H  H3  1  0.84430000  0.81430000  0.86439000  1.0
  H  H4  1  0.62555000  0.23052000  0.67011000  1.0
  H  H5  1  0.37425000  0.76964000  0.32991000  1.0
  H  H6  1  0.01949000  0.30802000  0.77561000  1.0
  H  H7  1  0.98056000  0.69221000  0.22420000  1.0
  H  H8  1  0.20741000  0.84356000  0.80605000  1.0
  H  H9  1  0.79306000  0.15630000  0.19415000  1.0
  H  H10  1  0.83685000  0.92222000  0.06982000  1.0
  H  H11  1  0.16323000  0.07791000  0.93001000  1.0
  H  H12  1  0.94593000  0.16164000  0.52655000  1.0
  H  H13  1  0.05385000  0.83841000  0.47346000  1.0
  H  H14  1  0.35988000  0.30413000  0.99355000  1.0
  H  H15  1  0.63985000  0.69583000  0.00652000  1.0
  H  H16  1  0.53658000  0.37573000  0.82123000  1.0
  H  H17  1  0.46330000  0.62441000  0.17868000  1.0
  H  H18  1  0.16728000  0.44134000  0.40142000  1.0
  H  H19  1  0.83306000  0.55830000  0.59865000  1.0
  H  H20  1  0.37907000  0.63142000  0.53856000  1.0
  H  H21  1  0.62210000  0.36890000  0.46137000  1.0
  H  H22  1  0.20948000  0.40843000  0.85768000  1.0
  H  H23  1  0.79017000  0.59163000  0.14196000  1.0
  H  H24  1  0.89239000  0.09833000  0.90535000  1.0
  H  H25  1  0.10747000  0.90191000  0.09453000  1.0
  H  H26  1  0.22662000  0.02499000  0.21190000  1.0
  H  H27  1  0.77344000  0.97475000  0.78808000  1.0
  H  H28  1  0.70237000  0.41017000  0.86238000  1.0
  H  H29  1  0.29742000  0.58995000  0.13765000  1.0
  H  H30  1  0.13326000  0.40584000  0.20731000  1.0
  H  H31  1  0.86656000  0.59384000  0.79284000  1.0
  H  H32  1  0.33597000  0.02247000  0.37764000  1.0
  H  H33  1  0.66410000  0.97722000  0.62243000  1.0
  H  H34  1  0.54763000  0.93521000  0.19564000  1.0
  H  H35  1  0.45248000  0.06470000  0.80422000  1.0
  C  C36  1  0.19724000  0.34988000  0.36655000  1.0
  C  C37  1  0.80292000  0.64979000  0.63352000  1.0
  C  C38  1  0.34369000  0.88014000  0.58772000  1.0
  C  C39  1  0.65630000  0.12011000  0.41253000  1.0
  C  C40  1  0.23670000  0.50314000  0.80335000  1.0
  C  C41  1  0.76329000  0.49694000  0.19649000  1.0
  C  C42  1  0.28393000  0.13145000  0.35790000  1.0
  C  C43  1  0.71613000  0.86822000  0.64217000  1.0
  C  C44  1  0.17962000  0.33380000  0.27131000  1.0
  C  C45  1  0.82041000  0.66589000  0.72878000  1.0
  C  C46  1  0.29651000  0.50680000  0.69294000  1.0
  C  C47  1  0.70390000  0.49334000  0.30690000  1.0
  C  C48  1  0.23335000  0.74969000  0.77416000  1.0
  C  C49  1  0.76705000  0.25026000  0.22595000  1.0
  C  C50  1  0.30283000  0.75012000  0.66426000  1.0
  C  C51  1  0.69766000  0.24995000  0.33584000  1.0
  C  C52  1  0.56868000  0.01460000  0.12450000  1.0
  C  C53  1  0.43132000  0.98536000  0.87539000  1.0
  C  C54  1  0.33022000  0.62968000  0.62430000  1.0
  C  C55  1  0.67050000  0.37046000  0.37565000  1.0
  C  C56  1  0.43334000  0.12109000  0.10264000  1.0
  C  C57  1  0.56660000  0.87882000  0.89731000  1.0
  C  C58  1  0.25406000  0.12844000  0.17776000  1.0
  C  C59  1  0.74593000  0.87132000  0.82225000  1.0
  C  C60  1  0.76389000  0.10647000  0.96102000  1.0
  C  C61  1  0.23599000  0.89368000  0.03888000  1.0
  C  C62  1  0.20315000  0.62575000  0.84130000  1.0
  C  C63  1  0.79700000  0.37419000  0.15867000  1.0
  C  C64  1  0.63006000  0.21491000  0.93937000  1.0
  C  C65  1  0.36972000  0.78517000  0.06059000  1.0
  C  C66  1  0.46546000  0.22095000  0.01055000  1.0
  C  C67  1  0.53435000  0.77904000  0.98944000  1.0
  C  C68  1  0.73316000  0.00743000  0.05356000  1.0
  C  C69  1  0.26682000  0.99265000  0.94631000  1.0
  C  C70  1  0.31656000  0.38139000  0.64788000  1.0
  C  C71  1  0.68351000  0.61875000  0.35206000  1.0
  C  C72  1  0.75510000  0.23510000  0.66985000  1.0
  C  C73  1  0.24474000  0.76503000  0.33016000  1.0
  C  C74  1  0.65846000  0.32872000  0.84311000  1.0
  C  C75  1  0.34135000  0.67141000  0.15688000  1.0
  C  C76  1  0.95890000  0.27885000  0.72526000  1.0
  C  C77  1  0.04099000  0.72133000  0.27465000  1.0
  C  C78  1  0.91415000  0.20189000  0.59978000  1.0
  C  C79  1  0.08565000  0.79821000  0.40022000  1.0
  N  N80  1  0.23395000  0.19517000  0.26757000  1.0
  N  N81  1  0.76605000  0.80451000  0.73251000  1.0
  N  N82  1  0.26261000  0.22278000  0.41935000  1.0
  N  N83  1  0.73751000  0.77688000  0.58072000  1.0
  N  N84  1  0.12904000  0.62385000  0.95596000  1.0
  N  N85  1  0.87085000  0.37600000  0.04399000  1.0
  N  N86  1  0.78590000  0.28446000  0.74862000  1.0
  N  N87  1  0.21397000  0.71573000  0.25136000  1.0
  N  N88  1  0.03972000  0.22976000  0.63513000  1.0
  N  N89  1  0.96012000  0.77037000  0.36482000  1.0
  O  O90  1  0.42650000  0.87043000  0.49119000  1.0
  O  O91  1  0.57306000  0.13012000  0.50892000  1.0
  O  O92  1  0.03116000  0.72928000  0.98574000  1.0
  O  O93  1  0.96871000  0.27059000  0.01421000  1.0
  O  O94  1  0.28623000  0.98965000  0.62707000  1.0
  O  O95  1  0.71372000  0.01045000  0.37338000  1.0
  O  O96  1  0.16655000  0.51571000  0.01877000  1.0
  O  O97  1  0.83317000  0.48411000  0.98117000  1.0
  O  O98  1  0.33125000  0.26299000  0.70720000  1.0
  O  O99  1  0.66870000  0.73723000  0.29288000  1.0
  O  O100  1  0.31139000  0.39724000  0.55104000  1.0
  O  O101  1  0.68842000  0.60279000  0.44898000  1.0
