# generated using pymatgen
data_MnH16C24N2O5
_symmetry_space_group_name_H-M   'P 1'
_cell_length_a   10.66830000
_cell_length_b   10.82470000
_cell_length_c   11.00920000
_cell_angle_alpha   116.27000000
_cell_angle_beta   114.13900000
_cell_angle_gamma   95.03720000
_symmetry_Int_Tables_number   1
_chemical_formula_structural   MnH16C24N2O5
_chemical_formula_sum   'Mn2 H32 C48 N4 O10'
_cell_volume   982.62498513
_cell_formula_units_Z   2
loop_
 _symmetry_equiv_pos_site_id
 _symmetry_equiv_pos_as_xyz
  1  'x, y, z'
loop_
 _atom_site_type_symbol
 _atom_site_label
 _atom_site_symmetry_multiplicity
 _atom_site_fract_x
 _atom_site_fract_y
 _atom_site_fract_z
 _atom_site_occupancy
  Mn  Mn0  1  0.78945000  0.38405000  0.93029000  1.0
  Mn  Mn1  1  0.21055000  0.61595000  0.06971000  1.0
  H  H2  1  0.04532000  0.42041000  0.55501000  1.0
  H  H3  1  0.95468000  0.57959000  0.44499000  1.0
  H  H4  1  0.89908000  0.28357000  0.26130000  1.0
  H  H5  1  0.10092000  0.71643000  0.73870000  1.0
  H  H6  1  0.64453000  0.13001000  0.12281000  1.0
  H  H7  1  0.35547000  0.86999000  0.87719000  1.0
  H  H8  1  0.66972000  0.25820000  0.56578000  1.0
  H  H9  1  0.33028000  0.74180000  0.43422000  1.0
  H  H10  1  0.51421000  0.36761000  0.35636000  1.0
  H  H11  1  0.48579000  0.63240000  0.64364000  1.0
  H  H12  1  0.30208000  0.45414000  0.33071000  1.0
  H  H13  1  0.69792000  0.54586000  0.66930000  1.0
  H  H14  1  0.05991000  0.28009000  0.21618000  1.0
  H  H15  1  0.94010000  0.71991000  0.78383000  1.0
  H  H16  1  0.03364000  0.02006000  0.13571000  1.0
  H  H17  1  0.96635000  0.97994000  0.86429000  1.0
  H  H18  1  0.53527000  0.08742000  0.63466000  1.0
  H  H19  1  0.46473000  0.91258000  0.36533000  1.0
  H  H20  1  0.26610000  0.99809000  0.45168000  1.0
  H  H21  1  0.73390000  0.00191000  0.54831000  1.0
  H  H22  1  0.13121000  0.17876000  0.49556000  1.0
  H  H23  1  0.86879000  0.82124000  0.50444000  1.0
  H  H24  1  0.26994000  0.43750000  0.70995000  1.0
  H  H25  1  0.73006000  0.56250000  0.29005000  1.0
  H  H26  1  0.39342000  0.64353000  0.90275000  1.0
  H  H27  1  0.60658000  0.35647000  0.09725000  1.0
  H  H28  1  0.55944000  0.89407000  0.10416000  1.0
  H  H29  1  0.44055000  0.10592000  0.89584000  1.0
  H  H30  1  0.83086000  0.94478000  0.21488000  1.0
  H  H31  1  0.16914000  0.05522000  0.78512000  1.0
  H  H32  1  0.92018000  0.73260000  0.12620000  1.0
  H  H33  1  0.07983000  0.26740000  0.87380000  1.0
  C  C34  1  0.95061000  0.43823000  0.75394000  1.0
  C  C35  1  0.04940000  0.56178000  0.24606000  1.0
  C  C36  1  0.86716000  0.34810000  0.57858000  1.0
  C  C37  1  0.13284000  0.65190000  0.42143000  1.0
  C  C38  1  0.93244000  0.35250000  0.49233000  1.0
  C  C39  1  0.06757000  0.64750000  0.50767000  1.0
  C  C40  1  0.85189000  0.27557000  0.32942000  1.0
  C  C41  1  0.14811000  0.72442000  0.67058000  1.0
  C  C42  1  0.70669000  0.19001000  0.25025000  1.0
  C  C43  1  0.29331000  0.80999000  0.74975000  1.0
  C  C44  1  0.64348000  0.18362000  0.33682000  1.0
  C  C45  1  0.35652000  0.81638000  0.66318000  1.0
  C  C46  1  0.72135000  0.26253000  0.49983000  1.0
  C  C47  1  0.27865000  0.73747000  0.50017000  1.0
  C  C48  1  0.39022000  0.14402000  0.25183000  1.0
  C  C49  1  0.60978000  0.85598000  0.74818000  1.0
  C  C50  1  0.40831000  0.29173000  0.30686000  1.0
  C  C51  1  0.59169000  0.70827000  0.69314000  1.0
  C  C52  1  0.28924000  0.34015000  0.29380000  1.0
  C  C53  1  0.71076000  0.65986000  0.70620000  1.0
  C  C54  1  0.15348000  0.24271000  0.23024000  1.0
  C  C55  1  0.84653000  0.75729000  0.76977000  1.0
  C  C56  1  0.13809000  0.09693000  0.18252000  1.0
  C  C57  1  0.86191000  0.90308000  0.81748000  1.0
  C  C58  1  0.25469000  0.04436000  0.18945000  1.0
  C  C59  1  0.74531000  0.95564000  0.81055000  1.0
  C  C60  1  0.23440000  0.88609000  0.13244000  1.0
  C  C61  1  0.76560000  0.11391000  0.86756000  1.0
  C  C62  1  0.47259000  0.16197000  0.64545000  1.0
  C  C63  1  0.52741000  0.83803000  0.35454000  1.0
  C  C64  1  0.32277000  0.11213000  0.54617000  1.0
  C  C65  1  0.67723000  0.88787000  0.45382000  1.0
  C  C66  1  0.24867000  0.21274000  0.56970000  1.0
  C  C67  1  0.75133000  0.78726000  0.43029000  1.0
  C  C68  1  0.32633000  0.35801000  0.68873000  1.0
  C  C69  1  0.67367000  0.64199000  0.31126000  1.0
  C  C70  1  0.47734000  0.40007000  0.78178000  1.0
  C  C71  1  0.52266000  0.59992000  0.21822000  1.0
  C  C72  1  0.56840000  0.55313000  0.90677000  1.0
  C  C73  1  0.43160000  0.44687000  0.09323000  1.0
  C  C74  1  0.51019000  0.66514000  0.95249000  1.0
  C  C75  1  0.48981000  0.33485000  0.04751000  1.0
  C  C76  1  0.60436000  0.80722000  0.06576000  1.0
  C  C77  1  0.39563000  0.19277000  0.93423000  1.0
  C  C78  1  0.75395000  0.83445000  0.12854000  1.0
  C  C79  1  0.24604000  0.16554000  0.87146000  1.0
  C  C80  1  0.80409000  0.71687000  0.08003000  1.0
  C  C81  1  0.19591000  0.28313000  0.91997000  1.0
  N  N82  1  0.54878000  0.30188000  0.76007000  1.0
  N  N83  1  0.45122000  0.69812000  0.23992000  1.0
  N  N84  1  0.71348000  0.57943000  0.97383000  1.0
  N  N85  1  0.28652000  0.42058000  0.02618000  1.0
  O  O86  1  0.88130000  0.45097000  0.82661000  1.0
  O  O87  1  0.11871000  0.54903000  0.17339000  1.0
  O  O88  1  0.08716000  0.50183000  0.82157000  1.0
  O  O89  1  0.91284000  0.49818000  0.17844000  1.0
  O  O90  1  0.50242000  0.08836000  0.25580000  1.0
  O  O91  1  0.49758000  0.91165000  0.74421000  1.0
  O  O92  1  0.27842000  0.81487000  0.04022000  1.0
  O  O93  1  0.72158000  0.18513000  0.95979000  1.0
  O  O94  1  0.17327000  0.82643000  0.18158000  1.0
  O  O95  1  0.82673000  0.17357000  0.81842000  1.0
