# generated using pymatgen
data_CuH8C10(NCl)2
_symmetry_space_group_name_H-M   'P 1'
_cell_length_a   7.94498000
_cell_length_b   8.72142000
_cell_length_c   8.72484980
_cell_angle_alpha   62.44116765
_cell_angle_beta   72.64678278
_cell_angle_gamma   72.67700000
_symmetry_Int_Tables_number   1
_chemical_formula_structural   CuH8C10(NCl)2
_chemical_formula_sum   'Cu2 H16 C20 N4 Cl4'
_cell_volume   502.36695298
_cell_formula_units_Z   2
loop_
 _symmetry_equiv_pos_site_id
 _symmetry_equiv_pos_as_xyz
  1  'x, y, z'
loop_
 _atom_site_type_symbol
 _atom_site_label
 _atom_site_symmetry_multiplicity
 _atom_site_fract_x
 _atom_site_fract_y
 _atom_site_fract_z
 _atom_site_occupancy
  Cu  Cu0  1  0.24979000  0.43735000  0.56281000  1.0
  Cu  Cu1  1  0.75021000  0.56264000  0.43719000  1.0
  H  H2  1  0.89804000  0.55699000  0.77819000  1.0
  H  H3  1  0.60177000  0.22267000  0.44256000  1.0
  H  H4  1  0.10196000  0.44301000  0.22180000  1.0
  H  H5  1  0.39822000  0.77732000  0.55744000  1.0
  H  H6  1  0.72968000  0.42304000  0.09173000  1.0
  H  H7  1  0.77008000  0.90904000  0.57582000  1.0
  H  H8  1  0.27031000  0.57697000  0.90826000  1.0
  H  H9  1  0.22992000  0.09096000  0.42418000  1.0
  H  H10  1  0.13964000  0.95625000  0.17049000  1.0
  H  H11  1  0.36085000  0.82949000  0.04326000  1.0
  H  H12  1  0.86036000  0.04374000  0.82952000  1.0
  H  H13  1  0.63916000  0.17051000  0.95675000  1.0
  H  H14  1  0.86262000  0.11921000  0.29038000  1.0
  H  H15  1  0.63750000  0.70996000  0.87954000  1.0
  H  H16  1  0.13738000  0.88079000  0.70962000  1.0
  H  H17  1  0.36251000  0.29006000  0.12046000  1.0
  C  C18  1  0.16775000  0.17259000  0.91159000  1.0
  C  C19  1  0.33252000  0.08861000  0.82728000  1.0
  C  C20  1  0.83224000  0.82741000  0.08842000  1.0
  C  C21  1  0.66748000  0.91138000  0.17273000  1.0
  C  C22  1  0.94560000  0.42498000  0.87104000  1.0
  C  C23  1  0.55428000  0.12967000  0.57452000  1.0
  C  C24  1  0.05439000  0.57504000  0.12896000  1.0
  C  C25  1  0.44571000  0.87032000  0.42548000  1.0
  C  C26  1  0.85473000  0.35004000  0.04378000  1.0
  C  C27  1  0.64523000  0.95691000  0.64908000  1.0
  C  C28  1  0.14528000  0.64995000  0.95622000  1.0
  C  C29  1  0.35477000  0.04308000  0.35092000  1.0
  C  C30  1  0.08404000  0.08979000  0.08617000  1.0
  C  C31  1  0.41632000  0.91399000  0.90971000  1.0
  C  C32  1  0.91597000  0.91021000  0.91383000  1.0
  C  C33  1  0.58368000  0.08602000  0.09030000  1.0
  C  C34  1  0.92690000  0.18087000  0.15335000  1.0
  C  C35  1  0.57322000  0.84705000  0.81821000  1.0
  C  C36  1  0.07310000  0.81912000  0.84666000  1.0
  C  C37  1  0.42679000  0.15296000  0.18179000  1.0
  N  N38  1  0.09982000  0.33967000  0.80758000  1.0
  N  N39  1  0.40015000  0.19284000  0.66016000  1.0
  N  N40  1  0.90018000  0.66033000  0.19242000  1.0
  N  N41  1  0.59985000  0.80715000  0.33984000  1.0
  Cl  Cl42  1  0.07323000  0.70844000  0.48617000  1.0
  Cl  Cl43  1  0.42600000  0.51433000  0.29149000  1.0
  Cl  Cl44  1  0.92678000  0.29157000  0.51381000  1.0
  Cl  Cl45  1  0.57400000  0.48567000  0.70850000  1.0
