# generated using pymatgen
data_NpH22C22(NO5)2
_symmetry_space_group_name_H-M   'P 1'
_cell_length_a   9.58948000
_cell_length_b   9.58952000
_cell_length_c   13.34290000
_cell_angle_alpha   80.73900000
_cell_angle_beta   80.73930000
_cell_angle_gamma   73.82570000
_symmetry_Int_Tables_number   1
_chemical_formula_structural   NpH22C22(NO5)2
_chemical_formula_sum   'Np2 H44 C44 N4 O20'
_cell_volume   1154.31046387
_cell_formula_units_Z   2
loop_
 _symmetry_equiv_pos_site_id
 _symmetry_equiv_pos_as_xyz
  1  'x, y, z'
loop_
 _atom_site_type_symbol
 _atom_site_label
 _atom_site_symmetry_multiplicity
 _atom_site_fract_x
 _atom_site_fract_y
 _atom_site_fract_z
 _atom_site_occupancy
  Np  Np0  1  0.62949000  0.37050000  0.75000000  1.0
  Np  Np1  1  0.37048000  0.62952000  0.25000000  1.0
  H  H2  1  0.05039000  0.01206000  0.90002000  1.0
  H  H3  1  0.98795000  0.94961000  0.59997000  1.0
  H  H4  1  0.94958000  0.98796000  0.09998000  1.0
  H  H5  1  0.01204000  0.05042000  0.40002000  1.0
  H  H6  1  0.27239000  0.79835000  0.89829000  1.0
  H  H7  1  0.20165000  0.72761000  0.60171000  1.0
  H  H8  1  0.72758000  0.20166000  0.10171000  1.0
  H  H9  1  0.79834000  0.27242000  0.39828000  1.0
  H  H10  1  0.54553000  0.23901000  0.42309000  1.0
  H  H11  1  0.76099000  0.45447000  0.07692000  1.0
  H  H12  1  0.45448000  0.76098000  0.57692000  1.0
  H  H13  1  0.23902000  0.54552000  0.92308000  1.0
  H  H14  1  0.49793000  0.07233000  0.31226000  1.0
  H  H15  1  0.92767000  0.50207000  0.18774000  1.0
  H  H16  1  0.50209000  0.92766000  0.68775000  1.0
  H  H17  1  0.07234000  0.49791000  0.81225000  1.0
  H  H18  1  0.67493000  0.50448000  0.47443000  1.0
  H  H19  1  0.49552000  0.32507000  0.02558000  1.0
  H  H20  1  0.32509000  0.49550000  0.52557000  1.0
  H  H21  1  0.50450000  0.67491000  0.97443000  1.0
  H  H22  1  0.89146000  0.65813000  0.60454000  1.0
  H  H23  1  0.34187000  0.10854000  0.89546000  1.0
  H  H24  1  0.10855000  0.34185000  0.39545000  1.0
  H  H25  1  0.65815000  0.89145000  0.10454000  1.0
  H  H26  1  0.80235000  0.82919000  0.53907000  1.0
  H  H27  1  0.17081000  0.19765000  0.96093000  1.0
  H  H28  1  0.19767000  0.17079000  0.46093000  1.0
  H  H29  1  0.82921000  0.80234000  0.03907000  1.0
  H  H30  1  0.97857000  0.73101000  0.48479000  1.0
  H  H31  1  0.26899000  0.02143000  0.01521000  1.0
  H  H32  1  0.02145000  0.26898000  0.51520000  1.0
  H  H33  1  0.73102000  0.97855000  0.98479000  1.0
  H  H34  1  0.94329000  0.63648000  0.33181000  1.0
  H  H35  1  0.36352000  0.05671000  0.16820000  1.0
  H  H36  1  0.05673000  0.36351000  0.66818000  1.0
  H  H37  1  0.63649000  0.94327000  0.83181000  1.0
  H  H38  1  0.78338000  0.78650000  0.33630000  1.0
  H  H39  1  0.21349000  0.21662000  0.16371000  1.0
  H  H40  1  0.21663000  0.21349000  0.66370000  1.0
  H  H41  1  0.78652000  0.78337000  0.83630000  1.0
  H  H42  1  0.76621000  0.60695000  0.33083000  1.0
  H  H43  1  0.39304000  0.23378000  0.16918000  1.0
  H  H44  1  0.23380000  0.39303000  0.66916000  1.0
  H  H45  1  0.60697000  0.76620000  0.83083000  1.0
  C  C46  1  0.87800000  0.12201000  0.75000000  1.0
  C  C47  1  0.12198000  0.87802000  0.25000000  1.0
  C  C48  1  0.00725000  0.99276000  0.74999000  1.0
  C  C49  1  0.99273000  0.00727000  0.25000000  1.0
  C  C50  1  0.08621000  0.95020000  0.83455000  1.0
  C  C51  1  0.04980000  0.91379000  0.66544000  1.0
  C  C52  1  0.91376000  0.04982000  0.16545000  1.0
  C  C53  1  0.95018000  0.08624000  0.33455000  1.0
  C  C54  1  0.20915000  0.83170000  0.83350000  1.0
  C  C55  1  0.16830000  0.79086000  0.66649000  1.0
  C  C56  1  0.79083000  0.16832000  0.16650000  1.0
  C  C57  1  0.83169000  0.20917000  0.33350000  1.0
  C  C58  1  0.24952000  0.75048000  0.75000000  1.0
  C  C59  1  0.75046000  0.24954000  0.25000000  1.0
  C  C60  1  0.37883000  0.62116000  0.75000000  1.0
  C  C61  1  0.62115000  0.37885000  0.25000000  1.0
  C  C62  1  0.56038000  0.19078000  0.62411000  1.0
  C  C63  1  0.80923000  0.43961000  0.87589000  1.0
  C  C64  1  0.43961000  0.80923000  0.37589000  1.0
  C  C65  1  0.19077000  0.56040000  0.12411000  1.0
  C  C66  1  0.52790000  0.09228000  0.56075000  1.0
  C  C67  1  0.90772000  0.47210000  0.93925000  1.0
  C  C68  1  0.47211000  0.90772000  0.43925000  1.0
  C  C69  1  0.09228000  0.52789000  0.06075000  1.0
  C  C70  1  0.52622000  0.13362000  0.45528000  1.0
  C  C71  1  0.86638000  0.47378000  0.04472000  1.0
  C  C72  1  0.47380000  0.86638000  0.54472000  1.0
  C  C73  1  0.13363000  0.52620000  0.95528000  1.0
  C  C74  1  0.49890000  0.04184000  0.39440000  1.0
  C  C75  1  0.95816000  0.50110000  0.10560000  1.0
  C  C76  1  0.50111000  0.95815000  0.60560000  1.0
  C  C77  1  0.04185000  0.49888000  0.89440000  1.0
  C  C78  1  0.72213000  0.55893000  0.52194000  1.0
  C  C79  1  0.44107000  0.27787000  0.97807000  1.0
  C  C80  1  0.27787000  0.44107000  0.47807000  1.0
  C  C81  1  0.55893000  0.72213000  0.02193000  1.0
  C  C82  1  0.87460000  0.71964000  0.52888000  1.0
  C  C83  1  0.28036000  0.12540000  0.97112000  1.0
  C  C84  1  0.12541000  0.28034000  0.47111000  1.0
  C  C85  1  0.71966000  0.87459000  0.02888000  1.0
  C  C86  1  0.82665000  0.66925000  0.36110000  1.0
  C  C87  1  0.33074000  0.17335000  0.13890000  1.0
  C  C88  1  0.17337000  0.33073000  0.63889000  1.0
  C  C89  1  0.66927000  0.82663000  0.86110000  1.0
  N  N90  1  0.80711000  0.64268000  0.47254000  1.0
  N  N91  1  0.35732000  0.19289000  0.02746000  1.0
  N  N92  1  0.19291000  0.35730000  0.52745000  1.0
  N  N93  1  0.64270000  0.80709000  0.97254000  1.0
  O  O94  1  0.80078000  0.15480000  0.83457000  1.0
  O  O95  1  0.84520000  0.19923000  0.66543000  1.0
  O  O96  1  0.19920000  0.84521000  0.16544000  1.0
  O  O97  1  0.15479000  0.80080000  0.33457000  1.0
  O  O98  1  0.39258000  0.52329000  0.69161000  1.0
  O  O99  1  0.47670000  0.60742000  0.80840000  1.0
  O  O100  1  0.60739000  0.47672000  0.30839000  1.0
  O  O101  1  0.52328000  0.39261000  0.19161000  1.0
  O  O102  1  0.56298000  0.15301000  0.72076000  1.0
  O  O103  1  0.84699000  0.43702000  0.77924000  1.0
  O  O104  1  0.43702000  0.84700000  0.27924000  1.0
  O  O105  1  0.15300000  0.56298000  0.22076000  1.0
  O  O106  1  0.58613000  0.31202000  0.58306000  1.0
  O  O107  1  0.68798000  0.41387000  0.91694000  1.0
  O  O108  1  0.41385000  0.68800000  0.41695000  1.0
  O  O109  1  0.31201000  0.58615000  0.08305000  1.0
  O  O110  1  0.69662000  0.54296000  0.61852000  1.0
  O  O111  1  0.45704000  0.30338000  0.88149000  1.0
  O  O112  1  0.30338000  0.45704000  0.38148000  1.0
  O  O113  1  0.54296000  0.69663000  0.11852000  1.0
