# generated using pymatgen
data_Zn2H12C36N8ClF7
_symmetry_space_group_name_H-M   'P 1'
_cell_length_a   19.56920000
_cell_length_b   19.79231123
_cell_length_c   19.83240000
_cell_angle_alpha   106.05072093
_cell_angle_beta   110.90970000
_cell_angle_gamma   110.89409650
_symmetry_Int_Tables_number   1
_chemical_formula_structural   Zn2H12C36N8ClF7
_chemical_formula_sum   'Zn4 H24 C72 N16 Cl2 F14'
_cell_volume   5943.10732931
_cell_formula_units_Z   2
loop_
 _symmetry_equiv_pos_site_id
 _symmetry_equiv_pos_as_xyz
  1  'x, y, z'
loop_
 _atom_site_type_symbol
 _atom_site_label
 _atom_site_symmetry_multiplicity
 _atom_site_fract_x
 _atom_site_fract_y
 _atom_site_fract_z
 _atom_site_occupancy
  Zn  Zn0  1  0.88662000  0.99936000  0.39450000  1.0
  Zn  Zn1  1  0.10237000  0.99472000  0.59935000  1.0
  Zn  Zn2  1  0.10077000  0.10269000  0.50022000  1.0
  Zn  Zn3  1  0.89069000  0.89242000  0.49633000  1.0
  H  H4  1  0.40978000  0.39048000  0.98243000  1.0
  H  H5  1  0.59960000  0.01347000  0.58319000  1.0
  H  H6  1  0.06575000  0.79887000  0.03548000  1.0
  H  H7  1  0.92823000  0.95182000  0.95778000  1.0
  H  H8  1  0.91725000  0.73597000  0.88521000  1.0
  H  H9  1  0.07671000  0.01486000  0.10845000  1.0
  H  H10  1  0.30442000  0.18087000  0.53966000  1.0
  H  H11  1  0.87548000  0.99792000  0.64096000  1.0
  H  H12  1  0.70141000  0.72721000  0.36282000  1.0
  H  H13  1  0.12806000  0.26357000  0.63369000  1.0
  H  H14  1  0.69125000  0.87148000  0.23446000  1.0
  H  H15  1  0.34227000  0.60966000  0.03186000  1.0
  H  H16  1  0.12740000  0.11789000  0.76173000  1.0
  H  H17  1  0.13610000  0.99598000  0.38006000  1.0
  H  H18  1  0.85658000  0.83499000  0.63238000  1.0
  H  H19  1  0.49573000  0.54074000  0.98268000  1.0
  H  H20  1  0.25671000  0.45973000  0.03216000  1.0
  H  H21  1  0.09152000  0.46328000  0.29500000  1.0
  H  H22  1  0.89816000  0.49352000  0.38925000  1.0
  H  H23  1  0.85160000  0.35909000  0.24790000  1.0
  H  H24  1  0.13854000  0.59769000  0.43649000  1.0
  H  H25  1  0.75590000  0.21252000  0.80144000  1.0
  H  H26  1  0.52945000  0.10099000  0.52021000  1.0
  H  H27  1  0.68652000  0.29972000  0.73829000  1.0
  C  C28  1  0.92946000  0.90526000  0.28525000  1.0
  C  C29  1  0.35682000  0.56066000  0.02095000  1.0
  C  C30  1  0.44250000  0.52214000  0.99335000  1.0
  C  C31  1  0.30950000  0.47782000  0.02084000  1.0
  C  C32  1  0.58388000  0.70263000  0.20252000  1.0
  C  C33  1  0.18895000  0.29312000  0.80464000  1.0
  C  C34  1  0.39673000  0.48650000  0.07159000  1.0
  C  C35  1  0.35552000  0.51376000  0.94287000  1.0
  C  C36  1  0.44636000  0.57135000  0.07441000  1.0
  C  C37  1  0.30582000  0.42880000  0.93997000  1.0
  C  C38  1  0.51900000  0.64267000  0.14343000  1.0
  C  C39  1  0.06249000  0.93719000  0.71961000  1.0
  C  C40  1  0.23810000  0.35602000  0.86877000  1.0
  C  C41  1  0.04905000  0.47028000  0.31649000  1.0
  C  C42  1  0.94075000  0.48607000  0.36821000  1.0
  C  C43  1  0.06700000  0.83931000  0.46954000  1.0
  C  C44  1  0.92550000  0.14500000  0.35481000  1.0
  C  C45  1  0.96809000  0.47282000  0.26813000  1.0
  C  C46  1  0.02199000  0.48459000  0.41682000  1.0
  C  C47  1  0.99454000  0.68721000  0.37793000  1.0
  C  C48  1  0.99644000  0.28088000  0.35516000  1.0
  C  C49  1  0.07505000  0.54435000  0.39451000  1.0
  C  C50  1  0.99627000  0.76067000  0.41072000  1.0
  C  C51  1  0.91507000  0.41241000  0.29022000  1.0
  C  C52  1  0.99380000  0.54906000  0.34598000  1.0
  C  C53  1  0.99625000  0.40807000  0.33933000  1.0
  C  C54  1  0.99371000  0.62272000  0.35662000  1.0
  C  C55  1  0.99671000  0.33765000  0.34208000  1.0
  C  C56  1  0.66722000  0.23609000  0.70411000  1.0
  C  C57  1  0.61799000  0.07684000  0.61706000  1.0
  C  C58  1  0.70604000  0.18796000  0.73885000  1.0
  C  C59  1  0.58008000  0.12505000  0.58228000  1.0
  C  C60  1  0.82003000  0.11964000  0.63022000  1.0
  C  C61  1  0.99549000  0.21767000  0.37424000  1.0
  C  C62  1  0.42800000  0.14526000  0.64123000  1.0
  C  C63  1  0.67092000  0.19978000  0.62594000  1.0
  C  C64  1  0.61488000  0.11331000  0.69531000  1.0
  C  C65  1  0.71180000  0.15164000  0.66013000  1.0
  C  C66  1  0.57370000  0.16096000  0.66067000  1.0
  C  C67  1  0.28996000  0.14334000  0.56905000  1.0
  C  C68  1  0.87844000  0.02551000  0.60102000  1.0
  C  C69  1  0.77661000  0.14092000  0.65153000  1.0
  C  C70  1  0.49882000  0.15848000  0.65557000  1.0
  C  C71  1  0.95301000  0.79780000  0.93514000  1.0
  C  C72  1  0.34425000  0.12503000  0.62006000  1.0
  C  C73  1  0.04106000  0.95316000  0.05832000  1.0
  C  C74  1  0.03488000  0.83254000  0.01818000  1.0
  C  C75  1  0.95910000  0.91834000  0.97567000  1.0
  C  C76  1  0.00099000  0.88916000  0.20351000  1.0
  C  C77  1  0.99478000  0.88911000  0.79763000  1.0
  C  C78  1  0.91768000  0.83860000  0.98161000  1.0
  C  C79  1  0.07633000  0.91226000  0.01204000  1.0
  C  C80  1  0.99901000  0.87309000  0.06680000  1.0
  C  C81  1  0.99512000  0.87793000  0.92694000  1.0
  C  C82  1  0.99998000  0.87568000  0.13919000  1.0
  C  C83  1  0.85934000  0.08688000  0.59535000  1.0
  C  C84  1  0.99470000  0.88253000  0.85696000  1.0
  C  C85  1  0.71221000  0.77437000  0.34349000  1.0
  C  C86  1  0.12182000  0.21602000  0.65228000  1.0
  C  C87  1  0.29051000  0.07536000  0.63936000  1.0
  C  C88  1  0.87547000  0.09696000  0.53405000  1.0
  C  C89  1  0.70680000  0.84803000  0.27769000  1.0
  C  C90  1  0.12145000  0.14142000  0.71784000  1.0
  C  C91  1  0.92854000  0.77357000  0.40425000  1.0
  C  C92  1  0.06376000  0.21230000  0.42350000  1.0
  C  C93  1  0.06845000  0.97038000  0.35693000  1.0
  C  C94  1  0.66081000  0.77021000  0.26975000  1.0
  C  C95  1  0.92366000  0.86956000  0.65302000  1.0
  C  C96  1  0.00021000  0.91513000  0.27662000  1.0
  C  C97  1  0.99379000  0.89747000  0.72932000  1.0
  C  C98  1  0.14315000  0.22158000  0.73020000  1.0
  C  C99  1  0.39557000  0.43969000  0.99367000  1.0
  N  N100  1  0.95210000  0.95068000  0.36170000  1.0
  N  N101  1  0.90000000  0.04650000  0.50497000  1.0
  N  N102  1  0.77924000  0.89415000  0.34997000  1.0
  N  N103  1  0.09146000  0.09323000  0.63921000  1.0
  N  N104  1  0.95484000  0.85013000  0.45331000  1.0
  N  N105  1  0.03871000  0.14530000  0.43285000  1.0
  N  N106  1  0.03899000  0.99131000  0.40636000  1.0
  N  N107  1  0.94972000  0.89111000  0.60420000  1.0
  N  N108  1  0.03749000  0.93386000  0.64631000  1.0
  N  N109  1  0.04217000  0.89166000  0.49477000  1.0
  N  N110  1  0.95083000  0.10247000  0.38922000  1.0
  N  N111  1  0.21235000  0.10718000  0.55969000  1.0
  N  N112  1  0.90185000  0.00198000  0.54682000  1.0
  N  N113  1  0.78275000  0.84833000  0.39097000  1.0
  N  N114  1  0.09179000  0.13903000  0.59906000  1.0
  N  N115  1  0.21260000  0.06398000  0.60384000  1.0
  Cl  Cl116  1  0.17092000  0.86730000  0.50749000  1.0
  Cl  Cl117  1  0.82053000  0.11033000  0.29704000  1.0
  F  F118  1  0.84758000  0.85955000  0.22672000  1.0
  F  F119  1  0.83604000  0.80055000  0.96584000  1.0
  F  F120  1  0.30906000  0.03995000  0.68631000  1.0
  F  F121  1  0.86713000  0.14785000  0.50349000  1.0
  F  F122  1  0.84559000  0.71807000  0.35750000  1.0
  F  F123  1  0.14689000  0.26562000  0.46003000  1.0
  F  F124  1  0.14564000  0.97632000  0.77408000  1.0
  F  F125  1  0.33395000  0.52749000  0.87637000  1.0
  F  F126  1  0.41832000  0.47278000  0.13817000  1.0
  F  F127  1  0.94029000  0.46634000  0.19149000  1.0
  F  F128  1  0.04979000  0.48994000  0.49289000  1.0
  F  F129  1  0.58586000  0.06901000  0.73112000  1.0
  F  F130  1  0.69977000  0.24440000  0.59032000  1.0
  F  F131  1  0.15788000  0.95027000  0.02757000  1.0
