# generated using pymatgen
data_Zn4H8C22N4O17
_symmetry_space_group_name_H-M   'P 1'
_cell_length_a   13.09600000
_cell_length_b   13.09690000
_cell_length_c   13.29270000
_cell_angle_alpha   85.77950000
_cell_angle_beta   87.41190000
_cell_angle_gamma   107.16490000
_symmetry_Int_Tables_number   1
_chemical_formula_structural   Zn4H8C22N4O17
_chemical_formula_sum   'Zn4 H8 C22 N4 O17'
_cell_volume   2167.11042936
_cell_formula_units_Z   1
loop_
 _symmetry_equiv_pos_site_id
 _symmetry_equiv_pos_as_xyz
  1  'x, y, z'
loop_
 _atom_site_type_symbol
 _atom_site_label
 _atom_site_symmetry_multiplicity
 _atom_site_fract_x
 _atom_site_fract_y
 _atom_site_fract_z
 _atom_site_occupancy
  Zn  Zn0  1  0.55400000  0.40878000  0.60642000  1.0
  Zn  Zn1  1  0.41435000  0.56721000  0.59045000  1.0
  Zn  Zn2  1  0.38440000  0.38968000  0.43017000  1.0
  Zn  Zn3  1  0.60847000  0.57937000  0.42144000  1.0
  H  H4  1  0.90998000  0.47435000  0.58802000  1.0
  H  H5  1  0.67030000  0.08930000  0.43836000  1.0
  H  H6  1  0.87329000  0.64887000  0.39507000  1.0
  H  H7  1  0.63517000  0.42990000  0.98415000  1.0
  H  H8  1  0.68894000  0.48941000  0.17345000  1.0
  H  H9  1  0.35926000  0.03491000  0.53846000  1.0
  H  H10  1  0.39005000  0.43438000  0.09288000  1.0
  H  H11  1  0.35257000  0.47225000  0.92150000  1.0
  C  C12  1  0.55574000  0.76763000  0.47895000  1.0
  C  C13  1  0.49559000  0.43946000  0.95905000  1.0
  C  C14  1  0.44824000  0.20721000  0.51415000  1.0
  C  C15  1  0.77892000  0.52326000  0.52671000  1.0
  C  C16  1  0.44286000  0.46631000  0.78226000  1.0
  C  C17  1  0.52090000  0.46738000  0.24539000  1.0
  C  C18  1  0.89034000  0.52569000  0.52894000  1.0
  C  C19  1  0.21692000  0.48456000  0.48491000  1.0
  C  C20  1  0.43803000  0.09125000  0.51703000  1.0
  C  C21  1  0.96766000  0.58663000  0.45847000  1.0
  C  C22  1  0.52177000  0.05362000  0.49351000  1.0
  C  C23  1  0.10371000  0.48818000  0.47389000  1.0
  C  C24  1  0.57360000  0.88635000  0.46187000  1.0
  C  C25  1  0.07942000  0.58299000  0.46078000  1.0
  C  C26  1  0.50716000  0.93740000  0.50612000  1.0
  C  C27  1  0.54531000  0.45576000  0.13703000  1.0
  C  C28  1  0.16058000  0.68383000  0.44341000  1.0
  C  C29  1  0.41719000  0.87814000  0.57295000  1.0
  C  C30  1  0.02469000  0.38671000  0.47506000  1.0
  C  C31  1  0.66214000  0.94210000  0.39328000  1.0
  C  C32  1  0.47184000  0.44108000  0.06663000  1.0
  C  C33  1  0.42431000  0.45602000  0.89167000  1.0
  N  N34  1  0.22239000  0.76876000  0.42439000  1.0
  N  N35  1  0.34236000  0.83979000  0.62951000  1.0
  N  N36  1  0.96350000  0.30099000  0.47634000  1.0
  N  N37  1  0.73677000  0.98806000  0.33842000  1.0
  O  O38  1  0.48807000  0.48725000  0.50829000  1.0
  O  O39  1  0.71153000  0.45948000  0.59137000  1.0
  O  O40  1  0.38740000  0.51685000  0.73179000  1.0
  O  O41  1  0.42491000  0.43461000  0.28291000  1.0
  O  O42  1  0.60494000  0.51122000  0.29158000  1.0
  O  O43  1  0.27638000  0.55938000  0.52979000  1.0
  O  O44  1  0.49969000  0.71960000  0.55806000  1.0
  O  O45  1  0.75517000  0.58686000  0.45697000  1.0
  O  O46  1  0.38414000  0.24085000  0.46036000  1.0
  O  O47  1  0.51164000  0.42606000  0.74300000  1.0
  O  O48  1  0.95170000  0.65467000  0.38532000  1.0
  O  O49  1  0.61674000  0.12410000  0.45827000  1.0
  O  O50  1  0.60048000  0.72774000  0.41112000  1.0
  O  O51  1  0.58978000  0.42634000  0.92691000  1.0
  O  O52  1  0.65112000  0.46846000  0.11230000  1.0
  O  O53  1  0.23950000  0.40595000  0.44894000  1.0
  O  O54  1  0.51807000  0.26126000  0.56852000  1.0
