# generated using pymatgen
data_Mn5H26(C8O9)2
_symmetry_space_group_name_H-M   'P 1'
_cell_length_a   12.33740000
_cell_length_b   17.99405228
_cell_length_c   18.00290000
_cell_angle_alpha   83.25424042
_cell_angle_beta   69.96950000
_cell_angle_gamma   69.96932791
_symmetry_Int_Tables_number   1
_chemical_formula_structural   Mn5H26(C8O9)2
_chemical_formula_sum   'Mn20 H104 C64 O72'
_cell_volume   3527.75011866
_cell_formula_units_Z   4
loop_
 _symmetry_equiv_pos_site_id
 _symmetry_equiv_pos_as_xyz
  1  'x, y, z'
loop_
 _atom_site_type_symbol
 _atom_site_label
 _atom_site_symmetry_multiplicity
 _atom_site_fract_x
 _atom_site_fract_y
 _atom_site_fract_z
 _atom_site_occupancy
  Mn  Mn0  1  0.20222000  0.21912000  0.32364000  1.0
  Mn  Mn1  1  0.74500000  0.28091000  0.17645000  1.0
  Mn  Mn2  1  0.02568000  0.17637000  0.21927000  1.0
  Mn  Mn3  1  0.42151000  0.32353000  0.28102000  1.0
  Mn  Mn4  1  0.79779000  0.78087000  0.67636000  1.0
  Mn  Mn5  1  0.25499000  0.71910000  0.82356000  1.0
  Mn  Mn6  1  0.97432000  0.82363000  0.78073000  1.0
  Mn  Mn7  1  0.57849000  0.67647000  0.71898000  1.0
  Mn  Mn8  1  0.95316000  0.17472000  0.41412000  1.0
  Mn  Mn9  1  0.54181000  0.32518000  0.08614000  1.0
  Mn  Mn10  1  0.86719000  0.08591000  0.17474000  1.0
  Mn  Mn11  1  0.12809000  0.41409000  0.32527000  1.0
  Mn  Mn12  1  0.04685000  0.82527000  0.58588000  1.0
  Mn  Mn13  1  0.45818000  0.67482000  0.91387000  1.0
  Mn  Mn14  1  0.13280000  0.91409000  0.82525000  1.0
  Mn  Mn15  1  0.87192000  0.58590000  0.67473000  1.0
  Mn  Mn16  1  0.99999000  0.00000000  0.50000000  1.0
  Mn  Mn17  1  0.50000000  0.50000000  0.00000000  1.0
  Mn  Mn18  1  0.00000000  0.00000000  0.00000000  1.0
  Mn  Mn19  1  0.00000000  0.50000000  0.50000000  1.0
  H  H20  1  0.16334000  0.09132000  0.30221000  1.0
  H  H21  1  0.55680000  0.40866000  0.19799000  1.0
  H  H22  1  0.96552000  0.19797000  0.09144000  1.0
  H  H23  1  0.25478000  0.30212000  0.40869000  1.0
  H  H24  1  0.83666000  0.90868000  0.69779000  1.0
  H  H25  1  0.44319000  0.59135000  0.80201000  1.0
  H  H26  1  0.03447000  0.80204000  0.90856000  1.0
  H  H27  1  0.74523000  0.69787000  0.59131000  1.0
  H  H28  1  0.37076000  0.01702000  0.46601000  1.0
  H  H29  1  0.85340000  0.48320000  0.03392000  1.0
  H  H30  1  0.33648000  0.03398000  0.01707000  1.0
  H  H31  1  0.38762000  0.46635000  0.48295000  1.0
  H  H32  1  0.62923000  0.98297000  0.53399000  1.0
  H  H33  1  0.14659000  0.51681000  0.96608000  1.0
  H  H34  1  0.66350000  0.96602000  0.98294000  1.0
  H  H35  1  0.61238000  0.53364000  0.51705000  1.0
  H  H36  1  0.24986000  0.97466000  0.50750000  1.0
  H  H37  1  0.73164000  0.52532000  0.99238000  1.0
  H  H38  1  0.25685000  0.99259000  0.97478000  1.0
  H  H39  1  0.22435000  0.50778000  0.52521000  1.0
  H  H40  1  0.75014000  0.02533000  0.49250000  1.0
  H  H41  1  0.26836000  0.47468000  0.00762000  1.0
  H  H42  1  0.74314000  0.00741000  0.02522000  1.0
  H  H43  1  0.77565000  0.49222000  0.47479000  1.0
  H  H44  1  0.25922000  0.04897000  0.55945000  1.0
  H  H45  1  0.86732000  0.45105000  0.94052000  1.0
  H  H46  1  0.31817000  0.94052000  0.04900000  1.0
  H  H47  1  0.30790000  0.55974000  0.45087000  1.0
  H  H48  1  0.74077000  0.95103000  0.44056000  1.0
  H  H49  1  0.13269000  0.54895000  0.05948000  1.0
  H  H50  1  0.68182000  0.05949000  0.95100000  1.0
  H  H51  1  0.69211000  0.44025000  0.54913000  1.0
  H  H52  1  0.85053000  0.29472000  0.56735000  1.0
  H  H53  1  0.71199000  0.20504000  0.93290000  1.0
  H  H54  1  0.91719000  0.93260000  0.29501000  1.0
  H  H55  1  0.14488000  0.56713000  0.20467000  1.0
  H  H56  1  0.14948000  0.70527000  0.43265000  1.0
  H  H57  1  0.28800000  0.79497000  0.06710000  1.0
  H  H58  1  0.08282000  0.06740000  0.70498000  1.0
  H  H59  1  0.85512000  0.43286000  0.79533000  1.0
  H  H60  1  0.89243000  0.37386000  0.59130000  1.0
  H  H61  1  0.85698000  0.12595000  0.90891000  1.0
  H  H62  1  0.98286000  0.90868000  0.37421000  1.0
  H  H63  1  0.26590000  0.59116000  0.12564000  1.0
  H  H64  1  0.10758000  0.62614000  0.40870000  1.0
  H  H65  1  0.14302000  0.87406000  0.09108000  1.0
  H  H66  1  0.01716000  0.09131000  0.62578000  1.0
  H  H67  1  0.73410000  0.40883000  0.87435000  1.0
  H  H68  1  0.99455000  0.27428000  0.57874000  1.0
  H  H69  1  0.84698000  0.22557000  0.92132000  1.0
  H  H70  1  0.07267000  0.92093000  0.27467000  1.0
  H  H71  1  0.26792000  0.57911000  0.22531000  1.0
  H  H72  1  0.00546000  0.72572000  0.42126000  1.0
  H  H73  1  0.15301000  0.77444000  0.07867000  1.0
  H  H74  1  0.92733000  0.07908000  0.72532000  1.0
  H  H75  1  0.73207000  0.42089000  0.77469000  1.0
  H  H76  1  0.78698000  0.39271000  0.40080000  1.0
  H  H77  1  0.58075000  0.10716000  0.09962000  1.0
  H  H78  1  0.68807000  0.09915000  0.39271000  1.0
  H  H79  1  0.18010000  0.40056000  0.10724000  1.0
  H  H80  1  0.21302000  0.60729000  0.59921000  1.0
  H  H81  1  0.41926000  0.89284000  0.90038000  1.0
  H  H82  1  0.31193000  0.90085000  0.60729000  1.0
  H  H83  1  0.81991000  0.59944000  0.89275000  1.0
  H  H84  1  0.72677000  0.31847000  0.45495000  1.0
  H  H85  1  0.50039000  0.18130000  0.04542000  1.0
  H  H86  1  0.68206000  0.04504000  0.31844000  1.0
  H  H87  1  0.04570000  0.45480000  0.18142000  1.0
  H  H88  1  0.27322000  0.68153000  0.54505000  1.0
  H  H89  1  0.49960000  0.81871000  0.95458000  1.0
  H  H90  1  0.31795000  0.95496000  0.68156000  1.0
  H  H91  1  0.95430000  0.54520000  0.81858000  1.0
  H  H92  1  0.63901000  0.39596000  0.40504000  1.0
  H  H93  1  0.44043000  0.10368000  0.09526000  1.0
  H  H94  1  0.54440000  0.09487000  0.39589000  1.0
  H  H95  1  0.03533000  0.40482000  0.10403000  1.0
  H  H96  1  0.36099000  0.60404000  0.59496000  1.0
  H  H97  1  0.55957000  0.89632000  0.90474000  1.0
  H  H98  1  0.45561000  0.90513000  0.60410000  1.0
  H  H99  1  0.96468000  0.59518000  0.89598000  1.0
  H  H100  1  0.63455000  0.24909000  0.64399000  1.0
  H  H101  1  0.52668000  0.25065000  0.85669000  1.0
  H  H102  1  0.77867000  0.85594000  0.24911000  1.0
  H  H103  1  0.88271000  0.64366000  0.25105000  1.0
  H  H104  1  0.36545000  0.75091000  0.35602000  1.0
  H  H105  1  0.47331000  0.74936000  0.14330000  1.0
  H  H106  1  0.22134000  0.14406000  0.75089000  1.0
  H  H107  1  0.11729000  0.35633000  0.74895000  1.0
  H  H108  1  0.70650000  0.17263000  0.70190000  1.0
  H  H109  1  0.58020000  0.32694000  0.79846000  1.0
  H  H110  1  0.90845000  0.79793000  0.17270000  1.0
  H  H111  1  0.87824000  0.70182000  0.32729000  1.0
  H  H112  1  0.29351000  0.82736000  0.29810000  1.0
  H  H113  1  0.41979000  0.67307000  0.20154000  1.0
  H  H114  1  0.09156000  0.20208000  0.82730000  1.0
  H  H115  1  0.12177000  0.29817000  0.67271000  1.0
  H  H116  1  0.60421000  0.15691000  0.66168000  1.0
  H  H117  1  0.42197000  0.34277000  0.83880000  1.0
  H  H118  1  0.76593000  0.83823000  0.15703000  1.0
  H  H119  1  0.76054000  0.66124000  0.34331000  1.0
  H  H120  1  0.39578000  0.84309000  0.33833000  1.0
  H  H121  1  0.57803000  0.65723000  0.16119000  1.0
  H  H122  1  0.23409000  0.16176000  0.84297000  1.0
  H  H123  1  0.23945000  0.33876000  0.65669000  1.0
  C  C124  1  0.19563000  0.09314000  0.46140000  1.0
  C  C125  1  0.74996000  0.40687000  0.03864000  1.0
  C  C126  1  0.15676000  0.03866000  0.09321000  1.0
  C  C127  1  0.28871000  0.46147000  0.40689000  1.0
  C  C128  1  0.80437000  0.90685000  0.53860000  1.0
  C  C129  1  0.25004000  0.59313000  0.96136000  1.0
  C  C130  1  0.84322000  0.96135000  0.90679000  1.0
  C  C131  1  0.71129000  0.53853000  0.59312000  1.0
  C  C132  1  0.27426000  0.02869000  0.50034000  1.0
  C  C133  1  0.80296000  0.47135000  0.99960000  1.0
  C  C134  1  0.27419000  0.99969000  0.02876000  1.0
  C  C135  1  0.30277000  0.50061000  0.47121000  1.0
  C  C136  1  0.72574000  0.97130000  0.49965000  1.0
  C  C137  1  0.19705000  0.52865000  0.00040000  1.0
  C  C138  1  0.72580000  0.00031000  0.97124000  1.0
  C  C139  1  0.69723000  0.49939000  0.52879000  1.0
  C  C140  1  0.98046000  0.33076000  0.47060000  1.0
  C  C141  1  0.78149000  0.16916000  0.02956000  1.0
  C  C142  1  0.95085000  0.02932000  0.33083000  1.0
  C  C143  1  0.31119000  0.47057000  0.16917000  1.0
  C  C144  1  0.01955000  0.66923000  0.52940000  1.0
  C  C145  1  0.21850000  0.83085000  0.97043000  1.0
  C  C146  1  0.04916000  0.97067000  0.66916000  1.0
  C  C147  1  0.68882000  0.52942000  0.83083000  1.0
  C  C148  1  0.92450000  0.31912000  0.55796000  1.0
  C  C149  1  0.80100000  0.18072000  0.94222000  1.0
  C  C150  1  0.98181000  0.94193000  0.31940000  1.0
  C  C151  1  0.24314000  0.55796000  0.18047000  1.0
  C  C152  1  0.07551000  0.68088000  0.44204000  1.0
  C  C153  1  0.19899000  0.81929000  0.05778000  1.0
  C  C154  1  0.01821000  0.05807000  0.68059000  1.0
  C  C155  1  0.75684000  0.44204000  0.81953000  1.0
  C  C156  1  0.78874000  0.30830000  0.32754000  1.0
  C  C157  1  0.42461000  0.19148000  0.17280000  1.0
  C  C158  1  0.61656000  0.17251000  0.30836000  1.0
  C  C159  1  0.09736000  0.32735000  0.19174000  1.0
  C  C160  1  0.21126000  0.69170000  0.67246000  1.0
  C  C161  1  0.57540000  0.80852000  0.82721000  1.0
  C  C162  1  0.38345000  0.82749000  0.69164000  1.0
  C  C163  1  0.90264000  0.67265000  0.80826000  1.0
  C  C164  1  0.73036000  0.35646000  0.40243000  1.0
  C  C165  1  0.48949000  0.14329000  0.09793000  1.0
  C  C166  1  0.63309000  0.09753000  0.35645000  1.0
  C  C167  1  0.08719000  0.40224000  0.14351000  1.0
  C  C168  1  0.26965000  0.64354000  0.59757000  1.0
  C  C169  1  0.51052000  0.85671000  0.90208000  1.0
  C  C170  1  0.36691000  0.90248000  0.64355000  1.0
  C  C171  1  0.91281000  0.59776000  0.85649000  1.0
  C  C172  1  0.77976000  0.14919000  0.57709000  1.0
  C  C173  1  0.50551000  0.35072000  0.92319000  1.0
  C  C174  1  0.85695000  0.92283000  0.14920000  1.0
  C  C175  1  0.92873000  0.57696000  0.35084000  1.0
  C  C176  1  0.22024000  0.85080000  0.42291000  1.0
  C  C177  1  0.49449000  0.64928000  0.07681000  1.0
  C  C178  1  0.14305000  0.07718000  0.85079000  1.0
  C  C179  1  0.07128000  0.42303000  0.64916000  1.0
  C  C180  1  0.67446000  0.18514000  0.65040000  1.0
  C  C181  1  0.50920000  0.31459000  0.85005000  1.0
  C  C182  1  0.82497000  0.84948000  0.18519000  1.0
  C  C183  1  0.85891000  0.65014000  0.31495000  1.0
  C  C184  1  0.32554000  0.81486000  0.34960000  1.0
  C  C185  1  0.49080000  0.68541000  0.14994000  1.0
  C  C186  1  0.17504000  0.15052000  0.81481000  1.0
  C  C187  1  0.14109000  0.34985000  0.68505000  1.0
  O  O188  1  0.10939000  0.14585000  0.30751000  1.0
  O  O189  1  0.56279000  0.35409000  0.19270000  1.0
  O  O190  1  0.91687000  0.19261000  0.14594000  1.0
  O  O191  1  0.25546000  0.30740000  0.35415000  1.0
  O  O192  1  0.89061000  0.85415000  0.69249000  1.0
  O  O193  1  0.43721000  0.64592000  0.80731000  1.0
  O  O194  1  0.08313000  0.80739000  0.85406000  1.0
  O  O195  1  0.74454000  0.69260000  0.64585000  1.0
  O  O196  1  0.24122000  0.14297000  0.41930000  1.0
  O  O197  1  0.80343000  0.35706000  0.08068000  1.0
  O  O198  1  0.16035000  0.08068000  0.14306000  1.0
  O  O199  1  0.38417000  0.41928000  0.35718000  1.0
  O  O200  1  0.75878000  0.85702000  0.58070000  1.0
  O  O201  1  0.19657000  0.64295000  0.91932000  1.0
  O  O202  1  0.83963000  0.91932000  0.85694000  1.0
  O  O203  1  0.61583000  0.58072000  0.64283000  1.0
  O  O204  1  0.08461000  0.09478000  0.47491000  1.0
  O  O205  1  0.65400000  0.40520000  0.02524000  1.0
  O  O206  1  0.05918000  0.02523000  0.09481000  1.0
  O  O207  1  0.17937000  0.47491000  0.40519000  1.0
  O  O208  1  0.91538000  0.90522000  0.52509000  1.0
  O  O209  1  0.34601000  0.59480000  0.97475000  1.0
  O  O210  1  0.94081000  0.97477000  0.90519000  1.0
  O  O211  1  0.82063000  0.52509000  0.59482000  1.0
  O  O212  1  0.01048000  0.27396000  0.42389000  1.0
  O  O213  1  0.70816000  0.22600000  0.07625000  1.0
  O  O214  1  0.93437000  0.07598000  0.27397000  1.0
  O  O215  1  0.28459000  0.42396000  0.22609000  1.0
  O  O216  1  0.98953000  0.72603000  0.57611000  1.0
  O  O217  1  0.29184000  0.77400000  0.92375000  1.0
  O  O218  1  0.06562000  0.92402000  0.72603000  1.0
  O  O219  1  0.71540000  0.57604000  0.77391000  1.0
  O  O220  1  0.99821000  0.39678000  0.44507000  1.0
  O  O221  1  0.83979000  0.10315000  0.05506000  1.0
  O  O222  1  0.94321000  0.05490000  0.39677000  1.0
  O  O223  1  0.39504000  0.44499000  0.10324000  1.0
  O  O224  1  0.00178000  0.60322000  0.55493000  1.0
  O  O225  1  0.16021000  0.89686000  0.94493000  1.0
  O  O226  1  0.05680000  0.94510000  0.60322000  1.0
  O  O227  1  0.60495000  0.55501000  0.89676000  1.0
  O  O228  1  0.75496000  0.33648000  0.26845000  1.0
  O  O229  1  0.35974000  0.16332000  0.23181000  1.0
  O  O230  1  0.52368000  0.23162000  0.33655000  1.0
  O  O231  1  0.09163000  0.26822000  0.16366000  1.0
  O  O232  1  0.24506000  0.66352000  0.73155000  1.0
  O  O233  1  0.64027000  0.83668000  0.76819000  1.0
  O  O234  1  0.47632000  0.76839000  0.66346000  1.0
  O  O235  1  0.90837000  0.73178000  0.83634000  1.0
  O  O236  1  0.87309000  0.24123000  0.32602000  1.0
  O  O237  1  0.44035000  0.25858000  0.17434000  1.0
  O  O238  1  0.69935000  0.17409000  0.24133000  1.0
  O  O239  1  0.11466000  0.32590000  0.25878000  1.0
  O  O240  1  0.12692000  0.75876000  0.67398000  1.0
  O  O241  1  0.55966000  0.74142000  0.82566000  1.0
  O  O242  1  0.30064000  0.82592000  0.75867000  1.0
  O  O243  1  0.88535000  0.67409000  0.74122000  1.0
  O  O244  1  0.80416000  0.19493000  0.51839000  1.0
  O  O245  1  0.51685000  0.30512000  0.98200000  1.0
  O  O246  1  0.82235000  0.98165000  0.19484000  1.0
  O  O247  1  0.99916000  0.51832000  0.30510000  1.0
  O  O248  1  0.19585000  0.80506000  0.48161000  1.0
  O  O249  1  0.48314000  0.69489000  0.01801000  1.0
  O  O250  1  0.17765000  0.01835000  0.80516000  1.0
  O  O251  1  0.00085000  0.48167000  0.69490000  1.0
  O  O252  1  0.83710000  0.07570000  0.57910000  1.0
  O  O253  1  0.49174000  0.42418000  0.92094000  1.0
  O  O254  1  0.91656000  0.92073000  0.07579000  1.0
  O  O255  1  0.91266000  0.57901000  0.42429000  1.0
  O  O256  1  0.16290000  0.92429000  0.42090000  1.0
  O  O257  1  0.50825000  0.57582000  0.07906000  1.0
  O  O258  1  0.08343000  0.07927000  0.92421000  1.0
  O  O259  1  0.08734000  0.42099000  0.57572000  1.0
