# generated using pymatgen
data_Zn2H26C29BrN3O8
_symmetry_space_group_name_H-M   'P 1'
_cell_length_a   7.96207000
_cell_length_b   15.01530000
_cell_length_c   15.04360000
_cell_angle_alpha   60.08650000
_cell_angle_beta   75.05760000
_cell_angle_gamma   75.11800000
_symmetry_Int_Tables_number   1
_chemical_formula_structural   Zn2H26C29BrN3O8
_chemical_formula_sum   'Zn4 H52 C58 Br2 N6 O16'
_cell_volume   1488.42951433
_cell_formula_units_Z   2
loop_
 _symmetry_equiv_pos_site_id
 _symmetry_equiv_pos_as_xyz
  1  'x, y, z'
loop_
 _atom_site_type_symbol
 _atom_site_label
 _atom_site_symmetry_multiplicity
 _atom_site_fract_x
 _atom_site_fract_y
 _atom_site_fract_z
 _atom_site_occupancy
  Zn  Zn0  1  0.11203000  0.40431000  0.01956000  1.0
  Zn  Zn1  1  0.38766000  0.98045000  0.59569000  1.0
  Zn  Zn2  1  0.88797000  0.59569000  0.98044000  1.0
  Zn  Zn3  1  0.61234000  0.01955000  0.40431000  1.0
  H  H4  1  0.64892000  0.61835000  0.55497000  1.0
  H  H5  1  0.85111000  0.44437000  0.38209000  1.0
  H  H6  1  0.35109000  0.38163000  0.44504000  1.0
  H  H7  1  0.14890000  0.55563000  0.61789000  1.0
  H  H8  1  0.64896000  0.78235000  0.39157000  1.0
  H  H9  1  0.85145000  0.60774000  0.21802000  1.0
  H  H10  1  0.35104000  0.21764000  0.60844000  1.0
  H  H11  1  0.14855000  0.39227000  0.78197000  1.0
  H  H12  1  0.53535000  0.89352000  0.25354000  1.0
  H  H13  1  0.96515000  0.74624000  0.10646000  1.0
  H  H14  1  0.46465000  0.10649000  0.74647000  1.0
  H  H15  1  0.03484000  0.25376000  0.89354000  1.0
  H  H16  1  0.37695000  0.02865000  0.23742000  1.0
  H  H17  1  0.12365000  0.76235000  0.97140000  1.0
  H  H18  1  0.62305000  0.97136000  0.76258000  1.0
  H  H19  1  0.87635000  0.23765000  0.02860000  1.0
  H  H20  1  0.17245000  0.19446000  0.20030000  1.0
  H  H21  1  0.32762000  0.79957000  0.80556000  1.0
  H  H22  1  0.82756000  0.80554000  0.79970000  1.0
  H  H23  1  0.67238000  0.20043000  0.19444000  1.0
  H  H24  1  0.39967000  0.33194000  0.89182000  1.0
  H  H25  1  0.09949000  0.10823000  0.66820000  1.0
  H  H26  1  0.60033000  0.66806000  0.10817000  1.0
  H  H27  1  0.90051000  0.89176000  0.33181000  1.0
  H  H28  1  0.61259000  0.16845000  0.91469000  1.0
  H  H29  1  0.88716000  0.08521000  0.83177000  1.0
  H  H30  1  0.38741000  0.83155000  0.08531000  1.0
  H  H31  1  0.11284000  0.91478000  0.16823000  1.0
  H  H32  1  0.62437000  0.39993000  0.31515000  1.0
  H  H33  1  0.87609000  0.68446000  0.60036000  1.0
  H  H34  1  0.37564000  0.60007000  0.68485000  1.0
  H  H35  1  0.12390000  0.31555000  0.39964000  1.0
  H  H36  1  0.56108000  0.33923000  0.25622000  1.0
  H  H37  1  0.93905000  0.74407000  0.66047000  1.0
  H  H38  1  0.43892000  0.66077000  0.74378000  1.0
  H  H39  1  0.06095000  0.25593000  0.33953000  1.0
  H  H40  1  0.73775000  0.27386000  0.32817000  1.0
  H  H41  1  0.76253000  0.67170000  0.72614000  1.0
  H  H42  1  0.26225000  0.72614000  0.67183000  1.0
  H  H43  1  0.23746000  0.32830000  0.27386000  1.0
  H  H44  1  0.56539000  0.46459000  0.86657000  1.0
  H  H45  1  0.93464000  0.13350000  0.53529000  1.0
  H  H46  1  0.43461000  0.53541000  0.13343000  1.0
  H  H47  1  0.06536000  0.86650000  0.46471000  1.0
  H  H48  1  0.74186000  0.49273000  0.76142000  1.0
  H  H49  1  0.75858000  0.23888000  0.50724000  1.0
  H  H50  1  0.25814000  0.50727000  0.23858000  1.0
  H  H51  1  0.24142000  0.76112000  0.49276000  1.0
  H  H52  1  0.73673000  0.36232000  0.85989000  1.0
  H  H53  1  0.76329000  0.14026000  0.63743000  1.0
  H  H54  1  0.26327000  0.63768000  0.14011000  1.0
  H  H55  1  0.23671000  0.85975000  0.36257000  1.0
  C  C56  1  0.75003000  0.52195000  0.47793000  1.0
  C  C57  1  0.24998000  0.47804000  0.52206000  1.0
  C  C58  1  0.69275000  0.61651000  0.48098000  1.0
  C  C59  1  0.80738000  0.51859000  0.38366000  1.0
  C  C60  1  0.30726000  0.38348000  0.51902000  1.0
  C  C61  1  0.19264000  0.48141000  0.61633000  1.0
  C  C62  1  0.69268000  0.70888000  0.38811000  1.0
  C  C63  1  0.80766000  0.61143000  0.29125000  1.0
  C  C64  1  0.30732000  0.29111000  0.61189000  1.0
  C  C65  1  0.19235000  0.38857000  0.70874000  1.0
  C  C66  1  0.75022000  0.70793000  0.29191000  1.0
  C  C67  1  0.24978000  0.29207000  0.70810000  1.0
  C  C68  1  0.75021000  0.80619000  0.19369000  1.0
  C  C69  1  0.24978000  0.19381000  0.80631000  1.0
  C  C70  1  0.62981000  0.89541000  0.18600000  1.0
  C  C71  1  0.87061000  0.81383000  0.10457000  1.0
  C  C72  1  0.37019000  0.10460000  0.81400000  1.0
  C  C73  1  0.12938000  0.18617000  0.89543000  1.0
  C  C74  1  0.63389000  0.98699000  0.09136000  1.0
  C  C75  1  0.86644000  0.90853000  0.01303000  1.0
  C  C76  1  0.36611000  0.01301000  0.90864000  1.0
  C  C77  1  0.13355000  0.09147000  0.98697000  1.0
  C  C78  1  0.51019000  0.08385000  0.07729000  1.0
  C  C79  1  0.99003000  0.92256000  0.91622000  1.0
  C  C80  1  0.48982000  0.91615000  0.92271000  1.0
  C  C81  1  0.00997000  0.07744000  0.08378000  1.0
  C  C82  1  0.38509000  0.09217000  0.15854000  1.0
  C  C83  1  0.11525000  0.84130000  0.90787000  1.0
  C  C84  1  0.61492000  0.90783000  0.84146000  1.0
  C  C85  1  0.88475000  0.15870000  0.09213000  1.0
  C  C86  1  0.27233000  0.18518000  0.13932000  1.0
  C  C87  1  0.22768000  0.86056000  0.81484000  1.0
  C  C88  1  0.72768000  0.81482000  0.86068000  1.0
  C  C89  1  0.77233000  0.13943000  0.18516000  1.0
  C  C90  1  0.39965000  0.26189000  0.96635000  1.0
  C  C91  1  0.09988000  0.03361000  0.73819000  1.0
  C  C92  1  0.60035000  0.73812000  0.03365000  1.0
  C  C93  1  0.90013000  0.96639000  0.26181000  1.0
  C  C94  1  0.51675000  0.17192000  0.97951000  1.0
  C  C95  1  0.98311000  0.02041000  0.82818000  1.0
  C  C96  1  0.48325000  0.82808000  0.02049000  1.0
  C  C97  1  0.01689000  0.97959000  0.17182000  1.0
  C  C98  1  0.79719000  0.40461000  0.17723000  1.0
  C  C99  1  0.70289000  0.82260000  0.59534000  1.0
  C  C100  1  0.20281000  0.59539000  0.82278000  1.0
  C  C101  1  0.29710000  0.17741000  0.40466000  1.0
  C  C102  1  0.67452000  0.35069000  0.27640000  1.0
  C  C103  1  0.82572000  0.72351000  0.64931000  1.0
  C  C104  1  0.32548000  0.64931000  0.72360000  1.0
  C  C105  1  0.17428000  0.27650000  0.35070000  1.0
  C  C106  1  0.81221000  0.46285000  0.90273000  1.0
  C  C107  1  0.68755000  0.09736000  0.53721000  1.0
  C  C108  1  0.18779000  0.53716000  0.09727000  1.0
  C  C109  1  0.31243000  0.90264000  0.46280000  1.0
  C  C110  1  0.70684000  0.44348000  0.84525000  1.0
  C  C111  1  0.79324000  0.15491000  0.55641000  1.0
  C  C112  1  0.29316000  0.55652000  0.15475000  1.0
  C  C113  1  0.20675000  0.84509000  0.44359000  1.0
  Br  Br114  1  0.75003000  0.39532000  0.60457000  1.0
  Br  Br115  1  0.24997000  0.60465000  0.39540000  1.0
  N  N116  1  0.27834000  0.26865000  0.04485000  1.0
  N  N117  1  0.22126000  0.95509000  0.73135000  1.0
  N  N118  1  0.72166000  0.73135000  0.95515000  1.0
  N  N119  1  0.77874000  0.04491000  0.26865000  1.0
  N  N120  1  0.75015000  0.99295000  0.00702000  1.0
  N  N121  1  0.24985000  0.00705000  0.99298000  1.0
  O  O122  1  0.93008000  0.34846000  0.15238000  1.0
  O  O123  1  0.56988000  0.84749000  0.65137000  1.0
  O  O124  1  0.06993000  0.65154000  0.84762000  1.0
  O  O125  1  0.43011000  0.15252000  0.34862000  1.0
  O  O126  1  0.75691000  0.50271000  0.12417000  1.0
  O  O127  1  0.74314000  0.87552000  0.49733000  1.0
  O  O128  1  0.24309000  0.49729000  0.87583000  1.0
  O  O129  1  0.25686000  0.12448000  0.50266000  1.0
  O  O130  1  0.94437000  0.39447000  0.93827000  1.0
  O  O131  1  0.55527000  0.06179000  0.60558000  1.0
  O  O132  1  0.05562000  0.60553000  0.06173000  1.0
  O  O133  1  0.44473000  0.93821000  0.39443000  1.0
  O  O134  1  0.76397000  0.54660000  0.91025000  1.0
  O  O135  1  0.73568000  0.08984000  0.45358000  1.0
  O  O136  1  0.23603000  0.45340000  0.08975000  1.0
  O  O137  1  0.26431000  0.91017000  0.54642000  1.0
