# generated using pymatgen
data_CuH8C12(NO2)2
_symmetry_space_group_name_H-M   'P 1'
_cell_length_a   7.79148000
_cell_length_b   7.83349000
_cell_length_c   10.14860000
_cell_angle_alpha   89.18360000
_cell_angle_beta   88.35810000
_cell_angle_gamma   60.17610000
_symmetry_Int_Tables_number   1
_chemical_formula_structural   CuH8C12(NO2)2
_chemical_formula_sum   'Cu2 H16 C24 N4 O8'
_cell_volume   537.15744470
_cell_formula_units_Z   2
loop_
 _symmetry_equiv_pos_site_id
 _symmetry_equiv_pos_as_xyz
  1  'x, y, z'
loop_
 _atom_site_type_symbol
 _atom_site_label
 _atom_site_symmetry_multiplicity
 _atom_site_fract_x
 _atom_site_fract_y
 _atom_site_fract_z
 _atom_site_occupancy
  Cu  Cu0  1  0.56634000  0.86735000  0.25001000  1.0
  Cu  Cu1  1  0.43365000  0.13265000  0.74999000  1.0
  H  H2  1  0.39398000  0.52626000  0.07223000  1.0
  H  H3  1  0.07977000  0.52626000  0.42777000  1.0
  H  H4  1  0.60601000  0.47376000  0.92775000  1.0
  H  H5  1  0.92021000  0.47376000  0.57223000  1.0
  H  H6  1  0.14666000  0.70668000  0.25000000  1.0
  H  H7  1  0.85334000  0.29331000  0.74999000  1.0
  H  H8  1  0.57922000  0.57192000  0.42810000  1.0
  H  H9  1  0.84884000  0.57192000  0.07189000  1.0
  H  H10  1  0.42078000  0.42808000  0.57190000  1.0
  H  H11  1  0.15115000  0.42809000  0.92811000  1.0
  H  H12  1  0.75848000  0.20102000  0.43665000  1.0
  H  H13  1  0.04050000  0.20102000  0.06335000  1.0
  H  H14  1  0.24152000  0.79898000  0.56335000  1.0
  H  H15  1  0.95950000  0.79899000  0.93665000  1.0
  H  H16  1  0.99301000  0.01400000  0.25000000  1.0
  H  H17  1  0.00699000  0.98601000  0.75000000  1.0
  C  C18  1  0.62050000  0.09929000  0.05484000  1.0
  C  C19  1  0.28022000  0.09928000  0.44517000  1.0
  C  C20  1  0.37953000  0.90067000  0.94516000  1.0
  C  C21  1  0.71978000  0.90067000  0.55483000  1.0
  C  C22  1  0.46482000  0.23996000  0.15203000  1.0
  C  C23  1  0.29522000  0.23996000  0.34797000  1.0
  C  C24  1  0.53520000  0.76000000  0.84797000  1.0
  C  C25  1  0.70479000  0.76001000  0.65202000  1.0
  C  C26  1  0.36500000  0.44487000  0.14902000  1.0
  C  C27  1  0.19013000  0.44487000  0.35098000  1.0
  C  C28  1  0.63498000  0.55513000  0.85099000  1.0
  C  C29  1  0.80988000  0.55513000  0.64900000  1.0
  C  C30  1  0.22672000  0.54656000  0.25000000  1.0
  C  C31  1  0.77326000  0.45346000  0.75000000  1.0
  C  C32  1  0.68360000  0.48202000  0.35062000  1.0
  C  C33  1  0.83437000  0.48201000  0.14937000  1.0
  C  C34  1  0.31640000  0.51798000  0.64937000  1.0
  C  C35  1  0.16563000  0.51799000  0.85063000  1.0
  C  C36  1  0.78370000  0.27764000  0.35442000  1.0
  C  C37  1  0.93866000  0.27764000  0.14557000  1.0
  C  C38  1  0.21630000  0.72237000  0.64557000  1.0
  C  C39  1  0.06134000  0.72237000  0.85443000  1.0
  C  C40  1  0.91296000  0.17408000  0.25000000  1.0
  C  C41  1  0.08705000  0.82591000  0.75000000  1.0
  N  N42  1  0.70870000  0.58258000  0.25000000  1.0
  N  N43  1  0.29130000  0.41742000  0.75000000  1.0
  N  N44  1  0.42661000  0.14678000  0.25000000  1.0
  N  N45  1  0.57338000  0.85324000  0.75000000  1.0
  O  O46  1  0.69970000  0.91464000  0.08804000  1.0
  O  O47  1  0.38567000  0.91465000  0.41197000  1.0
  O  O48  1  0.30028000  0.08538000  0.91197000  1.0
  O  O49  1  0.61431000  0.08538000  0.58802000  1.0
  O  O50  1  0.66327000  0.16115000  0.95256000  1.0
  O  O51  1  0.17559000  0.16115000  0.54745000  1.0
  O  O52  1  0.33672000  0.83885000  0.04745000  1.0
  O  O53  1  0.82440000  0.83885000  0.45253000  1.0
