# generated using pymatgen
data_Y3H13C10S2O13
_symmetry_space_group_name_H-M   'P 1'
_cell_length_a   7.20921000
_cell_length_b   9.22381000
_cell_length_c   14.33530000
_cell_angle_alpha   76.83720000
_cell_angle_beta   76.90180000
_cell_angle_gamma   79.30950000
_symmetry_Int_Tables_number   1
_chemical_formula_structural   Y3H13C10S2O13
_chemical_formula_sum   'Y6 H26 C20 S4 O26'
_cell_volume   894.99647776
_cell_formula_units_Z   2
loop_
 _symmetry_equiv_pos_site_id
 _symmetry_equiv_pos_as_xyz
  1  'x, y, z'
loop_
 _atom_site_type_symbol
 _atom_site_label
 _atom_site_symmetry_multiplicity
 _atom_site_fract_x
 _atom_site_fract_y
 _atom_site_fract_z
 _atom_site_occupancy
  Y  Y0  1  0.05699000  0.64857000  0.55713000  1.0
  Y  Y1  1  0.94301000  0.35143000  0.44287000  1.0
  Y  Y2  1  0.73302000  0.98581000  0.54882000  1.0
  Y  Y3  1  0.26698000  0.01419000  0.45117000  1.0
  Y  Y4  1  0.57233000  0.64775000  0.55620000  1.0
  Y  Y5  1  0.42767000  0.35225000  0.44380000  1.0
  H  H6  1  0.04873000  0.89755000  0.64635000  1.0
  H  H7  1  0.95127000  0.10245000  0.35365000  1.0
  H  H8  1  0.36492000  0.89568000  0.64740000  1.0
  H  H9  1  0.63508000  0.10432000  0.35260000  1.0
  H  H10  1  0.38466000  0.72311000  0.39872000  1.0
  H  H11  1  0.61533000  0.27689000  0.60129000  1.0
  H  H12  1  0.66436000  0.58691000  0.35639000  1.0
  H  H13  1  0.33564000  0.41309000  0.64361000  1.0
  H  H14  1  0.84684000  0.39251000  0.64003000  1.0
  H  H15  1  0.15316000  0.60749000  0.35997000  1.0
  H  H16  1  0.87059000  0.80006000  0.39295000  1.0
  H  H17  1  0.12941000  0.19994000  0.60705000  1.0
  H  H18  1  0.72046000  0.71709000  0.71174000  1.0
  H  H19  1  0.27954000  0.28291000  0.28826000  1.0
  H  H20  1  0.48832000  0.45751000  0.86532000  1.0
  H  H21  1  0.51168000  0.54249000  0.13468000  1.0
  H  H22  1  0.46628000  0.29377000  0.03067000  1.0
  H  H23  1  0.53371000  0.70623000  0.96933000  1.0
  H  H24  1  0.15371000  0.28019000  0.14263000  1.0
  H  H25  1  0.84629000  0.71981000  0.85737000  1.0
  H  H26  1  0.91406000  0.18833000  0.88443000  1.0
  H  H27  1  0.08595000  0.81166000  0.11557000  1.0
  H  H28  1  0.88667000  0.12870000  0.06601000  1.0
  H  H29  1  0.11333000  0.87129000  0.93399000  1.0
  H  H30  1  0.62571000  0.99811000  0.17123000  1.0
  H  H31  1  0.37429000  0.00189000  0.82877000  1.0
  C  C32  1  0.18967000  0.54722000  0.88955000  1.0
  C  C33  1  0.81033000  0.45278000  0.11045000  1.0
  C  C34  1  0.35192000  0.45794000  0.91671000  1.0
  C  C35  1  0.64807000  0.54206000  0.08329000  1.0
  C  C36  1  0.33779000  0.36387000  0.00961000  1.0
  C  C37  1  0.66221000  0.63613000  0.99039000  1.0
  C  C38  1  0.16306000  0.35816000  0.07271000  1.0
  C  C39  1  0.83693000  0.64184000  0.92729000  1.0
  C  C40  1  0.00581000  0.54929000  0.95302000  1.0
  C  C41  1  0.99419000  0.45071000  0.04698000  1.0
  C  C42  1  0.66346000  0.09206000  0.88928000  1.0
  C  C43  1  0.33655000  0.90794000  0.11072000  1.0
  C  C44  1  0.79702000  0.13123000  0.93114000  1.0
  C  C45  1  0.20299000  0.86877000  0.06886000  1.0
  C  C46  1  0.78174000  0.09684000  0.03335000  1.0
  C  C47  1  0.21826000  0.90316000  0.96666000  1.0
  C  C48  1  0.63483000  0.02329000  0.09257000  1.0
  C  C49  1  0.36518000  0.97671000  0.90743000  1.0
  C  C50  1  0.50642000  0.01761000  0.94768000  1.0
  C  C51  1  0.49358000  0.98239000  0.05232000  1.0
  S  S52  1  0.21156000  0.65321000  0.76936000  1.0
  S  S53  1  0.78844000  0.34679000  0.23064000  1.0
  S  S54  1  0.69216000  0.14608000  0.75931000  1.0
  S  S55  1  0.30785000  0.85392000  0.24069000  1.0
  O  O56  1  0.07838000  0.59777000  0.72483000  1.0
  O  O57  1  0.92162000  0.40223000  0.27517000  1.0
  O  O58  1  0.41441000  0.61529000  0.72258000  1.0
  O  O59  1  0.58558000  0.38471000  0.27742000  1.0
  O  O60  1  0.15961000  0.81410000  0.77119000  1.0
  O  O61  1  0.84039000  0.18590000  0.22881000  1.0
  O  O62  1  0.69537000  0.00846000  0.72093000  1.0
  O  O63  1  0.30464000  0.99154000  0.27907000  1.0
  O  O64  1  0.87572000  0.20746000  0.72519000  1.0
  O  O65  1  0.12428000  0.79254000  0.27482000  1.0
  O  O66  1  0.52560000  0.25910000  0.73895000  1.0
  O  O67  1  0.47441000  0.74091000  0.26105000  1.0
  O  O68  1  0.04431000  0.90162000  0.57808000  1.0
  O  O69  1  0.95569000  0.09838000  0.42191000  1.0
  O  O70  1  0.43642000  0.90754000  0.58022000  1.0
  O  O71  1  0.56359000  0.09247000  0.41978000  1.0
  O  O72  1  0.33692000  0.75754000  0.46092000  1.0
  O  O73  1  0.66308000  0.24246000  0.53908000  1.0
  O  O74  1  0.65685000  0.52404000  0.42150000  1.0
  O  O75  1  0.34315000  0.47596000  0.57850000  1.0
  O  O76  1  0.85128000  0.46720000  0.57850000  1.0
  O  O77  1  0.14872000  0.53280000  0.42150000  1.0
  O  O78  1  0.82390000  0.78268000  0.46341000  1.0
  O  O79  1  0.17610000  0.21733000  0.53659000  1.0
  O  O80  1  0.75292000  0.73419000  0.64115000  1.0
  O  O81  1  0.24708000  0.26581000  0.35885000  1.0
