# generated using pymatgen
data_BaH7C3S3(NO)3
_symmetry_space_group_name_H-M   'P 1'
_cell_length_a   6.29725000
_cell_length_b   8.76759000
_cell_length_c   17.69680000
_cell_angle_alpha   90.00030000
_cell_angle_beta   90.00010000
_cell_angle_gamma   89.48670000
_symmetry_Int_Tables_number   1
_chemical_formula_structural   BaH7C3S3(NO)3
_chemical_formula_sum   'Ba4 H28 C12 S12 N12 O12'
_cell_volume   977.03131158
_cell_formula_units_Z   4
loop_
 _symmetry_equiv_pos_site_id
 _symmetry_equiv_pos_as_xyz
  1  'x, y, z'
loop_
 _atom_site_type_symbol
 _atom_site_label
 _atom_site_symmetry_multiplicity
 _atom_site_fract_x
 _atom_site_fract_y
 _atom_site_fract_z
 _atom_site_occupancy
  Ba  Ba0  1  0.52195000  0.09760000  0.84624000  1.0
  Ba  Ba1  1  0.02194000  0.09762000  0.65376000  1.0
  Ba  Ba2  1  0.47806000  0.90239000  0.15376000  1.0
  Ba  Ba3  1  0.97806000  0.90240000  0.34624000  1.0
  H  H4  1  0.11752000  0.60160000  0.98228000  1.0
  H  H5  1  0.61750000  0.60163000  0.51773000  1.0
  H  H6  1  0.88249000  0.39837000  0.01773000  1.0
  H  H7  1  0.38245000  0.39840000  0.48228000  1.0
  H  H8  1  0.49593000  0.23936000  0.66369000  1.0
  H  H9  1  0.99594000  0.23934000  0.83632000  1.0
  H  H10  1  0.50406000  0.76066000  0.33632000  1.0
  H  H11  1  0.00408000  0.76064000  0.16369000  1.0
  H  H12  1  0.35642000  0.34273000  0.71523000  1.0
  H  H13  1  0.85643000  0.34273000  0.78478000  1.0
  H  H14  1  0.64358000  0.65728000  0.28478000  1.0
  H  H15  1  0.14359000  0.65727000  0.21523000  1.0
  H  H16  1  0.76184000  0.82179000  0.88689000  1.0
  H  H17  1  0.26183000  0.82181000  0.61310000  1.0
  H  H18  1  0.23817000  0.17819000  0.11311000  1.0
  H  H19  1  0.73816000  0.17821000  0.38689000  1.0
  H  H20  1  0.96531000  0.90040000  0.92496000  1.0
  H  H21  1  0.46530000  0.90041000  0.57503000  1.0
  H  H22  1  0.03470000  0.09959000  0.07503000  1.0
  H  H23  1  0.53470000  0.09960000  0.42496000  1.0
  H  H24  1  0.71939000  0.81326000  0.74122000  1.0
  H  H25  1  0.21940000  0.81326000  0.75877000  1.0
  H  H26  1  0.28061000  0.18674000  0.25877000  1.0
  H  H27  1  0.78061000  0.18674000  0.24122000  1.0
  H  H28  1  0.55853000  0.89965000  0.68669000  1.0
  H  H29  1  0.05854000  0.89965000  0.81331000  1.0
  H  H30  1  0.44146000  0.10035000  0.31331000  1.0
  H  H31  1  0.94146000  0.10035000  0.18669000  1.0
  C  C32  1  0.30804000  0.44969000  0.91959000  1.0
  C  C33  1  0.80802000  0.44972000  0.58041000  1.0
  C  C34  1  0.69196000  0.55029000  0.08041000  1.0
  C  C35  1  0.19193000  0.55032000  0.41959000  1.0
  C  C36  1  0.58358000  0.56887000  0.85641000  1.0
  C  C37  1  0.08358000  0.56887000  0.64359000  1.0
  C  C38  1  0.41642000  0.43112000  0.14359000  1.0
  C  C39  1  0.91641000  0.43114000  0.35641000  1.0
  C  C40  1  0.36592000  0.71816000  0.93398000  1.0
  C  C41  1  0.86592000  0.71818000  0.56602000  1.0
  C  C42  1  0.63406000  0.28182000  0.06602000  1.0
  C  C43  1  0.13404000  0.28184000  0.43397000  1.0
  S  S44  1  0.15612000  0.29658000  0.94328000  1.0
  S  S45  1  0.65610000  0.29661000  0.55672000  1.0
  S  S46  1  0.84390000  0.70339000  0.05673000  1.0
  S  S47  1  0.34388000  0.70342000  0.44328000  1.0
  S  S48  1  0.78461000  0.56785000  0.79278000  1.0
  S  S49  1  0.28458000  0.56786000  0.70723000  1.0
  S  S50  1  0.21543000  0.43214000  0.20723000  1.0
  S  S51  1  0.71540000  0.43216000  0.29277000  1.0
  S  S52  1  0.28876000  0.88522000  0.97513000  1.0
  S  S53  1  0.78878000  0.88524000  0.52487000  1.0
  S  S54  1  0.71123000  0.11476000  0.02487000  1.0
  S  S55  1  0.21123000  0.11478000  0.47513000  1.0
  N  N56  1  0.53294000  0.70788000  0.88780000  1.0
  N  N57  1  0.03295000  0.70789000  0.61219000  1.0
  N  N58  1  0.46705000  0.29210000  0.11219000  1.0
  N  N59  1  0.96708000  0.29212000  0.38781000  1.0
  N  N60  1  0.25062000  0.58956000  0.94838000  1.0
  N  N61  1  0.75062000  0.58957000  0.55162000  1.0
  N  N62  1  0.74941000  0.41042000  0.05161000  1.0
  N  N63  1  0.24940000  0.41044000  0.44840000  1.0
  N  N64  1  0.47871000  0.43735000  0.87477000  1.0
  N  N65  1  0.97870000  0.43737000  0.62523000  1.0
  N  N66  1  0.52130000  0.56263000  0.12522000  1.0
  N  N67  1  0.02130000  0.56265000  0.37478000  1.0
  O  O68  1  0.40033000  0.23169000  0.70825000  1.0
  O  O69  1  0.90033000  0.23169000  0.79175000  1.0
  O  O70  1  0.59967000  0.76832000  0.29175000  1.0
  O  O71  1  0.09968000  0.76830000  0.20826000  1.0
  O  O72  1  0.86584000  0.90805000  0.88173000  1.0
  O  O73  1  0.36583000  0.90806000  0.61826000  1.0
  O  O74  1  0.13416000  0.09194000  0.11826000  1.0
  O  O75  1  0.63416000  0.09195000  0.38174000  1.0
  O  O76  1  0.67830000  0.91634000  0.72300000  1.0
  O  O77  1  0.17831000  0.91634000  0.77700000  1.0
  O  O78  1  0.32170000  0.08366000  0.27700000  1.0
  O  O79  1  0.82170000  0.08366000  0.22300000  1.0
