# generated using pymatgen
data_AlH7C12O7
_symmetry_space_group_name_H-M   'P 1'
_cell_length_a   6.62934000
_cell_length_b   14.51950000
_cell_length_c   14.60750000
_cell_angle_alpha   89.84750000
_cell_angle_beta   89.27890000
_cell_angle_gamma   88.80660000
_symmetry_Int_Tables_number   1
_chemical_formula_structural   AlH7C12O7
_chemical_formula_sum   'Al4 H28 C48 O28'
_cell_volume   1405.62019672
_cell_formula_units_Z   4
loop_
 _symmetry_equiv_pos_site_id
 _symmetry_equiv_pos_as_xyz
  1  'x, y, z'
loop_
 _atom_site_type_symbol
 _atom_site_label
 _atom_site_symmetry_multiplicity
 _atom_site_fract_x
 _atom_site_fract_y
 _atom_site_fract_z
 _atom_site_occupancy
  Al  Al0  1  0.02241000  0.50163000  0.00661000  1.0
  Al  Al1  1  0.52349000  0.49529000  0.00472000  1.0
  Al  Al2  1  0.95692000  0.99546000  0.49433000  1.0
  Al  Al3  1  0.45570000  0.99130000  0.50951000  1.0
  H  H4  1  0.77041000  0.51288000  0.12383000  1.0
  H  H5  1  0.27785000  0.48157000  0.88799000  1.0
  H  H6  1  0.69458000  0.99991000  0.38207000  1.0
  H  H7  1  0.17963000  0.00076000  0.61955000  1.0
  H  H8  1  0.88303000  0.25626000  0.48255000  1.0
  H  H9  1  0.65178000  0.39071000  0.48541000  1.0
  H  H10  1  0.98615000  0.51424000  0.26497000  1.0
  H  H11  1  0.70643000  0.52215000  0.37734000  1.0
  H  H12  1  0.43310000  0.73284000  0.51197000  1.0
  H  H13  1  0.19543000  0.60438000  0.51284000  1.0
  H  H14  1  0.48608000  0.48937000  0.74972000  1.0
  H  H15  1  0.22371000  0.48118000  0.63240000  1.0
  H  H16  1  0.01941000  0.17534000  0.58700000  1.0
  H  H17  1  0.32009000  0.26944000  0.59341000  1.0
  H  H18  1  0.15530000  0.34909000  0.86760000  1.0
  H  H19  1  0.39818000  0.35161000  0.73918000  1.0
  H  H20  1  0.94158000  0.99532000  0.24476000  1.0
  H  H21  1  0.70642000  0.00818000  0.11663000  1.0
  H  H22  1  0.98737000  0.77101000  0.98919000  1.0
  H  H23  1  0.72762000  0.89483000  0.98796000  1.0
  H  H24  1  0.58557000  0.35949000  0.16186000  1.0
  H  H25  1  0.54014000  0.14428000  0.38418000  1.0
  H  H26  1  0.08178000  0.63722000  0.85096000  1.0
  H  H27  1  0.06494000  0.84171000  0.61822000  1.0
  H  H28  1  0.47485000  0.27420000  0.96256000  1.0
  H  H29  1  0.40918000  0.07623000  0.72867000  1.0
  H  H30  1  0.59896000  0.65945000  0.11670000  1.0
  H  H31  1  0.53738000  0.84628000  0.36313000  1.0
  C  C32  1  0.26921000  0.65768000  0.06007000  1.0
  C  C33  1  0.26628000  0.43045000  0.15877000  1.0
  C  C34  1  0.78225000  0.34333000  0.94177000  1.0
  C  C35  1  0.77301000  0.56642000  0.85177000  1.0
  C  C36  1  0.22145000  0.91388000  0.35419000  1.0
  C  C37  1  0.20302000  0.14812000  0.42995000  1.0
  C  C38  1  0.70759000  0.08383000  0.64335000  1.0
  C  C39  1  0.72507000  0.84042000  0.57037000  1.0
  C  C40  1  0.22560000  0.23371000  0.37647000  1.0
  C  C41  1  0.07184000  0.30607000  0.37196000  1.0
  C  C42  1  0.40538000  0.24200000  0.32530000  1.0
  C  C43  1  0.90594000  0.31171000  0.43389000  1.0
  C  C44  1  0.77535000  0.38735000  0.43534000  1.0
  C  C45  1  0.26416000  0.37569000  0.24331000  1.0
  C  C46  1  0.42255000  0.31220000  0.25625000  1.0
  C  C47  1  0.09589000  0.37922000  0.30706000  1.0
  C  C48  1  0.96125000  0.45622000  0.31080000  1.0
  C  C49  1  0.80465000  0.46095000  0.37423000  1.0
  C  C50  1  0.74754000  0.75630000  0.62657000  1.0
  C  C51  1  0.59646000  0.68641000  0.63162000  1.0
  C  C52  1  0.92000000  0.74929000  0.68037000  1.0
  C  C53  1  0.44351000  0.68041000  0.56516000  1.0
  C  C54  1  0.31034000  0.60831000  0.56547000  1.0
  C  C55  1  0.77174000  0.62064000  0.76692000  1.0
  C  C56  1  0.92994000  0.68226000  0.75282000  1.0
  C  C57  1  0.61045000  0.61697000  0.70113000  1.0
  C  C58  1  0.47233000  0.54402000  0.69910000  1.0
  C  C59  1  0.32560000  0.53923000  0.63278000  1.0
  C  C60  1  0.73193000  0.15053000  0.71845000  1.0
  C  C61  1  0.90775000  0.20782000  0.72244000  1.0
  C  C62  1  0.58724000  0.15418000  0.78862000  1.0
  C  C63  1  0.04752000  0.21353000  0.64863000  1.0
  C  C64  1  0.21750000  0.26659000  0.65229000  1.0
  C  C65  1  0.78167000  0.27069000  0.87088000  1.0
  C  C66  1  0.61039000  0.21586000  0.86457000  1.0
  C  C67  1  0.93905000  0.26406000  0.80124000  1.0
  C  C68  1  0.12136000  0.31328000  0.80512000  1.0
  C  C69  1  0.25785000  0.31443000  0.73292000  1.0
  C  C70  1  0.24582000  0.86573000  0.26663000  1.0
  C  C71  1  0.09825000  0.87276000  0.19431000  1.0
  C  C72  1  0.41754000  0.80829000  0.25490000  1.0
  C  C73  1  0.94886000  0.94385000  0.19083000  1.0
  C  C74  1  0.81695000  0.95145000  0.11828000  1.0
  C  C75  1  0.27419000  0.74113000  0.11720000  1.0
  C  C76  1  0.43488000  0.74732000  0.17781000  1.0
  C  C77  1  0.11160000  0.80887000  0.11987000  1.0
  C  C78  1  0.97431000  0.81817000  0.04679000  1.0
  C  C79  1  0.82921000  0.88797000  0.04585000  1.0
  O  O80  1  0.09977000  0.62343000  0.04110000  1.0
  O  O81  1  0.44002000  0.44770000  0.12159000  1.0
  O  O82  1  0.60818000  0.36862000  0.97696000  1.0
  O  O83  1  0.94491000  0.55530000  0.89239000  1.0
  O  O84  1  0.94404000  0.38210000  0.96357000  1.0
  O  O85  1  0.61095000  0.53443000  0.88610000  1.0
  O  O86  1  0.44121000  0.61908000  0.03852000  1.0
  O  O87  1  0.10033000  0.45471000  0.12215000  1.0
  O  O88  1  0.76817000  0.52302000  0.05805000  1.0
  O  O89  1  0.27473000  0.47428000  0.95409000  1.0
  O  O90  1  0.04965000  0.94356000  0.38246000  1.0
  O  O91  1  0.36920000  0.10615000  0.45336000  1.0
  O  O92  1  0.52848000  0.06004000  0.61915000  1.0
  O  O93  1  0.88924000  0.87432000  0.53763000  1.0
  O  O94  1  0.86576000  0.04937000  0.60603000  1.0
  O  O95  1  0.55131000  0.87854000  0.56174000  1.0
  O  O96  1  0.38245000  0.92260000  0.40327000  1.0
  O  O97  1  0.02974000  0.11573000  0.44801000  1.0
  O  O98  1  0.70057000  0.01273000  0.44721000  1.0
  O  O99  1  0.20017000  0.97656000  0.55811000  1.0
  O  O100  1  0.59137000  0.30633000  0.20481000  1.0
  O  O101  1  0.56646000  0.18513000  0.33021000  1.0
  O  O102  1  0.09264000  0.68856000  0.80565000  1.0
  O  O103  1  0.07885000  0.80493000  0.67535000  1.0
  O  O104  1  0.45618000  0.21774000  0.92479000  1.0
  O  O105  1  0.41944000  0.10369000  0.79032000  1.0
  O  O106  1  0.60383000  0.69486000  0.17512000  1.0
  O  O107  1  0.56960000  0.80008000  0.31418000  1.0
