# generated using pymatgen
data_CdH22C22(NO)4
_symmetry_space_group_name_H-M   'P 1'
_cell_length_a   13.36280000
_cell_length_b   13.57440000
_cell_length_c   16.93110000
_cell_angle_alpha   88.25990000
_cell_angle_beta   66.75530000
_cell_angle_gamma   60.50870000
_symmetry_Int_Tables_number   1
_chemical_formula_structural   CdH22C22(NO)4
_chemical_formula_sum   'Cd4 H88 C88 N16 O16'
_cell_volume   2404.09893008
_cell_formula_units_Z   4
loop_
 _symmetry_equiv_pos_site_id
 _symmetry_equiv_pos_as_xyz
  1  'x, y, z'
loop_
 _atom_site_type_symbol
 _atom_site_label
 _atom_site_symmetry_multiplicity
 _atom_site_fract_x
 _atom_site_fract_y
 _atom_site_fract_z
 _atom_site_occupancy
  Cd  Cd0  1  0.43778000  0.79076000  0.27452000  1.0
  Cd  Cd1  1  0.00300000  0.70929000  0.22541000  1.0
  Cd  Cd2  1  0.56222000  0.20924000  0.72548000  1.0
  Cd  Cd3  1  0.99700000  0.29071000  0.77459000  1.0
  H  H4  1  0.75411000  0.52862000  0.41229000  1.0
  H  H5  1  0.19521000  0.97126000  0.08768000  1.0
  H  H6  1  0.24589000  0.47138000  0.58771000  1.0
  H  H7  1  0.80479000  0.02874000  0.91232000  1.0
  H  H8  1  0.00686000  0.78822000  0.43156000  1.0
  H  H9  1  0.72686000  0.71168000  0.06821000  1.0
  H  H10  1  0.99314000  0.21178000  0.56844000  1.0
  H  H11  1  0.27314000  0.28833000  0.93179000  1.0
  H  H12  1  0.66598000  0.70789000  0.35135000  1.0
  H  H13  1  0.22517000  0.79210000  0.14868000  1.0
  H  H14  1  0.33402000  0.29211000  0.64865000  1.0
  H  H15  1  0.77483000  0.20790000  0.85132000  1.0
  H  H16  1  0.43245000  0.54461000  0.28935000  1.0
  H  H17  1  0.76647000  0.95555000  0.21034000  1.0
  H  H18  1  0.56755000  0.45539000  0.71065000  1.0
  H  H19  1  0.23353000  0.04445000  0.78966000  1.0
  H  H20  1  0.46464000  0.35566000  0.32934000  1.0
  H  H21  1  0.64990000  0.14443000  0.17021000  1.0
  H  H22  1  0.53536000  0.64434000  0.67066000  1.0
  H  H23  1  0.35010000  0.85557000  0.82979000  1.0
  H  H24  1  0.60844000  0.24934000  0.39908000  1.0
  H  H25  1  0.75721000  0.25073000  0.10060000  1.0
  H  H26  1  0.39156000  0.75066000  0.60092000  1.0
  H  H27  1  0.24279000  0.74927000  0.89940000  1.0
  H  H28  1  0.72489000  0.32578000  0.43254000  1.0
  H  H29  1  0.98354000  0.17422000  0.06736000  1.0
  H  H30  1  0.27511000  0.67422000  0.56746000  1.0
  H  H31  1  0.01646000  0.82578000  0.93264000  1.0
  H  H32  1  0.20496000  0.73376000  0.29551000  1.0
  H  H33  1  0.73424000  0.76630000  0.20427000  1.0
  H  H34  1  0.79504000  0.26624000  0.70449000  1.0
  H  H35  1  0.26576000  0.23370000  0.79573000  1.0
  H  H36  1  0.31586000  0.90063000  0.48482000  1.0
  H  H37  1  0.20139000  0.59950000  0.01520000  1.0
  H  H38  1  0.68415000  0.09937000  0.51518000  1.0
  H  H39  1  0.79861000  0.40050000  0.98480000  1.0
  H  H40  1  0.16879000  0.97761000  0.64556000  1.0
  H  H41  1  0.29233000  0.52232000  0.85444000  1.0
  H  H42  1  0.83121000  0.02239000  0.35444000  1.0
  H  H43  1  0.70767000  0.47768000  0.14556000  1.0
  H  H44  1  0.97109000  0.97206000  0.71095000  1.0
  H  H45  1  0.15462000  0.52770000  0.78897000  1.0
  H  H46  1  0.02891000  0.02795000  0.28905000  1.0
  H  H47  1  0.84538000  0.47230000  0.21103000  1.0
  H  H48  1  0.90821000  0.89367000  0.62117000  1.0
  H  H49  1  0.92353000  0.60604000  0.87864000  1.0
  H  H50  1  0.09179000  0.10633000  0.37883000  1.0
  H  H51  1  0.07647000  0.39396000  0.12136000  1.0
  H  H52  1  0.42952000  0.80048000  0.00213000  1.0
  H  H53  1  0.73212000  0.69951000  0.49786000  1.0
  H  H54  1  0.57048000  0.19952000  0.99787000  1.0
  H  H55  1  0.26788000  0.30049000  0.50214000  1.0
  H  H56  1  0.42340000  0.62265000  0.02787000  1.0
  H  H57  1  0.57382000  0.87742000  0.47224000  1.0
  H  H58  1  0.57660000  0.37735000  0.97213000  1.0
  H  H59  1  0.42618000  0.12258000  0.52776000  1.0
  H  H60  1  0.59137000  0.54014000  0.98692000  1.0
  H  H61  1  0.61843000  0.95985000  0.51314000  1.0
  H  H62  1  0.40863000  0.45986000  0.01308000  1.0
  H  H63  1  0.38157000  0.04015000  0.48686000  1.0
  H  H64  1  0.44263000  0.67417000  0.88251000  1.0
  H  H65  1  0.49928000  0.82586000  0.61757000  1.0
  H  H66  1  0.55737000  0.32583000  0.11749000  1.0
  H  H67  1  0.50072000  0.17414000  0.38243000  1.0
  H  H68  1  0.53282000  0.52155000  0.86919000  1.0
  H  H69  1  0.42355000  0.97846000  0.63089000  1.0
  H  H70  1  0.46718000  0.47845000  0.13081000  1.0
  H  H71  1  0.57645000  0.02154000  0.36911000  1.0
  H  H72  1  0.64542000  0.60155000  0.75552000  1.0
  H  H73  1  0.50255000  0.89838000  0.74456000  1.0
  H  H74  1  0.35458000  0.39845000  0.24448000  1.0
  H  H75  1  0.49745000  0.10162000  0.25544000  1.0
  H  H76  1  0.73686000  0.70026000  0.80092000  1.0
  H  H77  1  0.73819000  0.79973000  0.69902000  1.0
  H  H78  1  0.26314000  0.29974000  0.19908000  1.0
  H  H79  1  0.26181000  0.20027000  0.30098000  1.0
  H  H80  1  0.56829000  0.78501000  0.84208000  1.0
  H  H81  1  0.69549000  0.71494000  0.65795000  1.0
  H  H82  1  0.43171000  0.21499000  0.15792000  1.0
  H  H83  1  0.30451000  0.28506000  0.34205000  1.0
  H  H84  1  0.63462000  0.79576000  0.95833000  1.0
  H  H85  1  0.88878000  0.70421000  0.54162000  1.0
  H  H86  1  0.36538000  0.20424000  0.04167000  1.0
  H  H87  1  0.11122000  0.29579000  0.45838000  1.0
  H  H88  1  0.71727000  0.64323000  0.94414000  1.0
  H  H89  1  0.80468000  0.85673000  0.55578000  1.0
  H  H90  1  0.28273000  0.35677000  0.05586000  1.0
  H  H91  1  0.19533000  0.14327000  0.44422000  1.0
  C  C92  1  0.64056000  0.64245000  0.35376000  1.0
  C  C93  1  0.13681000  0.85754000  0.14618000  1.0
  C  C94  1  0.35944000  0.35755000  0.64624000  1.0
  C  C95  1  0.86319000  0.14246000  0.85382000  1.0
  C  C96  1  0.64232000  0.47949000  0.37970000  1.0
  C  C97  1  0.00170000  0.02050000  0.12013000  1.0
  C  C98  1  0.35768000  0.52051000  0.62030000  1.0
  C  C99  1  0.99830000  0.97950000  0.87987000  1.0
  C  C100  1  0.56066000  0.54123000  0.33942000  1.0
  C  C101  1  0.94141000  0.95880000  0.16035000  1.0
  C  C102  1  0.43934000  0.45877000  0.66058000  1.0
  C  C103  1  0.05859000  0.04120000  0.83965000  1.0
  C  C104  1  0.49490000  0.49786000  0.32073000  1.0
  C  C105  1  0.81363000  0.00223000  0.17894000  1.0
  C  C106  1  0.50510000  0.50214000  0.67927000  1.0
  C  C107  1  0.18637000  0.99777000  0.82106000  1.0
  C  C108  1  0.51350000  0.39272000  0.34346000  1.0
  C  C109  1  0.74991000  0.10735000  0.15616000  1.0
  C  C110  1  0.48650000  0.60727000  0.65655000  1.0
  C  C111  1  0.25009000  0.89265000  0.84384000  1.0
  C  C112  1  0.59511000  0.33207000  0.38335000  1.0
  C  C113  1  0.81082000  0.16798000  0.11634000  1.0
  C  C114  1  0.40489000  0.66793000  0.61665000  1.0
  C  C115  1  0.18918000  0.83202000  0.88366000  1.0
  C  C116  1  0.66130000  0.37402000  0.40231000  1.0
  C  C117  1  0.93791000  0.12599000  0.09750000  1.0
  C  C118  1  0.33870000  0.62598000  0.59769000  1.0
  C  C119  1  0.06209000  0.87401000  0.90250000  1.0
  C  C120  1  0.18345000  0.77449000  0.35916000  1.0
  C  C121  1  0.81719000  0.72554000  0.14064000  1.0
  C  C122  1  0.81655000  0.22551000  0.64084000  1.0
  C  C123  1  0.18281000  0.27446000  0.85936000  1.0
  C  C124  1  0.08088000  0.84880000  0.50180000  1.0
  C  C125  1  0.93176000  0.65108000  0.99805000  1.0
  C  C126  1  0.91912000  0.15120000  0.49820000  1.0
  C  C127  1  0.06824000  0.34892000  0.00195000  1.0
  C  C128  1  0.19513000  0.85123000  0.46363000  1.0
  C  C129  1  0.01016000  0.64876000  0.03627000  1.0
  C  C130  1  0.80487000  0.14877000  0.53637000  1.0
  C  C131  1  0.98984000  0.35124000  0.96373000  1.0
  C  C132  1  0.22865000  0.89788000  0.51452000  1.0
  C  C133  1  0.14123000  0.60214000  0.98544000  1.0
  C  C134  1  0.77135000  0.10213000  0.48548000  1.0
  C  C135  1  0.85877000  0.39786000  0.01456000  1.0
  C  C136  1  0.14637000  0.94043000  0.60363000  1.0
  C  C137  1  0.19076000  0.55950000  0.89632000  1.0
  C  C138  1  0.85364000  0.05957000  0.39636000  1.0
  C  C139  1  0.80924000  0.44050000  0.10368000  1.0
  C  C140  1  0.03336000  0.93729000  0.64105000  1.0
  C  C141  1  0.11213000  0.56254000  0.85885000  1.0
  C  C142  1  0.96664000  0.06271000  0.35895000  1.0
  C  C143  1  0.88787000  0.43747000  0.14115000  1.0
  C  C144  1  0.99774000  0.89233000  0.59126000  1.0
  C  C145  1  0.98176000  0.60746000  0.90858000  1.0
  C  C146  1  0.00226000  0.10767000  0.40873000  1.0
  C  C147  1  0.01824000  0.39255000  0.09143000  1.0
  C  C148  1  0.49086000  0.74020000  0.10065000  1.0
  C  C149  1  0.83158000  0.75982000  0.39929000  1.0
  C  C150  1  0.50914000  0.25980000  0.89935000  1.0
  C  C151  1  0.16842000  0.24018000  0.60071000  1.0
  C  C152  1  0.77063000  0.48772000  0.80544000  1.0
  C  C153  1  0.56387000  0.01221000  0.69461000  1.0
  C  C154  1  0.22937000  0.51228000  0.19456000  1.0
  C  C155  1  0.43613000  0.98779000  0.30539000  1.0
  C  C156  1  0.51277000  0.72429000  0.00565000  1.0
  C  C157  1  0.74268000  0.77569000  0.49434000  1.0
  C  C158  1  0.48723000  0.27571000  0.99435000  1.0
  C  C159  1  0.25732000  0.22431000  0.50566000  1.0
  C  C160  1  0.51181000  0.61685000  0.98077000  1.0
  C  C161  1  0.60938000  0.88317000  0.51930000  1.0
  C  C162  1  0.48819000  0.38315000  0.01923000  1.0
  C  C163  1  0.39062000  0.11683000  0.48070000  1.0
  C  C164  1  0.52734000  0.60188000  0.88670000  1.0
  C  C165  1  0.51592000  0.89812000  0.61337000  1.0
  C  C166  1  0.47266000  0.39812000  0.11330000  1.0
  C  C167  1  0.48408000  0.10188000  0.38663000  1.0
  C  C168  1  0.64652000  0.60053000  0.82048000  1.0
  C  C169  1  0.56757000  0.89943000  0.67957000  1.0
  C  C170  1  0.35348000  0.39947000  0.17952000  1.0
  C  C171  1  0.43243000  0.10057000  0.32043000  1.0
  C  C172  1  0.64786000  0.70675000  0.84693000  1.0
  C  C173  1  0.70164000  0.79320000  0.65306000  1.0
  C  C174  1  0.35214000  0.29325000  0.15307000  1.0
  C  C175  1  0.29836000  0.20680000  0.34694000  1.0
  C  C176  1  0.63431000  0.71869000  0.94052000  1.0
  C  C177  1  0.79356000  0.78127000  0.55943000  1.0
  C  C178  1  0.36569000  0.28131000  0.05948000  1.0
  C  C179  1  0.20644000  0.21873000  0.44057000  1.0
  N  N180  1  0.56263000  0.64169000  0.32415000  1.0
  N  N181  1  0.02849000  0.85833000  0.17570000  1.0
  N  N182  1  0.43737000  0.35831000  0.67585000  1.0
  N  N183  1  0.97151000  0.14167000  0.82430000  1.0
  N  N184  1  0.69068000  0.54680000  0.38743000  1.0
  N  N185  1  0.12505000  0.95316000  0.11250000  1.0
  N  N186  1  0.30932000  0.45320000  0.61257000  1.0
  N  N187  1  0.87495000  0.04685000  0.88750000  1.0
  N  N188  1  0.25648000  0.80394000  0.37450000  1.0
  N  N189  1  0.93496000  0.69614000  0.12537000  1.0
  N  N190  1  0.74353000  0.19606000  0.62550000  1.0
  N  N191  1  0.06504000  0.30386000  0.87463000  1.0
  N  N192  1  0.07808000  0.79891000  0.43319000  1.0
  N  N193  1  0.81039000  0.70100000  0.06659000  1.0
  N  N194  1  0.92192000  0.20109000  0.56681000  1.0
  N  N195  1  0.18961000  0.29900000  0.93340000  1.0
  O  O196  1  0.57543000  0.73924000  0.11912000  1.0
  O  O197  1  0.93367000  0.76082000  0.38073000  1.0
  O  O198  1  0.42457000  0.26075000  0.88088000  1.0
  O  O199  1  0.06633000  0.23918000  0.61928000  1.0
  O  O200  1  0.38738000  0.75486000  0.16078000  1.0
  O  O201  1  0.80281000  0.74516000  0.33922000  1.0
  O  O202  1  0.61262000  0.24514000  0.83922000  1.0
  O  O203  1  0.19719000  0.25484000  0.66078000  1.0
  O  O204  1  0.87209000  0.49028000  0.78429000  1.0
  O  O205  1  0.64674000  0.00963000  0.71577000  1.0
  O  O206  1  0.12791000  0.50972000  0.21571000  1.0
  O  O207  1  0.35326000  0.99037000  0.28423000  1.0
  O  O208  1  0.76960000  0.39422000  0.81252000  1.0
  O  O209  1  0.47645000  0.10571000  0.68750000  1.0
  O  O210  1  0.23040000  0.60578000  0.18748000  1.0
  O  O211  1  0.52355000  0.89429000  0.31250000  1.0
