# generated using pymatgen
data_AlH10(C3O)5
_symmetry_space_group_name_H-M   'P 1'
_cell_length_a   6.68420000
_cell_length_b   17.13800000
_cell_length_c   19.45200000
_cell_angle_alpha   108.75400000
_cell_angle_beta   89.99820000
_cell_angle_gamma   89.99760000
_symmetry_Int_Tables_number   1
_chemical_formula_structural   AlH10(C3O)5
_chemical_formula_sum   'Al4 H40 C60 O20'
_cell_volume   2109.99524470
_cell_formula_units_Z   4
loop_
 _symmetry_equiv_pos_site_id
 _symmetry_equiv_pos_as_xyz
  1  'x, y, z'
loop_
 _atom_site_type_symbol
 _atom_site_label
 _atom_site_symmetry_multiplicity
 _atom_site_fract_x
 _atom_site_fract_y
 _atom_site_fract_z
 _atom_site_occupancy
  Al  Al0  1  0.89824000  0.49923000  0.50004000  1.0
  Al  Al1  1  0.39823000  0.50077000  0.49996000  1.0
  Al  Al2  1  0.37465000  0.00039000  0.00071000  1.0
  Al  Al3  1  0.87465000  0.99961000  0.99929000  1.0
  H  H4  1  0.42554000  0.65046000  0.72498000  1.0
  H  H5  1  0.92552000  0.34952000  0.27500000  1.0
  H  H6  1  0.41218000  0.76624000  0.84092000  1.0
  H  H7  1  0.91214000  0.23374000  0.15906000  1.0
  H  H8  1  0.64949000  0.80369000  0.79324000  1.0
  H  H9  1  0.14945000  0.19637000  0.20682000  1.0
  H  H10  1  0.77523000  0.77205000  0.63467000  1.0
  H  H11  1  0.27527000  0.22796000  0.36536000  1.0
  H  H12  1  0.41822000  0.68489000  0.40296000  1.0
  H  H13  1  0.91819000  0.31509000  0.59702000  1.0
  H  H14  1  0.83964000  0.81111000  0.09332000  1.0
  H  H15  1  0.33959000  0.18888000  0.90667000  1.0
  H  H16  1  0.68736000  0.70097000  0.13470000  1.0
  H  H17  1  0.18727000  0.29901000  0.86529000  1.0
  H  H18  1  0.69627000  0.61363000  0.21207000  1.0
  H  H19  1  0.19615000  0.38633000  0.78790000  1.0
  H  H20  1  0.57672000  0.87386000  0.27518000  1.0
  H  H21  1  0.07671000  0.12614000  0.72481000  1.0
  H  H22  1  0.41415000  0.91185000  0.17527000  1.0
  H  H23  1  0.91415000  0.08815000  0.82473000  1.0
  H  H24  1  0.81367000  0.92391000  0.71916000  1.0
  H  H25  1  0.55915000  0.91252000  0.74182000  1.0
  H  H26  1  0.73960000  0.95008000  0.81180000  1.0
  H  H27  1  0.31365000  0.07610000  0.28084000  1.0
  H  H28  1  0.05912000  0.08752000  0.25822000  1.0
  H  H29  1  0.23951000  0.04994000  0.18821000  1.0
  H  H30  1  0.65980000  0.69935000  0.67057000  1.0
  H  H31  1  0.15984000  0.30068000  0.32948000  1.0
  H  H32  1  0.87889000  0.49763000  0.32310000  1.0
  H  H33  1  0.69089000  0.57247000  0.33663000  1.0
  H  H34  1  0.77774000  0.52021000  0.24736000  1.0
  H  H35  1  0.37888000  0.50238000  0.67691000  1.0
  H  H36  1  0.19088000  0.42752000  0.66336000  1.0
  H  H37  1  0.27769000  0.47979000  0.75264000  1.0
  H  H38  1  0.57893000  0.79035000  0.35803000  1.0
  H  H39  1  0.07891000  0.20963000  0.64195000  1.0
  H  H40  1  0.65140000  0.60738000  0.53985000  1.0
  H  H41  1  0.15139000  0.39263000  0.46014000  1.0
  H  H42  1  0.62429000  0.90036000  0.00517000  1.0
  H  H43  1  0.12428000  0.09963000  0.99480000  1.0
  C  C44  1  0.64698000  0.41850000  0.58156000  1.0
  C  C45  1  0.14699000  0.58150000  0.41844000  1.0
  C  C46  1  0.64712000  0.38961000  0.38490000  1.0
  C  C47  1  0.14710000  0.61039000  0.61509000  1.0
  C  C48  1  0.97549000  0.72972000  0.70578000  1.0
  C  C49  1  0.47550000  0.27028000  0.29424000  1.0
  C  C50  1  0.13961000  0.67714000  0.68604000  1.0
  C  C51  1  0.63963000  0.32286000  0.31397000  1.0
  C  C52  1  0.29674000  0.69163000  0.73706000  1.0
  C  C53  1  0.79671000  0.30836000  0.26293000  1.0
  C  C54  1  0.28936000  0.75665000  0.80227000  1.0
  C  C55  1  0.78931000  0.24334000  0.19771000  1.0
  C  C56  1  0.12533000  0.81131000  0.82076000  1.0
  C  C57  1  0.62525000  0.18870000  0.17923000  1.0
  C  C58  1  0.96738000  0.79447000  0.77133000  1.0
  C  C59  1  0.46733000  0.20554000  0.22868000  1.0
  C  C60  1  0.75667000  0.81954000  0.75706000  1.0
  C  C61  1  0.25663000  0.18048000  0.24296000  1.0
  C  C62  1  0.77166000  0.74871000  0.68115000  1.0
  C  C63  1  0.27168000  0.25129000  0.31888000  1.0
  C  C64  1  0.98313000  0.61197000  0.31158000  1.0
  C  C65  1  0.48310000  0.38802000  0.68842000  1.0
  C  C66  1  0.14147000  0.62412000  0.36226000  1.0
  C  C67  1  0.64142000  0.37587000  0.63773000  1.0
  C  C68  1  0.29726000  0.67929000  0.36401000  1.0
  C  C69  1  0.79723000  0.32069000  0.63598000  1.0
  C  C70  1  0.29888000  0.72754000  0.31809000  1.0
  C  C71  1  0.79883000  0.27244000  0.68190000  1.0
  C  C72  1  0.13685000  0.71901000  0.26822000  1.0
  C  C73  1  0.63677000  0.28097000  0.73176000  1.0
  C  C74  1  0.97991000  0.66095000  0.26494000  1.0
  C  C75  1  0.47984000  0.33904000  0.73506000  1.0
  C  C76  1  0.45597000  0.78513000  0.31989000  1.0
  C  C77  1  0.95594000  0.21485000  0.68010000  1.0
  C  C78  1  0.45462000  0.83130000  0.27435000  1.0
  C  C79  1  0.95459000  0.16869000  0.72564000  1.0
  C  C80  1  0.29433000  0.82443000  0.22372000  1.0
  C  C81  1  0.79429000  0.17555000  0.77627000  1.0
  C  C82  1  0.13354000  0.76849000  0.22180000  1.0
  C  C83  1  0.63349000  0.23149000  0.77818000  1.0
  C  C84  1  0.96969000  0.76257000  0.17306000  1.0
  C  C85  1  0.46965000  0.23742000  0.82692000  1.0
  C  C86  1  0.81379000  0.70470000  0.17114000  1.0
  C  C87  1  0.31372000  0.29528000  0.82885000  1.0
  C  C88  1  0.81971000  0.65583000  0.21438000  1.0
  C  C89  1  0.31963000  0.34416000  0.78559000  1.0
  C  C90  1  0.29048000  0.87060000  0.17588000  1.0
  C  C91  1  0.79045000  0.12939000  0.82411000  1.0
  C  C92  1  0.12672000  0.86614000  0.12982000  1.0
  C  C93  1  0.62668000  0.13386000  0.87018000  1.0
  C  C94  1  0.96637000  0.81352000  0.12925000  1.0
  C  C95  1  0.46632000  0.18647000  0.87075000  1.0
  C  C96  1  0.62463000  0.11769000  0.11066000  1.0
  C  C97  1  0.12468000  0.88231000  0.88934000  1.0
  C  C98  1  0.62486000  0.08247000  0.91913000  1.0
  C  C99  1  0.12485000  0.91753000  0.08086000  1.0
  C  C100  1  0.71536000  0.90662000  0.75723000  1.0
  C  C101  1  0.21531000  0.09341000  0.24280000  1.0
  C  C102  1  0.82479000  0.54724000  0.30410000  1.0
  C  C103  1  0.32477000  0.45275000  0.69591000  1.0
  O  O104  1  0.47892000  0.41537000  0.41418000  1.0
  O  O105  1  0.97894000  0.58461000  0.58583000  1.0
  O  O106  1  0.81831000  0.43349000  0.55964000  1.0
  O  O107  1  0.31837000  0.56650000  0.44035000  1.0
  O  O108  1  0.81837000  0.41528000  0.41179000  1.0
  O  O109  1  0.31840000  0.58472000  0.58819000  1.0
  O  O110  1  0.97940000  0.56597000  0.44218000  1.0
  O  O111  1  0.47933000  0.43404000  0.55783000  1.0
  O  O112  1  0.64863000  0.54995000  0.51002000  1.0
  O  O113  1  0.14862000  0.45005000  0.48998000  1.0
  O  O114  1  0.79447000  0.06030000  0.93649000  1.0
  O  O115  1  0.29450000  0.93969000  0.06349000  1.0
  O  O116  1  0.45371000  0.08927000  0.08582000  1.0
  O  O117  1  0.95380000  0.91072000  0.91419000  1.0
  O  O118  1  0.45542000  0.06450000  0.94027000  1.0
  O  O119  1  0.95543000  0.93553000  0.05976000  1.0
  O  O120  1  0.29416000  0.90865000  0.91742000  1.0
  O  O121  1  0.79406000  0.09137000  0.08256000  1.0
  O  O122  1  0.62448000  0.95114000  0.99341000  1.0
  O  O123  1  0.12447000  0.04886000  0.00658000  1.0
