# generated using pymatgen
data_AgH13C20N2O5
_symmetry_space_group_name_H-M   'P 1'
_cell_length_a   7.92366000
_cell_length_b   9.80766000
_cell_length_c   11.93610000
_cell_angle_alpha   71.41630000
_cell_angle_beta   76.30450000
_cell_angle_gamma   79.12120000
_symmetry_Int_Tables_number   1
_chemical_formula_structural   AgH13C20N2O5
_chemical_formula_sum   'Ag2 H26 C40 N4 O10'
_cell_volume   847.73444250
_cell_formula_units_Z   2
loop_
 _symmetry_equiv_pos_site_id
 _symmetry_equiv_pos_as_xyz
  1  'x, y, z'
loop_
 _atom_site_type_symbol
 _atom_site_label
 _atom_site_symmetry_multiplicity
 _atom_site_fract_x
 _atom_site_fract_y
 _atom_site_fract_z
 _atom_site_occupancy
  Ag  Ag0  1  0.39841000  0.86894000  0.03132000  1.0
  Ag  Ag1  1  0.60159000  0.13106000  0.96869000  1.0
  H  H2  1  0.53255000  0.26386000  0.29019000  1.0
  H  H3  1  0.46743000  0.73614000  0.70980000  1.0
  H  H4  1  0.45618000  0.45763000  0.39594000  1.0
  H  H5  1  0.54382000  0.54237000  0.60406000  1.0
  H  H6  1  0.23588000  0.43183000  0.58194000  1.0
  H  H7  1  0.76413000  0.56816000  0.41807000  1.0
  H  H8  1  0.08989000  0.20417000  0.67671000  1.0
  H  H9  1  0.91012000  0.79582000  0.32329000  1.0
  H  H10  1  0.33043000  0.76697000  0.34751000  1.0
  H  H11  1  0.66956000  0.23303000  0.65249000  1.0
  H  H12  1  0.58082000  0.62590000  0.21668000  1.0
  H  H13  1  0.41918000  0.37411000  0.78331000  1.0
  H  H14  1  0.78556000  0.39946000  0.22640000  1.0
  H  H15  1  0.21444000  0.60054000  0.77359000  1.0
  H  H16  1  0.80045000  0.48539000  0.84402000  1.0
  H  H17  1  0.19956000  0.51461000  0.15597000  1.0
  H  H18  1  0.59950000  0.70843000  0.85226000  1.0
  H  H19  1  0.40051000  0.29158000  0.14773000  1.0
  H  H20  1  0.90891000  0.19962000  0.23265000  1.0
  H  H21  1  0.09109000  0.80037000  0.76735000  1.0
  H  H22  1  0.12804000  0.98873000  0.22444000  1.0
  H  H23  1  0.87196000  0.01126000  0.77556000  1.0
  H  H24  1  0.00283000  0.32483000  0.84184000  1.0
  H  H25  1  0.99719000  0.67517000  0.15816000  1.0
  H  H26  1  0.22299000  0.10599000  0.85200000  1.0
  H  H27  1  0.77702000  0.89401000  0.14800000  1.0
  C  C28  1  0.24071000  0.91340000  0.48191000  1.0
  C  C29  1  0.75929000  0.08660000  0.51809000  1.0
  C  C30  1  0.35270000  0.99787000  0.38938000  1.0
  C  C31  1  0.64728000  0.00212000  0.61062000  1.0
  C  C32  1  0.34966000  0.12792000  0.42248000  1.0
  C  C33  1  0.65033000  0.87208000  0.57752000  1.0
  C  C34  1  0.43453000  0.25331000  0.37241000  1.0
  C  C35  1  0.56547000  0.74668000  0.62760000  1.0
  C  C36  1  0.39247000  0.35933000  0.43230000  1.0
  C  C37  1  0.60754000  0.64066000  0.56770000  1.0
  C  C38  1  0.26863000  0.34355000  0.54052000  1.0
  C  C39  1  0.73136000  0.65644000  0.45948000  1.0
  C  C40  1  0.18629000  0.21857000  0.59345000  1.0
  C  C41  1  0.81371000  0.78142000  0.40656000  1.0
  C  C42  1  0.23119000  0.11342000  0.53276000  1.0
  C  C43  1  0.76880000  0.88658000  0.46724000  1.0
  C  C44  1  0.19424000  0.76468000  0.51044000  1.0
  C  C45  1  0.80575000  0.23531000  0.48956000  1.0
  C  C46  1  0.45759000  0.96759000  0.27681000  1.0
  C  C47  1  0.54240000  0.03240000  0.72319000  1.0
  C  C48  1  0.63119000  0.58806000  0.13711000  1.0
  C  C49  1  0.36882000  0.41195000  0.86288000  1.0
  C  C50  1  0.74509000  0.46097000  0.14125000  1.0
  C  C51  1  0.25491000  0.53904000  0.85875000  1.0
  C  C52  1  0.80987000  0.41760000  0.03593000  1.0
  C  C53  1  0.19014000  0.58241000  0.96406000  1.0
  C  C54  1  0.75577000  0.50909000  0.93013000  1.0
  C  C55  1  0.24422000  0.49091000  0.06987000  1.0
  C  C56  1  0.64236000  0.63494000  0.93313000  1.0
  C  C57  1  0.35764000  0.36507000  0.06686000  1.0
  C  C58  1  0.93363000  0.28411000  0.03669000  1.0
  C  C59  1  0.06638000  0.71590000  0.96331000  1.0
  C  C60  1  0.97117000  0.18498000  0.14492000  1.0
  C  C61  1  0.02883000  0.81502000  0.85508000  1.0
  C  C62  1  0.09586000  0.06572000  0.14148000  1.0
  C  C63  1  0.90414000  0.93429000  0.85852000  1.0
  C  C64  1  0.02310000  0.25283000  0.92953000  1.0
  C  C65  1  0.97692000  0.74718000  0.07047000  1.0
  C  C66  1  0.14708000  0.13162000  0.93330000  1.0
  C  C67  1  0.85293000  0.86838000  0.06670000  1.0
  N  N68  1  0.57903000  0.67420000  0.03508000  1.0
  N  N69  1  0.42098000  0.32582000  0.96490000  1.0
  N  N70  1  0.18511000  0.03965000  0.03763000  1.0
  N  N71  1  0.81489000  0.96035000  0.96237000  1.0
  O  O72  1  0.16631000  0.98228000  0.56946000  1.0
  O  O73  1  0.83369000  0.01772000  0.43054000  1.0
  O  O74  1  0.24608000  0.70185000  0.42336000  1.0
  O  O75  1  0.75391000  0.29815000  0.57665000  1.0
  O  O76  1  0.11236000  0.70496000  0.61103000  1.0
  O  O77  1  0.88764000  0.29502000  0.38898000  1.0
  O  O78  1  0.44169000  0.84925000  0.25576000  1.0
  O  O79  1  0.55830000  0.15074000  0.74425000  1.0
  O  O80  1  0.55429000  0.05978000  0.20661000  1.0
  O  O81  1  0.44570000  0.94021000  0.79340000  1.0
