# generated using pymatgen
data_Zn4H21C70S6N4Cl3(O8F3)2
_symmetry_space_group_name_H-M   'P 1'
_cell_length_a   12.76760000
_cell_length_b   13.84690000
_cell_length_c   28.07170000
_cell_angle_alpha   90.03400000
_cell_angle_beta   89.80930000
_cell_angle_gamma   89.91380000
_symmetry_Int_Tables_number   1
_chemical_formula_structural   Zn4H21C70S6N4Cl3(O8F3)2
_chemical_formula_sum   'Zn4 H21 C70 S6 N4 Cl3 O16 F6'
_cell_volume   4962.80902184
_cell_formula_units_Z   1
loop_
 _symmetry_equiv_pos_site_id
 _symmetry_equiv_pos_as_xyz
  1  'x, y, z'
loop_
 _atom_site_type_symbol
 _atom_site_label
 _atom_site_symmetry_multiplicity
 _atom_site_fract_x
 _atom_site_fract_y
 _atom_site_fract_z
 _atom_site_occupancy
  Zn  Zn0  1  0.50244000  0.39954000  0.49843000  1.0
  Zn  Zn1  1  0.49885000  0.60047000  0.49994000  1.0
  Zn  Zn2  1  0.50269000  0.60076000  0.04425000  1.0
  Zn  Zn3  1  0.49970000  0.40004000  0.04425000  1.0
  H  H4  1  0.38520000  0.24931000  0.55100000  1.0
  H  H5  1  0.31038000  0.08983000  0.58588000  1.0
  H  H6  1  0.61627000  0.24759000  0.44724000  1.0
  H  H7  1  0.61326000  0.75107000  0.44740000  1.0
  H  H8  1  0.68959000  0.91023000  0.41345000  1.0
  H  H9  1  0.38393000  0.75220000  0.55191000  1.0
  H  H10  1  0.50033000  0.34736000  0.20717000  1.0
  H  H11  1  0.49980000  0.65459000  0.65073000  1.0
  H  H12  1  0.50029000  0.74696000  0.72839000  1.0
  H  H13  1  0.49941000  0.34479000  0.65045000  1.0
  H  H14  1  0.49950000  0.34497000  0.89266000  1.0
  H  H15  1  0.49890000  0.25260000  0.81495000  1.0
  H  H16  1  0.50099000  0.65483000  0.89289000  1.0
  H  H17  1  0.85870000  0.65279000  0.50025000  1.0
  H  H18  1  0.38569000  0.75156000  0.99227000  1.0
  H  H19  1  0.31155000  0.91153000  0.95760000  1.0
  H  H20  1  0.61659000  0.75192000  0.09541000  1.0
  H  H21  1  0.61563000  0.24851000  0.09510000  1.0
  H  H22  1  0.69150000  0.08871000  0.12885000  1.0
  H  H23  1  0.38553000  0.24869000  0.99167000  1.0
  H  H24  1  0.85974000  0.34822000  0.04417000  1.0
  C  C25  1  0.49912000  0.50004000  0.59255000  1.0
  C  C26  1  0.29557000  0.49983000  0.49979000  1.0
  C  C27  1  0.50238000  0.50000000  0.40588000  1.0
  C  C28  1  0.70606000  0.50079000  0.49897000  1.0
  C  C29  1  0.50002000  0.49982000  0.95084000  1.0
  C  C30  1  0.29612000  0.50175000  0.04430000  1.0
  C  C31  1  0.50250000  0.49965000  0.13768000  1.0
  C  C32  1  0.70662000  0.50054000  0.04466000  1.0
  C  C33  1  0.43561000  0.20434000  0.52869000  1.0
  C  C34  1  0.43181000  0.10312000  0.53066000  1.0
  C  C35  1  0.36312000  0.05123000  0.56189000  1.0
  C  C36  1  0.56606000  0.20368000  0.46994000  1.0
  C  C37  1  0.56871000  0.10264000  0.46879000  1.0
  C  C38  1  0.63598000  0.04735000  0.43820000  1.0
  C  C39  1  0.56396000  0.79592000  0.47028000  1.0
  C  C40  1  0.56827000  0.89711000  0.46867000  1.0
  C  C41  1  0.63709000  0.94892000  0.43750000  1.0
  C  C42  1  0.43422000  0.79631000  0.52933000  1.0
  C  C43  1  0.43179000  0.89739000  0.53073000  1.0
  C  C44  1  0.36460000  0.95279000  0.56134000  1.0
  C  C45  1  0.50033000  0.05117000  0.49976000  1.0
  C  C46  1  0.50014000  0.94896000  0.49978000  1.0
  C  C47  1  0.50194000  0.58110000  0.32234000  1.0
  C  C48  1  0.50117000  0.42114000  0.22042000  1.0
  C  C49  1  0.50198000  0.50284000  0.35335000  1.0
  C  C50  1  0.50188000  0.50007000  0.19029000  1.0
  C  C51  1  0.50132000  0.45049000  0.26865000  1.0
  C  C52  1  0.50177000  0.55159000  0.27406000  1.0
  C  C53  1  0.49943000  0.58736000  0.67089000  1.0
  C  C54  1  0.49959000  0.58922000  0.72084000  1.0
  C  C55  1  0.50003000  0.67803000  0.74711000  1.0
  C  C56  1  0.49903000  0.41197000  0.67057000  1.0
  C  C57  1  0.49898000  0.41095000  0.72043000  1.0
  C  C58  1  0.49877000  0.32379000  0.74784000  1.0
  C  C59  1  0.49942000  0.41223000  0.87251000  1.0
  C  C60  1  0.49930000  0.41035000  0.82256000  1.0
  C  C61  1  0.49900000  0.32157000  0.79626000  1.0
  C  C62  1  0.50013000  0.58763000  0.87280000  1.0
  C  C63  1  0.49986000  0.58866000  0.82295000  1.0
  C  C64  1  0.50010000  0.67583000  0.79553000  1.0
  C  C65  1  0.49909000  0.49982000  0.64601000  1.0
  C  C66  1  0.49929000  0.49987000  0.74639000  1.0
  C  C67  1  0.49978000  0.49976000  0.89738000  1.0
  C  C68  1  0.49944000  0.49973000  0.79700000  1.0
  C  C69  1  0.11198000  0.41882000  0.50022000  1.0
  C  C70  1  0.88791000  0.57901000  0.50006000  1.0
  C  C71  1  0.18013000  0.49704000  0.50024000  1.0
  C  C72  1  0.82172000  0.50015000  0.49959000  1.0
  C  C73  1  0.99394000  0.54953000  0.50037000  1.0
  C  C74  1  0.00584000  0.44843000  0.50022000  1.0
  C  C75  1  0.43621000  0.79624000  0.01446000  1.0
  C  C76  1  0.43284000  0.89748000  0.01249000  1.0
  C  C77  1  0.36437000  0.94980000  0.98146000  1.0
  C  C78  1  0.56656000  0.79616000  0.07286000  1.0
  C  C79  1  0.56961000  0.89716000  0.07398000  1.0
  C  C80  1  0.63711000  0.95203000  0.10436000  1.0
  C  C81  1  0.56586000  0.20391000  0.07253000  1.0
  C  C82  1  0.57003000  0.10270000  0.07406000  1.0
  C  C83  1  0.63871000  0.05045000  0.10499000  1.0
  C  C84  1  0.43586000  0.20433000  0.01402000  1.0
  C  C85  1  0.43340000  0.10325000  0.01250000  1.0
  C  C86  1  0.36608000  0.04824000  0.98206000  1.0
  C  C87  1  0.50150000  0.94903000  0.04319000  1.0
  C  C88  1  0.50166000  0.05124000  0.04318000  1.0
  C  C89  1  0.11216000  0.58232000  0.04413000  1.0
  C  C90  1  0.88871000  0.42199000  0.04437000  1.0
  C  C91  1  0.18067000  0.50416000  0.04421000  1.0
  C  C92  1  0.82226000  0.50084000  0.04451000  1.0
  C  C93  1  0.99466000  0.45150000  0.04424000  1.0
  C  C94  1  0.00616000  0.55261000  0.04421000  1.0
  S  S95  1  0.50135000  0.39294000  0.32314000  1.0
  S  S96  1  0.50214000  0.61036000  0.22010000  1.0
  S  S97  1  0.11369000  0.60697000  0.50044000  1.0
  S  S98  1  0.88719000  0.38979000  0.49968000  1.0
  S  S99  1  0.11467000  0.39417000  0.04427000  1.0
  S  S100  1  0.88732000  0.61123000  0.04433000  1.0
  N  N101  1  0.50085000  0.25145000  0.49926000  1.0
  N  N102  1  0.49901000  0.74866000  0.49974000  1.0
  N  N103  1  0.50121000  0.74878000  0.04373000  1.0
  N  N104  1  0.50067000  0.25165000  0.04346000  1.0
  Cl  Cl105  1  0.50197000  0.70084000  0.33788000  1.0
  Cl  Cl106  1  0.14623000  0.29908000  0.50011000  1.0
  Cl  Cl107  1  0.14574000  0.70213000  0.04398000  1.0
  O  O108  1  0.50036000  0.41846000  0.57166000  1.0
  O  O109  1  0.49802000  0.58230000  0.57216000  1.0
  O  O110  1  0.33722000  0.58364000  0.50042000  1.0
  O  O111  1  0.34372000  0.41933000  0.49870000  1.0
  O  O112  1  0.50083000  0.58051000  0.42778000  1.0
  O  O113  1  0.50411000  0.41620000  0.42486000  1.0
  O  O114  1  0.66168000  0.41810000  0.49820000  1.0
  O  O115  1  0.66078000  0.58271000  0.49929000  1.0
  O  O116  1  0.50122000  0.58173000  0.97145000  1.0
  O  O117  1  0.49907000  0.41793000  0.97159000  1.0
  O  O118  1  0.33848000  0.41802000  0.04437000  1.0
  O  O119  1  0.34360000  0.58239000  0.04436000  1.0
  O  O120  1  0.50158000  0.41746000  0.11718000  1.0
  O  O121  1  0.50388000  0.58205000  0.11733000  1.0
  O  O122  1  0.66239000  0.58336000  0.04456000  1.0
  O  O123  1  0.66115000  0.41875000  0.04482000  1.0
  F  F124  1  0.30018000  0.90262000  0.59080000  1.0
  F  F125  1  0.70055000  0.09750000  0.40886000  1.0
  F  F126  1  0.50033000  0.76084000  0.82032000  1.0
  F  F127  1  0.49823000  0.23882000  0.72303000  1.0
  F  F128  1  0.30178000  0.09882000  0.95286000  1.0
  F  F129  1  0.70145000  0.90154000  0.13351000  1.0
