# generated using pymatgen
data_Zn2H56C67(N4O9)2
_symmetry_space_group_name_H-M   'P 1'
_cell_length_a   9.42918000
_cell_length_b   10.80128500
_cell_length_c   16.70110000
_cell_angle_alpha   88.58817431
_cell_angle_beta   89.94690000
_cell_angle_gamma   68.52245447
_symmetry_Int_Tables_number   1
_chemical_formula_structural   Zn2H56C67(N4O9)2
_chemical_formula_sum   'Zn2 H56 C67 N8 O18'
_cell_volume   1582.30804243
_cell_formula_units_Z   1
loop_
 _symmetry_equiv_pos_site_id
 _symmetry_equiv_pos_as_xyz
  1  'x, y, z'
loop_
 _atom_site_type_symbol
 _atom_site_label
 _atom_site_symmetry_multiplicity
 _atom_site_fract_x
 _atom_site_fract_y
 _atom_site_fract_z
 _atom_site_occupancy
  Zn  Zn0  1  0.12025000  0.46039000  0.23693000  1.0
  Zn  Zn1  1  0.87976000  0.53964000  0.76309000  1.0
  H  H2  1  0.12788000  0.43607000  0.07013000  1.0
  H  H3  1  0.87212000  0.56396000  0.92987000  1.0
  H  H4  1  0.97144000  0.53123000  0.10759000  1.0
  H  H5  1  0.02856000  0.46879000  0.89242000  1.0
  H  H6  1  0.55979000  0.27964000  0.08353000  1.0
  H  H7  1  0.44021000  0.72037000  0.91648000  1.0
  H  H8  1  0.28105000  0.39782000  0.36850000  1.0
  H  H9  1  0.71894000  0.60219000  0.63152000  1.0
  H  H10  1  0.12397000  0.50729000  0.40051000  1.0
  H  H11  1  0.87602000  0.49272000  0.59951000  1.0
  H  H12  1  0.77134000  0.15725000  0.50072000  1.0
  H  H13  1  0.22864000  0.84278000  0.49930000  1.0
  H  H14  1  0.74325000  0.77816000  0.34541000  1.0
  H  H15  1  0.25675000  0.22186000  0.65460000  1.0
  H  H16  1  0.47620000  0.12459000  0.13943000  1.0
  H  H17  1  0.52379000  0.87544000  0.86059000  1.0
  H  H18  1  0.37385000  0.38625000  0.12434000  1.0
  H  H19  1  0.62615000  0.61376000  0.87568000  1.0
  H  H20  1  0.04924000  0.11421000  0.88944000  1.0
  H  H21  1  0.95077000  0.88579000  0.11057000  1.0
  H  H22  1  0.57002000  0.10639000  0.00727000  1.0
  H  H23  1  0.43000000  0.89361000  0.99274000  1.0
  H  H24  1  0.67204000  0.90573000  0.09842000  1.0
  H  H25  1  0.32795000  0.09430000  0.90160000  1.0
  H  H26  1  0.60437000  0.66539000  0.12764000  1.0
  H  H27  1  0.39563000  0.33461000  0.87236000  1.0
  H  H28  1  0.11520000  0.28430000  0.38195000  1.0
  H  H29  1  0.88480000  0.71576000  0.61807000  1.0
  H  H30  1  0.90400000  0.29062000  0.98112000  1.0
  H  H31  1  0.09602000  0.70937000  0.01889000  1.0
  H  H32  1  0.94439000  0.81717000  0.84421000  1.0
  H  H33  1  0.05562000  0.18283000  0.15580000  1.0
  H  H34  1  0.10468000  0.86464000  0.85319000  1.0
  H  H35  1  0.89532000  0.13538000  0.14682000  1.0
  H  H36  1  0.67752000  0.07961000  0.61142000  1.0
  H  H37  1  0.32246000  0.92040000  0.38859000  1.0
  H  H38  1  0.19960000  0.71221000  0.26657000  1.0
  H  H39  1  0.80040000  0.28782000  0.73344000  1.0
  H  H40  1  0.72287000  0.92468000  0.91893000  1.0
  H  H41  1  0.27713000  0.07534000  0.08107000  1.0
  H  H42  1  0.40349000  0.79822000  0.22488000  1.0
  H  H43  1  0.59653000  0.20178000  0.77513000  1.0
  H  H44  1  0.72626000  0.96913000  0.74560000  1.0
  H  H45  1  0.27374000  0.03088000  0.25441000  1.0
  H  H46  1  0.55416000  0.99892000  0.38622000  1.0
  H  H47  1  0.44584000  0.00109000  0.61380000  1.0
  H  H48  1  0.18157000  0.96680000  0.74382000  1.0
  H  H49  1  0.81844000  0.03317000  0.25618000  1.0
  H  H50  1  0.80033000  0.44837000  0.19892000  1.0
  H  H51  1  0.19969000  0.55164000  0.80109000  1.0
  H  H52  1  0.13389000  0.07926000  0.61012000  1.0
  H  H53  1  0.86613000  0.92072000  0.38988000  1.0
  H  H54  1  0.60476000  0.37924000  0.27008000  1.0
  H  H55  1  0.39528000  0.62068000  0.72989000  1.0
  H  H56  1  0.66687000  0.26471000  0.40182000  1.0
  H  H57  1  0.33323000  0.73512000  0.59812000  1.0
  C  C58  1  0.50893000  0.51319000  0.11976000  1.0
  C  C59  1  0.49108000  0.48681000  0.88025000  1.0
  C  C60  1  0.89607000  0.00691000  0.89749000  1.0
  C  C61  1  0.10394000  0.99309000  0.10252000  1.0
  C  C62  1  0.68437000  0.85476000  0.30057000  1.0
  C  C63  1  0.31563000  0.14527000  0.69945000  1.0
  C  C64  1  0.53857000  0.04878000  0.18397000  1.0
  C  C65  1  0.46143000  0.95124000  0.81605000  1.0
  C  C66  1  0.38890000  0.47559000  0.14510000  1.0
  C  C67  1  0.61111000  0.52442000  0.85492000  1.0
  C  C68  1  0.72722000  0.21012000  0.00013000  1.0
  C  C69  1  0.27278000  0.78989000  0.99987000  1.0
  C  C70  1  0.62979000  0.43434000  0.06290000  1.0
  C  C71  1  0.37022000  0.56566000  0.93711000  1.0
  C  C72  1  0.72067000  0.83030000  0.21964000  1.0
  C  C73  1  0.27931000  0.16972000  0.78038000  1.0
  C  C74  1  0.50774000  0.07668000  0.26512000  1.0
  C  C75  1  0.49227000  0.92334000  0.73490000  1.0
  C  C76  1  0.90330000  0.08763000  0.60206000  1.0
  C  C77  1  0.09671000  0.91238000  0.39795000  1.0
  C  C78  1  0.95717000  0.96050000  0.75470000  1.0
  C  C79  1  0.04283000  0.03951000  0.24530000  1.0
  C  C80  1  0.94420000  0.11148000  0.91533000  1.0
  C  C81  1  0.05581000  0.88852000  0.08467000  1.0
  C  C82  1  0.67698000  0.10653000  0.98227000  1.0
  C  C83  1  0.32303000  0.89348000  0.01774000  1.0
  C  C84  1  0.64452000  0.92718000  0.16120000  1.0
  C  C85  1  0.35546000  0.07285000  0.83882000  1.0
  C  C86  1  0.84475000  0.70403000  0.19474000  1.0
  C  C87  1  0.15524000  0.29599000  0.80527000  1.0
  C  C88  1  0.51332000  0.63277000  0.14798000  1.0
  C  C89  1  0.48668000  0.36723000  0.85204000  1.0
  C  C90  1  0.00040000  0.30717000  0.35850000  1.0
  C  C91  1  0.99963000  0.69284000  0.64150000  1.0
  C  C92  1  0.89750000  0.26998000  0.40444000  1.0
  C  C93  1  0.10255000  0.72998000  0.59554000  1.0
  C  C94  1  0.86284000  0.21205000  0.96665000  1.0
  C  C95  1  0.13717000  0.78795000  0.03336000  1.0
  C  C96  1  0.98218000  0.90198000  0.83890000  1.0
  C  C97  1  0.01782000  0.09803000  0.16110000  1.0
  C  C98  1  0.39574000  0.21075000  0.28815000  1.0
  C  C99  1  0.60425000  0.78928000  0.71188000  1.0
  C  C100  1  0.78867000  0.05474000  0.64036000  1.0
  C  C101  1  0.21133000  0.94528000  0.35964000  1.0
  C  C102  1  0.28854000  0.65919000  0.22463000  1.0
  C  C103  1  0.71147000  0.34082000  0.77540000  1.0
  C  C104  1  0.76154000  0.00564000  0.93212000  1.0
  C  C105  1  0.23847000  0.99437000  0.06789000  1.0
  C  C106  1  0.40262000  0.70554000  0.20143000  1.0
  C  C107  1  0.59741000  0.29445000  0.79860000  1.0
  C  C108  1  0.81623000  0.99240000  0.71564000  1.0
  C  C109  1  0.18376000  0.00762000  0.28437000  1.0
  C  C110  1  0.57982000  0.97762000  0.32322000  1.0
  C  C111  1  0.42018000  0.02241000  0.67680000  1.0
  C  C112  1  0.07048000  0.99173000  0.71515000  1.0
  C  C113  1  0.92952000  0.00827000  0.28484000  1.0
  C  C114  1  0.82468000  0.39615000  0.25690000  1.0
  C  C115  1  0.17535000  0.60383000  0.74310000  1.0
  C  C116  1  0.04550000  0.05426000  0.63983000  1.0
  C  C117  1  0.95452000  0.94573000  0.36017000  1.0
  C  C118  1  0.71677000  0.35808000  0.29676000  1.0
  C  C119  1  0.28326000  0.64185000  0.70321000  1.0
  C  C120  1  0.75302000  0.29405000  0.37168000  1.0
  C  C121  1  0.24705000  0.70585000  0.62828000  1.0
  C  C122  1  0.95694000  0.20960000  0.48517000  1.0
  C  C123  1  0.04310000  0.79037000  0.51482000  1.0
  C  C124  1  0.49981000  0.49989000  0.49981000  1.0
  N  N125  1  0.63763000  0.30650000  0.05312000  1.0
  N  N126  1  0.36238000  0.69350000  0.94689000  1.0
  N  N127  1  0.96520000  0.37034000  0.28717000  1.0
  N  N128  1  0.03481000  0.62968000  0.71284000  1.0
  N  N129  1  0.87124000  0.15152000  0.52628000  1.0
  N  N130  1  0.12877000  0.84848000  0.47372000  1.0
  N  N131  1  0.28208000  0.54574000  0.19637000  1.0
  N  N132  1  0.71793000  0.45427000  0.80366000  1.0
  O  O133  1  0.29646000  0.27199000  0.23429000  1.0
  O  O134  1  0.70354000  0.72803000  0.76575000  1.0
  O  O135  1  0.05627000  0.43901000  0.11288000  1.0
  O  O136  1  0.94373000  0.56102000  0.88713000  1.0
  O  O137  1  0.93882000  0.63911000  0.24968000  1.0
  O  O138  1  0.06118000  0.36092000  0.75033000  1.0
  O  O139  1  0.84718000  0.67248000  0.12186000  1.0
  O  O140  1  0.15281000  0.32755000  0.87815000  1.0
  O  O141  1  0.40722000  0.25228000  0.35737000  1.0
  O  O142  1  0.59278000  0.74774000  0.64266000  1.0
  O  O143  1  0.71396000  0.48365000  0.02853000  1.0
  O  O144  1  0.28603000  0.51636000  0.97147000  1.0
  O  O145  1  0.20120000  0.49100000  0.35937000  1.0
  O  O146  1  0.79880000  0.50902000  0.64066000  1.0
  O  O147  1  0.07803000  0.21472000  0.51101000  1.0
  O  O148  1  0.92203000  0.78520000  0.48897000  1.0
  O  O149  1  0.51389000  0.39755000  0.53151000  1.0
  O  O150  1  0.48574000  0.60224000  0.46813000  1.0
