# generated using pymatgen
data_Cu2H4C8IN5
_symmetry_space_group_name_H-M   'P 1'
_cell_length_a   8.72758000
_cell_length_b   11.27569372
_cell_length_c   11.80590000
_cell_angle_alpha   109.18285202
_cell_angle_beta   90.00020000
_cell_angle_gamma   112.75634233
_symmetry_Int_Tables_number   1
_chemical_formula_structural   Cu2H4C8IN5
_chemical_formula_sum   'Cu8 H16 C32 I4 N20'
_cell_volume   1001.05361701
_cell_formula_units_Z   4
loop_
 _symmetry_equiv_pos_site_id
 _symmetry_equiv_pos_as_xyz
  1  'x, y, z'
loop_
 _atom_site_type_symbol
 _atom_site_label
 _atom_site_symmetry_multiplicity
 _atom_site_fract_x
 _atom_site_fract_y
 _atom_site_fract_z
 _atom_site_occupancy
  Cu  Cu0  1  0.65583000  0.30947000  0.73502000  1.0
  Cu  Cu1  1  0.34643000  0.69081000  0.76519000  1.0
  Cu  Cu2  1  0.34417000  0.69053000  0.26498000  1.0
  Cu  Cu3  1  0.65357000  0.30919000  0.23481000  1.0
  Cu  Cu4  1  0.58598000  0.50415000  0.09226000  1.0
  Cu  Cu5  1  0.08190000  0.49585000  0.40779000  1.0
  Cu  Cu6  1  0.41402000  0.49585000  0.90774000  1.0
  Cu  Cu7  1  0.91811000  0.50416000  0.59221000  1.0
  H  H8  1  0.20376000  0.39936000  0.06316000  1.0
  H  H9  1  0.80392000  0.60063000  0.43672000  1.0
  H  H10  1  0.79624000  0.60064000  0.93684000  1.0
  H  H11  1  0.19608000  0.39937000  0.56328000  1.0
  H  H12  1  0.12352000  0.23295000  0.17054000  1.0
  H  H13  1  0.89024000  0.76714000  0.32944000  1.0
  H  H14  1  0.87648000  0.76704000  0.82946000  1.0
  H  H15  1  0.10975000  0.23285000  0.67056000  1.0
  H  H16  1  0.85021000  0.02731000  0.10382000  1.0
  H  H17  1  0.82251000  0.97281000  0.39625000  1.0
  H  H18  1  0.14978000  0.97268000  0.89617000  1.0
  H  H19  1  0.17748000  0.02718000  0.60375000  1.0
  H  H20  1  0.73534000  0.15731000  0.82158000  1.0
  H  H21  1  0.57724000  0.84259000  0.67827000  1.0
  H  H22  1  0.26465000  0.84269000  0.17842000  1.0
  H  H23  1  0.42276000  0.15741000  0.32174000  1.0
  C  C24  1  0.97515000  0.28963000  0.93470000  1.0
  C  C25  1  0.68475000  0.71023000  0.56505000  1.0
  C  C26  1  0.02485000  0.71037000  0.06530000  1.0
  C  C27  1  0.31525000  0.28977000  0.43495000  1.0
  C  C28  1  0.08441000  0.30933000  0.03317000  1.0
  C  C29  1  0.77446000  0.69062000  0.46664000  1.0
  C  C30  1  0.91560000  0.69067000  0.96683000  1.0
  C  C31  1  0.22553000  0.30937000  0.53337000  1.0
  C  C32  1  0.03919000  0.21550000  0.09324000  1.0
  C  C33  1  0.82322000  0.78454000  0.40666000  1.0
  C  C34  1  0.96081000  0.78450000  0.90676000  1.0
  C  C35  1  0.17678000  0.21546000  0.59334000  1.0
  C  C36  1  0.88664000  0.10056000  0.05693000  1.0
  C  C37  1  0.78559000  0.89950000  0.44304000  1.0
  C  C38  1  0.11336000  0.89944000  0.94307000  1.0
  C  C39  1  0.21441000  0.10050000  0.55696000  1.0
  C  C40  1  0.77781000  0.07991000  0.95753000  1.0
  C  C41  1  0.69728000  0.92007000  0.54238000  1.0
  C  C42  1  0.22219000  0.92008000  0.04247000  1.0
  C  C43  1  0.30272000  0.07993000  0.45762000  1.0
  C  C44  1  0.82160000  0.17446000  0.89739000  1.0
  C  C45  1  0.64630000  0.82542000  0.60241000  1.0
  C  C46  1  0.17840000  0.82554000  0.10261000  1.0
  C  C47  1  0.35370000  0.17458000  0.39759000  1.0
  C  C48  1  0.01944000  0.38461000  0.86865000  1.0
  C  C49  1  0.63450000  0.61533000  0.63118000  1.0
  C  C50  1  0.98055000  0.61539000  0.13135000  1.0
  C  C51  1  0.36550000  0.38467000  0.36883000  1.0
  C  C52  1  0.62262000  0.96359000  0.91355000  1.0
  C  C53  1  0.65869000  0.03654000  0.58643000  1.0
  C  C54  1  0.37738000  0.03641000  0.08645000  1.0
  C  C55  1  0.34132000  0.96346000  0.41356000  1.0
  I  I56  1  0.44981000  0.27347000  0.90133000  1.0
  I  I57  1  0.17611000  0.72657000  0.59875000  1.0
  I  I58  1  0.55019000  0.72653000  0.09867000  1.0
  I  I59  1  0.82388000  0.27343000  0.40125000  1.0
  N  N60  1  0.90982000  0.39139000  0.79257000  1.0
  N  N61  1  0.51829000  0.60865000  0.70741000  1.0
  N  N62  1  0.09017000  0.60861000  0.20743000  1.0
  N  N63  1  0.48170000  0.39135000  0.29259000  1.0
  N  N64  1  0.00135000  0.48510000  0.74546000  1.0
  N  N65  1  0.51642000  0.51511000  0.75463000  1.0
  N  N66  1  0.99865000  0.51490000  0.25454000  1.0
  N  N67  1  0.48358000  0.48489000  0.24536000  1.0
  N  N68  1  0.16064000  0.53751000  0.79369000  1.0
  N  N69  1  0.62331000  0.46271000  0.70636000  1.0
  N  N70  1  0.83936000  0.46249000  0.20631000  1.0
  N  N71  1  0.37669000  0.53729000  0.29364000  1.0
  N  N72  1  0.17650000  0.47490000  0.86962000  1.0
  N  N73  1  0.70150000  0.52517000  0.63026000  1.0
  N  N74  1  0.82350000  0.52510000  0.13038000  1.0
  N  N75  1  0.29849000  0.47483000  0.36974000  1.0
  N  N76  1  0.49481000  0.86812000  0.87102000  1.0
  N  N77  1  0.62657000  0.13215000  0.62905000  1.0
  N  N78  1  0.50520000  0.13188000  0.12898000  1.0
  N  N79  1  0.37343000  0.86786000  0.37095000  1.0
