# generated using pymatgen
data_CaH10C10(SO4)2
_symmetry_space_group_name_H-M   'P 1'
_cell_length_a   7.81917000
_cell_length_b   8.09827000
_cell_length_c   11.27910000
_cell_angle_alpha   73.73830000
_cell_angle_beta   82.90630000
_cell_angle_gamma   84.01820000
_symmetry_Int_Tables_number   1
_chemical_formula_structural   CaH10C10(SO4)2
_chemical_formula_sum   'Ca2 H20 C20 S4 O16'
_cell_volume   678.57047597
_cell_formula_units_Z   2
loop_
 _symmetry_equiv_pos_site_id
 _symmetry_equiv_pos_as_xyz
  1  'x, y, z'
loop_
 _atom_site_type_symbol
 _atom_site_label
 _atom_site_symmetry_multiplicity
 _atom_site_fract_x
 _atom_site_fract_y
 _atom_site_fract_z
 _atom_site_occupancy
  Ca  Ca0  1  0.22578000  0.24234000  0.00236000  1.0
  Ca  Ca1  1  0.77422000  0.75766000  0.99764000  1.0
  H  H2  1  0.04176000  0.91363000  0.13021000  1.0
  H  H3  1  0.95824000  0.08637000  0.86979000  1.0
  H  H4  1  0.93022000  0.08125000  0.14622000  1.0
  H  H5  1  0.06978000  0.91875000  0.85378000  1.0
  H  H6  1  0.34043000  0.59615000  0.86861000  1.0
  H  H7  1  0.65957000  0.40385000  0.13139000  1.0
  H  H8  1  0.50422000  0.46261000  0.86319000  1.0
  H  H9  1  0.49578000  0.53739000  0.13681000  1.0
  H  H10  1  0.63627000  0.70857000  0.30920000  1.0
  H  H11  1  0.36373000  0.29143000  0.69079000  1.0
  H  H12  1  0.62112000  0.54840000  0.53384000  1.0
  H  H13  1  0.37888000  0.45161000  0.46616000  1.0
  H  H14  1  0.53611000  0.69965000  0.69350000  1.0
  H  H15  1  0.46389000  0.30035000  0.30650000  1.0
  H  H16  1  0.04662000  0.76977000  0.69874000  1.0
  H  H17  1  0.95338000  0.23022000  0.30127000  1.0
  H  H18  1  0.15725000  0.91119000  0.48048000  1.0
  H  H19  1  0.84275000  0.08881000  0.51952000  1.0
  H  H20  1  0.14722000  0.77049000  0.31589000  1.0
  H  H21  1  0.85278000  0.22951000  0.68411000  1.0
  C  C22  1  0.55811000  0.95303000  0.34532000  1.0
  C  C23  1  0.44189000  0.04697000  0.65468000  1.0
  C  C24  1  0.59694000  0.77685000  0.37986000  1.0
  C  C25  1  0.40307000  0.22315000  0.62014000  1.0
  C  C26  1  0.58730000  0.68674000  0.50671000  1.0
  C  C27  1  0.41269000  0.31326000  0.49328000  1.0
  C  C28  1  0.53882000  0.77213000  0.59662000  1.0
  C  C29  1  0.46118000  0.22787000  0.40338000  1.0
  C  C30  1  0.50471000  0.04741000  0.43535000  1.0
  C  C31  1  0.49529000  0.95260000  0.56465000  1.0
  C  C32  1  0.97649000  0.54639000  0.65534000  1.0
  C  C33  1  0.02351000  0.45361000  0.34467000  1.0
  C  C34  1  0.04224000  0.70614000  0.62624000  1.0
  C  C35  1  0.95777000  0.29385000  0.37377000  1.0
  C  C36  1  0.10375000  0.78592000  0.50266000  1.0
  C  C37  1  0.89625000  0.21408000  0.49734000  1.0
  C  C38  1  0.09772000  0.70669000  0.41020000  1.0
  C  C39  1  0.90228000  0.29331000  0.58980000  1.0
  C  C40  1  0.96905000  0.45777000  0.56303000  1.0
  C  C41  1  0.03095000  0.54223000  0.43697000  1.0
  S  S42  1  0.58577000  0.06199000  0.18418000  1.0
  S  S43  1  0.41423000  0.93801000  0.81582000  1.0
  S  S44  1  0.89661000  0.45535000  0.81268000  1.0
  S  S45  1  0.10339000  0.54465000  0.18732000  1.0
  O  O46  1  0.72486000  0.17948000  0.16828000  1.0
  O  O47  1  0.27514000  0.82052000  0.83172000  1.0
  O  O48  1  0.42136000  0.15893000  0.15116000  1.0
  O  O49  1  0.57863000  0.84108000  0.84884000  1.0
  O  O50  1  0.63457000  0.92858000  0.11894000  1.0
  O  O51  1  0.36543000  0.07142000  0.88106000  1.0
  O  O52  1  0.71901000  0.41407000  0.81361000  1.0
  O  O53  1  0.28098000  0.58593000  0.18639000  1.0
  O  O54  1  0.01117000  0.29719000  0.85924000  1.0
  O  O55  1  0.98883000  0.70282000  0.14076000  1.0
  O  O56  1  0.91609000  0.58429000  0.87816000  1.0
  O  O57  1  0.08391000  0.41571000  0.12184000  1.0
  O  O58  1  0.05036000  0.03447000  0.12996000  1.0
  O  O59  1  0.94964000  0.96553000  0.87004000  1.0
  O  O60  1  0.37742000  0.47242000  0.88219000  1.0
  O  O61  1  0.62258000  0.52758000  0.11781000  1.0
