# generated using pymatgen
data_ZnH16C25N2O5
_symmetry_space_group_name_H-M   'P 1'
_cell_length_a   14.63230000
_cell_length_b   14.63230000
_cell_length_c   16.46940000
_cell_angle_alpha   100.99500000
_cell_angle_beta   100.99500000
_cell_angle_gamma   119.16100000
_symmetry_Int_Tables_number   1
_chemical_formula_structural   ZnH16C25N2O5
_chemical_formula_sum   'Zn4 H64 C100 N8 O20'
_cell_volume   2852.43379739
_cell_formula_units_Z   4
loop_
 _symmetry_equiv_pos_site_id
 _symmetry_equiv_pos_as_xyz
  1  'x, y, z'
loop_
 _atom_site_type_symbol
 _atom_site_label
 _atom_site_symmetry_multiplicity
 _atom_site_fract_x
 _atom_site_fract_y
 _atom_site_fract_z
 _atom_site_occupancy
  Zn  Zn0  1  0.41456000  0.42624000  0.14190000  1.0
  Zn  Zn1  1  0.57376000  0.58544000  0.35810000  1.0
  Zn  Zn2  1  0.58544000  0.57376000  0.85811000  1.0
  Zn  Zn3  1  0.42624000  0.41456000  0.64190000  1.0
  H  H4  1  0.22453000  0.19648000  0.01911000  1.0
  H  H5  1  0.80352000  0.77547000  0.48089000  1.0
  H  H6  1  0.77547000  0.80352000  0.98089000  1.0
  H  H7  1  0.19648000  0.22453000  0.51911000  1.0
  H  H8  1  0.10901000  0.11040000  0.85891000  1.0
  H  H9  1  0.88960000  0.89099000  0.64109000  1.0
  H  H10  1  0.89099000  0.88960000  0.14109000  1.0
  H  H11  1  0.11040000  0.10901000  0.35891000  1.0
  H  H12  1  0.29201000  0.43651000  0.83609000  1.0
  H  H13  1  0.56349000  0.70799000  0.66390000  1.0
  H  H14  1  0.70799000  0.56349000  0.16390000  1.0
  H  H15  1  0.43651000  0.29201000  0.33609000  1.0
  H  H16  1  0.39529000  0.50901000  0.99612000  1.0
  H  H17  1  0.49099000  0.60471000  0.50388000  1.0
  H  H18  1  0.60471000  0.49099000  0.00388000  1.0
  H  H19  1  0.50902000  0.39529000  0.49612000  1.0
  H  H20  1  0.15834000  0.29106000  0.70912000  1.0
  H  H21  1  0.70894000  0.84166000  0.79088000  1.0
  H  H22  1  0.84166000  0.70894000  0.29088000  1.0
  H  H23  1  0.29106000  0.15834000  0.20912000  1.0
  H  H24  1  0.97146000  0.21392000  0.61736000  1.0
  H  H25  1  0.78608000  0.02854000  0.88264000  1.0
  H  H26  1  0.02854000  0.78608000  0.38264000  1.0
  H  H27  1  0.21392000  0.97146000  0.11736000  1.0
  H  H28  1  0.09540000  0.97074000  0.64784000  1.0
  H  H29  1  0.02926000  0.90460000  0.85216000  1.0
  H  H30  1  0.90460000  0.02926000  0.35216000  1.0
  H  H31  1  0.97074000  0.09540000  0.14784000  1.0
  H  H32  1  0.10046000  0.82727000  0.54349000  1.0
  H  H33  1  0.17273000  0.89954000  0.95651000  1.0
  H  H34  1  0.89954000  0.17273000  0.45651000  1.0
  H  H35  1  0.82727000  0.10045000  0.04349000  1.0
  H  H36  1  0.69261000  0.37337000  0.12263000  1.0
  H  H37  1  0.62663000  0.30739000  0.37737000  1.0
  H  H38  1  0.30740000  0.62663000  0.87737000  1.0
  H  H39  1  0.37337000  0.69261000  0.62263000  1.0
  H  H40  1  0.78803000  0.27059000  0.11680000  1.0
  H  H41  1  0.72941000  0.21197000  0.38320000  1.0
  H  H42  1  0.21197000  0.72941000  0.88320000  1.0
  H  H43  1  0.27059000  0.78803000  0.61680000  1.0
  H  H44  1  0.51874000  0.00275000  0.16133000  1.0
  H  H45  1  0.99726000  0.48126000  0.33867000  1.0
  H  H46  1  0.48126000  0.99725000  0.83867000  1.0
  H  H47  1  0.00275000  0.51874000  0.66133000  1.0
  H  H48  1  0.42322000  0.10510000  0.16454000  1.0
  H  H49  1  0.89490000  0.57678000  0.33546000  1.0
  H  H50  1  0.57678000  0.89490000  0.83546000  1.0
  H  H51  1  0.10510000  0.42322000  0.66454000  1.0
  H  H52  1  0.76547000  0.06382000  0.29160000  1.0
  H  H53  1  0.93618000  0.23453000  0.20841000  1.0
  H  H54  1  0.23453000  0.93618000  0.70841000  1.0
  H  H55  1  0.06382000  0.76547000  0.79159000  1.0
  H  H56  1  0.69342000  0.88403000  0.32385000  1.0
  H  H57  1  0.11597000  0.30658000  0.17615000  1.0
  H  H58  1  0.30658000  0.11597000  0.67615000  1.0
  H  H59  1  0.88403000  0.69342000  0.82385000  1.0
  H  H60  1  0.50578000  0.70285000  0.05040000  1.0
  H  H61  1  0.29715000  0.49423000  0.44960000  1.0
  H  H62  1  0.49423000  0.29715000  0.94960000  1.0
  H  H63  1  0.70285000  0.50577000  0.55040000  1.0
  H  H64  1  0.57805000  0.88138000  0.01838000  1.0
  H  H65  1  0.11862000  0.42195000  0.48162000  1.0
  H  H66  1  0.42195000  0.11862000  0.98162000  1.0
  H  H67  1  0.88138000  0.57805000  0.51838000  1.0
  C  C68  1  0.23424000  0.24615000  0.97598000  1.0
  C  C69  1  0.75385000  0.76576000  0.52402000  1.0
  C  C70  1  0.76576000  0.75385000  0.02402000  1.0
  C  C71  1  0.24615000  0.23424000  0.47598000  1.0
  C  C72  1  0.17128000  0.19897000  0.88766000  1.0
  C  C73  1  0.80103000  0.82871000  0.61234000  1.0
  C  C74  1  0.82872000  0.80103000  0.11234000  1.0
  C  C75  1  0.19897000  0.17128000  0.38766000  1.0
  C  C76  1  0.19031000  0.26707000  0.83511000  1.0
  C  C77  1  0.73293000  0.80969000  0.66489000  1.0
  C  C78  1  0.80969000  0.73293000  0.16489000  1.0
  C  C79  1  0.26707000  0.19031000  0.33511000  1.0
  C  C80  1  0.27148000  0.38063000  0.87448000  1.0
  C  C81  1  0.61937000  0.72852000  0.62552000  1.0
  C  C82  1  0.72852000  0.61937000  0.12552000  1.0
  C  C83  1  0.38063000  0.27148000  0.37448000  1.0
  C  C84  1  0.33067000  0.42160000  0.96319000  1.0
  C  C85  1  0.57840000  0.66933000  0.53681000  1.0
  C  C86  1  0.66933000  0.57840000  0.03681000  1.0
  C  C87  1  0.42160000  0.33067000  0.46319000  1.0
  C  C88  1  0.13423000  0.22664000  0.74058000  1.0
  C  C89  1  0.77336000  0.86577000  0.75942000  1.0
  C  C90  1  0.86578000  0.77336000  0.25942000  1.0
  C  C91  1  0.22664000  0.13422000  0.24058000  1.0
  C  C92  1  0.97442000  0.15144000  0.57188000  1.0
  C  C93  1  0.84856000  0.02558000  0.92812000  1.0
  C  C94  1  0.02558000  0.84856000  0.42812000  1.0
  C  C95  1  0.15144000  0.97442000  0.07188000  1.0
  C  C96  1  0.02075000  0.09731000  0.60509000  1.0
  C  C97  1  0.90269000  0.97925000  0.89491000  1.0
  C  C98  1  0.97925000  0.90269000  0.39491000  1.0
  C  C99  1  0.09731000  0.02075000  0.10509000  1.0
  C  C100  1  0.02151000  0.01195000  0.54622000  1.0
  C  C101  1  0.98805000  0.97849000  0.95377000  1.0
  C  C102  1  0.97849000  0.98805000  0.45378000  1.0
  C  C103  1  0.01195000  0.02150000  0.04622000  1.0
  C  C104  1  0.06504000  0.95263000  0.57738000  1.0
  C  C105  1  0.04737000  0.93496000  0.92262000  1.0
  C  C106  1  0.93496000  0.04737000  0.42262000  1.0
  C  C107  1  0.95263000  0.06504000  0.07738000  1.0
  C  C108  1  0.06787000  0.87332000  0.51908000  1.0
  C  C109  1  0.12668000  0.93213000  0.98092000  1.0
  C  C110  1  0.93213000  0.12668000  0.48092000  1.0
  C  C111  1  0.87332000  0.06787000  0.01908000  1.0
  C  C112  1  0.49240000  0.30380000  0.14587000  1.0
  C  C113  1  0.69620000  0.50760000  0.35413000  1.0
  C  C114  1  0.50760000  0.69620000  0.85413000  1.0
  C  C115  1  0.30380000  0.49240000  0.64587000  1.0
  C  C116  1  0.55182000  0.24557000  0.14409000  1.0
  C  C117  1  0.75443000  0.44817000  0.35590000  1.0
  C  C118  1  0.44818000  0.75443000  0.85591000  1.0
  C  C119  1  0.24557000  0.55182000  0.64409000  1.0
  C  C120  1  0.65479000  0.29194000  0.13052000  1.0
  C  C121  1  0.70806000  0.34521000  0.36948000  1.0
  C  C122  1  0.34521000  0.70806000  0.86948000  1.0
  C  C123  1  0.29194000  0.65479000  0.63052000  1.0
  C  C124  1  0.70802000  0.23520000  0.12724000  1.0
  C  C125  1  0.76480000  0.29197000  0.37276000  1.0
  C  C126  1  0.29198000  0.76480000  0.87276000  1.0
  C  C127  1  0.23520000  0.70802000  0.62724000  1.0
  C  C128  1  0.65886000  0.13122000  0.13873000  1.0
  C  C129  1  0.86878000  0.34114000  0.36127000  1.0
  C  C130  1  0.34114000  0.86877000  0.86127000  1.0
  C  C131  1  0.13123000  0.65886000  0.63873000  1.0
  C  C132  1  0.55623000  0.08354000  0.15238000  1.0
  C  C133  1  0.91646000  0.44377000  0.34762000  1.0
  C  C134  1  0.44377000  0.91646000  0.84762000  1.0
  C  C135  1  0.08354000  0.55623000  0.65238000  1.0
  C  C136  1  0.50347000  0.14096000  0.15451000  1.0
  C  C137  1  0.85904000  0.49653000  0.34549000  1.0
  C  C138  1  0.49653000  0.85904000  0.84549000  1.0
  C  C139  1  0.14096000  0.50347000  0.65451000  1.0
  C  C140  1  0.67471000  0.98071000  0.15373000  1.0
  C  C141  1  0.01929000  0.32529000  0.34627000  1.0
  C  C142  1  0.32529000  0.01929000  0.84627000  1.0
  C  C143  1  0.98071000  0.67471000  0.65373000  1.0
  C  C144  1  0.70838000  0.98383000  0.23985000  1.0
  C  C145  1  0.01617000  0.29162000  0.26015000  1.0
  C  C146  1  0.29162000  0.01617000  0.76015000  1.0
  C  C147  1  0.98383000  0.70838000  0.73985000  1.0
  C  C148  1  0.66817000  0.88433000  0.25735000  1.0
  C  C149  1  0.11567000  0.33183000  0.24265000  1.0
  C  C150  1  0.33183000  0.11567000  0.74265000  1.0
  C  C151  1  0.88433000  0.66817000  0.75735000  1.0
  C  C152  1  0.59476000  0.78268000  0.18943000  1.0
  C  C153  1  0.21732000  0.40525000  0.31057000  1.0
  C  C154  1  0.40525000  0.21732000  0.81057000  1.0
  C  C155  1  0.78268000  0.59475000  0.68943000  1.0
  C  C156  1  0.56236000  0.78172000  0.10327000  1.0
  C  C157  1  0.21828000  0.43764000  0.39673000  1.0
  C  C158  1  0.43764000  0.21829000  0.89673000  1.0
  C  C159  1  0.78171000  0.56236000  0.60327000  1.0
  C  C160  1  0.60246000  0.88082000  0.08496000  1.0
  C  C161  1  0.11918000  0.39754000  0.41504000  1.0
  C  C162  1  0.39754000  0.11918000  0.91504000  1.0
  C  C163  1  0.88081000  0.60246000  0.58496000  1.0
  C  C164  1  0.55381000  0.67676000  0.20990000  1.0
  C  C165  1  0.32324000  0.44619000  0.29009000  1.0
  C  C166  1  0.44619000  0.32324000  0.79009000  1.0
  C  C167  1  0.67676000  0.55381000  0.70990000  1.0
  N  N168  1  0.31293000  0.35590000  0.01341000  1.0
  N  N169  1  0.64410000  0.68707000  0.48659000  1.0
  N  N170  1  0.68707000  0.64410000  0.98659000  1.0
  N  N171  1  0.35590000  0.31294000  0.51341000  1.0
  N  N172  1  0.06748000  0.12304000  0.69518000  1.0
  N  N173  1  0.87696000  0.93252000  0.80482000  1.0
  N  N174  1  0.93252000  0.87697000  0.30482000  1.0
  N  N175  1  0.12303000  0.06748000  0.19518000  1.0
  O  O176  1  0.54284000  0.40500000  0.14526000  1.0
  O  O177  1  0.59500000  0.45716000  0.35474000  1.0
  O  O178  1  0.45716000  0.59500000  0.85475000  1.0
  O  O179  1  0.40500000  0.54284000  0.64526000  1.0
  O  O180  1  0.39367000  0.25454000  0.14641000  1.0
  O  O181  1  0.74547000  0.60634000  0.35359000  1.0
  O  O182  1  0.60634000  0.74546000  0.85359000  1.0
  O  O183  1  0.25454000  0.39366000  0.64641000  1.0
  O  O184  1  0.71735000  0.08073000  0.13620000  1.0
  O  O185  1  0.91927000  0.28265000  0.36380000  1.0
  O  O186  1  0.28265000  0.91927000  0.86380000  1.0
  O  O187  1  0.08073000  0.71735000  0.63620000  1.0
  O  O188  1  0.59174000  0.68628000  0.28950000  1.0
  O  O189  1  0.31372000  0.40826000  0.21050000  1.0
  O  O190  1  0.40826000  0.31372000  0.71050000  1.0
  O  O191  1  0.68628000  0.59174000  0.78950000  1.0
  O  O192  1  0.48563000  0.58622000  0.14682000  1.0
  O  O193  1  0.41379000  0.51437000  0.35318000  1.0
  O  O194  1  0.51437000  0.41379000  0.85318000  1.0
  O  O195  1  0.58621000  0.48563000  0.64682000  1.0
