# generated using pymatgen
data_ZnH8C22N2(Cl2O5)2
_symmetry_space_group_name_H-M   'P 1'
_cell_length_a   14.49700000
_cell_length_b   15.09480000
_cell_length_c   16.78520000
_cell_angle_alpha   87.34040000
_cell_angle_beta   84.77000000
_cell_angle_gamma   89.17550000
_symmetry_Int_Tables_number   1
_chemical_formula_structural   ZnH8C22N2(Cl2O5)2
_chemical_formula_sum   'Zn2 H16 C44 N4 Cl8 O20'
_cell_volume   3653.67141738
_cell_formula_units_Z   2
loop_
 _symmetry_equiv_pos_site_id
 _symmetry_equiv_pos_as_xyz
  1  'x, y, z'
loop_
 _atom_site_type_symbol
 _atom_site_label
 _atom_site_symmetry_multiplicity
 _atom_site_fract_x
 _atom_site_fract_y
 _atom_site_fract_z
 _atom_site_occupancy
  Zn  Zn0  1  0.60107000  0.51357000  0.49853000  1.0
  Zn  Zn1  1  0.39351000  0.50962000  0.49625000  1.0
  H  H2  1  0.05118000  0.46977000  0.61609000  1.0
  H  H3  1  0.92562000  0.39637000  0.56983000  1.0
  H  H4  1  0.28245000  0.51990000  0.24018000  1.0
  H  H5  1  0.73716000  0.27495000  0.63834000  1.0
  H  H6  1  0.22249000  0.43806000  0.74013000  1.0
  H  H7  1  0.73876000  0.77001000  0.38602000  1.0
  H  H8  1  0.32690000  0.73858000  0.35998000  1.0
  H  H9  1  0.76211000  0.25599000  0.37267000  1.0
  H  H10  1  0.93565000  0.63566000  0.41761000  1.0
  H  H11  1  0.63267000  0.53281000  0.24137000  1.0
  H  H12  1  0.39996000  0.36702000  0.72578000  1.0
  H  H13  1  0.62616000  0.93209000  0.59869000  1.0
  H  H14  1  0.40438000  0.07765000  0.64128000  1.0
  H  H15  1  0.62646000  0.77014000  0.57442000  1.0
  H  H16  1  0.41058000  0.24278000  0.62687000  1.0
  H  H17  1  0.07720000  0.55258000  0.36535000  1.0
  C  C18  1  0.50665000  0.68067000  0.49721000  1.0
  C  C19  1  0.57141000  0.09993000  0.48623000  1.0
  C  C20  1  0.49955000  0.95942000  0.54421000  1.0
  C  C21  1  0.50886000  0.05724000  0.54420000  1.0
  C  C22  1  0.10582000  0.53410000  0.42167000  1.0
  C  C23  1  0.89327000  0.45093000  0.53757000  1.0
  C  C24  1  0.20184000  0.52947000  0.42365000  1.0
  C  C25  1  0.79691000  0.45623000  0.54183000  1.0
  C  C26  1  0.18770000  0.47971000  0.55598000  1.0
  C  C27  1  0.80236000  0.57955000  0.45519000  1.0
  C  C28  1  0.09146000  0.48628000  0.55953000  1.0
  C  C29  1  0.52129000  0.34280000  0.52220000  1.0
  C  C30  1  0.89895000  0.58176000  0.45176000  1.0
  C  C31  1  0.04837000  0.51298000  0.49110000  1.0
  C  C32  1  0.94644000  0.51550000  0.49286000  1.0
  C  C33  1  0.50391000  0.47381000  0.35004000  1.0
  C  C34  1  0.45436000  0.51831000  0.64877000  1.0
  C  C35  1  0.51611000  0.44659000  0.26460000  1.0
  C  C36  1  0.45015000  0.49909000  0.73771000  1.0
  C  C37  1  0.45945000  0.38436000  0.23284000  1.0
  C  C38  1  0.47977000  0.56034000  0.78983000  1.0
  C  C39  1  0.46526000  0.37465000  0.14955000  1.0
  C  C40  1  0.57026000  0.81318000  0.55667000  1.0
  C  C41  1  0.48623000  0.53559000  0.87087000  1.0
  C  C42  1  0.52855000  0.42649000  0.09769000  1.0
  C  C43  1  0.46200000  0.44859000  0.90007000  1.0
  C  C44  1  0.59353000  0.47805000  0.13293000  1.0
  C  C45  1  0.42812000  0.38991000  0.84709000  1.0
  C  C46  1  0.58584000  0.48917000  0.21493000  1.0
  C  C47  1  0.42285000  0.41439000  0.76675000  1.0
  C  C48  1  0.56966000  0.90326000  0.57025000  1.0
  C  C49  1  0.45334000  0.10991000  0.59630000  1.0
  C  C50  1  0.25675000  0.55782000  0.34575000  1.0
  C  C51  1  0.45739000  0.20198000  0.58912000  1.0
  C  C52  1  0.74463000  0.39565000  0.60370000  1.0
  C  C53  1  0.22603000  0.43294000  0.62767000  1.0
  C  C54  1  0.75607000  0.64615000  0.40132000  1.0
  C  C55  1  0.34610000  0.79115000  0.45755000  1.0
  C  C56  1  0.63834000  0.23669000  0.41225000  1.0
  C  C57  1  0.49965000  0.77652000  0.51739000  1.0
  C  C58  1  0.51964000  0.24352000  0.53117000  1.0
  C  C59  1  0.42466000  0.83015000  0.49667000  1.0
  C  C60  1  0.57844000  0.19250000  0.47991000  1.0
  C  C61  1  0.42568000  0.92107000  0.50979000  1.0
  N  N62  1  0.53265000  0.43717000  0.01377000  1.0
  N  N63  1  0.45914000  0.42189000  0.98189000  1.0
  N  N64  1  0.24370000  0.50271000  0.48944000  1.0
  N  N65  1  0.75091000  0.51855000  0.50003000  1.0
  Cl  Cl66  1  0.50702000  0.66620000  0.75362000  1.0
  Cl  Cl67  1  0.38671000  0.31754000  0.29478000  1.0
  Cl  Cl68  1  0.51731000  0.61376000  0.93431000  1.0
  Cl  Cl69  1  0.39832000  0.29648000  0.11225000  1.0
  Cl  Cl70  1  0.68032000  0.53320000  0.07449000  1.0
  Cl  Cl71  1  0.39665000  0.28416000  0.88206000  1.0
  Cl  Cl72  1  0.33759000  0.98813000  0.47685000  1.0
  Cl  Cl73  1  0.63588000  0.03764000  0.41635000  1.0
  O  O74  1  0.58810000  0.64657000  0.49321000  1.0
  O  O75  1  0.24685000  0.49863000  0.28982000  1.0
  O  O76  1  0.69311000  0.42306000  0.65838000  1.0
  O  O77  1  0.77171000  0.31014000  0.59528000  1.0
  O  O78  1  0.26786000  0.36268000  0.62334000  1.0
  O  O79  1  0.19617000  0.47210000  0.69622000  1.0
  O  O80  1  0.71884000  0.62600000  0.34290000  1.0
  O  O81  1  0.77022000  0.72979000  0.42266000  1.0
  O  O82  1  0.27088000  0.77284000  0.49258000  1.0
  O  O83  1  0.37043000  0.78088000  0.37915000  1.0
  O  O84  1  0.60789000  0.27527000  0.35474000  1.0
  O  O85  1  0.44355000  0.38170000  0.52299000  1.0
  O  O86  1  0.73016000  0.22726000  0.42089000  1.0
  O  O87  1  0.43287000  0.64090000  0.48584000  1.0
  O  O88  1  0.60089000  0.37897000  0.51453000  1.0
  O  O89  1  0.57673000  0.48957000  0.38251000  1.0
  O  O90  1  0.37805000  0.52329000  0.61676000  1.0
  O  O91  1  0.42059000  0.48322000  0.38034000  1.0
  O  O92  1  0.53484000  0.52319000  0.61371000  1.0
  O  O93  1  0.29531000  0.62881000  0.33248000  1.0
