# generated using pymatgen
data_ZnH14C18NO5
_symmetry_space_group_name_H-M   'P 1'
_cell_length_a   19.16160000
_cell_length_b   19.15830000
_cell_length_c   29.19508465
_cell_angle_alpha   109.15008191
_cell_angle_beta   109.16434120
_cell_angle_gamma   89.99630000
_symmetry_Int_Tables_number   1
_chemical_formula_structural   ZnH14C18NO5
_chemical_formula_sum   'Zn8 H112 C144 N8 O40'
_cell_volume   9493.62553772
_cell_formula_units_Z   8
loop_
 _symmetry_equiv_pos_site_id
 _symmetry_equiv_pos_as_xyz
  1  'x, y, z'
loop_
 _atom_site_type_symbol
 _atom_site_label
 _atom_site_symmetry_multiplicity
 _atom_site_fract_x
 _atom_site_fract_y
 _atom_site_fract_z
 _atom_site_occupancy
  Zn  Zn0  1  0.92426000  0.49076000  0.99563000  1.0
  Zn  Zn1  1  0.50483000  0.92424000  0.49561000  1.0
  Zn  Zn2  1  0.49077000  0.57133000  0.49560000  1.0
  Zn  Zn3  1  0.57137000  0.50480000  0.99561000  1.0
  Zn  Zn4  1  0.07573000  0.50924000  0.00436000  1.0
  Zn  Zn5  1  0.49516000  0.07576000  0.50439000  1.0
  Zn  Zn6  1  0.50922000  0.42867000  0.50440000  1.0
  Zn  Zn7  1  0.42863000  0.49519000  0.00439000  1.0
  H  H8  1  0.05672000  0.63619000  0.90168000  1.0
  H  H9  1  0.26558000  0.05697000  0.40169000  1.0
  H  H10  1  0.63606000  0.34479000  0.40169000  1.0
  H  H11  1  0.34482000  0.26547000  0.90173000  1.0
  H  H12  1  0.94328000  0.36380000  0.09832000  1.0
  H  H13  1  0.73441000  0.94303000  0.59831000  1.0
  H  H14  1  0.36394000  0.65522000  0.59831000  1.0
  H  H15  1  0.65519000  0.73453000  0.09827000  1.0
  H  H16  1  0.01853000  0.68803000  0.82934000  1.0
  H  H17  1  0.14144000  0.01895000  0.32935000  1.0
  H  H18  1  0.68797000  0.31065000  0.32941000  1.0
  H  H19  1  0.31055000  0.14134000  0.82937000  1.0
  H  H20  1  0.98147000  0.31197000  0.17066000  1.0
  H  H21  1  0.85856000  0.98105000  0.67065000  1.0
  H  H22  1  0.31204000  0.68936000  0.67060000  1.0
  H  H23  1  0.68945000  0.85866000  0.17064000  1.0
  H  H24  1  0.78883000  0.62072000  0.79904000  1.0
  H  H25  1  0.17832000  0.78914000  0.29895000  1.0
  H  H26  1  0.62061000  0.51000000  0.29897000  1.0
  H  H27  1  0.50990000  0.17835000  0.79898000  1.0
  H  H28  1  0.21117000  0.37928000  0.20096000  1.0
  H  H29  1  0.82168000  0.21086000  0.70105000  1.0
  H  H30  1  0.37940000  0.49000000  0.70103000  1.0
  H  H31  1  0.49010000  0.82164000  0.20102000  1.0
  H  H32  1  0.82728000  0.57391000  0.87307000  1.0
  H  H33  1  0.29916000  0.82744000  0.37300000  1.0
  H  H34  1  0.57381000  0.54561000  0.37299000  1.0
  H  H35  1  0.54559000  0.29915000  0.87303000  1.0
  H  H36  1  0.17272000  0.42609000  0.12693000  1.0
  H  H37  1  0.70084000  0.17257000  0.62700000  1.0
  H  H38  1  0.42619000  0.45439000  0.62701000  1.0
  H  H39  1  0.45441000  0.70085000  0.12696000  1.0
  H  H40  1  0.67758000  0.69179000  0.62628000  1.0
  H  H41  1  0.93445000  0.67766000  0.12638000  1.0
  H  H42  1  0.69178000  0.44839000  0.12626000  1.0
  H  H43  1  0.44890000  0.93455000  0.62643000  1.0
  H  H44  1  0.32241000  0.30821000  0.37372000  1.0
  H  H45  1  0.06554000  0.32234000  0.87362000  1.0
  H  H46  1  0.30821000  0.55161000  0.87373000  1.0
  H  H47  1  0.55111000  0.06545000  0.37358000  1.0
  H  H48  1  0.78962000  0.75216000  0.70611000  1.0
  H  H49  1  0.95396000  0.78976000  0.20615000  1.0
  H  H50  1  0.75212000  0.41633000  0.20613000  1.0
  H  H51  1  0.41659000  0.95404000  0.70619000  1.0
  H  H52  1  0.21038000  0.24784000  0.29389000  1.0
  H  H53  1  0.04604000  0.21024000  0.79385000  1.0
  H  H54  1  0.24788000  0.58367000  0.79387000  1.0
  H  H55  1  0.58341000  0.04595000  0.29381000  1.0
  H  H56  1  0.82683000  0.53825000  0.72142000  1.0
  H  H57  1  0.18314000  0.82678000  0.22137000  1.0
  H  H58  1  0.53827000  0.39460000  0.22145000  1.0
  H  H59  1  0.39460000  0.18318000  0.72139000  1.0
  H  H60  1  0.17317000  0.46174000  0.27858000  1.0
  H  H61  1  0.81686000  0.17322000  0.77863000  1.0
  H  H62  1  0.46174000  0.60540000  0.77855000  1.0
  H  H63  1  0.60540000  0.81682000  0.27861000  1.0
  H  H64  1  0.71801000  0.47830000  0.64035000  1.0
  H  H65  1  0.16195000  0.71787000  0.14037000  1.0
  H  H66  1  0.47832000  0.42237000  0.14039000  1.0
  H  H67  1  0.42247000  0.16207000  0.64037000  1.0
  H  H68  1  0.28199000  0.52170000  0.35965000  1.0
  H  H69  1  0.83805000  0.28213000  0.85963000  1.0
  H  H70  1  0.52168000  0.57763000  0.85961000  1.0
  H  H71  1  0.57753000  0.83793000  0.35963000  1.0
  H  H72  1  0.77063000  0.41177000  0.92114000  1.0
  H  H73  1  0.50930000  0.77062000  0.42112000  1.0
  H  H74  1  0.41168000  0.65047000  0.42115000  1.0
  H  H75  1  0.65048000  0.50944000  0.92116000  1.0
  H  H76  1  0.22937000  0.58823000  0.07886000  1.0
  H  H77  1  0.49070000  0.22938000  0.57888000  1.0
  H  H78  1  0.58833000  0.34953000  0.57886000  1.0
  H  H79  1  0.34952000  0.49056000  0.07884000  1.0
  H  H80  1  0.77458000  0.50415000  0.92124000  1.0
  H  H81  1  0.41704000  0.77460000  0.42122000  1.0
  H  H82  1  0.50404000  0.64662000  0.42125000  1.0
  H  H83  1  0.64661000  0.41715000  0.92124000  1.0
  H  H84  1  0.22542000  0.49585000  0.07876000  1.0
  H  H85  1  0.58296000  0.22540000  0.57878000  1.0
  H  H86  1  0.49596000  0.35338000  0.57875000  1.0
  H  H87  1  0.35338000  0.58285000  0.07876000  1.0
  H  H88  1  0.84482000  0.59103000  0.06043000  1.0
  H  H89  1  0.46938000  0.84485000  0.56041000  1.0
  H  H90  1  0.59092000  0.71559000  0.56044000  1.0
  H  H91  1  0.71560000  0.46941000  0.06043000  1.0
  H  H92  1  0.15517000  0.40897000  0.93957000  1.0
  H  H93  1  0.53061000  0.15515000  0.43959000  1.0
  H  H94  1  0.40908000  0.28441000  0.43956000  1.0
  H  H95  1  0.28441000  0.53059000  0.93958000  1.0
  H  H96  1  0.81659000  0.60702000  0.00114000  1.0
  H  H97  1  0.39409000  0.81665000  0.50113000  1.0
  H  H98  1  0.60693000  0.68446000  0.50116000  1.0
  H  H99  1  0.68452000  0.39413000  0.00115000  1.0
  H  H100  1  0.18341000  0.39298000  0.99886000  1.0
  H  H101  1  0.60591000  0.18335000  0.49887000  1.0
  H  H102  1  0.39306000  0.31554000  0.49884000  1.0
  H  H103  1  0.31549000  0.60587000  0.99886000  1.0
  H  H104  1  0.80911000  0.38961000  0.00235000  1.0
  H  H105  1  0.61266000  0.80905000  0.50231000  1.0
  H  H106  1  0.38955000  0.69326000  0.50233000  1.0
  H  H107  1  0.69322000  0.61274000  0.00235000  1.0
  H  H108  1  0.19090000  0.61039000  0.99766000  1.0
  H  H109  1  0.38734000  0.19094000  0.49769000  1.0
  H  H110  1  0.61045000  0.30674000  0.49767000  1.0
  H  H111  1  0.30678000  0.38726000  0.99765000  1.0
  H  H112  1  0.83950000  0.46593000  0.06111000  1.0
  H  H113  1  0.59516000  0.83950000  0.56108000  1.0
  H  H114  1  0.46582000  0.72160000  0.56111000  1.0
  H  H115  1  0.72159000  0.59523000  0.06113000  1.0
  H  H116  1  0.16050000  0.53407000  0.93889000  1.0
  H  H117  1  0.40484000  0.16050000  0.43892000  1.0
  H  H118  1  0.53417000  0.27840000  0.43889000  1.0
  H  H119  1  0.27841000  0.40477000  0.93887000  1.0
  C  C120  1  0.99828000  0.63367000  0.87898000  1.0
  C  C121  1  0.24539000  0.99855000  0.37898000  1.0
  C  C122  1  0.63362000  0.38057000  0.37903000  1.0
  C  C123  1  0.38056000  0.24528000  0.87905000  1.0
  C  C124  1  0.00172000  0.36633000  0.12102000  1.0
  C  C125  1  0.75461000  0.00145000  0.62102000  1.0
  C  C126  1  0.36639000  0.61944000  0.62098000  1.0
  C  C127  1  0.61944000  0.75472000  0.12095000  1.0
  C  C128  1  0.97723000  0.66178000  0.83879000  1.0
  C  C129  1  0.17710000  0.97759000  0.33876000  1.0
  C  C130  1  0.66174000  0.36141000  0.33884000  1.0
  C  C131  1  0.36134000  0.17699000  0.83883000  1.0
  C  C132  1  0.02276000  0.33822000  0.16121000  1.0
  C  C133  1  0.82290000  0.02241000  0.66124000  1.0
  C  C134  1  0.33826000  0.63859000  0.66116000  1.0
  C  C135  1  0.63866000  0.82301000  0.16117000  1.0
  C  C136  1  0.90170000  0.65608000  0.80911000  1.0
  C  C137  1  0.15309000  0.90206000  0.30905000  1.0
  C  C138  1  0.65601000  0.40721000  0.30912000  1.0
  C  C139  1  0.40710000  0.15306000  0.80908000  1.0
  C  C140  1  0.09830000  0.34392000  0.19089000  1.0
  C  C141  1  0.84691000  0.09793000  0.69095000  1.0
  C  C142  1  0.34400000  0.59279000  0.69088000  1.0
  C  C143  1  0.59290000  0.84694000  0.19092000  1.0
  C  C144  1  0.84758000  0.62408000  0.82145000  1.0
  C  C145  1  0.19741000  0.84787000  0.32137000  1.0
  C  C146  1  0.62398000  0.47367000  0.32140000  1.0
  C  C147  1  0.47359000  0.19738000  0.82140000  1.0
  C  C148  1  0.15242000  0.37592000  0.17855000  1.0
  C  C149  1  0.80259000  0.15213000  0.67863000  1.0
  C  C150  1  0.37602000  0.52633000  0.67860000  1.0
  C  C151  1  0.52641000  0.80262000  0.17860000  1.0
  C  C152  1  0.86867000  0.59806000  0.86267000  1.0
  C  C153  1  0.26464000  0.86887000  0.36261000  1.0
  C  C154  1  0.59796000  0.49381000  0.36261000  1.0
  C  C155  1  0.49381000  0.26459000  0.86266000  1.0
  C  C156  1  0.13133000  0.40194000  0.13733000  1.0
  C  C157  1  0.73536000  0.13114000  0.63739000  1.0
  C  C158  1  0.40204000  0.50620000  0.63739000  1.0
  C  C159  1  0.50619000  0.73541000  0.13734000  1.0
  C  C160  1  0.69092000  0.58158000  0.62883000  1.0
  C  C161  1  0.04717000  0.69088000  0.12886000  1.0
  C  C162  1  0.58156000  0.43776000  0.12880000  1.0
  C  C163  1  0.43802000  0.04727000  0.62886000  1.0
  C  C164  1  0.30908000  0.41842000  0.37117000  1.0
  C  C165  1  0.95283000  0.30912000  0.87114000  1.0
  C  C166  1  0.41844000  0.56225000  0.87120000  1.0
  C  C167  1  0.56199000  0.95272000  0.37115000  1.0
  C  C168  1  0.71112000  0.65886000  0.64736000  1.0
  C  C169  1  0.98849000  0.71117000  0.14744000  1.0
  C  C170  1  0.65882000  0.43598000  0.14733000  1.0
  C  C171  1  0.43636000  0.98857000  0.64743000  1.0
  C  C172  1  0.28888000  0.34114000  0.35264000  1.0
  C  C173  1  0.01151000  0.28883000  0.85256000  1.0
  C  C174  1  0.34118000  0.56402000  0.85267000  1.0
  C  C175  1  0.56364000  0.01142000  0.35257000  1.0
  C  C176  1  0.77264000  0.69238000  0.69169000  1.0
  C  C177  1  0.99931000  0.77271000  0.19174000  1.0
  C  C178  1  0.69235000  0.41886000  0.19169000  1.0
  C  C179  1  0.41918000  0.99939000  0.69176000  1.0
  C  C180  1  0.22736000  0.30762000  0.30831000  1.0
  C  C181  1  0.00069000  0.22729000  0.80826000  1.0
  C  C182  1  0.30765000  0.58114000  0.80831000  1.0
  C  C183  1  0.58082000  0.00060000  0.30824000  1.0
  C  C184  1  0.81406000  0.64942000  0.71924000  1.0
  C  C185  1  0.06981000  0.81419000  0.21925000  1.0
  C  C186  1  0.64942000  0.40501000  0.21926000  1.0
  C  C187  1  0.40517000  0.06985000  0.71926000  1.0
  C  C188  1  0.18594000  0.35057000  0.28076000  1.0
  C  C189  1  0.93019000  0.18581000  0.78075000  1.0
  C  C190  1  0.35058000  0.59499000  0.78074000  1.0
  C  C191  1  0.59483000  0.93015000  0.28074000  1.0
  C  C192  1  0.79405000  0.57207000  0.70069000  1.0
  C  C193  1  0.12856000  0.79405000  0.20067000  1.0
  C  C194  1  0.57208000  0.40655000  0.20069000  1.0
  C  C195  1  0.40669000  0.12863000  0.70068000  1.0
  C  C196  1  0.20595000  0.42793000  0.29931000  1.0
  C  C197  1  0.87144000  0.20595000  0.79933000  1.0
  C  C198  1  0.42793000  0.59345000  0.79931000  1.0
  C  C199  1  0.59331000  0.87136000  0.29932000  1.0
  C  C200  1  0.73343000  0.53837000  0.65552000  1.0
  C  C201  1  0.11707000  0.73336000  0.15554000  1.0
  C  C202  1  0.53838000  0.42202000  0.15553000  1.0
  C  C203  1  0.42219000  0.11717000  0.65554000  1.0
  C  C204  1  0.26656000  0.46163000  0.34448000  1.0
  C  C205  1  0.88293000  0.26664000  0.84446000  1.0
  C  C206  1  0.46163000  0.57798000  0.84447000  1.0
  C  C207  1  0.57781000  0.88282000  0.34446000  1.0
  C  C208  1  0.88043000  0.68742000  0.76646000  1.0
  C  C209  1  0.07907000  0.88071000  0.26641000  1.0
  C  C210  1  0.68737000  0.38585000  0.26649000  1.0
  C  C211  1  0.38573000  0.07911000  0.76639000  1.0
  C  C212  1  0.11957000  0.31258000  0.23354000  1.0
  C  C213  1  0.92093000  0.11929000  0.73359000  1.0
  C  C214  1  0.31262000  0.61415000  0.73350000  1.0
  C  C215  1  0.61427000  0.92089000  0.23361000  1.0
  C  C216  1  0.76058000  0.46847000  0.94044000  1.0
  C  C217  1  0.47192000  0.76059000  0.44044000  1.0
  C  C218  1  0.46836000  0.67983000  0.44045000  1.0
  C  C219  1  0.67983000  0.47204000  0.94046000  1.0
  C  C220  1  0.23941000  0.53153000  0.05956000  1.0
  C  C221  1  0.52808000  0.23941000  0.55956000  1.0
  C  C222  1  0.53164000  0.32017000  0.55955000  1.0
  C  C223  1  0.32017000  0.52796000  0.05954000  1.0
  C  C224  1  0.80342000  0.57235000  0.02130000  1.0
  C  C225  1  0.44889000  0.80344000  0.52128000  1.0
  C  C226  1  0.57227000  0.71784000  0.52129000  1.0
  C  C227  1  0.71786000  0.44894000  0.02129000  1.0
  C  C228  1  0.19658000  0.42765000  0.97870000  1.0
  C  C229  1  0.55111000  0.19656000  0.47872000  1.0
  C  C230  1  0.42773000  0.28216000  0.47871000  1.0
  C  C231  1  0.28214000  0.55106000  0.97871000  1.0
  C  C232  1  0.79864000  0.44614000  0.02169000  1.0
  C  C233  1  0.57550000  0.79863000  0.52167000  1.0
  C  C234  1  0.44607000  0.72305000  0.52168000  1.0
  C  C235  1  0.72304000  0.57557000  0.02172000  1.0
  C  C236  1  0.20136000  0.55387000  0.97831000  1.0
  C  C237  1  0.42450000  0.20137000  0.47833000  1.0
  C  C238  1  0.55393000  0.27695000  0.47832000  1.0
  C  C239  1  0.27696000  0.42443000  0.97828000  1.0
  C  C240  1  0.96624000  0.56993000  0.93385000  1.0
  C  C241  1  0.36394000  0.96641000  0.43386000  1.0
  C  C242  1  0.56982000  0.46750000  0.43382000  1.0
  C  C243  1  0.46746000  0.36393000  0.93388000  1.0
  C  C244  1  0.03374000  0.43007000  0.06614000  1.0
  C  C245  1  0.63606000  0.03359000  0.56614000  1.0
  C  C246  1  0.43018000  0.53251000  0.56618000  1.0
  C  C247  1  0.53255000  0.63606000  0.06612000  1.0
  C  C248  1  0.94411000  0.60170000  0.89126000  1.0
  C  C249  1  0.28960000  0.94431000  0.39123000  1.0
  C  C250  1  0.60156000  0.44697000  0.39122000  1.0
  C  C251  1  0.44697000  0.28956000  0.89127000  1.0
  C  C252  1  0.05588000  0.39830000  0.10874000  1.0
  C  C253  1  0.71040000  0.05569000  0.60877000  1.0
  C  C254  1  0.39846000  0.55304000  0.60879000  1.0
  C  C255  1  0.55303000  0.71043000  0.10873000  1.0
  C  C256  1  0.62390000  0.54592000  0.58111000  1.0
  C  C257  1  0.03503000  0.62383000  0.08112000  1.0
  C  C258  1  0.54591000  0.45715000  0.08108000  1.0
  C  C259  1  0.45734000  0.03517000  0.58113000  1.0
  C  C260  1  0.37611000  0.45409000  0.41890000  1.0
  C  C261  1  0.96497000  0.37617000  0.91888000  1.0
  C  C262  1  0.45409000  0.54285000  0.91892000  1.0
  C  C263  1  0.54266000  0.96483000  0.41887000  1.0
  N  N264  1  0.81430000  0.49453000  0.99454000  1.0
  N  N265  1  0.49996000  0.81430000  0.49452000  1.0
  N  N266  1  0.49446000  0.68022000  0.49455000  1.0
  N  N267  1  0.68023000  0.50003000  0.99455000  1.0
  N  N268  1  0.18570000  0.50547000  0.00546000  1.0
  N  N269  1  0.50004000  0.18570000  0.50548000  1.0
  N  N270  1  0.50554000  0.31978000  0.50545000  1.0
  N  N271  1  0.31977000  0.49997000  0.00545000  1.0
  O  O272  1  0.91665000  0.74352000  0.77022000  1.0
  O  O273  1  0.02672000  0.91690000  0.27015000  1.0
  O  O274  1  0.74349000  0.35339000  0.27030000  1.0
  O  O275  1  0.35308000  0.02679000  0.77006000  1.0
  O  O276  1  0.08335000  0.25648000  0.22978000  1.0
  O  O277  1  0.97328000  0.08310000  0.72985000  1.0
  O  O278  1  0.25652000  0.64661000  0.72970000  1.0
  O  O279  1  0.64692000  0.97320000  0.22994000  1.0
  O  O280  1  0.91406000  0.54867000  0.94612000  1.0
  O  O281  1  0.39747000  0.91418000  0.44609000  1.0
  O  O282  1  0.54860000  0.53199000  0.44607000  1.0
  O  O283  1  0.53192000  0.39744000  0.94614000  1.0
  O  O284  1  0.08593000  0.45133000  0.05387000  1.0
  O  O285  1  0.60254000  0.08583000  0.55391000  1.0
  O  O286  1  0.45140000  0.46803000  0.55393000  1.0
  O  O287  1  0.46809000  0.60255000  0.05386000  1.0
  O  O288  1  0.03522000  0.56559000  0.95401000  1.0
  O  O289  1  0.38842000  0.03539000  0.45412000  1.0
  O  O290  1  0.56557000  0.41877000  0.45406000  1.0
  O  O291  1  0.41871000  0.38845000  0.95409000  1.0
  O  O292  1  0.96477000  0.43440000  0.04599000  1.0
  O  O293  1  0.61159000  0.96461000  0.54589000  1.0
  O  O294  1  0.43443000  0.58125000  0.54594000  1.0
  O  O295  1  0.58130000  0.61155000  0.04591000  1.0
  O  O296  1  0.60680000  0.47584000  0.56652000  1.0
  O  O297  1  0.09047000  0.60679000  0.06647000  1.0
  O  O298  1  0.47585000  0.45968000  0.06649000  1.0
  O  O299  1  0.45982000  0.09065000  0.56652000  1.0
  O  O300  1  0.39319000  0.52417000  0.43348000  1.0
  O  O301  1  0.90951000  0.39321000  0.93352000  1.0
  O  O302  1  0.52416000  0.54032000  0.93351000  1.0
  O  O303  1  0.54018000  0.90935000  0.43348000  1.0
  O  O304  1  0.58851000  0.58899000  0.55892000  1.0
  O  O305  1  0.96980000  0.58844000  0.05900000  1.0
  O  O306  1  0.58901000  0.47041000  0.05895000  1.0
  O  O307  1  0.47059000  0.96993000  0.55900000  1.0
  O  O308  1  0.41149000  0.41102000  0.44108000  1.0
  O  O309  1  0.03018000  0.41156000  0.94099000  1.0
  O  O310  1  0.41099000  0.52959000  0.94105000  1.0
  O  O311  1  0.52941000  0.03006000  0.44100000  1.0
