# generated using pymatgen
data_FeH8C10(SN6)2
_symmetry_space_group_name_H-M   'P 1'
_cell_length_a   6.68630000
_cell_length_b   7.24048000
_cell_length_c   10.90059202
_cell_angle_alpha   87.51649774
_cell_angle_beta   72.24260095
_cell_angle_gamma   62.52700000
_symmetry_Int_Tables_number   1
_chemical_formula_structural   FeH8C10(SN6)2
_chemical_formula_sum   'Fe1 H8 C10 S2 N12'
_cell_volume   442.93031656
_cell_formula_units_Z   1
loop_
 _symmetry_equiv_pos_site_id
 _symmetry_equiv_pos_as_xyz
  1  'x, y, z'
loop_
 _atom_site_type_symbol
 _atom_site_label
 _atom_site_symmetry_multiplicity
 _atom_site_fract_x
 _atom_site_fract_y
 _atom_site_fract_z
 _atom_site_occupancy
  Fe  Fe0  1  0.50000000  0.50000000  0.00000000  1.0
  H  H1  1  0.67888000  0.45981000  0.68095000  1.0
  H  H2  1  0.32112000  0.54019000  0.31905000  1.0
  H  H3  1  0.98818000  0.80808000  0.71540000  1.0
  H  H4  1  0.01180000  0.19193000  0.28460000  1.0
  H  H5  1  0.35781000  0.17315000  0.98243000  1.0
  H  H6  1  0.01403000  0.82671000  0.01746000  1.0
  H  H7  1  0.64220000  0.82685000  0.01757000  1.0
  H  H8  1  0.98598000  0.17328000  0.98254000  1.0
  C  C9  1  0.73029000  0.31410000  0.72403000  1.0
  C  C10  1  0.26971000  0.68590000  0.27597000  1.0
  C  C11  1  0.89079000  0.97583000  0.74213000  1.0
  C  C12  1  0.10920000  0.02417000  0.25787000  1.0
  C  C13  1  0.19857000  0.31963000  0.98980000  1.0
  C  C14  1  0.00840000  0.68025000  0.01010000  1.0
  C  C15  1  0.80144000  0.68036000  0.01020000  1.0
  C  C16  1  0.99160000  0.31974000  0.98990000  1.0
  C  C17  1  0.55297000  0.19010000  0.20431000  1.0
  C  C18  1  0.44702000  0.80990000  0.79570000  1.0
  S  S19  1  0.55767000  0.05754000  0.32809000  1.0
  S  S20  1  0.44232000  0.94246000  0.67191000  1.0
  N  N21  1  0.68141000  0.28792000  0.84837000  1.0
  N  N22  1  0.31859000  0.71207000  0.15164000  1.0
  N  N23  1  0.78284000  0.07413000  0.85977000  1.0
  N  N24  1  0.21716000  0.92587000  0.14023000  1.0
  N  N25  1  0.86240000  0.12061000  0.65365000  1.0
  N  N26  1  0.13759000  0.87939000  0.34635000  1.0
  N  N27  1  0.94089000  0.09614000  0.52141000  1.0
  N  N28  1  0.05911000  0.90386000  0.47859000  1.0
  N  N29  1  0.54658000  0.29157000  0.11564000  1.0
  N  N30  1  0.45342000  0.70843000  0.88436000  1.0
  N  N31  1  0.20931000  0.49992000  0.99993000  1.0
  N  N32  1  0.79069000  0.50007000  0.00007000  1.0
