# generated using pymatgen
data_TbZnH12C15N2O13
_symmetry_space_group_name_H-M   'P 1'
_cell_length_a   9.69143000
_cell_length_b   10.55750000
_cell_length_c   10.88620000
_cell_angle_alpha   80.56330000
_cell_angle_beta   72.21650000
_cell_angle_gamma   75.66770000
_symmetry_Int_Tables_number   1
_chemical_formula_structural   TbZnH12C15N2O13
_chemical_formula_sum   'Tb2 Zn2 H24 C30 N4 O26'
_cell_volume   1022.89021486
_cell_formula_units_Z   2
loop_
 _symmetry_equiv_pos_site_id
 _symmetry_equiv_pos_as_xyz
  1  'x, y, z'
loop_
 _atom_site_type_symbol
 _atom_site_label
 _atom_site_symmetry_multiplicity
 _atom_site_fract_x
 _atom_site_fract_y
 _atom_site_fract_z
 _atom_site_occupancy
  Tb  Tb0  1  0.17598000  0.19501000  0.03286000  1.0
  Tb  Tb1  1  0.82402000  0.80499000  0.96715000  1.0
  Zn  Zn2  1  0.30346000  0.36441000  0.61168000  1.0
  Zn  Zn3  1  0.69654000  0.63559000  0.38832000  1.0
  H  H4  1  0.53024000  0.22657000  0.36644000  1.0
  H  H5  1  0.46977000  0.77343000  0.63356000  1.0
  H  H6  1  0.75722000  0.04474000  0.33167000  1.0
  H  H7  1  0.24279000  0.95526000  0.66833000  1.0
  H  H8  1  0.83035000  0.92023000  0.52856000  1.0
  H  H9  1  0.16966000  0.07977000  0.47144000  1.0
  H  H10  1  0.78698000  0.26557000  0.49189000  1.0
  H  H11  1  0.21302000  0.73443000  0.50811000  1.0
  H  H12  1  0.83410000  0.17116000  0.70826000  1.0
  H  H13  1  0.16591000  0.82883000  0.29173000  1.0
  H  H14  1  0.06063000  0.20511000  0.75216000  1.0
  H  H15  1  0.93937000  0.79489000  0.24784000  1.0
  H  H16  1  0.04789000  0.41789000  0.86544000  1.0
  H  H17  1  0.95210000  0.58211000  0.13456000  1.0
  H  H18  1  0.91080000  0.40796000  0.98757000  1.0
  H  H19  1  0.08920000  0.59203000  0.01244000  1.0
  H  H20  1  0.25482000  0.42320000  0.10928000  1.0
  H  H21  1  0.74518000  0.57680000  0.89072000  1.0
  H  H22  1  0.36921000  0.39448000  0.97388000  1.0
  H  H23  1  0.63079000  0.60552000  0.02612000  1.0
  H  H24  1  0.35198000  0.53793000  0.72672000  1.0
  H  H25  1  0.64802000  0.46208000  0.27328000  1.0
  H  H26  1  0.51986000  0.50758000  0.63468000  1.0
  H  H27  1  0.48013000  0.49242000  0.36532000  1.0
  C  C28  1  0.69046000  0.95125000  0.77875000  1.0
  C  C29  1  0.30954000  0.04875000  0.22125000  1.0
  C  C30  1  0.64396000  0.02884000  0.66328000  1.0
  C  C31  1  0.35604000  0.97115000  0.33672000  1.0
  C  C32  1  0.52042000  0.13261000  0.67238000  1.0
  C  C33  1  0.47958000  0.86739000  0.32763000  1.0
  C  C34  1  0.56673000  0.16917000  0.44792000  1.0
  C  C35  1  0.43328000  0.83083000  0.55208000  1.0
  C  C36  1  0.69180000  0.06688000  0.42977000  1.0
  C  C37  1  0.30821000  0.93312000  0.57023000  1.0
  C  C38  1  0.73119000  0.99808000  0.53875000  1.0
  C  C39  1  0.26882000  0.00192000  0.46125000  1.0
  C  C40  1  0.41376000  0.17099000  0.79962000  1.0
  C  C41  1  0.58624000  0.82901000  0.20038000  1.0
  C  C42  1  0.22527000  0.42948000  0.36809000  1.0
  C  C43  1  0.77473000  0.57052000  0.63191000  1.0
  C  C44  1  0.11024000  0.35586000  0.45666000  1.0
  C  C45  1  0.88976000  0.64415000  0.54334000  1.0
  C  C46  1  0.98744000  0.34036000  0.42305000  1.0
  C  C47  1  0.01255000  0.65964000  0.57695000  1.0
  C  C48  1  0.96582000  0.38326000  0.29046000  1.0
  C  C49  1  0.03417000  0.61675000  0.70954000  1.0
  C  C50  1  0.88482000  0.27584000  0.51542000  1.0
  C  C51  1  0.11519000  0.72417000  0.48458000  1.0
  C  C52  1  0.90889000  0.22531000  0.63511000  1.0
  C  C53  1  0.09111000  0.77469000  0.36489000  1.0
  C  C54  1  0.03504000  0.24270000  0.66061000  1.0
  C  C55  1  0.96496000  0.75730000  0.33939000  1.0
  C  C56  1  0.93921000  0.01987000  0.06289000  1.0
  C  C57  1  0.06080000  0.98013000  0.93711000  1.0
  N  N58  1  0.48535000  0.20196000  0.56639000  1.0
  N  N59  1  0.51466000  0.79804000  0.43361000  1.0
  N  N60  1  0.13094000  0.30740000  0.57372000  1.0
  N  N61  1  0.86906000  0.69261000  0.42628000  1.0
  O  O62  1  0.43237000  0.11109000  0.90465000  1.0
  O  O63  1  0.56763000  0.88892000  0.09536000  1.0
  O  O64  1  0.29951000  0.26454000  0.79666000  1.0
  O  O65  1  0.70049000  0.73545000  0.20334000  1.0
  O  O66  1  0.66378000  0.83757000  0.81417000  1.0
  O  O67  1  0.33622000  0.16243000  0.18583000  1.0
  O  O68  1  0.76735000  0.99999000  0.82799000  1.0
  O  O69  1  0.23265000  0.00001000  0.17201000  1.0
  O  O70  1  0.32305000  0.44530000  0.41960000  1.0
  O  O71  1  0.67695000  0.55470000  0.58040000  1.0
  O  O72  1  0.21824000  0.47269000  0.25598000  1.0
  O  O73  1  0.78176000  0.52731000  0.74401000  1.0
  O  O74  1  0.03194000  0.30307000  0.20732000  1.0
  O  O75  1  0.96806000  0.69693000  0.79268000  1.0
  O  O76  1  0.87771000  0.49103000  0.27035000  1.0
  O  O77  1  0.12228000  0.50897000  0.72965000  1.0
  O  O78  1  0.95122000  0.11281000  0.11598000  1.0
  O  O79  1  0.04878000  0.88719000  0.88402000  1.0
  O  O80  1  0.83752000  0.95442000  0.10311000  1.0
  O  O81  1  0.16248000  0.04558000  0.89690000  1.0
  O  O82  1  0.00437000  0.35672000  0.93907000  1.0
  O  O83  1  0.99563000  0.64328000  0.06094000  1.0
  O  O84  1  0.26405000  0.40612000  0.01894000  1.0
  O  O85  1  0.73595000  0.59388000  0.98106000  1.0
  O  O86  1  0.41523000  0.49792000  0.64888000  1.0
  O  O87  1  0.58476000  0.50208000  0.35113000  1.0
