# generated using pymatgen
data_Zn2H28C42N7O11
_symmetry_space_group_name_H-M   'P 1'
_cell_length_a   16.48960000
_cell_length_b   17.87380000
_cell_length_c   31.33310000
_cell_angle_alpha   90.24650000
_cell_angle_beta   90.06340000
_cell_angle_gamma   89.95180000
_symmetry_Int_Tables_number   1
_chemical_formula_structural   Zn2H28C42N7O11
_chemical_formula_sum   'Zn4 H56 C84 N14 O22'
_cell_volume   9234.76700405
_cell_formula_units_Z   2
loop_
 _symmetry_equiv_pos_site_id
 _symmetry_equiv_pos_as_xyz
  1  'x, y, z'
loop_
 _atom_site_type_symbol
 _atom_site_label
 _atom_site_symmetry_multiplicity
 _atom_site_fract_x
 _atom_site_fract_y
 _atom_site_fract_z
 _atom_site_occupancy
  Zn  Zn0  1  0.58212000  0.49869000  0.50276000  1.0
  Zn  Zn1  1  0.41305000  0.50016000  0.49741000  1.0
  Zn  Zn2  1  0.41786000  0.50086000  0.92601000  1.0
  Zn  Zn3  1  0.58688000  0.50205000  0.93136000  1.0
  H  H4  1  0.28812000  0.57603000  0.55042000  1.0
  H  H5  1  0.13528000  0.58164000  0.55284000  1.0
  H  H6  1  0.28418000  0.41726000  0.45391000  1.0
  H  H7  1  0.71209000  0.58213000  0.54790000  1.0
  H  H8  1  0.70810000  0.41742000  0.45464000  1.0
  H  H9  1  0.86091000  0.41308000  0.45147000  1.0
  H  H10  1  0.63027000  0.73279000  0.50259000  1.0
  H  H11  1  0.63501000  0.87311000  0.50279000  1.0
  H  H12  1  0.37029000  0.74004000  0.50113000  1.0
  H  H13  1  0.62682000  0.26309000  0.50305000  1.0
  H  H14  1  0.36670000  0.26143000  0.50175000  1.0
  H  H15  1  0.36763000  0.12109000  0.50189000  1.0
  H  H16  1  0.36585000  0.50414000  0.06359000  1.0
  H  H17  1  0.36380000  0.50677000  0.14370000  1.0
  H  H18  1  0.62586000  0.50467000  0.06545000  1.0
  H  H19  1  0.37402000  0.50195000  0.36332000  1.0
  H  H20  1  0.63403000  0.50187000  0.36526000  1.0
  H  H21  1  0.63616000  0.50570000  0.28518000  1.0
  H  H22  1  0.71160000  0.57756000  0.87852000  1.0
  H  H23  1  0.86441000  0.58336000  0.87615000  1.0
  H  H24  1  0.71597000  0.41974000  0.97474000  1.0
  H  H25  1  0.28769000  0.58388000  0.88097000  1.0
  H  H26  1  0.29211000  0.42014000  0.97398000  1.0
  H  H27  1  0.13932000  0.41562000  0.97709000  1.0
  H  H28  1  0.36984000  0.73518000  0.92543000  1.0
  H  H29  1  0.36541000  0.87550000  0.92483000  1.0
  H  H30  1  0.62983000  0.74160000  0.92684000  1.0
  H  H31  1  0.37313000  0.26538000  0.92533000  1.0
  H  H32  1  0.63324000  0.26322000  0.92705000  1.0
  H  H33  1  0.63226000  0.12290000  0.92631000  1.0
  H  H34  1  0.06208000  0.40874000  0.44374000  1.0
  H  H35  1  0.15321000  0.37569000  0.42424000  1.0
  H  H36  1  0.93497000  0.59809000  0.55376000  1.0
  H  H37  1  0.84350000  0.63202000  0.57340000  1.0
  H  H38  1  0.36242000  0.94493000  0.49647000  1.0
  H  H39  1  0.30636000  0.86429000  0.49349000  1.0
  H  H40  1  0.64309000  0.05859000  0.49664000  1.0
  H  H41  1  0.69601000  0.14114000  0.49499000  1.0
  H  H42  1  0.63773000  0.49808000  0.18229000  1.0
  H  H43  1  0.69236000  0.49264000  0.13583000  1.0
  H  H44  1  0.36226000  0.49732000  0.24643000  1.0
  H  H45  1  0.30765000  0.49098000  0.29283000  1.0
  H  H46  1  0.93807000  0.41157000  0.98495000  1.0
  H  H47  1  0.84704000  0.37865000  0.00438000  1.0
  H  H48  1  0.06488000  0.59986000  0.87515000  1.0
  H  H49  1  0.15636000  0.63351000  0.85562000  1.0
  H  H50  1  0.63803000  0.94663000  0.93090000  1.0
  H  H51  1  0.69404000  0.86596000  0.93418000  1.0
  H  H52  1  0.35676000  0.06094000  0.93094000  1.0
  H  H53  1  0.30389000  0.14358000  0.93293000  1.0
  H  H54  1  0.28989000  0.50060000  0.64642000  1.0
  H  H55  1  0.31446000  0.50074000  0.73974000  1.0
  H  H56  1  0.38095000  0.50028000  0.81703000  1.0
  H  H57  1  0.71003000  0.50086000  0.78232000  1.0
  H  H58  1  0.68547000  0.50027000  0.68901000  1.0
  H  H59  1  0.61894000  0.49908000  0.61168000  1.0
  C  C60  1  0.49612000  0.64543000  0.50139000  1.0
  C  C61  1  0.49619000  0.50211000  0.58594000  1.0
  C  C62  1  0.49648000  0.35332000  0.50150000  1.0
  C  C63  1  0.50047000  0.49850000  0.41620000  1.0
  C  C64  1  0.50388000  0.64742000  0.92699000  1.0
  C  C65  1  0.50367000  0.50266000  0.84280000  1.0
  C  C66  1  0.50364000  0.35537000  0.92737000  1.0
  C  C67  1  0.49934000  0.50151000  0.01259000  1.0
  C  C68  1  0.25019000  0.54274000  0.52915000  1.0
  C  C69  1  0.16628000  0.54468000  0.53045000  1.0
  C  C70  1  0.12059000  0.49887000  0.50275000  1.0
  C  C71  1  0.16284000  0.45008000  0.47433000  1.0
  C  C72  1  0.24801000  0.45275000  0.47508000  1.0
  C  C73  1  0.03518000  0.49999000  0.50238000  1.0
  C  C74  1  0.96109000  0.49777000  0.50012000  1.0
  C  C75  1  0.87569000  0.49829000  0.50014000  1.0
  C  C76  1  0.83342000  0.54770000  0.52829000  1.0
  C  C77  1  0.74807000  0.54549000  0.52730000  1.0
  C  C78  1  0.74602000  0.45285000  0.47478000  1.0
  C  C79  1  0.82990000  0.45109000  0.47330000  1.0
  C  C80  1  0.49970000  0.72916000  0.50195000  1.0
  C  C81  1  0.57494000  0.76605000  0.50257000  1.0
  C  C82  1  0.57715000  0.84355000  0.50264000  1.0
  C  C83  1  0.50508000  0.88625000  0.50234000  1.0
  C  C84  1  0.42864000  0.84868000  0.50203000  1.0
  C  C85  1  0.42772000  0.77028000  0.50162000  1.0
  C  C86  1  0.50603000  0.96513000  0.50201000  1.0
  C  C87  1  0.49951000  0.03351000  0.50184000  1.0
  C  C88  1  0.49800000  0.11239000  0.50204000  1.0
  C  C89  1  0.57285000  0.15251000  0.50236000  1.0
  C  C90  1  0.57064000  0.23092000  0.50240000  1.0
  C  C91  1  0.49706000  0.26953000  0.50194000  1.0
  C  C92  1  0.42332000  0.23009000  0.50176000  1.0
  C  C93  1  0.42426000  0.15260000  0.50189000  1.0
  C  C94  1  0.45023000  0.50256000  0.76820000  1.0
  C  C95  1  0.59669000  0.50294000  0.77807000  1.0
  C  C96  1  0.60729000  0.50243000  0.73410000  1.0
  C  C97  1  0.54026000  0.50245000  0.70565000  1.0
  C  C98  1  0.54970000  0.50204000  0.66054000  1.0
  C  C99  1  0.40323000  0.50278000  0.65067000  1.0
  C  C100  1  0.39264000  0.50254000  0.69464000  1.0
  C  C101  1  0.45967000  0.50262000  0.72309000  1.0
  C  C102  1  0.51722000  0.50292000  0.79613000  1.0
  C  C103  1  0.48270000  0.50252000  0.63261000  1.0
  C  C104  1  0.49641000  0.50350000  0.06041000  1.0
  C  C105  1  0.42182000  0.50451000  0.08206000  1.0
  C  C106  1  0.42110000  0.50613000  0.12632000  1.0
  C  C107  1  0.49399000  0.50676000  0.15002000  1.0
  C  C108  1  0.56969000  0.50637000  0.12794000  1.0
  C  C109  1  0.56909000  0.50464000  0.08328000  1.0
  C  C110  1  0.49516000  0.50696000  0.19501000  1.0
  C  C111  1  0.50484000  0.50662000  0.23385000  1.0
  C  C112  1  0.50596000  0.50562000  0.27882000  1.0
  C  C113  1  0.43025000  0.50473000  0.30088000  1.0
  C  C114  1  0.43081000  0.50227000  0.34552000  1.0
  C  C115  1  0.50347000  0.50093000  0.36840000  1.0
  C  C116  1  0.57808000  0.50241000  0.34677000  1.0
  C  C117  1  0.57884000  0.50470000  0.30254000  1.0
  C  C118  1  0.74962000  0.54449000  0.89973000  1.0
  C  C119  1  0.83352000  0.54653000  0.89845000  1.0
  C  C120  1  0.87935000  0.50103000  0.92607000  1.0
  C  C121  1  0.83722000  0.45247000  0.95440000  1.0
  C  C122  1  0.75204000  0.45504000  0.95363000  1.0
  C  C123  1  0.96477000  0.50217000  0.92642000  1.0
  C  C124  1  0.03888000  0.49989000  0.92862000  1.0
  C  C125  1  0.12429000  0.50041000  0.92858000  1.0
  C  C126  1  0.16647000  0.54958000  0.90053000  1.0
  C  C127  1  0.25181000  0.54743000  0.90152000  1.0
  C  C128  1  0.25408000  0.45531000  0.95388000  1.0
  C  C129  1  0.17019000  0.45348000  0.95534000  1.0
  C  C130  1  0.50041000  0.73113000  0.92611000  1.0
  C  C131  1  0.42524000  0.76824000  0.92536000  1.0
  C  C132  1  0.42320000  0.84575000  0.92507000  1.0
  C  C133  1  0.49533000  0.88823000  0.92530000  1.0
  C  C134  1  0.57171000  0.85044000  0.92566000  1.0
  C  C135  1  0.57247000  0.77205000  0.92628000  1.0
  C  C136  1  0.49439000  0.96713000  0.92557000  1.0
  C  C137  1  0.50048000  0.03553000  0.92585000  1.0
  C  C138  1  0.50190000  0.11442000  0.92595000  1.0
  C  C139  1  0.42706000  0.15469000  0.92569000  1.0
  C  C140  1  0.42931000  0.23311000  0.92596000  1.0
  C  C141  1  0.50292000  0.27157000  0.92670000  1.0
  C  C142  1  0.57662000  0.23198000  0.92685000  1.0
  C  C143  1  0.57565000  0.15450000  0.92638000  1.0
  N  N144  1  0.28936000  0.49780000  0.50129000  1.0
  N  N145  1  0.70664000  0.49952000  0.50165000  1.0
  N  N146  1  0.71058000  0.49976000  0.92749000  1.0
  N  N147  1  0.29335000  0.50175000  0.92710000  1.0
  N  N148  1  0.12242000  0.40135000  0.44807000  1.0
  N  N149  1  0.87386000  0.59420000  0.55546000  1.0
  N  N150  1  0.35778000  0.88973000  0.50355000  1.0
  N  N151  1  0.64523000  0.11385000  0.50414000  1.0
  N  N152  1  0.64130000  0.51015000  0.15071000  1.0
  N  N153  1  0.35865000  0.50881000  0.27813000  1.0
  N  N154  1  0.87776000  0.40403000  0.98058000  1.0
  N  N155  1  0.12598000  0.59586000  0.87345000  1.0
  N  N156  1  0.64263000  0.89124000  0.92402000  1.0
  N  N157  1  0.35467000  0.11618000  0.92367000  1.0
  O  O158  1  0.56348000  0.61062000  0.50550000  1.0
  O  O159  1  0.42691000  0.61510000  0.49683000  1.0
  O  O160  1  0.43580000  0.50439000  0.56129000  1.0
  O  O161  1  0.57078000  0.49935000  0.57215000  1.0
  O  O162  1  0.42787000  0.38538000  0.49850000  1.0
  O  O163  1  0.56502000  0.38649000  0.50412000  1.0
  O  O164  1  0.56760000  0.49816000  0.43633000  1.0
  O  O165  1  0.43008000  0.49717000  0.43309000  1.0
  O  O166  1  0.43641000  0.61267000  0.92333000  1.0
  O  O167  1  0.57311000  0.61703000  0.93138000  1.0
  O  O168  1  0.56406000  0.50434000  0.86747000  1.0
  O  O169  1  0.42905000  0.50064000  0.85656000  1.0
  O  O170  1  0.57227000  0.38723000  0.93081000  1.0
  O  O171  1  0.43520000  0.38871000  0.92448000  1.0
  O  O172  1  0.43218000  0.50081000  0.99247000  1.0
  O  O173  1  0.56972000  0.50080000  0.99567000  1.0
  O  O174  1  0.33470000  0.50277000  0.62586000  1.0
  O  O175  1  0.31308000  0.50214000  0.70809000  1.0
  O  O176  1  0.37305000  0.50197000  0.78408000  1.0
  O  O177  1  0.66522000  0.50310000  0.80288000  1.0
  O  O178  1  0.68685000  0.50192000  0.72065000  1.0
  O  O179  1  0.62686000  0.50103000  0.64464000  1.0
