# generated using pymatgen
data_Zn3H16C24(N3O7)2
_symmetry_space_group_name_H-M   'P 1'
_cell_length_a   8.50579000
_cell_length_b   8.98258000
_cell_length_c   9.66960402
_cell_angle_alpha   101.30983175
_cell_angle_beta   103.98331550
_cell_angle_gamma   114.44500000
_symmetry_Int_Tables_number   1
_chemical_formula_structural   Zn3H16C24(N3O7)2
_chemical_formula_sum   'Zn3 H16 C24 N6 O14'
_cell_volume   614.88144661
_cell_formula_units_Z   1
loop_
 _symmetry_equiv_pos_site_id
 _symmetry_equiv_pos_as_xyz
  1  'x, y, z'
loop_
 _atom_site_type_symbol
 _atom_site_label
 _atom_site_symmetry_multiplicity
 _atom_site_fract_x
 _atom_site_fract_y
 _atom_site_fract_z
 _atom_site_occupancy
  Zn  Zn0  1  0.25419000  0.52684000  0.64976000  1.0
  Zn  Zn1  1  0.74582000  0.47317000  0.35024000  1.0
  Zn  Zn2  1  0.50000000  0.50000000  0.00000000  1.0
  H  H3  1  0.76495000  0.02686000  0.16621000  1.0
  H  H4  1  0.23505000  0.97314000  0.83379000  1.0
  H  H5  1  0.16993000  0.48368000  0.12547000  1.0
  H  H6  1  0.83007000  0.51632000  0.87453000  1.0
  H  H7  1  0.81554000  0.02617000  0.73324000  1.0
  H  H8  1  0.18446000  0.97384000  0.26676000  1.0
  H  H9  1  0.36577000  0.27828000  0.42681000  1.0
  H  H10  1  0.63422000  0.72172000  0.57319000  1.0
  H  H11  1  0.60222000  0.20166000  0.82680000  1.0
  H  H12  1  0.39779000  0.79835000  0.17320000  1.0
  H  H13  1  0.70684000  0.14353000  0.57535000  1.0
  H  H14  1  0.29317000  0.85647000  0.42465000  1.0
  H  H15  1  0.54830000  0.12096000  0.40491000  1.0
  H  H16  1  0.45170000  0.87904000  0.59509000  1.0
  H  H17  1  0.97036000  0.13358000  0.53503000  1.0
  H  H18  1  0.02964000  0.86642000  0.46499000  1.0
  C  C19  1  0.77267000  0.00633000  0.94237000  1.0
  C  C20  1  0.22733000  0.99367000  0.05763000  1.0
  C  C21  1  0.82924000  0.09444000  0.09657000  1.0
  C  C22  1  0.17076000  0.90557000  0.90343000  1.0
  C  C23  1  0.97073000  0.26692000  0.16310000  1.0
  C  C24  1  0.02928000  0.73308000  0.83690000  1.0
  C  C25  1  0.05791000  0.35056000  0.07468000  1.0
  C  C26  1  0.94210000  0.64945000  0.92533000  1.0
  C  C27  1  0.99925000  0.26577000  0.91912000  1.0
  C  C28  1  0.00076000  0.73423000  0.08088000  1.0
  C  C29  1  0.85573000  0.09332000  0.85297000  1.0
  C  C30  1  0.14428000  0.90668000  0.14703000  1.0
  C  C31  1  0.62635000  0.81813000  0.88182000  1.0
  C  C32  1  0.37365000  0.18187000  0.11818000  1.0
  C  C33  1  0.01852000  0.35593000  0.32785000  1.0
  C  C34  1  0.98147000  0.64406000  0.67214000  1.0
  C  C35  1  0.09051000  0.36040000  0.82591000  1.0
  C  C36  1  0.90949000  0.63960000  0.17409000  1.0
  C  C37  1  0.40863000  0.28374000  0.54340000  1.0
  C  C38  1  0.59136000  0.71625000  0.45659000  1.0
  C  C39  1  0.53134000  0.24533000  0.74890000  1.0
  C  C40  1  0.46865000  0.75467000  0.25109000  1.0
  C  C41  1  0.55990000  0.09603000  0.51247000  1.0
  C  C42  1  0.44011000  0.90397000  0.48753000  1.0
  N  N43  1  0.46595000  0.35137000  0.78495000  1.0
  N  N44  1  0.53406000  0.64863000  0.21505000  1.0
  N  N45  1  0.38802000  0.37478000  0.65553000  1.0
  N  N46  1  0.61198000  0.62521000  0.34447000  1.0
  N  N47  1  0.49955000  0.20145000  0.59781000  1.0
  N  N48  1  0.50045000  0.79855000  0.40219000  1.0
  O  O49  1  0.50827000  0.75789000  0.74730000  1.0
  O  O50  1  0.49172000  0.24211000  0.25269000  1.0
  O  O51  1  0.63390000  0.73651000  0.97346000  1.0
  O  O52  1  0.36610000  0.26349000  0.02653000  1.0
  O  O53  1  0.88235000  0.33357000  0.37029000  1.0
  O  O54  1  0.11764000  0.66642000  0.62970000  1.0
  O  O55  1  0.18842000  0.44166000  0.41453000  1.0
  O  O56  1  0.81158000  0.55834000  0.58547000  1.0
  O  O57  1  0.24697000  0.50058000  0.89139000  1.0
  O  O58  1  0.75303000  0.49942000  0.10861000  1.0
  O  O59  1  0.01152000  0.30627000  0.68270000  1.0
  O  O60  1  0.98849000  0.69374000  0.31730000  1.0
  O  O61  1  0.94753000  0.03234000  0.45332000  1.0
  O  O62  1  0.05244000  0.96764000  0.54670000  1.0
