# generated using pymatgen
data_ZnH13C18N2(O3F)2
_symmetry_space_group_name_H-M   'P 1'
_cell_length_a   7.63304000
_cell_length_b   8.42172000
_cell_length_c   15.34040000
_cell_angle_alpha   96.27910000
_cell_angle_beta   95.25310000
_cell_angle_gamma   107.53000000
_symmetry_Int_Tables_number   1
_chemical_formula_structural   ZnH13C18N2(O3F)2
_chemical_formula_sum   'Zn2 H26 C36 N4 O12 F4'
_cell_volume   926.59603046
_cell_formula_units_Z   2
loop_
 _symmetry_equiv_pos_site_id
 _symmetry_equiv_pos_as_xyz
  1  'x, y, z'
loop_
 _atom_site_type_symbol
 _atom_site_label
 _atom_site_symmetry_multiplicity
 _atom_site_fract_x
 _atom_site_fract_y
 _atom_site_fract_z
 _atom_site_occupancy
  Zn  Zn0  1  0.91713000  0.68729000  0.67159000  1.0
  Zn  Zn1  1  0.08286000  0.31270000  0.32841000  1.0
  H  H2  1  0.56262000  0.66526000  0.73136000  1.0
  H  H3  1  0.43736000  0.33474000  0.26864000  1.0
  H  H4  1  0.36951000  0.84756000  0.76569000  1.0
  H  H5  1  0.63049000  0.15244000  0.23431000  1.0
  H  H6  1  0.80790000  0.26529000  0.70244000  1.0
  H  H7  1  0.19209000  0.73471000  0.29755000  1.0
  H  H8  1  0.98637000  0.06218000  0.67180000  1.0
  H  H9  1  0.01362000  0.93781000  0.32820000  1.0
  H  H10  1  0.12526000  0.18599000  0.87466000  1.0
  H  H11  1  0.87475000  0.81400000  0.12535000  1.0
  H  H12  1  0.21050000  0.33489000  0.80204000  1.0
  H  H13  1  0.78950000  0.66512000  0.19797000  1.0
  H  H14  1  0.53549000  0.72275000  0.52333000  1.0
  H  H15  1  0.46452000  0.27726000  0.47666000  1.0
  H  H16  1  0.21297000  0.06323000  0.53292000  1.0
  H  H17  1  0.78703000  0.93678000  0.46707000  1.0
  H  H18  1  0.81603000  0.36279000  0.85511000  1.0
  H  H19  1  0.18397000  0.63719000  0.14488000  1.0
  H  H20  1  0.21245000  0.79427000  0.01352000  1.0
  H  H21  1  0.78754000  0.20572000  0.98648000  1.0
  H  H22  1  0.30164000  0.03042000  0.82917000  1.0
  H  H23  1  0.69834000  0.96957000  0.17083000  1.0
  H  H24  1  0.63566000  0.42062000  0.63030000  1.0
  H  H25  1  0.36432000  0.57937000  0.36970000  1.0
  H  H26  1  0.73541000  0.45546000  0.53886000  1.0
  H  H27  1  0.26459000  0.54452000  0.46114000  1.0
  C  C28  1  0.61245000  0.79909000  0.72659000  1.0
  C  C29  1  0.38754000  0.20090000  0.27340000  1.0
  C  C30  1  0.50518000  0.90231000  0.74533000  1.0
  C  C31  1  0.49481000  0.09769000  0.25467000  1.0
  C  C32  1  0.57348000  0.07255000  0.73606000  1.0
  C  C33  1  0.42652000  0.92746000  0.26393000  1.0
  C  C34  1  0.74897000  0.13277000  0.70905000  1.0
  C  C35  1  0.25101000  0.86723000  0.29095000  1.0
  C  C36  1  0.84905000  0.02182000  0.69288000  1.0
  C  C37  1  0.15094000  0.97817000  0.30712000  1.0
  C  C38  1  0.46985000  0.19529000  0.75687000  1.0
  C  C39  1  0.53015000  0.80470000  0.24314000  1.0
  C  C40  1  0.25063000  0.26346000  0.85161000  1.0
  C  C41  1  0.74938000  0.73654000  0.14841000  1.0
  C  C42  1  0.37610000  0.38495000  0.92865000  1.0
  C  C43  1  0.62390000  0.61505000  0.07136000  1.0
  C  C44  1  0.44984000  0.55624000  0.92416000  1.0
  C  C45  1  0.55016000  0.44377000  0.07585000  1.0
  C  C46  1  0.42912000  0.33159000  0.00693000  1.0
  C  C47  1  0.57088000  0.66842000  0.99308000  1.0
  C  C48  1  0.20928000  0.75331000  0.56461000  1.0
  C  C49  1  0.79075000  0.24669000  0.43539000  1.0
  C  C50  1  0.35838000  0.88009000  0.52988000  1.0
  C  C51  1  0.64162000  0.11993000  0.47011000  1.0
  C  C52  1  0.51969000  0.84338000  0.51171000  1.0
  C  C53  1  0.48031000  0.15663000  0.48829000  1.0
  C  C54  1  0.33935000  0.03702000  0.51838000  1.0
  C  C55  1  0.66065000  0.96298000  0.48161000  1.0
  C  C56  1  0.03702000  0.67468000  0.84637000  1.0
  C  C57  1  0.96299000  0.32533000  0.15363000  1.0
  C  C58  1  0.01634000  0.58618000  0.92646000  1.0
  C  C59  1  0.98365000  0.41381000  0.07353000  1.0
  C  C60  1  0.89636000  0.42079000  0.91904000  1.0
  C  C61  1  0.10364000  0.57921000  0.08096000  1.0
  C  C62  1  0.11969000  0.66564000  0.00831000  1.0
  C  C63  1  0.88030000  0.33435000  0.99168000  1.0
  N  N64  1  0.78165000  0.85786000  0.70142000  1.0
  N  N65  1  0.21835000  0.14214000  0.29857000  1.0
  N  N66  1  0.34079000  0.14908000  0.81181000  1.0
  N  N67  1  0.65923000  0.85092000  0.18819000  1.0
  O  O68  1  0.50951000  0.33320000  0.72795000  1.0
  O  O69  1  0.49050000  0.66683000  0.27205000  1.0
  O  O70  1  0.10517000  0.81725000  0.60957000  1.0
  O  O71  1  0.89484000  0.18274000  0.39043000  1.0
  O  O72  1  0.19410000  0.59966000  0.55093000  1.0
  O  O73  1  0.80594000  0.40036000  0.44908000  1.0
  O  O74  1  0.95765000  0.57775000  0.77240000  1.0
  O  O75  1  0.04239000  0.42226000  0.22760000  1.0
  O  O76  1  0.12454000  0.82836000  0.85304000  1.0
  O  O77  1  0.87547000  0.17164000  0.14697000  1.0
  O  O78  1  0.70551000  0.50699000  0.59684000  1.0
  O  O79  1  0.29448000  0.49299000  0.40316000  1.0
  F  F80  1  0.39929000  0.61746000  0.85121000  1.0
  F  F81  1  0.60069000  0.38255000  0.14881000  1.0
  F  F82  1  0.36415000  0.16634000  0.01620000  1.0
  F  F83  1  0.63587000  0.83365000  0.98380000  1.0
