# generated using pymatgen
data_CuH5C4N3O4
_symmetry_space_group_name_H-M   'P 1'
_cell_length_a   6.68774000
_cell_length_b   7.56196000
_cell_length_c   8.93122294
_cell_angle_alpha   93.26213628
_cell_angle_beta   111.97677503
_cell_angle_gamma   115.84930000
_symmetry_Int_Tables_number   1
_chemical_formula_structural   CuH5C4N3O4
_chemical_formula_sum   'Cu2 H10 C8 N6 O8'
_cell_volume   363.60217145
_cell_formula_units_Z   2
loop_
 _symmetry_equiv_pos_site_id
 _symmetry_equiv_pos_as_xyz
  1  'x, y, z'
loop_
 _atom_site_type_symbol
 _atom_site_label
 _atom_site_symmetry_multiplicity
 _atom_site_fract_x
 _atom_site_fract_y
 _atom_site_fract_z
 _atom_site_occupancy
  Cu  Cu0  1  0.50001000  0.00001000  0.50000000  1.0
  Cu  Cu1  1  0.00000000  0.00000000  0.50000000  1.0
  H  H2  1  0.09112000  0.72591000  0.45231000  1.0
  H  H3  1  0.90889000  0.27411000  0.54770000  1.0
  H  H4  1  0.87763000  0.19396000  0.84288000  1.0
  H  H5  1  0.84261000  0.80528000  0.15694000  1.0
  H  H6  1  0.12238000  0.80606000  0.15712000  1.0
  H  H7  1  0.15739000  0.19470000  0.84305000  1.0
  H  H8  1  0.91353000  0.32016000  0.12451000  1.0
  H  H9  1  0.47245000  0.67969000  0.87532000  1.0
  H  H10  1  0.08644000  0.67982000  0.87548000  1.0
  H  H11  1  0.52753000  0.32027000  0.12467000  1.0
  C  C12  1  0.72496000  0.19713000  0.85723000  1.0
  C  C13  1  0.67268000  0.80242000  0.14271000  1.0
  C  C14  1  0.27503000  0.80286000  0.14277000  1.0
  C  C15  1  0.32732000  0.19756000  0.85730000  1.0
  C  C16  1  0.74157000  0.26822000  0.01125000  1.0
  C  C17  1  0.46501000  0.73150000  0.98869000  1.0
  C  C18  1  0.25843000  0.73179000  0.98874000  1.0
  C  C19  1  0.53498000  0.26850000  0.01131000  1.0
  N  N20  1  0.51858000  0.12783000  0.71419000  1.0
  N  N21  1  0.67796000  0.87205000  0.28582000  1.0
  N  N22  1  0.48143000  0.87219000  0.28581000  1.0
  N  N23  1  0.32204000  0.12796000  0.71419000  1.0
  N  N24  1  0.68618000  0.68142000  0.68662000  1.0
  N  N25  1  0.31382000  0.31858000  0.31338000  1.0
  O  O26  1  0.13984000  0.85550000  0.42228000  1.0
  O  O27  1  0.86016000  0.14451000  0.57771000  1.0
  O  O28  1  0.51313000  0.72472000  0.62863000  1.0
  O  O29  1  0.15635000  0.27561000  0.37160000  1.0
  O  O30  1  0.48687000  0.27529000  0.37137000  1.0
  O  O31  1  0.84365000  0.72440000  0.62841000  1.0
  O  O32  1  0.70353000  0.59621000  0.80543000  1.0
  O  O33  1  0.29645000  0.40379000  0.19457000  1.0
