# generated using pymatgen
data_PrH4C12(O4F3)2
_symmetry_space_group_name_H-M   'P 1'
_cell_length_a   8.99402000
_cell_length_b   8.99545000
_cell_length_c   11.11700000
_cell_angle_alpha   109.25600000
_cell_angle_beta   108.71200000
_cell_angle_gamma   101.27700000
_symmetry_Int_Tables_number   1
_chemical_formula_structural   PrH4C12(O4F3)2
_chemical_formula_sum   'Pr2 H8 C24 O16 F12'
_cell_volume   757.17333936
_cell_formula_units_Z   2
loop_
 _symmetry_equiv_pos_site_id
 _symmetry_equiv_pos_as_xyz
  1  'x, y, z'
loop_
 _atom_site_type_symbol
 _atom_site_label
 _atom_site_symmetry_multiplicity
 _atom_site_fract_x
 _atom_site_fract_y
 _atom_site_fract_z
 _atom_site_occupancy
  Pr  Pr0  1  0.37176000  0.16935000  0.54103000  1.0
  Pr  Pr1  1  0.62823000  0.83064000  0.45897000  1.0
  H  H2  1  0.10081000  0.09184000  0.65415000  1.0
  H  H3  1  0.43770000  0.44648000  0.34578000  1.0
  H  H4  1  0.89919000  0.90816000  0.34585000  1.0
  H  H5  1  0.56230000  0.55352000  0.65422000  1.0
  H  H6  1  0.17174000  0.28541000  0.73547000  1.0
  H  H7  1  0.55001000  0.43634000  0.26449000  1.0
  H  H8  1  0.82826000  0.71460000  0.26453000  1.0
  H  H9  1  0.44999000  0.56366000  0.73551000  1.0
  C  C10  1  0.36514000  0.85896000  0.22383000  1.0
  C  C11  1  0.63485000  0.14104000  0.77617000  1.0
  C  C12  1  0.23629000  0.86298000  0.09878000  1.0
  C  C13  1  0.76371000  0.13703000  0.90122000  1.0
  C  C14  1  0.07122000  0.75853000  0.03665000  1.0
  C  C15  1  0.72165000  0.03401000  0.96337000  1.0
  C  C16  1  0.92878000  0.24148000  0.96335000  1.0
  C  C17  1  0.27835000  0.96600000  0.03663000  1.0
  C  C18  1  0.95509000  0.75110000  0.91460000  1.0
  C  C19  1  0.83650000  0.04006000  0.08539000  1.0
  C  C20  1  0.04491000  0.24890000  0.08540000  1.0
  C  C21  1  0.16351000  0.95994000  0.91461000  1.0
  C  C22  1  0.99747000  0.84995000  0.84726000  1.0
  C  C23  1  0.00254000  0.15006000  0.15274000  1.0
  C  C24  1  0.74309000  0.24288000  0.49974000  1.0
  C  C25  1  0.25691000  0.75712000  0.50026000  1.0
  C  C26  1  0.87562000  0.37548000  0.49979000  1.0
  C  C27  1  0.12438000  0.62451000  0.50021000  1.0
  C  C28  1  0.01815000  0.48061000  0.62063000  1.0
  C  C29  1  0.86020000  0.39763000  0.37915000  1.0
  C  C30  1  0.98185000  0.51938000  0.37937000  1.0
  C  C31  1  0.13980000  0.60237000  0.62085000  1.0
  C  C32  1  0.87401000  0.83906000  0.71311000  1.0
  C  C33  1  0.12600000  0.16094000  0.28689000  1.0
  O  O34  1  0.38978000  0.95708000  0.34686000  1.0
  O  O35  1  0.61022000  0.04292000  0.65314000  1.0
  O  O36  1  0.72482000  0.73730000  0.65702000  1.0
  O  O37  1  0.08041000  0.06805000  0.34318000  1.0
  O  O38  1  0.27518000  0.26271000  0.34298000  1.0
  O  O39  1  0.91959000  0.93195000  0.65682000  1.0
  O  O40  1  0.17160000  0.19398000  0.65833000  1.0
  O  O41  1  0.53565000  0.51322000  0.34165000  1.0
  O  O42  1  0.82840000  0.80602000  0.34167000  1.0
  O  O43  1  0.46435000  0.48678000  0.65835000  1.0
  O  O44  1  0.63558000  0.29123000  0.53636000  1.0
  O  O45  1  0.75489000  0.09880000  0.46315000  1.0
  O  O46  1  0.36442000  0.70876000  0.46364000  1.0
  O  O47  1  0.24511000  0.90120000  0.53685000  1.0
  O  O48  1  0.44241000  0.75842000  0.20067000  1.0
  O  O49  1  0.55759000  0.24159000  0.79933000  1.0
  F  F50  1  0.02077000  0.66130000  0.09605000  1.0
  F  F51  1  0.56513000  0.92397000  0.90413000  1.0
  F  F52  1  0.97923000  0.33870000  0.90395000  1.0
  F  F53  1  0.43487000  0.07603000  0.09588000  1.0
  F  F54  1  0.79944000  0.64416000  0.86488000  1.0
  F  F55  1  0.77965000  0.93388000  0.13508000  1.0
  F  F56  1  0.20056000  0.35585000  0.13512000  1.0
  F  F57  1  0.22036000  0.06612000  0.86492000  1.0
  F  F58  1  0.04228000  0.46419000  0.74209000  1.0
  F  F59  1  0.72262000  0.30056000  0.25742000  1.0
  F  F60  1  0.95772000  0.53580000  0.25791000  1.0
  F  F61  1  0.27738000  0.69944000  0.74258000  1.0
