# generated using pymatgen
data_VH3C8I4O5
_symmetry_space_group_name_H-M   'P 1'
_cell_length_a   12.10040000
_cell_length_b   12.31460000
_cell_length_c   12.31417657
_cell_angle_alpha   76.02959209
_cell_angle_beta   60.57384294
_cell_angle_gamma   60.57120000
_symmetry_Int_Tables_number   1
_chemical_formula_structural   VH3C8I4O5
_chemical_formula_sum   'V4 H12 C32 I16 O20'
_cell_volume   1392.00264479
_cell_formula_units_Z   4
loop_
 _symmetry_equiv_pos_site_id
 _symmetry_equiv_pos_as_xyz
  1  'x, y, z'
loop_
 _atom_site_type_symbol
 _atom_site_label
 _atom_site_symmetry_multiplicity
 _atom_site_fract_x
 _atom_site_fract_y
 _atom_site_fract_z
 _atom_site_occupancy
  V  V0  1  0.45140000  0.10319000  0.50029000  1.0
  V  V1  1  0.05490000  0.89673000  0.49971000  1.0
  V  V2  1  0.30467000  0.00024000  0.39676000  1.0
  V  V3  1  0.70171000  0.99958000  0.60321000  1.0
  H  H4  1  0.79825000  0.05110000  0.19465000  1.0
  H  H5  1  0.04395000  0.94907000  0.80544000  1.0
  H  H6  1  0.59933000  0.69460000  0.44911000  1.0
  H  H7  1  0.74323000  0.30532000  0.55080000  1.0
  H  H8  1  0.95062000  0.30470000  0.45156000  1.0
  H  H9  1  0.70690000  0.69527000  0.54828000  1.0
  H  H10  1  0.15196000  0.04870000  0.80484000  1.0
  H  H11  1  0.00532000  0.95157000  0.19532000  1.0
  H  H12  1  0.61332000  0.00020000  0.99994000  1.0
  H  H13  1  0.36346000  0.49990000  0.50012000  1.0
  H  H14  1  0.13643000  0.50005000  0.49996000  1.0
  H  H15  1  0.38655000  0.99985000  1.00000000  1.0
  C  C16  1  0.81010000  0.02780000  0.10852000  1.0
  C  C17  1  0.94632000  0.97243000  0.89153000  1.0
  C  C18  1  0.58791000  0.60846000  0.47234000  1.0
  C  C19  1  0.66889000  0.39143000  0.52753000  1.0
  C  C20  1  0.93915000  0.39111000  0.47380000  1.0
  C  C21  1  0.80411000  0.60887000  0.52599000  1.0
  C  C22  1  0.16277000  0.02638000  0.89123000  1.0
  C  C23  1  0.08022000  0.97386000  0.10890000  1.0
  C  C24  1  0.69474000  0.02518000  0.10961000  1.0
  C  C25  1  0.82945000  0.97509000  0.89037000  1.0
  C  C26  1  0.46993000  0.60955000  0.47499000  1.0
  C  C27  1  0.55459000  0.39027000  0.52504000  1.0
  C  C28  1  0.05455000  0.38991000  0.47642000  1.0
  C  C29  1  0.92096000  0.61008000  0.52334000  1.0
  C  C30  1  0.28093000  0.02355000  0.89000000  1.0
  C  C31  1  0.19445000  0.97647000  0.11008000  1.0
  C  C32  1  0.70331000  0.00016000  0.99998000  1.0
  C  C33  1  0.45350000  0.49990000  0.50006000  1.0
  C  C34  1  0.04646000  0.50001000  0.49991000  1.0
  C  C35  1  0.29648000  0.99994000  0.00003000  1.0
  C  C36  1  0.56575000  0.04559000  0.23005000  1.0
  C  C37  1  0.84129000  0.95459000  0.76996000  1.0
  C  C38  1  0.36134000  0.72998000  0.45453000  1.0
  C  C39  1  0.54604000  0.26981000  0.54545000  1.0
  C  C40  1  0.18278000  0.26890000  0.45762000  1.0
  C  C41  1  0.90935000  0.73106000  0.54227000  1.0
  C  C42  1  0.39034000  0.04231000  0.76895000  1.0
  C  C43  1  0.20167000  0.95765000  0.23112000  1.0
  C  C44  1  0.93833000  0.00014000  0.00004000  1.0
  C  C45  1  0.68850000  0.49995000  0.49993000  1.0
  C  C46  1  0.81153000  0.49998000  0.49992000  1.0
  C  C47  1  0.06136000  0.00015000  0.00008000  1.0
  I  I48  1  0.58128000  0.72846000  0.12565000  1.0
  I  I49  1  0.43558000  0.27151000  0.87445000  1.0
  I  I50  1  0.05996000  0.62548000  0.77176000  1.0
  I  I51  1  0.45702000  0.37440000  0.22854000  1.0
  I  I52  1  0.16579000  0.37429000  0.77776000  1.0
  I  I53  1  0.31784000  0.62557000  0.22229000  1.0
  I  I54  1  0.69364000  0.72216000  0.87443000  1.0
  I  I55  1  0.29022000  0.27761000  0.12561000  1.0
  I  I56  1  0.83453000  0.69362000  0.16307000  1.0
  I  I57  1  0.69126000  0.30668000  0.83698000  1.0
  I  I58  1  0.27817000  0.66302000  0.80664000  1.0
  I  I59  1  0.74775000  0.33704000  0.19347000  1.0
  I  I60  1  0.91572000  0.33623000  0.80784000  1.0
  I  I61  1  0.05950000  0.66392000  0.19218000  1.0
  I  I62  1  0.47350000  0.69221000  0.83615000  1.0
  I  I63  1  0.00184000  0.30788000  0.16377000  1.0
  O  O64  1  0.54616000  0.10763000  0.31418000  1.0
  O  O65  1  0.96791000  0.89257000  0.68585000  1.0
  O  O66  1  0.40384000  0.81408000  0.39245000  1.0
  O  O67  1  0.61058000  0.18571000  0.60749000  1.0
  O  O68  1  0.19986000  0.18391000  0.39831000  1.0
  O  O69  1  0.78208000  0.81601000  0.60156000  1.0
  O  O70  1  0.34811000  0.10160000  0.68393000  1.0
  O  O71  1  0.13366000  0.89840000  0.31611000  1.0
  O  O72  1  0.48332000  0.00273000  0.24347000  1.0
  O  O73  1  0.72946000  0.99726000  0.75653000  1.0
  O  O74  1  0.23604000  0.74342000  0.49734000  1.0
  O  O75  1  0.47692000  0.25643000  0.50271000  1.0
  O  O76  1  0.26660000  0.25492000  0.49888000  1.0
  O  O77  1  0.02042000  0.74505000  0.50116000  1.0
  O  O78  1  0.51544000  0.00107000  0.75491000  1.0
  O  O79  1  0.27154000  0.99886000  0.24510000  1.0
  O  O80  1  0.61234000  0.01315000  0.50970000  1.0
  O  O81  1  0.13534000  0.98670000  0.49018000  1.0
  O  O82  1  0.37558000  0.00968000  0.48675000  1.0
  O  O83  1  0.87204000  0.99013000  0.51323000  1.0
