# generated using pymatgen
data_Zn3H24C18(NO9)2
_symmetry_space_group_name_H-M   'P 1'
_cell_length_a   6.78939000
_cell_length_b   10.31890000
_cell_length_c   10.65360000
_cell_angle_alpha   100.03900000
_cell_angle_beta   107.88500000
_cell_angle_gamma   106.41200000
_symmetry_Int_Tables_number   1
_chemical_formula_structural   Zn3H24C18(NO9)2
_chemical_formula_sum   'Zn3 H24 C18 N2 O18'
_cell_volume   652.90901454
_cell_formula_units_Z   1
loop_
 _symmetry_equiv_pos_site_id
 _symmetry_equiv_pos_as_xyz
  1  'x, y, z'
loop_
 _atom_site_type_symbol
 _atom_site_label
 _atom_site_symmetry_multiplicity
 _atom_site_fract_x
 _atom_site_fract_y
 _atom_site_fract_z
 _atom_site_occupancy
  Zn  Zn0  1  0.49999000  0.50000000  0.00000000  1.0
  Zn  Zn1  1  0.86427000  0.00325000  0.74674000  1.0
  Zn  Zn2  1  0.13573000  0.99675000  0.25326000  1.0
  H  H3  1  0.60396000  0.29557000  0.84339000  1.0
  H  H4  1  0.39601000  0.70442000  0.15661000  1.0
  H  H5  1  0.38870000  0.33038000  0.77860000  1.0
  H  H6  1  0.61128000  0.66961000  0.22139000  1.0
  H  H7  1  0.94316000  0.63757000  0.06782000  1.0
  H  H8  1  0.05684000  0.36243000  0.93218000  1.0
  H  H9  1  0.81558000  0.64704000  0.91819000  1.0
  H  H10  1  0.18443000  0.35297000  0.08180000  1.0
  H  H11  1  0.50361000  0.87427000  0.80841000  1.0
  H  H12  1  0.49641000  0.12573000  0.19159000  1.0
  H  H13  1  0.53207000  0.03699000  0.79921000  1.0
  H  H14  1  0.46793000  0.96300000  0.20080000  1.0
  H  H15  1  0.27575000  0.15382000  0.89921000  1.0
  H  H16  1  0.72425000  0.84617000  0.10079000  1.0
  H  H17  1  0.20410000  0.00103000  0.93617000  1.0
  H  H18  1  0.79589000  0.99896000  0.06383000  1.0
  H  H19  1  0.13570000  0.12934000  0.99988000  1.0
  H  H20  1  0.86431000  0.87066000  0.00013000  1.0
  H  H21  1  0.84550000  0.49762000  0.79105000  1.0
  H  H22  1  0.15450000  0.50239000  0.20895000  1.0
  H  H23  1  0.72152000  0.21094000  0.40856000  1.0
  H  H24  1  0.27850000  0.78906000  0.59144000  1.0
  H  H25  1  0.73875000  0.63499000  0.42609000  1.0
  H  H26  1  0.26126000  0.36502000  0.57391000  1.0
  C  C27  1  0.77995000  0.34274000  0.60578000  1.0
  C  C28  1  0.22005000  0.65727000  0.39422000  1.0
  C  C29  1  0.66220000  0.38647000  0.24536000  1.0
  C  C30  1  0.33781000  0.61353000  0.75464000  1.0
  C  C31  1  0.83003000  0.72616000  0.69753000  1.0
  C  C32  1  0.16998000  0.27384000  0.30247000  1.0
  C  C33  1  0.79535000  0.58212000  0.61662000  1.0
  C  C34  1  0.20465000  0.41788000  0.38337000  1.0
  C  C35  1  0.80816000  0.47644000  0.68111000  1.0
  C  C36  1  0.19184000  0.52357000  0.31890000  1.0
  C  C37  1  0.71620000  0.41784000  0.39800000  1.0
  C  C38  1  0.28380000  0.58217000  0.60199000  1.0
  C  C39  1  0.80338000  0.23470000  0.67977000  1.0
  C  C40  1  0.19661000  0.76530000  0.32023000  1.0
  C  C41  1  0.73652000  0.31414000  0.46482000  1.0
  C  C42  1  0.26350000  0.68587000  0.53519000  1.0
  C  C43  1  0.74879000  0.55190000  0.47518000  1.0
  C  C44  1  0.25120000  0.44810000  0.52482000  1.0
  N  N45  1  0.15022000  0.08009000  0.91235000  1.0
  N  N46  1  0.84978000  0.91991000  0.08766000  1.0
  O  O47  1  0.66345000  0.49149000  0.19582000  1.0
  O  O48  1  0.33656000  0.50851000  0.80418000  1.0
  O  O49  1  0.62017000  0.26333000  0.17412000  1.0
  O  O50  1  0.37984000  0.73667000  0.82588000  1.0
  O  O51  1  0.80667000  0.25690000  0.80263000  1.0
  O  O52  1  0.19333000  0.74311000  0.19737000  1.0
  O  O53  1  0.46205000  0.29578000  0.85339000  1.0
  O  O54  1  0.53792000  0.70420000  0.14661000  1.0
  O  O55  1  0.85492000  0.75119000  0.82333000  1.0
  O  O56  1  0.14509000  0.24882000  0.17666000  1.0
  O  O57  1  0.80265000  0.59163000  0.98608000  1.0
  O  O58  1  0.19735000  0.40838000  0.01392000  1.0
  O  O59  1  0.61028000  0.97233000  0.81622000  1.0
  O  O60  1  0.38973000  0.02767000  0.18379000  1.0
  O  O61  1  0.82174000  0.12276000  0.61875000  1.0
  O  O62  1  0.17824000  0.87724000  0.38126000  1.0
  O  O63  1  0.83085000  0.81999000  0.63206000  1.0
  O  O64  1  0.16914000  0.18002000  0.36794000  1.0
