# generated using pymatgen
data_ZnH10C5(NO3)2
_symmetry_space_group_name_H-M   'P 1'
_cell_length_a   8.20286000
_cell_length_b   8.68633000
_cell_length_c   13.28080000
_cell_angle_alpha   73.53780000
_cell_angle_beta   86.57370000
_cell_angle_gamma   89.56990000
_symmetry_Int_Tables_number   1
_chemical_formula_structural   ZnH10C5(NO3)2
_chemical_formula_sum   'Zn4 H40 C20 N8 O24'
_cell_volume   905.83589467
_cell_formula_units_Z   4
loop_
 _symmetry_equiv_pos_site_id
 _symmetry_equiv_pos_as_xyz
  1  'x, y, z'
loop_
 _atom_site_type_symbol
 _atom_site_label
 _atom_site_symmetry_multiplicity
 _atom_site_fract_x
 _atom_site_fract_y
 _atom_site_fract_z
 _atom_site_occupancy
  Zn  Zn0  1  0.06514000  0.72301000  0.66177000  1.0
  Zn  Zn1  1  0.93487000  0.27698000  0.33822000  1.0
  Zn  Zn2  1  0.59775000  0.77393000  0.33462000  1.0
  Zn  Zn3  1  0.40225000  0.22607000  0.66538000  1.0
  H  H4  1  0.33770000  0.67209000  0.51804000  1.0
  H  H5  1  0.66230000  0.32791000  0.48196000  1.0
  H  H6  1  0.51074000  0.84928000  0.73575000  1.0
  H  H7  1  0.48926000  0.15072000  0.26424000  1.0
  H  H8  1  0.83912000  0.82447000  0.47737000  1.0
  H  H9  1  0.16088000  0.17553000  0.52263000  1.0
  H  H10  1  0.94961000  0.35377000  0.74318000  1.0
  H  H11  1  0.05039000  0.64623000  0.25682000  1.0
  H  H12  1  0.69075000  0.52372000  0.93628000  1.0
  H  H13  1  0.30924000  0.47629000  0.06372000  1.0
  H  H14  1  0.54258000  0.63076000  0.99375000  1.0
  H  H15  1  0.45741000  0.36925000  0.00625000  1.0
  H  H16  1  0.73958000  0.49559000  0.12623000  1.0
  H  H17  1  0.26041000  0.50441000  0.87376000  1.0
  H  H18  1  0.76050000  0.70784000  0.09637000  1.0
  H  H19  1  0.23950000  0.29215000  0.90364000  1.0
  H  H20  1  0.90643000  0.59363000  0.04237000  1.0
  H  H21  1  0.09357000  0.40636000  0.95763000  1.0
  H  H22  1  0.07858000  0.00765000  0.69074000  1.0
  H  H23  1  0.92142000  0.99235000  0.30926000  1.0
  H  H24  1  0.93551000  0.01555000  0.60556000  1.0
  H  H25  1  0.06449000  0.98445000  0.39444000  1.0
  H  H26  1  0.76374000  0.00757000  0.73776000  1.0
  H  H27  1  0.23626000  0.99244000  0.26224000  1.0
  H  H28  1  0.27483000  0.99000000  0.04838000  1.0
  H  H29  1  0.72517000  0.01000000  0.95162000  1.0
  H  H30  1  0.41063000  0.90346000  0.97085000  1.0
  H  H31  1  0.58937000  0.09654000  0.02915000  1.0
  H  H32  1  0.15355000  0.99161000  0.87893000  1.0
  H  H33  1  0.84645000  0.00839000  0.12107000  1.0
  H  H34  1  0.17184000  0.77907000  0.90997000  1.0
  H  H35  1  0.82816000  0.22092000  0.09004000  1.0
  H  H36  1  0.03555000  0.86590000  0.98765000  1.0
  H  H37  1  0.96445000  0.13410000  0.01235000  1.0
  H  H38  1  0.44592000  0.48805000  0.39080000  1.0
  H  H39  1  0.55408000  0.51195000  0.60920000  1.0
  H  H40  1  0.60277000  0.48342000  0.30681000  1.0
  H  H41  1  0.39723000  0.51658000  0.69319000  1.0
  H  H42  1  0.30168000  0.50272000  0.25401000  1.0
  H  H43  1  0.69832000  0.49727000  0.74599000  1.0
  C  C44  1  0.27738000  0.77541000  0.46539000  1.0
  C  C45  1  0.72262000  0.22459000  0.53461000  1.0
  C  C46  1  0.38550000  0.86088000  0.70768000  1.0
  C  C47  1  0.61450000  0.13912000  0.29232000  1.0
  C  C48  1  0.76994000  0.72193000  0.53065000  1.0
  C  C49  1  0.23006000  0.27807000  0.46935000  1.0
  C  C50  1  0.07792000  0.36221000  0.71082000  1.0
  C  C51  1  0.92208000  0.63779000  0.28918000  1.0
  C  C52  1  0.83497000  0.77826000  0.82289000  1.0
  C  C53  1  0.16502000  0.22174000  0.17711000  1.0
  C  C54  1  0.67245000  0.62274000  0.97165000  1.0
  C  C55  1  0.32755000  0.37726000  0.02835000  1.0
  C  C56  1  0.77678000  0.60518000  0.06411000  1.0
  C  C57  1  0.22322000  0.39483000  0.93589000  1.0
  C  C58  1  0.40087000  0.72751000  0.17008000  1.0
  C  C59  1  0.59913000  0.27249000  0.82992000  1.0
  C  C60  1  0.29031000  0.89018000  0.01343000  1.0
  C  C61  1  0.70968000  0.10982000  0.98657000  1.0
  C  C62  1  0.15475000  0.88008000  0.94376000  1.0
  C  C63  1  0.84525000  0.11992000  0.05624000  1.0
  N  N64  1  0.98183000  0.94490000  0.67482000  1.0
  N  N65  1  0.01816000  0.05510000  0.32518000  1.0
  N  N66  1  0.85782000  0.92723000  0.75555000  1.0
  N  N67  1  0.14218000  0.07277000  0.24445000  1.0
  N  N68  1  0.50798000  0.55419000  0.32160000  1.0
  N  N69  1  0.49202000  0.44581000  0.67840000  1.0
  N  N70  1  0.40051000  0.57910000  0.23966000  1.0
  N  N71  1  0.59949000  0.42089000  0.76034000  1.0
  O  O72  1  0.14597000  0.82531000  0.50130000  1.0
  O  O73  1  0.85404000  0.17470000  0.49870000  1.0
  O  O74  1  0.34230000  0.83600000  0.37380000  1.0
  O  O75  1  0.65770000  0.16400000  0.62619000  1.0
  O  O76  1  0.30683000  0.73170000  0.71787000  1.0
  O  O77  1  0.69317000  0.26831000  0.28213000  1.0
  O  O78  1  0.33035000  0.00034000  0.66832000  1.0
  O  O79  1  0.66965000  0.99967000  0.33168000  1.0
  O  O80  1  0.81830000  0.66216000  0.62216000  1.0
  O  O81  1  0.18170000  0.33784000  0.37784000  1.0
  O  O82  1  0.64554000  0.67209000  0.49535000  1.0
  O  O83  1  0.35446000  0.32791000  0.50465000  1.0
  O  O84  1  0.15403000  0.23143000  0.72238000  1.0
  O  O85  1  0.84597000  0.76857000  0.27762000  1.0
  O  O86  1  0.13936000  0.49962000  0.66550000  1.0
  O  O87  1  0.86064000  0.50038000  0.33450000  1.0
  O  O88  1  0.92507000  0.66198000  0.82389000  1.0
  O  O89  1  0.07492000  0.33801000  0.17612000  1.0
  O  O90  1  0.70425000  0.77412000  0.88994000  1.0
  O  O91  1  0.29575000  0.22589000  0.11006000  1.0
  O  O92  1  0.28760000  0.73952000  0.09919000  1.0
  O  O93  1  0.71240000  0.26048000  0.90081000  1.0
  O  O94  1  0.49826000  0.83686000  0.17019000  1.0
  O  O95  1  0.50174000  0.16314000  0.82981000  1.0
