# generated using pymatgen
data_TlH11C8(NO)2
_symmetry_space_group_name_H-M   'P 1'
_cell_length_a   6.56411000
_cell_length_b   10.88820000
_cell_length_c   14.06500000
_cell_angle_alpha   89.99940000
_cell_angle_beta   101.46700000
_cell_angle_gamma   89.99520000
_symmetry_Int_Tables_number   1
_chemical_formula_structural   TlH11C8(NO)2
_chemical_formula_sum   'Tl4 H44 C32 N8 O8'
_cell_volume   985.17911605
_cell_formula_units_Z   4
loop_
 _symmetry_equiv_pos_site_id
 _symmetry_equiv_pos_as_xyz
  1  'x, y, z'
loop_
 _atom_site_type_symbol
 _atom_site_label
 _atom_site_symmetry_multiplicity
 _atom_site_fract_x
 _atom_site_fract_y
 _atom_site_fract_z
 _atom_site_occupancy
  Tl  Tl0  1  0.59057000  0.01229000  0.35831000  1.0
  Tl  Tl1  1  0.59054000  0.48770000  0.85830000  1.0
  Tl  Tl2  1  0.40944000  0.98772000  0.64170000  1.0
  Tl  Tl3  1  0.40946000  0.51230000  0.14170000  1.0
  H  H4  1  0.73730000  0.24732000  0.77064000  1.0
  H  H5  1  0.73732000  0.25265000  0.27066000  1.0
  H  H6  1  0.26272000  0.75268000  0.22935000  1.0
  H  H7  1  0.26268000  0.74734000  0.72934000  1.0
  H  H8  1  0.71752000  0.16650000  0.65826000  1.0
  H  H9  1  0.71753000  0.33347000  0.15827000  1.0
  H  H10  1  0.28248000  0.83349000  0.34173000  1.0
  H  H11  1  0.28246000  0.66652000  0.84173000  1.0
  H  H12  1  0.76040000  0.45765000  0.42186000  1.0
  H  H13  1  0.76035000  0.04233000  0.92186000  1.0
  H  H14  1  0.23961000  0.54237000  0.57814000  1.0
  H  H15  1  0.23960000  0.95766000  0.07814000  1.0
  H  H16  1  0.79737000  0.65644000  0.51728000  1.0
  H  H17  1  0.79734000  0.84355000  0.01727000  1.0
  H  H18  1  0.20265000  0.34358000  0.48273000  1.0
  H  H19  1  0.20259000  0.15645000  0.98271000  1.0
  H  H20  1  0.76860000  0.64624000  0.69178000  1.0
  H  H21  1  0.76860000  0.85373000  0.19177000  1.0
  H  H22  1  0.23141000  0.35377000  0.30823000  1.0
  H  H23  1  0.23138000  0.14625000  0.80821000  1.0
  H  H24  1  0.18639000  0.02684000  0.25670000  1.0
  H  H25  1  0.18637000  0.47317000  0.75671000  1.0
  H  H26  1  0.81361000  0.97316000  0.74329000  1.0
  H  H27  1  0.81364000  0.52680000  0.24330000  1.0
  H  H28  1  0.32653000  0.16586000  0.24584000  1.0
  H  H29  1  0.32653000  0.33414000  0.74584000  1.0
  H  H30  1  0.67347000  0.83414000  0.75416000  1.0
  H  H31  1  0.67350000  0.66583000  0.25417000  1.0
  H  H32  1  0.22953000  0.13507000  0.35456000  1.0
  H  H33  1  0.22953000  0.36492000  0.85457000  1.0
  H  H34  1  0.77046000  0.86493000  0.64544000  1.0
  H  H35  1  0.77050000  0.63504000  0.14545000  1.0
  H  H36  1  0.84686000  0.87362000  0.48818000  1.0
  H  H37  1  0.84679000  0.62636000  0.98817000  1.0
  H  H38  1  0.15315000  0.12638000  0.51182000  1.0
  H  H39  1  0.15320000  0.37365000  0.01183000  1.0
  H  H40  1  0.99316000  0.94587000  0.40851000  1.0
  H  H41  1  0.99313000  0.55412000  0.90851000  1.0
  H  H42  1  0.00685000  0.05414000  0.59150000  1.0
  H  H43  1  0.00687000  0.44589000  0.09151000  1.0
  H  H44  1  0.83987000  0.81215000  0.36911000  1.0
  H  H45  1  0.83981000  0.68784000  0.86910000  1.0
  H  H46  1  0.16014000  0.18786000  0.63090000  1.0
  H  H47  1  0.16017000  0.31217000  0.13091000  1.0
  C  C48  1  0.70142000  0.23242000  0.48548000  1.0
  C  C49  1  0.70139000  0.26757000  0.98548000  1.0
  C  C50  1  0.29860000  0.76760000  0.51452000  1.0
  C  C51  1  0.29858000  0.73242000  0.01451000  1.0
  C  C52  1  0.73192000  0.34769000  0.54393000  1.0
  C  C53  1  0.73189000  0.15230000  0.04394000  1.0
  C  C54  1  0.26811000  0.65233000  0.45607000  1.0
  C  C55  1  0.26807000  0.84769000  0.95606000  1.0
  C  C56  1  0.75691000  0.45909000  0.49893000  1.0
  C  C57  1  0.75687000  0.04089000  0.99893000  1.0
  C  C58  1  0.24311000  0.54092000  0.50107000  1.0
  C  C59  1  0.24310000  0.95911000  0.00106000  1.0
  C  C60  1  0.77563000  0.56885000  0.55107000  1.0
  C  C61  1  0.77558000  0.93114000  0.05106000  1.0
  C  C62  1  0.22442000  0.43116000  0.44895000  1.0
  C  C63  1  0.22440000  0.06886000  0.94893000  1.0
  C  C64  1  0.76188000  0.56271000  0.64826000  1.0
  C  C65  1  0.76189000  0.93727000  0.14826000  1.0
  C  C66  1  0.23815000  0.43729000  0.35175000  1.0
  C  C67  1  0.23810000  0.06273000  0.85174000  1.0
  C  C68  1  0.73031000  0.34979000  0.64567000  1.0
  C  C69  1  0.73032000  0.15018000  0.14568000  1.0
  C  C70  1  0.26971000  0.65022000  0.35433000  1.0
  C  C71  1  0.26965000  0.84980000  0.85432000  1.0
  C  C72  1  0.29475000  0.09466000  0.29586000  1.0
  C  C73  1  0.29474000  0.40534000  0.79587000  1.0
  C  C74  1  0.70524000  0.90534000  0.70414000  1.0
  C  C75  1  0.70529000  0.59464000  0.20414000  1.0
  C  C76  1  0.85090000  0.89600000  0.41283000  1.0
  C  C77  1  0.85085000  0.60399000  0.91282000  1.0
  C  C78  1  0.14910000  0.10401000  0.58718000  1.0
  C  C79  1  0.14913000  0.39602000  0.08719000  1.0
  N  N80  1  0.73905000  0.45765000  0.69482000  1.0
  N  N81  1  0.73905000  0.04233000  0.19482000  1.0
  N  N82  1  0.26097000  0.54235000  0.30518000  1.0
  N  N83  1  0.26090000  0.95766000  0.80517000  1.0
  N  N84  1  0.72204000  0.24575000  0.69686000  1.0
  N  N85  1  0.72205000  0.25421000  0.19687000  1.0
  N  N86  1  0.27798000  0.75425000  0.30314000  1.0
  N  N87  1  0.27794000  0.74577000  0.80313000  1.0
  O  O88  1  0.63991000  0.13489000  0.52270000  1.0
  O  O89  1  0.63995000  0.36512000  0.02270000  1.0
  O  O90  1  0.36009000  0.86514000  0.47730000  1.0
  O  O91  1  0.36006000  0.63488000  0.97729000  1.0
  O  O92  1  0.73430000  0.23422000  0.39906000  1.0
  O  O93  1  0.73427000  0.26576000  0.89905000  1.0
  O  O94  1  0.26572000  0.76579000  0.60095000  1.0
  O  O95  1  0.26574000  0.73424000  0.10094000  1.0
