# generated using pymatgen
data_Cu3H54C70(N7O6)2
_symmetry_space_group_name_H-M   'P 1'
_cell_length_a   13.22320000
_cell_length_b   13.96270000
_cell_length_c   19.98670000
_cell_angle_alpha   89.99690000
_cell_angle_beta   89.99750000
_cell_angle_gamma   83.42680000
_symmetry_Int_Tables_number   1
_chemical_formula_structural   Cu3H54C70(N7O6)2
_chemical_formula_sum   'Cu6 H108 C140 N28 O24'
_cell_volume   3665.91821320
_cell_formula_units_Z   2
loop_
 _symmetry_equiv_pos_site_id
 _symmetry_equiv_pos_as_xyz
  1  'x, y, z'
loop_
 _atom_site_type_symbol
 _atom_site_label
 _atom_site_symmetry_multiplicity
 _atom_site_fract_x
 _atom_site_fract_y
 _atom_site_fract_z
 _atom_site_occupancy
  Cu  Cu0  1  0.00001000  1.00000000  0.50000000  1.0
  Cu  Cu1  1  0.50001000  0.00001000  0.99999000  1.0
  Cu  Cu2  1  0.78468000  0.41647000  0.73078000  1.0
  Cu  Cu3  1  0.71535000  0.58352000  0.23078000  1.0
  Cu  Cu4  1  0.21534000  0.58354000  0.26923000  1.0
  Cu  Cu5  1  0.28466000  0.41647000  0.76923000  1.0
  H  H6  1  0.29117000  0.85150000  0.43702000  1.0
  H  H7  1  0.20881000  0.14847000  0.93701000  1.0
  H  H8  1  0.70883000  0.14848000  0.56299000  1.0
  H  H9  1  0.79116000  0.85150000  0.06300000  1.0
  H  H10  1  0.41343000  0.64451000  0.62546000  1.0
  H  H11  1  0.08659000  0.35549000  0.12544000  1.0
  H  H12  1  0.58656000  0.35547000  0.37455000  1.0
  H  H13  1  0.91346000  0.64452000  0.87456000  1.0
  H  H14  1  0.24953000  0.74910000  0.63680000  1.0
  H  H15  1  0.25049000  0.25089000  0.13677000  1.0
  H  H16  1  0.75046000  0.25087000  0.36321000  1.0
  H  H17  1  0.74955000  0.74911000  0.86321000  1.0
  H  H18  1  0.53436000  0.66478000  0.40694000  1.0
  H  H19  1  0.96565000  0.33523000  0.90693000  1.0
  H  H20  1  0.46564000  0.33521000  0.59307000  1.0
  H  H21  1  0.03438000  0.66479000  0.09308000  1.0
  H  H22  1  0.76495000  0.43847000  0.46705000  1.0
  H  H23  1  0.73504000  0.56150000  0.96705000  1.0
  H  H24  1  0.23503000  0.56149000  0.53295000  1.0
  H  H25  1  0.26497000  0.43850000  0.03296000  1.0
  H  H26  1  0.55842000  0.57337000  0.61279000  1.0
  H  H27  1  0.94159000  0.42661000  0.11278000  1.0
  H  H28  1  0.44158000  0.42660000  0.38722000  1.0
  H  H29  1  0.05843000  0.57339000  0.88723000  1.0
  H  H30  1  0.07193000  0.80465000  0.41770000  1.0
  H  H31  1  0.42807000  0.19534000  0.91769000  1.0
  H  H32  1  0.92807000  0.19532000  0.58230000  1.0
  H  H33  1  0.57194000  0.80467000  0.08230000  1.0
  H  H34  1  0.77532000  0.72779000  0.44990000  1.0
  H  H35  1  0.72466000  0.27225000  0.94988000  1.0
  H  H36  1  0.22467000  0.27222000  0.55012000  1.0
  H  H37  1  0.27534000  0.72778000  0.05010000  1.0
  H  H38  1  0.78862000  0.91307000  0.50134000  1.0
  H  H39  1  0.71139000  0.08696000  0.00133000  1.0
  H  H40  1  0.21139000  0.08695000  0.49866000  1.0
  H  H41  1  0.28863000  0.91306000  0.99866000  1.0
  H  H42  1  0.03550000  0.65037000  0.36877000  1.0
  H  H43  1  0.46449000  0.34964000  0.86875000  1.0
  H  H44  1  0.96449000  0.34959000  0.63126000  1.0
  H  H45  1  0.53552000  0.65038000  0.13124000  1.0
  H  H46  1  0.90651000  0.62628000  0.35990000  1.0
  H  H47  1  0.59347000  0.37375000  0.85988000  1.0
  H  H48  1  0.09347000  0.37371000  0.64011000  1.0
  H  H49  1  0.40653000  0.62627000  0.14011000  1.0
  H  H50  1  0.06165000  0.65978000  0.51596000  1.0
  H  H51  1  0.43832000  0.34022000  0.01594000  1.0
  H  H52  1  0.93832000  0.34019000  0.48406000  1.0
  H  H53  1  0.56169000  0.65980000  0.98405000  1.0
  H  H54  1  0.90469000  0.46635000  0.39722000  1.0
  H  H55  1  0.59531000  0.53366000  0.89720000  1.0
  H  H56  1  0.09528000  0.53362000  0.60279000  1.0
  H  H57  1  0.40471000  0.46635000  0.10278000  1.0
  H  H58  1  0.78878000  0.60364000  0.64023000  1.0
  H  H59  1  0.71123000  0.39636000  0.14023000  1.0
  H  H60  1  0.21123000  0.39637000  0.35979000  1.0
  H  H61  1  0.28876000  0.60364000  0.85978000  1.0
  H  H62  1  0.07198000  0.64148000  0.72942000  1.0
  H  H63  1  0.42800000  0.35856000  0.22943000  1.0
  H  H64  1  0.92806000  0.35850000  0.27056000  1.0
  H  H65  1  0.57195000  0.64150000  0.77056000  1.0
  H  H66  1  0.00740000  0.47088000  0.77509000  1.0
  H  H67  1  0.49264000  0.52912000  0.27510000  1.0
  H  H68  1  0.99265000  0.52910000  0.22490000  1.0
  H  H69  1  0.50735000  0.47091000  0.72489000  1.0
  H  H70  1  0.88754000  0.73792000  0.59431000  1.0
  H  H71  1  0.61242000  0.26211000  0.09429000  1.0
  H  H72  1  0.11247000  0.26208000  0.40570000  1.0
  H  H73  1  0.38753000  0.73791000  0.90570000  1.0
  H  H74  1  0.00296000  0.75967000  0.63235000  1.0
  H  H75  1  0.49699000  0.24037000  0.13235000  1.0
  H  H76  1  0.99706000  0.24032000  0.36766000  1.0
  H  H77  1  0.50295000  0.75967000  0.86765000  1.0
  H  H78  1  0.96209000  0.92977000  0.64696000  1.0
  H  H79  1  0.53787000  0.07025000  0.14695000  1.0
  H  H80  1  0.03793000  0.07023000  0.35304000  1.0
  H  H81  1  0.46211000  0.92976000  0.85302000  1.0
  H  H82  1  0.87320000  0.06486000  0.71316000  1.0
  H  H83  1  0.62675000  0.93515000  0.21316000  1.0
  H  H84  1  0.12682000  0.93515000  0.28683000  1.0
  H  H85  1  0.37322000  0.06485000  0.78681000  1.0
  H  H86  1  0.64584000  0.03527000  0.82448000  1.0
  H  H87  1  0.85411000  0.96474000  0.32447000  1.0
  H  H88  1  0.35417000  0.96473000  0.17551000  1.0
  H  H89  1  0.14586000  0.03528000  0.67551000  1.0
  H  H90  1  0.76612000  0.06588000  0.84878000  1.0
  H  H91  1  0.73384000  0.93409000  0.34877000  1.0
  H  H92  1  0.23388000  0.93412000  0.15122000  1.0
  H  H93  1  0.26614000  0.06591000  0.65121000  1.0
  H  H94  1  0.80997000  0.22864000  0.82010000  1.0
  H  H95  1  0.69003000  0.77133000  0.32010000  1.0
  H  H96  1  0.19004000  0.77136000  0.17990000  1.0
  H  H97  1  0.30996000  0.22867000  0.67989000  1.0
  H  H98  1  0.61061000  0.30671000  0.65938000  1.0
  H  H99  1  0.88938000  0.69333000  0.15935000  1.0
  H  H100  1  0.38937000  0.69332000  0.34065000  1.0
  H  H101  1  0.11061000  0.30667000  0.84064000  1.0
  H  H102  1  0.58420000  0.12069000  0.70003000  1.0
  H  H103  1  0.91576000  0.87935000  0.20000000  1.0
  H  H104  1  0.41579000  0.87934000  0.29998000  1.0
  H  H105  1  0.08422000  0.12065000  0.79998000  1.0
  H  H106  1  0.67529000  0.87185000  0.79694000  1.0
  H  H107  1  0.82465000  0.12815000  0.29693000  1.0
  H  H108  1  0.32473000  0.12816000  0.20307000  1.0
  H  H109  1  0.17529000  0.87186000  0.70307000  1.0
  H  H110  1  0.76364000  0.73715000  0.73073000  1.0
  H  H111  1  0.73631000  0.26285000  0.23072000  1.0
  H  H112  1  0.23639000  0.26285000  0.26929000  1.0
  H  H113  1  0.26362000  0.73716000  0.76930000  1.0
  C  C114  1  0.31790000  0.80717000  0.47993000  1.0
  C  C115  1  0.18209000  0.19281000  0.97993000  1.0
  C  C116  1  0.68210000  0.19281000  0.52007000  1.0
  C  C117  1  0.81790000  0.80717000  0.02008000  1.0
  C  C118  1  0.16044000  0.87457000  0.54305000  1.0
  C  C119  1  0.33957000  0.12542000  0.04303000  1.0
  C  C120  1  0.83957000  0.12542000  0.45695000  1.0
  C  C121  1  0.66044000  0.87457000  0.95695000  1.0
  C  C122  1  0.25879000  0.81068000  0.53831000  1.0
  C  C123  1  0.24121000  0.18930000  0.03829000  1.0
  C  C124  1  0.74121000  0.18930000  0.46170000  1.0
  C  C125  1  0.75880000  0.81068000  0.96170000  1.0
  C  C126  1  0.44004000  0.69328000  0.52414000  1.0
  C  C127  1  0.05997000  0.30671000  0.02413000  1.0
  C  C128  1  0.55996000  0.30670000  0.47587000  1.0
  C  C129  1  0.94005000  0.69329000  0.97588000  1.0
  C  C130  1  0.38629000  0.69257000  0.58476000  1.0
  C  C131  1  0.11372000  0.30742000  0.08474000  1.0
  C  C132  1  0.61370000  0.30740000  0.41525000  1.0
  C  C133  1  0.88631000  0.69258000  0.91526000  1.0
  C  C134  1  0.29457000  0.75087000  0.59139000  1.0
  C  C135  1  0.20544000  0.24912000  0.09137000  1.0
  C  C136  1  0.70542000  0.24911000  0.40861000  1.0
  C  C137  1  0.79459000  0.75087000  0.90862000  1.0
  C  C138  1  0.53363000  0.62716000  0.51119000  1.0
  C  C139  1  0.96638000  0.37283000  0.01118000  1.0
  C  C140  1  0.46637000  0.37281000  0.48882000  1.0
  C  C141  1  0.03364000  0.62718000  0.98883000  1.0
  C  C142  1  0.57175000  0.61913000  0.44576000  1.0
  C  C143  1  0.92826000  0.38087000  0.94575000  1.0
  C  C144  1  0.42825000  0.38085000  0.55425000  1.0
  C  C145  1  0.07177000  0.61915000  0.05425000  1.0
  C  C146  1  0.65489000  0.55243000  0.42944000  1.0
  C  C147  1  0.84511000  0.44756000  0.92944000  1.0
  C  C148  1  0.34510000  0.44755000  0.57056000  1.0
  C  C149  1  0.15491000  0.55245000  0.07057000  1.0
  C  C150  1  0.69176000  0.54556000  0.35852000  1.0
  C  C151  1  0.80825000  0.45444000  0.85852000  1.0
  C  C152  1  0.30824000  0.45444000  0.64148000  1.0
  C  C153  1  0.19178000  0.54557000  0.14149000  1.0
  C  C154  1  0.70172000  0.49229000  0.47915000  1.0
  C  C155  1  0.79827000  0.50769000  0.97915000  1.0
  C  C156  1  0.29826000  0.50768000  0.52085000  1.0
  C  C157  1  0.20175000  0.49231000  0.02086000  1.0
  C  C158  1  0.66716000  0.50154000  0.54513000  1.0
  C  C159  1  0.83284000  0.49845000  0.04513000  1.0
  C  C160  1  0.33283000  0.49844000  0.45487000  1.0
  C  C161  1  0.16718000  0.50156000  0.95488000  1.0
  C  C162  1  0.72140000  0.44036000  0.59911000  1.0
  C  C163  1  0.77861000  0.55963000  0.09911000  1.0
  C  C164  1  0.27860000  0.55962000  0.40090000  1.0
  C  C165  1  0.22140000  0.44036000  0.90091000  1.0
  C  C166  1  0.58356000  0.56870000  0.56091000  1.0
  C  C167  1  0.91645000  0.43128000  0.06090000  1.0
  C  C168  1  0.41644000  0.43127000  0.43910000  1.0
  C  C169  1  0.08357000  0.56872000  0.93911000  1.0
  C  C170  1  0.99248000  0.81163000  0.43241000  1.0
  C  C171  1  0.50753000  0.18837000  0.93239000  1.0
  C  C172  1  0.00753000  0.18835000  0.56760000  1.0
  C  C173  1  0.49249000  0.81164000  0.06760000  1.0
  C  C174  1  0.83708000  0.77265000  0.45035000  1.0
  C  C175  1  0.66292000  0.22737000  0.95034000  1.0
  C  C176  1  0.16292000  0.22735000  0.54966000  1.0
  C  C177  1  0.33709000  0.77265000  0.04965000  1.0
  C  C178  1  0.84452000  0.86305000  0.47590000  1.0
  C  C179  1  0.65549000  0.13697000  0.97589000  1.0
  C  C180  1  0.15549000  0.13695000  0.52410000  1.0
  C  C181  1  0.34453000  0.86305000  0.02410000  1.0
  C  C182  1  0.96374000  0.64564000  0.39574000  1.0
  C  C183  1  0.53625000  0.35437000  0.89572000  1.0
  C  C184  1  0.03625000  0.35434000  0.60428000  1.0
  C  C185  1  0.46376000  0.64564000  0.10427000  1.0
  C  C186  1  0.98091000  0.57124000  0.45064000  1.0
  C  C187  1  0.51907000  0.42877000  0.95062000  1.0
  C  C188  1  0.01905000  0.42874000  0.54938000  1.0
  C  C189  1  0.48095000  0.57125000  0.04937000  1.0
  C  C190  1  0.03283000  0.59029000  0.50919000  1.0
  C  C191  1  0.46715000  0.40971000  0.00918000  1.0
  C  C192  1  0.96714000  0.40968000  0.49083000  1.0
  C  C193  1  0.53287000  0.59031000  0.99081000  1.0
  C  C194  1  0.94818000  0.48043000  0.44183000  1.0
  C  C195  1  0.55182000  0.51957000  0.94181000  1.0
  C  C196  1  0.05179000  0.51954000  0.55819000  1.0
  C  C197  1  0.44820000  0.48045000  0.05818000  1.0
  C  C198  1  0.85620000  0.58977000  0.67109000  1.0
  C  C199  1  0.64380000  0.41023000  0.17109000  1.0
  C  C200  1  0.14382000  0.41023000  0.32892000  1.0
  C  C201  1  0.35618000  0.58978000  0.82892000  1.0
  C  C202  1  0.00280000  0.60930000  0.71951000  1.0
  C  C203  1  0.49719000  0.39073000  0.21951000  1.0
  C  C204  1  0.99724000  0.39069000  0.28049000  1.0
  C  C205  1  0.50277000  0.60931000  0.78048000  1.0
  C  C206  1  0.97080000  0.52422000  0.74089000  1.0
  C  C207  1  0.52921000  0.47578000  0.24090000  1.0
  C  C208  1  0.02923000  0.47576000  0.25911000  1.0
  C  C209  1  0.47077000  0.52424000  0.75910000  1.0
  C  C210  1  0.92512000  0.74391000  0.64305000  1.0
  C  C211  1  0.57485000  0.25612000  0.14305000  1.0
  C  C212  1  0.07491000  0.25609000  0.35695000  1.0
  C  C213  1  0.42510000  0.74391000  0.85695000  1.0
  C  C214  1  0.86925000  0.82444000  0.68436000  1.0
  C  C215  1  0.63070000  0.17557000  0.18435000  1.0
  C  C216  1  0.13077000  0.17555000  0.31565000  1.0
  C  C217  1  0.36925000  0.82445000  0.81564000  1.0
  C  C218  1  0.89873000  0.91757000  0.67970000  1.0
  C  C219  1  0.60123000  0.08244000  0.17969000  1.0
  C  C220  1  0.10130000  0.08243000  0.32031000  1.0
  C  C221  1  0.39873000  0.91757000  0.82029000  1.0
  C  C222  1  0.84892000  0.99288000  0.71725000  1.0
  C  C223  1  0.65103000  0.00712000  0.21724000  1.0
  C  C224  1  0.15110000  0.00713000  0.28275000  1.0
  C  C225  1  0.34893000  0.99288000  0.78273000  1.0
  C  C226  1  0.76871000  0.97681000  0.76009000  1.0
  C  C227  1  0.73124000  0.02318000  0.26008000  1.0
  C  C228  1  0.23131000  0.02320000  0.23991000  1.0
  C  C229  1  0.26872000  0.97682000  0.73990000  1.0
  C  C230  1  0.71820000  0.05537000  0.80500000  1.0
  C  C231  1  0.78176000  0.94463000  0.30499000  1.0
  C  C232  1  0.28181000  0.94464000  0.19499000  1.0
  C  C233  1  0.21822000  0.05538000  0.69499000  1.0
  C  C234  1  0.75197000  0.22535000  0.78212000  1.0
  C  C235  1  0.74802000  0.77464000  0.28211000  1.0
  C  C236  1  0.24803000  0.77466000  0.21788000  1.0
  C  C237  1  0.25196000  0.22537000  0.71788000  1.0
  C  C238  1  0.64688000  0.26347000  0.69948000  1.0
  C  C239  1  0.85312000  0.73656000  0.19946000  1.0
  C  C240  1  0.35312000  0.73656000  0.30053000  1.0
  C  C241  1  0.14687000  0.26344000  0.80053000  1.0
  C  C242  1  0.63324000  0.17153000  0.71893000  1.0
  C  C243  1  0.86673000  0.82849000  0.21890000  1.0
  C  C244  1  0.36675000  0.82849000  0.28108000  1.0
  C  C245  1  0.13325000  0.17151000  0.78108000  1.0
  C  C246  1  0.73755000  0.88460000  0.76337000  1.0
  C  C247  1  0.76239000  0.11540000  0.26337000  1.0
  C  C248  1  0.26247000  0.11541000  0.23663000  1.0
  C  C249  1  0.23755000  0.88461000  0.73663000  1.0
  C  C250  1  0.78774000  0.80907000  0.72611000  1.0
  C  C251  1  0.71221000  0.19093000  0.22610000  1.0
  C  C252  1  0.21229000  0.19093000  0.27390000  1.0
  C  C253  1  0.28773000  0.80909000  0.77390000  1.0
  N  N254  1  0.94190000  0.88625000  0.46451000  1.0
  N  N255  1  0.55811000  0.11376000  0.96450000  1.0
  N  N256  1  0.05811000  0.11374000  0.53549000  1.0
  N  N257  1  0.44190000  0.88626000  0.03549000  1.0
  N  N258  1  0.93098000  0.74185000  0.42254000  1.0
  N  N259  1  0.56902000  0.25817000  0.92252000  1.0
  N  N260  1  0.06902000  0.25814000  0.57748000  1.0
  N  N261  1  0.43099000  0.74185000  0.07747000  1.0
  N  N262  1  0.40540000  0.75072000  0.47260000  1.0
  N  N263  1  0.09460000  0.24926000  0.97259000  1.0
  N  N264  1  0.59460000  0.24926000  0.52741000  1.0
  N  N265  1  0.90539000  0.75072000  0.02742000  1.0
  N  N266  1  0.87898000  0.51317000  0.71032000  1.0
  N  N267  1  0.62104000  0.48682000  0.21033000  1.0
  N  N268  1  0.12105000  0.48682000  0.28969000  1.0
  N  N269  1  0.37895000  0.51319000  0.78968000  1.0
  N  N270  1  0.92938000  0.64985000  0.67547000  1.0
  N  N271  1  0.57061000  0.35017000  0.17546000  1.0
  N  N272  1  0.07065000  0.35015000  0.32454000  1.0
  N  N273  1  0.42936000  0.64985000  0.82453000  1.0
  N  N274  1  0.70000000  0.14864000  0.77136000  1.0
  N  N275  1  0.79997000  0.85137000  0.27134000  1.0
  N  N276  1  0.30000000  0.85137000  0.22864000  1.0
  N  N277  1  0.20001000  0.14864000  0.72864000  1.0
  N  N278  1  0.72101000  0.29612000  0.73937000  1.0
  N  N279  1  0.77900000  0.70388000  0.23936000  1.0
  N  N280  1  0.27899000  0.70390000  0.26064000  1.0
  N  N281  1  0.22100000  0.29612000  0.76064000  1.0
  O  O282  1  0.13812000  0.92943000  0.49131000  1.0
  O  O283  1  0.36189000  0.07056000  0.99130000  1.0
  O  O284  1  0.86189000  0.07056000  0.50869000  1.0
  O  O285  1  0.63812000  0.92944000  0.00868000  1.0
  O  O286  1  0.10520000  0.87295000  0.59407000  1.0
  O  O287  1  0.39480000  0.12705000  0.09405000  1.0
  O  O288  1  0.89479000  0.12704000  0.40592000  1.0
  O  O289  1  0.60521000  0.87294000  0.90593000  1.0
  O  O290  1  0.64730000  0.61089000  0.31831000  1.0
  O  O291  1  0.85271000  0.38911000  0.81831000  1.0
  O  O292  1  0.35270000  0.38912000  0.68170000  1.0
  O  O293  1  0.14730000  0.61089000  0.18170000  1.0
  O  O294  1  0.76071000  0.48180000  0.34024000  1.0
  O  O295  1  0.73929000  0.51820000  0.84024000  1.0
  O  O296  1  0.23929000  0.51821000  0.65976000  1.0
  O  O297  1  0.26073000  0.48181000  0.15977000  1.0
  O  O298  1  0.69202000  0.46621000  0.65955000  1.0
  O  O299  1  0.80801000  0.53378000  0.15955000  1.0
  O  O300  1  0.30801000  0.53379000  0.34046000  1.0
  O  O301  1  0.19200000  0.46621000  0.84047000  1.0
  O  O302  1  0.78951000  0.37398000  0.58555000  1.0
  O  O303  1  0.71049000  0.62600000  0.08555000  1.0
  O  O304  1  0.21048000  0.62599000  0.41446000  1.0
  O  O305  1  0.28952000  0.37399000  0.91447000  1.0
