# generated using pymatgen
data_ZnH9C13N5O2
_symmetry_space_group_name_H-M   'P 1'
_cell_length_a   8.86942000
_cell_length_b   10.28510000
_cell_length_c   14.44100000
_cell_angle_alpha   90.00000000
_cell_angle_beta   96.31380000
_cell_angle_gamma   90.00000000
_symmetry_Int_Tables_number   1
_chemical_formula_structural   ZnH9C13N5O2
_chemical_formula_sum   'Zn4 H36 C52 N20 O8'
_cell_volume   1309.35910147
_cell_formula_units_Z   4
loop_
 _symmetry_equiv_pos_site_id
 _symmetry_equiv_pos_as_xyz
  1  'x, y, z'
loop_
 _atom_site_type_symbol
 _atom_site_label
 _atom_site_symmetry_multiplicity
 _atom_site_fract_x
 _atom_site_fract_y
 _atom_site_fract_z
 _atom_site_occupancy
  Zn  Zn0  1  0.75732000  0.80155000  0.99684000  1.0
  Zn  Zn1  1  0.25732000  0.19845000  0.99684000  1.0
  Zn  Zn2  1  0.80397000  0.79546000  0.50303000  1.0
  Zn  Zn3  1  0.30397000  0.20454000  0.50303000  1.0
  H  H4  1  0.00320000  0.44157000  0.22299000  1.0
  H  H5  1  0.50320000  0.55843000  0.22300000  1.0
  H  H6  1  0.03907000  0.38794000  0.39632000  1.0
  H  H7  1  0.53907000  0.61205000  0.39632000  1.0
  H  H8  1  0.93005000  0.53593000  0.50590000  1.0
  H  H9  1  0.43005000  0.46406000  0.50590000  1.0
  H  H10  1  0.75074000  0.77909000  0.29043000  1.0
  H  H11  1  0.25074000  0.22091000  0.29043000  1.0
  H  H12  1  0.54633000  0.43231000  0.70028000  1.0
  H  H13  1  0.04633000  0.56769000  0.70028000  1.0
  H  H14  1  0.50612000  0.38561000  0.86772000  1.0
  H  H15  1  0.00612000  0.61439000  0.86772000  1.0
  H  H16  1  0.59797000  0.54715000  0.98984000  1.0
  H  H17  1  0.09797000  0.45285000  0.98984000  1.0
  H  H18  1  0.77921000  0.78258000  0.79484000  1.0
  H  H19  1  0.27921000  0.21743000  0.79484000  1.0
  H  H20  1  0.98853000  0.93439000  0.19315000  1.0
  H  H21  1  0.48853000  0.06560000  0.19315000  1.0
  H  H22  1  0.85616000  0.05134000  0.31211000  1.0
  H  H23  1  0.35616000  0.94866000  0.31211000  1.0
  H  H24  1  0.72266000  0.25798000  0.27233000  1.0
  H  H25  1  0.22266000  0.74202000  0.27234000  1.0
  H  H26  1  0.72404000  0.35351000  0.11329000  1.0
  H  H27  1  0.22404000  0.64649000  0.11329000  1.0
  H  H28  1  0.85757000  0.23844000  0.99475000  1.0
  H  H29  1  0.35757000  0.76156000  0.99475000  1.0
  H  H30  1  0.00351000  0.93950000  0.69650000  1.0
  H  H31  1  0.50351000  0.06051000  0.69650000  1.0
  H  H32  1  0.85854000  0.04761000  0.81385000  1.0
  H  H33  1  0.35854000  0.95239000  0.81385000  1.0
  H  H34  1  0.73080000  0.25651000  0.77818000  1.0
  H  H35  1  0.23081000  0.74349000  0.77818000  1.0
  H  H36  1  0.74485000  0.36295000  0.62236000  1.0
  H  H37  1  0.24485000  0.63705000  0.62237000  1.0
  H  H38  1  0.88607000  0.25533000  0.50552000  1.0
  H  H39  1  0.38607000  0.74467000  0.50553000  1.0
  C  C40  1  0.84837000  0.64752000  0.14327000  1.0
  C  C41  1  0.34837000  0.35248000  0.14327000  1.0
  C  C42  1  0.87146000  0.61216000  0.24473000  1.0
  C  C43  1  0.37146000  0.38784000  0.24473000  1.0
  C  C44  1  0.95546000  0.50191000  0.27457000  1.0
  C  C45  1  0.45546000  0.49808000  0.27457000  1.0
  C  C46  1  0.97486000  0.47223000  0.36912000  1.0
  C  C47  1  0.47486000  0.52777000  0.36912000  1.0
  C  C48  1  0.91392000  0.55499000  0.43135000  1.0
  C  C49  1  0.41392000  0.44501000  0.43135000  1.0
  C  C50  1  0.81412000  0.69102000  0.31134000  1.0
  C  C51  1  0.31413000  0.30898000  0.31133000  1.0
  C  C52  1  0.70388000  0.63788000  0.63822000  1.0
  C  C53  1  0.20388000  0.36212000  0.63822000  1.0
  C  C54  1  0.66949000  0.60934000  0.73580000  1.0
  C  C55  1  0.16949000  0.39067000  0.73580000  1.0
  C  C56  1  0.58822000  0.49838000  0.75636000  1.0
  C  C57  1  0.08822000  0.50162000  0.75636000  1.0
  C  C58  1  0.56322000  0.47356000  0.84834000  1.0
  C  C59  1  0.06322000  0.52644000  0.84834000  1.0
  C  C60  1  0.61590000  0.56221000  0.91707000  1.0
  C  C61  1  0.11590000  0.43779000  0.91707000  1.0
  C  C62  1  0.71729000  0.69425000  0.80834000  1.0
  C  C63  1  0.21729000  0.30575000  0.80834000  1.0
  C  C64  1  0.99808000  0.00657000  0.01410000  1.0
  C  C65  1  0.49808000  0.99343000  0.01410000  1.0
  C  C66  1  0.92918000  0.07848000  0.08639000  1.0
  C  C67  1  0.42918000  0.92151000  0.08639000  1.0
  C  C68  1  0.93021000  0.02597000  0.17599000  1.0
  C  C69  1  0.43021000  0.97403000  0.17599000  1.0
  C  C70  1  0.85822000  0.09228000  0.24285000  1.0
  C  C71  1  0.35822000  0.90772000  0.24285000  1.0
  C  C72  1  0.78283000  0.20922000  0.22023000  1.0
  C  C73  1  0.28283000  0.79078000  0.22023000  1.0
  C  C74  1  0.78369000  0.26283000  0.13132000  1.0
  C  C75  1  0.28369000  0.73717000  0.13132000  1.0
  C  C76  1  0.85833000  0.19843000  0.06471000  1.0
  C  C77  1  0.35833000  0.80157000  0.06471000  1.0
  C  C78  1  0.02840000  0.02460000  0.52174000  1.0
  C  C79  1  0.52840000  0.97540000  0.52174000  1.0
  C  C80  1  0.95397000  0.09126000  0.59387000  1.0
  C  C81  1  0.45398000  0.90874000  0.59388000  1.0
  C  C82  1  0.94681000  0.03217000  0.68088000  1.0
  C  C83  1  0.44680000  0.96783000  0.68088000  1.0
  C  C84  1  0.86758000  0.09307000  0.74675000  1.0
  C  C85  1  0.36758000  0.90693000  0.74675000  1.0
  C  C86  1  0.79464000  0.21166000  0.72628000  1.0
  C  C87  1  0.29465000  0.78834000  0.72628000  1.0
  C  C88  1  0.80218000  0.27096000  0.63986000  1.0
  C  C89  1  0.30219000  0.72904000  0.63986000  1.0
  C  C90  1  0.88221000  0.21110000  0.57376000  1.0
  C  C91  1  0.38221000  0.78890000  0.57376000  1.0
  N  N92  1  0.83627000  0.66325000  0.40300000  1.0
  N  N93  1  0.33627000  0.33674000  0.40300000  1.0
  N  N94  1  0.69035000  0.67126000  0.89675000  1.0
  N  N95  1  0.19035000  0.32874000  0.89675000  1.0
  N  N96  1  0.95181000  0.89063000  0.97841000  1.0
  N  N97  1  0.45181000  0.10937000  0.97841000  1.0
  N  N98  1  0.04189000  0.86072000  0.91140000  1.0
  N  N99  1  0.54189000  0.13928000  0.91140000  1.0
  N  N100  1  0.14004000  0.95401000  0.90672000  1.0
  N  N101  1  0.64004000  0.04599000  0.90673000  1.0
  N  N102  1  0.11507000  0.04654000  0.97015000  1.0
  N  N103  1  0.61507000  0.95346000  0.97016000  1.0
  N  N104  1  0.99037000  0.90554000  0.48858000  1.0
  N  N105  1  0.49037000  0.09446000  0.48858000  1.0
  N  N106  1  0.07867000  0.87998000  0.41967000  1.0
  N  N107  1  0.57867000  0.12002000  0.41967000  1.0
  N  N108  1  0.16759000  0.97856000  0.41151000  1.0
  N  N109  1  0.66759000  0.02144000  0.41151000  1.0
  N  N110  1  0.13906000  0.07142000  0.47439000  1.0
  N  N111  1  0.63906000  0.92858000  0.47439000  1.0
  O  O112  1  0.74675000  0.73745000  0.12279000  1.0
  O  O113  1  0.24675000  0.26255000  0.12279000  1.0
  O  O114  1  0.92447000  0.59330000  0.08666000  1.0
  O  O115  1  0.42447000  0.40671000  0.08666000  1.0
  O  O116  1  0.79756000  0.73386000  0.63083000  1.0
  O  O117  1  0.29755000  0.26615000  0.63083000  1.0
  O  O118  1  0.64415000  0.57102000  0.57215000  1.0
  O  O119  1  0.14415000  0.42898000  0.57215000  1.0
