# generated using pymatgen
data_ZnH10C20I2NO5
_symmetry_space_group_name_H-M   'P 1'
_cell_length_a   13.65440000
_cell_length_b   14.71750000
_cell_length_c   16.07690000
_cell_angle_alpha   90.06060000
_cell_angle_beta   91.17270000
_cell_angle_gamma   113.72640000
_symmetry_Int_Tables_number   1
_chemical_formula_structural   ZnH10C20I2NO5
_chemical_formula_sum   'Zn2 H20 C40 I4 N2 O10'
_cell_volume   2956.94465025
_cell_formula_units_Z   2
loop_
 _symmetry_equiv_pos_site_id
 _symmetry_equiv_pos_as_xyz
  1  'x, y, z'
loop_
 _atom_site_type_symbol
 _atom_site_label
 _atom_site_symmetry_multiplicity
 _atom_site_fract_x
 _atom_site_fract_y
 _atom_site_fract_z
 _atom_site_occupancy
  Zn  Zn0  1  0.48300000  0.40058000  0.49231000  1.0
  Zn  Zn1  1  0.51175000  0.59838000  0.49112000  1.0
  H  H2  1  0.52719000  0.35442000  0.91129000  1.0
  H  H3  1  0.50974000  0.64138000  0.91864000  1.0
  H  H4  1  0.52484000  0.64145000  0.07346000  1.0
  H  H5  1  0.61529000  0.96740000  0.39969000  1.0
  H  H6  1  0.60294000  0.13230000  0.40282000  1.0
  H  H7  1  0.36424000  0.02613000  0.59288000  1.0
  H  H8  1  0.37622000  0.86110000  0.58934000  1.0
  H  H9  1  0.05995000  0.77989000  0.46335000  1.0
  H  H10  1  0.87870000  0.34966000  0.53775000  1.0
  H  H11  1  0.95906000  0.23038000  0.56489000  1.0
  H  H12  1  0.79237000  0.76496000  0.40637000  1.0
  H  H13  1  0.92927000  0.85259000  0.41430000  1.0
  H  H14  1  0.88112000  0.93968000  0.53175000  1.0
  H  H15  1  0.80294000  0.93461000  0.44056000  1.0
  H  H16  1  0.74590000  0.85062000  0.52397000  1.0
  H  H17  1  0.66599000  0.42542000  0.15233000  1.0
  H  H18  1  0.70123000  0.35198000  0.07973000  1.0
  H  H19  1  0.57447000  0.19730000  0.15295000  1.0
  H  H20  1  0.68110000  0.27646000  0.21912000  1.0
  H  H21  1  0.55051000  0.27567000  0.22804000  1.0
  C  C22  1  0.52017000  0.49703000  0.33217000  1.0
  C  C23  1  0.01306000  0.45271000  0.47040000  1.0
  C  C24  1  0.12061000  0.47521000  0.44741000  1.0
  C  C25  1  0.96771000  0.52594000  0.46014000  1.0
  C  C26  1  0.04003000  0.62697000  0.44978000  1.0
  C  C27  1  0.14138000  0.64312000  0.41286000  1.0
  C  C28  1  0.17373000  0.56679000  0.40170000  1.0
  C  C29  1  0.85745000  0.50667000  0.46424000  1.0
  C  C30  1  0.89981000  0.68034000  0.48866000  1.0
  C  C31  1  0.17158000  0.41072000  0.47171000  1.0
  C  C32  1  0.52726000  0.41800000  0.94610000  1.0
  C  C33  1  0.29217000  0.44616000  0.47203000  1.0
  C  C34  1  0.51592000  0.49742000  0.90434000  1.0
  C  C35  1  0.51718000  0.57939000  0.95092000  1.0
  C  C36  1  0.52636000  0.57967000  0.03683000  1.0
  C  C37  1  0.53559000  0.49958000  0.07964000  1.0
  C  C38  1  0.53855000  0.41890000  0.03248000  1.0
  C  C39  1  0.50436000  0.49604000  0.81652000  1.0
  C  C40  1  0.53468000  0.49849000  0.16740000  1.0
  C  C41  1  0.52990000  0.49843000  0.24306000  1.0
  C  C42  1  0.49478000  0.49695000  0.74101000  1.0
  C  C43  1  0.55381000  0.07260000  0.44310000  1.0
  C  C44  1  0.48840000  0.49826000  0.65121000  1.0
  C  C45  1  0.48260000  0.08787000  0.49786000  1.0
  C  C46  1  0.41873000  0.01241000  0.55109000  1.0
  C  C47  1  0.42562000  0.92091000  0.54930000  1.0
  C  C48  1  0.49687000  0.90575000  0.49459000  1.0
  C  C49  1  0.56096000  0.98126000  0.44153000  1.0
  C  C50  1  0.47480000  0.18122000  0.49873000  1.0
  C  C51  1  0.50536000  0.81278000  0.49206000  1.0
  C  C52  1  0.70423000  0.55799000  0.49647000  1.0
  C  C53  1  0.00454000  0.70232000  0.46677000  1.0
  C  C54  1  0.82101000  0.58061000  0.48329000  1.0
  C  C55  1  0.10981000  0.32071000  0.50955000  1.0
  C  C56  1  0.00331000  0.29815000  0.53107000  1.0
  C  C57  1  0.95769000  0.36444000  0.51421000  1.0
  C  C58  1  0.85485000  0.81517000  0.44894000  1.0
  C  C59  1  0.81912000  0.88946000  0.48906000  1.0
  C  C60  1  0.63796000  0.35266000  0.12108000  1.0
  C  C61  1  0.60856000  0.27021000  0.18413000  1.0
  I  I62  1  0.22789000  0.78452000  0.36193000  1.0
  I  I63  1  0.74913000  0.36982000  0.40977000  1.0
  I  I64  1  0.16617000  0.21303000  0.54911000  1.0
  I  I65  1  0.27887000  0.56978000  0.30769000  1.0
  N  N66  1  0.51547000  0.73828000  0.48929000  1.0
  N  N67  1  0.46835000  0.25742000  0.49849000  1.0
  O  O68  1  0.52336000  0.42191000  0.36972000  1.0
  O  O69  1  0.50841000  0.57080000  0.36488000  1.0
  O  O70  1  0.33100000  0.38383000  0.45342000  1.0
  O  O71  1  0.34540000  0.53521000  0.49658000  1.0
  O  O72  1  0.45255000  0.41409000  0.61411000  1.0
  O  O73  1  0.52000000  0.58327000  0.61734000  1.0
  O  O74  1  0.64630000  0.47214000  0.52333000  1.0
  O  O75  1  0.67173000  0.62567000  0.47959000  1.0
  O  O76  1  0.87378000  0.75642000  0.51475000  1.0
  O  O77  1  0.54404000  0.33724000  0.06923000  1.0
