# generated using pymatgen
data_ErZnH16C26N2ClO11
_symmetry_space_group_name_H-M   'P 1'
_cell_length_a   9.58439000
_cell_length_b   12.34710000
_cell_length_c   12.62740000
_cell_angle_alpha   73.92630000
_cell_angle_beta   84.27660000
_cell_angle_gamma   71.61160000
_symmetry_Int_Tables_number   1
_chemical_formula_structural   ErZnH16C26N2ClO11
_chemical_formula_sum   'Er2 Zn2 H32 C52 N4 Cl2 O22'
_cell_volume   1362.45789444
_cell_formula_units_Z   2
loop_
 _symmetry_equiv_pos_site_id
 _symmetry_equiv_pos_as_xyz
  1  'x, y, z'
loop_
 _atom_site_type_symbol
 _atom_site_label
 _atom_site_symmetry_multiplicity
 _atom_site_fract_x
 _atom_site_fract_y
 _atom_site_fract_z
 _atom_site_occupancy
  Er  Er0  1  0.79435000  0.47113000  0.03127000  1.0
  Er  Er1  1  0.20564000  0.52888000  0.96874000  1.0
  Zn  Zn2  1  0.66420000  0.65180000  0.31280000  1.0
  Zn  Zn3  1  0.33580000  0.34820000  0.68720000  1.0
  H  H4  1  0.93802000  0.25564000  0.94031000  1.0
  H  H5  1  0.06199000  0.74437000  0.05969000  1.0
  H  H6  1  0.05277000  0.32329000  0.95570000  1.0
  H  H7  1  0.94722000  0.67672000  0.04431000  1.0
  H  H8  1  0.06535000  0.05223000  0.52857000  1.0
  H  H9  1  0.93465000  0.94775000  0.47142000  1.0
  H  H10  1  0.34018000  0.21091000  0.28265000  1.0
  H  H11  1  0.65982000  0.78909000  0.71735000  1.0
  H  H12  1  0.31359000  0.04368000  0.44069000  1.0
  H  H13  1  0.68642000  0.95631000  0.55930000  1.0
  H  H14  1  0.55066000  0.25759000  0.53025000  1.0
  H  H15  1  0.44932000  0.74240000  0.46975000  1.0
  H  H16  1  0.94985000  0.33900000  0.56235000  1.0
  H  H17  1  0.05015000  0.66098000  0.43765000  1.0
  H  H18  1  0.81031000  0.45641000  0.69375000  1.0
  H  H19  1  0.18969000  0.54357000  0.30625000  1.0
  H  H20  1  0.54781000  0.46553000  0.74036000  1.0
  H  H21  1  0.45220000  0.53445000  0.25965000  1.0
  H  H22  1  0.33239000  0.82718000  0.79184000  1.0
  H  H23  1  0.66760000  0.17283000  0.20817000  1.0
  H  H24  1  0.38993000  0.01857000  0.70157000  1.0
  H  H25  1  0.61009000  0.98142000  0.29844000  1.0
  H  H26  1  0.57743000  0.07018000  0.78228000  1.0
  H  H27  1  0.42258000  0.92981000  0.21771000  1.0
  H  H28  1  0.76232000  0.12557000  0.00401000  1.0
  H  H29  1  0.23770000  0.87442000  0.99599000  1.0
  H  H30  1  0.90515000  0.87859000  0.80276000  1.0
  H  H31  1  0.09484000  0.12141000  0.19722000  1.0
  H  H32  1  0.08819000  0.98524000  0.71283000  1.0
  H  H33  1  0.91182000  0.01476000  0.28715000  1.0
  H  H34  1  0.09605000  0.16036000  0.77212000  1.0
  H  H35  1  0.90396000  0.83964000  0.22787000  1.0
  C  C36  1  0.45281000  0.66373000  0.97773000  1.0
  C  C37  1  0.54717000  0.33628000  0.02228000  1.0
  C  C38  1  0.08028000  0.12246000  0.45846000  1.0
  C  C39  1  0.91972000  0.87753000  0.54153000  1.0
  C  C40  1  0.97108000  0.31150000  0.32804000  1.0
  C  C41  1  0.02893000  0.68849000  0.67196000  1.0
  C  C42  1  0.11048000  0.30639000  0.27871000  1.0
  C  C43  1  0.88952000  0.69361000  0.72129000  1.0
  C  C44  1  0.23342000  0.21141000  0.32127000  1.0
  C  C45  1  0.76658000  0.78859000  0.67872000  1.0
  C  C46  1  0.21804000  0.11863000  0.40930000  1.0
  C  C47  1  0.78196000  0.88136000  0.59070000  1.0
  C  C48  1  0.95913000  0.21940000  0.41862000  1.0
  C  C49  1  0.04088000  0.78060000  0.58138000  1.0
  C  C50  1  0.83793000  0.41652000  0.29026000  1.0
  C  C51  1  0.16210000  0.58349000  0.70975000  1.0
  C  C52  1  0.12928000  0.39610000  0.17617000  1.0
  C  C53  1  0.87072000  0.60391000  0.82383000  1.0
  C  C54  1  0.61232000  0.30009000  0.56508000  1.0
  C  C55  1  0.38768000  0.69990000  0.43492000  1.0
  C  C56  1  0.75990000  0.28906000  0.53718000  1.0
  C  C57  1  0.24009000  0.71094000  0.46281000  1.0
  C  C58  1  0.83468000  0.34555000  0.58288000  1.0
  C  C59  1  0.16532000  0.65443000  0.41713000  1.0
  C  C60  1  0.75722000  0.41071000  0.65587000  1.0
  C  C61  1  0.24278000  0.58927000  0.34414000  1.0
  C  C62  1  0.61063000  0.41736000  0.68187000  1.0
  C  C63  1  0.38937000  0.58263000  0.31813000  1.0
  C  C64  1  0.62542000  0.91150000  0.91549000  1.0
  C  C65  1  0.37457000  0.08850000  0.08452000  1.0
  C  C66  1  0.59272000  0.80651000  0.96731000  1.0
  C  C67  1  0.40727000  0.19350000  0.03270000  1.0
  C  C68  1  0.48715000  0.77659000  0.92138000  1.0
  C  C69  1  0.51285000  0.22342000  0.07862000  1.0
  C  C70  1  0.41445000  0.85240000  0.82530000  1.0
  C  C71  1  0.58555000  0.14760000  0.17471000  1.0
  C  C72  1  0.44778000  0.95720000  0.77500000  1.0
  C  C73  1  0.55223000  0.04280000  0.22501000  1.0
  C  C74  1  0.55388000  0.98703000  0.81948000  1.0
  C  C75  1  0.44613000  0.01298000  0.18052000  1.0
  C  C76  1  0.66539000  0.72958000  0.07376000  1.0
  C  C77  1  0.33459000  0.27043000  0.92625000  1.0
  C  C78  1  0.83148000  0.09390000  0.93832000  1.0
  C  C79  1  0.16853000  0.90609000  0.06168000  1.0
  C  C80  1  0.81909000  0.99678000  0.90836000  1.0
  C  C81  1  0.18091000  0.00323000  0.09163000  1.0
  C  C82  1  0.91105000  0.95583000  0.82571000  1.0
  C  C83  1  0.08894000  0.04418000  0.17428000  1.0
  C  C84  1  0.01205000  0.01533000  0.77610000  1.0
  C  C85  1  0.98795000  0.98467000  0.22389000  1.0
  C  C86  1  0.01792000  0.11229000  0.80980000  1.0
  C  C87  1  0.98210000  0.88770000  0.19018000  1.0
  N  N88  1  0.54030000  0.36251000  0.63639000  1.0
  N  N89  1  0.45970000  0.63748000  0.36361000  1.0
  N  N90  1  0.92897000  0.15030000  0.88974000  1.0
  N  N91  1  0.07105000  0.84968000  0.11025000  1.0
  Cl  Cl92  1  0.73519000  0.75308000  0.40565000  1.0
  Cl  Cl93  1  0.26481000  0.24692000  0.59434000  1.0
  O  O94  1  0.81949000  0.49788000  0.33846000  1.0
  O  O95  1  0.18053000  0.50213000  0.66153000  1.0
  O  O96  1  0.75572000  0.41686000  0.21783000  1.0
  O  O97  1  0.24429000  0.58317000  0.78216000  1.0
  O  O98  1  0.02466000  0.44450000  0.10620000  1.0
  O  O99  1  0.97533000  0.55552000  0.89381000  1.0
  O  O100  1  0.25012000  0.42032000  0.15524000  1.0
  O  O101  1  0.74987000  0.57968000  0.84478000  1.0
  O  O102  1  0.82045000  0.21985000  0.46562000  1.0
  O  O103  1  0.17955000  0.78017000  0.53436000  1.0
  O  O104  1  0.60105000  0.75162000  0.16120000  1.0
  O  O105  1  0.39892000  0.24838000  0.83880000  1.0
  O  O106  1  0.78685000  0.64869000  0.07102000  1.0
  O  O107  1  0.21314000  0.35132000  0.92899000  1.0
  O  O108  1  0.54981000  0.58083000  0.03869000  1.0
  O  O109  1  0.45019000  0.41918000  0.96132000  1.0
  O  O110  1  0.72329000  0.93952000  0.96950000  1.0
  O  O111  1  0.27672000  0.06048000  0.03051000  1.0
  O  O112  1  0.95205000  0.31769000  0.97469000  1.0
  O  O113  1  0.04794000  0.68232000  0.02532000  1.0
  O  O114  1  0.32531000  0.66004000  0.96315000  1.0
  O  O115  1  0.67469000  0.33997000  0.03686000  1.0
