# generated using pymatgen
data_CuH30C24(NO)4
_symmetry_space_group_name_H-M   'P 1'
_cell_length_a   5.35609000
_cell_length_b   9.41101000
_cell_length_c   10.59520000
_cell_angle_alpha   94.96380000
_cell_angle_beta   92.94970000
_cell_angle_gamma   90.27920000
_symmetry_Int_Tables_number   1
_chemical_formula_structural   CuH30C24(NO)4
_chemical_formula_sum   'Cu1 H30 C24 N4 O4'
_cell_volume   531.33270226
_cell_formula_units_Z   1
loop_
 _symmetry_equiv_pos_site_id
 _symmetry_equiv_pos_as_xyz
  1  'x, y, z'
loop_
 _atom_site_type_symbol
 _atom_site_label
 _atom_site_symmetry_multiplicity
 _atom_site_fract_x
 _atom_site_fract_y
 _atom_site_fract_z
 _atom_site_occupancy
  Cu  Cu0  1  0.50000000  0.00001000  0.50000000  1.0
  H  H1  1  0.91942000  0.69528000  0.07378000  1.0
  H  H2  1  0.08057000  0.30472000  0.92622000  1.0
  H  H3  1  0.61362000  0.61716000  0.05887000  1.0
  H  H4  1  0.38638000  0.38284000  0.94113000  1.0
  H  H5  1  0.75188000  0.86162000  0.92425000  1.0
  H  H6  1  0.24811000  0.13838000  0.07575000  1.0
  H  H7  1  0.25837000  0.47990000  0.40947000  1.0
  H  H8  1  0.74164000  0.52011000  0.59055000  1.0
  H  H9  1  0.72312000  0.78013000  0.27253000  1.0
  H  H10  1  0.27690000  0.21987000  0.72748000  1.0
  H  H11  1  0.88030000  0.38868000  0.28956000  1.0
  H  H12  1  0.11971000  0.61132000  0.71045000  1.0
  H  H13  1  0.63072000  0.50724000  0.25569000  1.0
  H  H14  1  0.36929000  0.49277000  0.74432000  1.0
  H  H15  1  0.99566000  0.97466000  0.37097000  1.0
  H  H16  1  0.00434000  0.02534000  0.62903000  1.0
  H  H17  1  0.31368000  0.76847000  0.90535000  1.0
  H  H18  1  0.68631000  0.23153000  0.09464000  1.0
  H  H19  1  0.20170000  0.94055000  0.88054000  1.0
  H  H20  1  0.79830000  0.05945000  0.11945000  1.0
  H  H21  1  0.84562000  0.11450000  0.89558000  1.0
  H  H22  1  0.15437000  0.88550000  0.10441000  1.0
  H  H23  1  0.52354000  0.15014000  0.87734000  1.0
  H  H24  1  0.47645000  0.84985000  0.12266000  1.0
  H  H25  1  0.20601000  0.35392000  0.15220000  1.0
  H  H26  1  0.79399000  0.64607000  0.84780000  1.0
  H  H27  1  0.27959000  0.53495000  0.12877000  1.0
  H  H28  1  0.72041000  0.46504000  0.87124000  1.0
  H  H29  1  0.50184000  0.69266000  0.51751000  1.0
  H  H30  1  0.49817000  0.30736000  0.48250000  1.0
  C  C31  1  0.81211000  0.59565000  0.04406000  1.0
  C  C32  1  0.18789000  0.40435000  0.95595000  1.0
  C  C33  1  0.60357000  0.92711000  0.88364000  1.0
  C  C34  1  0.39643000  0.07288000  0.11635000  1.0
  C  C35  1  0.19390000  0.58846000  0.40020000  1.0
  C  C36  1  0.80611000  0.41158000  0.59982000  1.0
  C  C37  1  0.89683000  0.75310000  0.32244000  1.0
  C  C38  1  0.10314000  0.24690000  0.67755000  1.0
  C  C39  1  0.83345000  0.49076000  0.25117000  1.0
  C  C40  1  0.16655000  0.50925000  0.74883000  1.0
  C  C41  1  0.04625000  0.86380000  0.37985000  1.0
  C  C42  1  0.95376000  0.13624000  0.62015000  1.0
  C  C43  1  0.35003000  0.88297000  0.93032000  1.0
  C  C44  1  0.64997000  0.11703000  0.06967000  1.0
  C  C45  1  0.66083000  0.08456000  0.92641000  1.0
  C  C46  1  0.33916000  0.91543000  0.07358000  1.0
  C  C47  1  0.15354000  0.44344000  0.09648000  1.0
  C  C48  1  0.84646000  0.55656000  0.90353000  1.0
  C  C49  1  0.60712000  0.90094000  0.73937000  1.0
  C  C50  1  0.39288000  0.09906000  0.26063000  1.0
  C  C51  1  0.33053000  0.70406000  0.45898000  1.0
  C  C52  1  0.66944000  0.29595000  0.54101000  1.0
  C  C53  1  0.97311000  0.61161000  0.32824000  1.0
  C  C54  1  0.02692000  0.38839000  0.67177000  1.0
  N  N55  1  0.26069000  0.83961000  0.44610000  1.0
  N  N56  1  0.73932000  0.16040000  0.55390000  1.0
  N  N57  1  0.89228000  0.47770000  0.11681000  1.0
  N  N58  1  0.10772000  0.52230000  0.88319000  1.0
  O  O59  1  0.74846000  0.81128000  0.68608000  1.0
  O  O60  1  0.25154000  0.18871000  0.31391000  1.0
  O  O61  1  0.45437000  0.98240000  0.68004000  1.0
  O  O62  1  0.54564000  0.01760000  0.31995000  1.0
