# generated using pymatgen
data_CdH9C14NO7
_symmetry_space_group_name_H-M   'P 1'
_cell_length_a   7.47749000
_cell_length_b   10.22500000
_cell_length_c   10.78290000
_cell_angle_alpha   118.27700000
_cell_angle_beta   91.72000000
_cell_angle_gamma   107.47100000
_symmetry_Int_Tables_number   1
_chemical_formula_structural   CdH9C14NO7
_chemical_formula_sum   'Cd2 H18 C28 N2 O14'
_cell_volume   677.84276800
_cell_formula_units_Z   2
loop_
 _symmetry_equiv_pos_site_id
 _symmetry_equiv_pos_as_xyz
  1  'x, y, z'
loop_
 _atom_site_type_symbol
 _atom_site_label
 _atom_site_symmetry_multiplicity
 _atom_site_fract_x
 _atom_site_fract_y
 _atom_site_fract_z
 _atom_site_occupancy
  Cd  Cd0  1  0.85359000  0.14036000  0.04599000  1.0
  Cd  Cd1  1  0.14641000  0.85964000  0.95401000  1.0
  H  H2  1  0.84620000  0.63156000  0.04615000  1.0
  H  H3  1  0.15380000  0.36844000  0.95385000  1.0
  H  H4  1  0.44410000  0.43415000  0.24497000  1.0
  H  H5  1  0.55590000  0.56584000  0.75503000  1.0
  H  H6  1  0.47511000  0.87579000  0.27197000  1.0
  H  H7  1  0.52490000  0.12421000  0.72804000  1.0
  H  H8  1  0.47219000  0.64555000  0.49804000  1.0
  H  H9  1  0.52781000  0.35444000  0.50196000  1.0
  H  H10  1  0.23760000  0.66797000  0.66215000  1.0
  H  H11  1  0.76240000  0.33204000  0.33785000  1.0
  H  H12  1  0.90043000  0.74810000  0.39180000  1.0
  H  H13  1  0.09957000  0.25190000  0.60819000  1.0
  H  H14  1  0.13855000  0.70438000  0.22586000  1.0
  H  H15  1  0.86146000  0.29562000  0.77414000  1.0
  H  H16  1  0.70428000  0.89980000  0.74354000  1.0
  H  H17  1  0.29572000  0.10020000  0.25646000  1.0
  H  H18  1  0.54629000  0.97723000  0.81583000  1.0
  H  H19  1  0.45371000  0.02277000  0.18418000  1.0
  C  C20  1  0.72533000  0.38571000  0.09945000  1.0
  C  C21  1  0.27468000  0.61429000  0.90055000  1.0
  C  C22  1  0.65481000  0.52147000  0.14304000  1.0
  C  C23  1  0.34518000  0.47852000  0.85696000  1.0
  C  C24  1  0.73397000  0.63991000  0.10877000  1.0
  C  C25  1  0.26604000  0.36009000  0.89124000  1.0
  C  C26  1  0.66869000  0.76733000  0.15442000  1.0
  C  C27  1  0.33131000  0.23267000  0.84559000  1.0
  C  C28  1  0.74545000  0.89412000  0.11662000  1.0
  C  C29  1  0.25456000  0.10589000  0.88338000  1.0
  C  C30  1  0.50995000  0.52944000  0.22277000  1.0
  C  C31  1  0.49005000  0.47055000  0.77723000  1.0
  C  C32  1  0.44948000  0.65809000  0.26890000  1.0
  C  C33  1  0.55052000  0.34191000  0.73110000  1.0
  C  C34  1  0.52581000  0.77679000  0.23581000  1.0
  C  C35  1  0.47419000  0.22320000  0.76419000  1.0
  C  C36  1  0.33830000  0.66030000  0.47674000  1.0
  C  C37  1  0.66170000  0.33970000  0.52327000  1.0
  C  C38  1  0.20910000  0.67586000  0.56663000  1.0
  C  C39  1  0.79090000  0.32414000  0.43337000  1.0
  C  C40  1  0.04881000  0.70789000  0.53718000  1.0
  C  C41  1  0.95119000  0.29211000  0.46282000  1.0
  C  C42  1  0.02367000  0.72247000  0.41589000  1.0
  C  C43  1  0.97633000  0.27753000  0.58410000  1.0
  C  C44  1  0.15305000  0.70169000  0.32550000  1.0
  C  C45  1  0.84694000  0.29830000  0.67450000  1.0
  C  C46  1  0.90427000  0.72615000  0.63510000  1.0
  C  C47  1  0.09573000  0.27386000  0.36490000  1.0
  N  N48  1  0.30843000  0.67251000  0.35825000  1.0
  N  N49  1  0.69157000  0.32748000  0.64175000  1.0
  O  O50  1  0.64290000  0.28309000  0.13495000  1.0
  O  O51  1  0.35710000  0.71691000  0.86505000  1.0
  O  O52  1  0.86341000  0.37981000  0.03384000  1.0
  O  O53  1  0.13659000  0.62018000  0.96616000  1.0
  O  O54  1  0.87435000  0.88986000  0.04232000  1.0
  O  O55  1  0.12565000  0.11015000  0.95768000  1.0
  O  O56  1  0.67734000  0.00537000  0.16001000  1.0
  O  O57  1  0.32266000  0.99463000  0.83999000  1.0
  O  O58  1  0.77043000  0.76503000  0.60540000  1.0
  O  O59  1  0.22957000  0.23498000  0.39459000  1.0
  O  O60  1  0.92707000  0.69751000  0.73568000  1.0
  O  O61  1  0.07292000  0.30250000  0.26432000  1.0
  O  O62  1  0.68437000  0.99951000  0.81391000  1.0
  O  O63  1  0.31563000  0.00049000  0.18609000  1.0
