# generated using pymatgen
data_Cd2H9C12N3O7
_symmetry_space_group_name_H-M   'P 1'
_cell_length_a   6.98208000
_cell_length_b   13.00940000
_cell_length_c   16.19000000
_cell_angle_alpha   102.77200000
_cell_angle_beta   90.00000000
_cell_angle_gamma   90.00000000
_symmetry_Int_Tables_number   1
_chemical_formula_structural   Cd2H9C12N3O7
_chemical_formula_sum   'Cd8 H36 C48 N12 O28'
_cell_volume   1434.19511333
_cell_formula_units_Z   4
loop_
 _symmetry_equiv_pos_site_id
 _symmetry_equiv_pos_as_xyz
  1  'x, y, z'
loop_
 _atom_site_type_symbol
 _atom_site_label
 _atom_site_symmetry_multiplicity
 _atom_site_fract_x
 _atom_site_fract_y
 _atom_site_fract_z
 _atom_site_occupancy
  Cd  Cd0  1  0.63628000  0.21080000  0.13836000  1.0
  Cd  Cd1  1  0.13627000  0.28920000  0.36164000  1.0
  Cd  Cd2  1  0.36373000  0.78919000  0.86165000  1.0
  Cd  Cd3  1  0.86372000  0.71080000  0.63836000  1.0
  Cd  Cd4  1  0.56451000  0.68954000  0.11639000  1.0
  Cd  Cd5  1  0.06451000  0.81046000  0.38361000  1.0
  Cd  Cd6  1  0.43550000  0.31047000  0.88362000  1.0
  Cd  Cd7  1  0.93548000  0.18953000  0.61638000  1.0
  H  H8  1  0.95032000  0.82069000  0.13785000  1.0
  H  H9  1  0.45034000  0.67934000  0.36216000  1.0
  H  H10  1  0.04968000  0.17934000  0.86216000  1.0
  H  H11  1  0.54967000  0.32068000  0.63785000  1.0
  H  H12  1  0.20462000  0.75728000  0.03156000  1.0
  H  H13  1  0.70462000  0.74274000  0.46845000  1.0
  H  H14  1  0.79540000  0.24274000  0.96845000  1.0
  H  H15  1  0.29538000  0.25726000  0.53156000  1.0
  H  H16  1  0.68501000  0.97270000  0.95479000  1.0
  H  H17  1  0.18504000  0.52729000  0.54520000  1.0
  H  H18  1  0.31497000  0.02729000  0.04520000  1.0
  H  H19  1  0.81500000  0.47269000  0.45480000  1.0
  H  H20  1  0.95631000  0.90655000  0.85688000  1.0
  H  H21  1  0.45632000  0.59343000  0.64312000  1.0
  H  H22  1  0.04368000  0.09344000  0.14312000  1.0
  H  H23  1  0.54371000  0.40653000  0.35688000  1.0
  H  H24  1  0.26755000  0.33826000  0.18156000  1.0
  H  H25  1  0.76756000  0.16176000  0.31845000  1.0
  H  H26  1  0.73243000  0.66175000  0.81845000  1.0
  H  H27  1  0.23244000  0.83824000  0.68155000  1.0
  H  H28  1  0.15391000  0.44681000  0.14933000  1.0
  H  H29  1  0.65390000  0.05320000  0.35066000  1.0
  H  H30  1  0.84609000  0.55319000  0.85067000  1.0
  H  H31  1  0.34609000  0.94680000  0.64933000  1.0
  H  H32  1  0.39560000  0.45725000  0.18617000  1.0
  H  H33  1  0.89559000  0.04275000  0.31383000  1.0
  H  H34  1  0.60439000  0.54275000  0.81384000  1.0
  H  H35  1  0.10440000  0.95724000  0.68616000  1.0
  H  H36  1  0.26207000  0.54926000  0.05658000  1.0
  H  H37  1  0.76205000  0.95073000  0.44341000  1.0
  H  H38  1  0.73794000  0.45074000  0.94343000  1.0
  H  H39  1  0.23791000  0.04925000  0.55658000  1.0
  H  H40  1  0.14213000  0.63164000  0.12734000  1.0
  H  H41  1  0.64213000  0.86836000  0.37265000  1.0
  H  H42  1  0.85788000  0.36838000  0.87266000  1.0
  H  H43  1  0.35786000  0.13162000  0.62733000  1.0
  C  C44  1  0.31593000  0.88066000  0.27412000  1.0
  C  C45  1  0.81599000  0.61935000  0.22587000  1.0
  C  C46  1  0.68406000  0.11934000  0.72587000  1.0
  C  C47  1  0.18404000  0.38065000  0.77413000  1.0
  C  C48  1  0.42681000  0.92573000  0.21186000  1.0
  C  C49  1  0.92682000  0.57427000  0.28814000  1.0
  C  C50  1  0.57318000  0.07427000  0.78813000  1.0
  C  C51  1  0.07319000  0.42572000  0.71186000  1.0
  C  C52  1  0.43941000  0.02968000  0.20308000  1.0
  C  C53  1  0.93944000  0.47033000  0.29693000  1.0
  C  C54  1  0.56057000  0.97032000  0.79691000  1.0
  C  C55  1  0.06058000  0.52967000  0.70308000  1.0
  C  C56  1  0.34771000  0.12526000  0.25214000  1.0
  C  C57  1  0.84771000  0.37475000  0.24786000  1.0
  C  C58  1  0.65229000  0.87475000  0.74786000  1.0
  C  C59  1  0.15230000  0.62525000  0.75215000  1.0
  C  C60  1  0.64128000  0.93550000  0.11595000  1.0
  C  C61  1  0.14130000  0.56450000  0.38405000  1.0
  C  C62  1  0.35870000  0.06450000  0.88405000  1.0
  C  C63  1  0.85871000  0.43550000  0.61596000  1.0
  C  C64  1  0.79487000  0.90149000  0.05447000  1.0
  C  C65  1  0.29488000  0.59852000  0.44552000  1.0
  C  C66  1  0.20513000  0.09851000  0.94552000  1.0
  C  C67  1  0.70513000  0.40149000  0.55448000  1.0
  C  C68  1  0.94371000  0.84014000  0.07592000  1.0
  C  C69  1  0.44371000  0.65988000  0.42410000  1.0
  C  C70  1  0.05630000  0.15988000  0.92408000  1.0
  C  C71  1  0.55628000  0.34014000  0.57591000  1.0
  C  C72  1  0.08841000  0.80646000  0.01747000  1.0
  C  C73  1  0.58840000  0.69356000  0.48254000  1.0
  C  C74  1  0.91159000  0.19355000  0.98254000  1.0
  C  C75  1  0.41159000  0.30645000  0.51747000  1.0
  C  C76  1  0.79870000  0.92647000  0.97464000  1.0
  C  C77  1  0.29869000  0.57353000  0.52537000  1.0
  C  C78  1  0.20130000  0.07353000  0.02536000  1.0
  C  C79  1  0.70130000  0.42646000  0.47464000  1.0
  C  C80  1  0.94832000  0.88933000  0.91972000  1.0
  C  C81  1  0.44832000  0.61065000  0.58028000  1.0
  C  C82  1  0.05167000  0.11066000  0.08027000  1.0
  C  C83  1  0.55170000  0.38934000  0.41973000  1.0
  C  C84  1  0.36105000  0.36417000  0.06156000  1.0
  C  C85  1  0.86104000  0.13582000  0.43844000  1.0
  C  C86  1  0.63895000  0.63583000  0.93845000  1.0
  C  C87  1  0.13895000  0.86418000  0.56156000  1.0
  C  C88  1  0.28810000  0.40364000  0.15007000  1.0
  C  C89  1  0.78809000  0.09637000  0.34992000  1.0
  C  C90  1  0.71190000  0.59636000  0.84993000  1.0
  C  C91  1  0.21191000  0.90363000  0.65007000  1.0
  N  N92  1  0.55544000  0.86694000  0.15728000  1.0
  N  N93  1  0.05546000  0.63307000  0.34272000  1.0
  N  N94  1  0.44455000  0.13306000  0.84271000  1.0
  N  N95  1  0.94455000  0.36693000  0.65728000  1.0
  N  N96  1  0.57570000  0.03457000  0.14227000  1.0
  N  N97  1  0.07571000  0.46544000  0.35773000  1.0
  N  N98  1  0.42429000  0.96543000  0.85772000  1.0
  N  N99  1  0.92428000  0.53456000  0.64228000  1.0
  N  N100  1  0.09143000  0.83064000  0.94093000  1.0
  N  N101  1  0.59143000  0.66936000  0.55908000  1.0
  N  N102  1  0.90856000  0.16936000  0.05907000  1.0
  N  N103  1  0.40857000  0.33064000  0.44093000  1.0
  O  O104  1  0.41029000  0.84515000  0.32891000  1.0
  O  O105  1  0.91029000  0.65485000  0.17108000  1.0
  O  O106  1  0.58971000  0.15484000  0.67107000  1.0
  O  O107  1  0.08973000  0.34516000  0.82892000  1.0
  O  O108  1  0.13348000  0.87914000  0.26959000  1.0
  O  O109  1  0.63348000  0.62088000  0.23041000  1.0
  O  O110  1  0.86653000  0.12087000  0.73042000  1.0
  O  O111  1  0.36653000  0.37911000  0.76958000  1.0
  O  O112  1  0.22229000  0.11674000  0.30699000  1.0
  O  O113  1  0.72233000  0.38327000  0.19301000  1.0
  O  O114  1  0.77770000  0.88326000  0.69301000  1.0
  O  O115  1  0.27768000  0.61673000  0.80699000  1.0
  O  O116  1  0.39828000  0.21525000  0.23835000  1.0
  O  O117  1  0.89828000  0.28476000  0.26165000  1.0
  O  O118  1  0.60173000  0.78475000  0.76166000  1.0
  O  O119  1  0.10172000  0.71525000  0.73835000  1.0
  O  O120  1  0.31873000  0.41660000  0.00550000  1.0
  O  O121  1  0.81872000  0.08339000  0.49449000  1.0
  O  O122  1  0.68129000  0.58340000  0.99450000  1.0
  O  O123  1  0.18126000  0.91660000  0.50550000  1.0
  O  O124  1  0.46142000  0.28008000  0.04118000  1.0
  O  O125  1  0.96142000  0.21991000  0.45883000  1.0
  O  O126  1  0.53858000  0.71991000  0.95883000  1.0
  O  O127  1  0.03857000  0.78008000  0.54118000  1.0
  O  O128  1  0.25931000  0.62269000  0.09126000  1.0
  O  O129  1  0.75930000  0.87731000  0.40874000  1.0
  O  O130  1  0.74070000  0.37732000  0.90875000  1.0
  O  O131  1  0.24069000  0.12268000  0.59125000  1.0
