# generated using pymatgen
data_AlH3C12(SO3)3
_symmetry_space_group_name_H-M   'P 1'
_cell_length_a   3.96884000
_cell_length_b   20.15960000
_cell_length_c   20.15960000
_cell_angle_alpha   60.00000000
_cell_angle_beta   89.99980000
_cell_angle_gamma   89.99990000
_symmetry_Int_Tables_number   1
_chemical_formula_structural   AlH3C12(SO3)3
_chemical_formula_sum   'Al2 H6 C24 S6 O18'
_cell_volume   1396.87660642
_cell_formula_units_Z   2
loop_
 _symmetry_equiv_pos_site_id
 _symmetry_equiv_pos_as_xyz
  1  'x, y, z'
loop_
 _atom_site_type_symbol
 _atom_site_label
 _atom_site_symmetry_multiplicity
 _atom_site_fract_x
 _atom_site_fract_y
 _atom_site_fract_z
 _atom_site_occupancy
  Al  Al0  1  0.00369000  0.00000000  0.50000000  1.0
  Al  Al1  1  0.00368000  0.66666000  0.16667000  1.0
  H  H2  1  0.49610000  0.27026000  0.21601000  1.0
  H  H3  1  0.49610000  0.39640000  0.45067000  1.0
  H  H4  1  0.49610000  0.71601000  0.51373000  1.0
  H  H5  1  0.49610000  0.95067000  0.15293000  1.0
  H  H6  1  0.49610000  0.01373000  0.77026000  1.0
  H  H7  1  0.49610000  0.65293000  0.89640000  1.0
  C  C8  1  0.50267000  0.94360000  0.61743000  1.0
  C  C9  1  0.50267000  0.11742000  0.43897000  1.0
  C  C10  1  0.50267000  0.93896000  0.44361000  1.0
  C  C11  1  0.50267000  0.54924000  0.22771000  1.0
  C  C12  1  0.50267000  0.72771000  0.22305000  1.0
  C  C13  1  0.50267000  0.72305000  0.04924000  1.0
  C  C14  1  0.48866000  0.25153000  0.31904000  1.0
  C  C15  1  0.48872000  0.41513000  0.34764000  1.0
  C  C16  1  0.49722000  0.20202000  0.39745000  1.0
  C  C17  1  0.49723000  0.46464000  0.26923000  1.0
  C  C18  1  0.50706000  0.33736000  0.36584000  1.0
  C  C19  1  0.50701000  0.32931000  0.30083000  1.0
  C  C20  1  0.48867000  0.81904000  0.42943000  1.0
  C  C21  1  0.48872000  0.84764000  0.23723000  1.0
  C  C22  1  0.49723000  0.89745000  0.40053000  1.0
  C  C23  1  0.49723000  0.76922000  0.26613000  1.0
  C  C24  1  0.50705000  0.86584000  0.29680000  1.0
  C  C25  1  0.50702000  0.80083000  0.36986000  1.0
  C  C26  1  0.48866000  0.92943000  0.75153000  1.0
  C  C27  1  0.48872000  0.73723000  0.91513000  1.0
  C  C28  1  0.49722000  0.90053000  0.70202000  1.0
  C  C29  1  0.49723000  0.76612000  0.96465000  1.0
  C  C30  1  0.50705000  0.79680000  0.83736000  1.0
  C  C31  1  0.50702000  0.86986000  0.82931000  1.0
  S  S32  1  0.52089000  0.24993000  0.44911000  1.0
  S  S33  1  0.52080000  0.41673000  0.21757000  1.0
  S  S34  1  0.52089000  0.94912000  0.30096000  1.0
  S  S35  1  0.52081000  0.71756000  0.36570000  1.0
  S  S36  1  0.52088000  0.80096000  0.74993000  1.0
  S  S37  1  0.52081000  0.86569000  0.91674000  1.0
  O  O38  1  0.73874000  0.98773000  0.42742000  1.0
  O  O39  1  0.73874000  0.92742000  0.58485000  1.0
  O  O40  1  0.73873000  0.08485000  0.48773000  1.0
  O  O41  1  0.27044000  0.92425000  0.49273000  1.0
  O  O42  1  0.27043000  0.08301000  0.42426000  1.0
  O  O43  1  0.27044000  0.99272000  0.58302000  1.0
  O  O44  1  0.73872000  0.73923000  0.08182000  1.0
  O  O45  1  0.73872000  0.58181000  0.17895000  1.0
  O  O46  1  0.73872000  0.67894000  0.23924000  1.0
  O  O47  1  0.27043000  0.67394000  0.08365000  1.0
  O  O48  1  0.27043000  0.74241000  0.17394000  1.0
  O  O49  1  0.27043000  0.58365000  0.24242000  1.0
  O  O50  1  0.47703000  0.22644000  0.26749000  1.0
  O  O51  1  0.47715000  0.44022000  0.39919000  1.0
  O  O52  1  0.47704000  0.76748000  0.50607000  1.0
  O  O53  1  0.47714000  0.89920000  0.16059000  1.0
  O  O54  1  0.47703000  0.00606000  0.72645000  1.0
  O  O55  1  0.47714000  0.66059000  0.94021000  1.0
