# generated using pymatgen
data_Zn3H24C26N12(ClO3)2
_symmetry_space_group_name_H-M   'P 1'
_cell_length_a   6.82793000
_cell_length_b   11.22400000
_cell_length_c   22.33201425
_cell_angle_alpha   87.46088585
_cell_angle_beta   81.62525780
_cell_angle_gamma   72.29180000
_symmetry_Int_Tables_number   1
_chemical_formula_structural   Zn3H24C26N12(ClO3)2
_chemical_formula_sum   'Zn6 H48 C52 N24 Cl4 O12'
_cell_volume   1612.97438397
_cell_formula_units_Z   2
loop_
 _symmetry_equiv_pos_site_id
 _symmetry_equiv_pos_as_xyz
  1  'x, y, z'
loop_
 _atom_site_type_symbol
 _atom_site_label
 _atom_site_symmetry_multiplicity
 _atom_site_fract_x
 _atom_site_fract_y
 _atom_site_fract_z
 _atom_site_occupancy
  Zn  Zn0  1  0.60820000  0.50022000  0.50038000  1.0
  Zn  Zn1  1  0.85834000  0.99986000  0.00033000  1.0
  Zn  Zn2  1  0.85515000  0.88465000  0.41511000  1.0
  Zn  Zn3  1  0.15352000  0.11736000  0.58505000  1.0
  Zn  Zn4  1  0.02076000  0.38272000  0.08499000  1.0
  Zn  Zn5  1  0.48989000  0.61531000  0.91509000  1.0
  H  H6  1  0.65069000  0.76179000  0.49889000  1.0
  H  H7  1  0.90986000  0.23858000  0.50065000  1.0
  H  H8  1  0.89825000  0.26141000  0.00068000  1.0
  H  H9  1  0.16264000  0.73841000  0.99895000  1.0
  H  H10  1  0.52264000  0.90544000  0.48705000  1.0
  H  H11  1  0.91432000  0.09475000  0.51259000  1.0
  H  H12  1  0.75901000  0.40527000  0.01253000  1.0
  H  H13  1  0.17801000  0.59482000  0.98708000  1.0
  H  H14  1  0.59031000  0.74063000  0.36382000  1.0
  H  H15  1  0.69355000  0.26100000  0.63568000  1.0
  H  H16  1  0.70452000  0.23891000  0.13570000  1.0
  H  H17  1  0.08092000  0.75910000  0.86396000  1.0
  H  H18  1  0.50858000  0.70252000  0.26215000  1.0
  H  H19  1  0.47376000  0.29678000  0.73686000  1.0
  H  H20  1  0.52143000  0.20279000  0.23699000  1.0
  H  H21  1  0.96077000  0.79769000  0.76235000  1.0
  H  H22  1  0.65226000  0.80688000  0.17056000  1.0
  H  H23  1  0.63271000  0.19198000  0.82869000  1.0
  H  H24  1  0.57519000  0.30800000  0.32873000  1.0
  H  H25  1  0.20886000  0.69400000  0.67065000  1.0
  H  H26  1  0.87908000  0.93382000  0.18411000  1.0
  H  H27  1  0.99990000  0.06612000  0.81571000  1.0
  H  H28  1  0.81573000  0.43441000  0.31561000  1.0
  H  H29  1  0.56260000  0.56675000  0.68404000  1.0
  H  H30  1  0.06915000  0.03588000  0.20183000  1.0
  H  H31  1  0.30900000  0.96277000  0.79819000  1.0
  H  H32  1  0.02208000  0.53721000  0.29810000  1.0
  H  H33  1  0.85446000  0.46363000  0.70181000  1.0
  H  H34  1  0.29514000  0.14849000  0.22789000  1.0
  H  H35  1  0.67193000  0.84936000  0.77243000  1.0
  H  H36  1  0.27229000  0.65013000  0.27237000  1.0
  H  H37  1  0.19321000  0.35118000  0.72782000  1.0
  H  H38  1  0.37113000  0.14290000  0.33774000  1.0
  H  H39  1  0.84951000  0.85654000  0.66295000  1.0
  H  H40  1  0.45744000  0.64262000  0.16290000  1.0
  H  H41  1  0.26395000  0.35721000  0.83760000  1.0
  H  H42  1  0.19021000  0.02690000  0.41392000  1.0
  H  H43  1  0.62759000  0.97515000  0.58677000  1.0
  H  H44  1  0.35348000  0.52436000  0.08674000  1.0
  H  H45  1  0.96720000  0.47322000  0.91381000  1.0
  H  H46  1  0.26302000  0.70321000  0.55957000  1.0
  H  H47  1  0.52361000  0.29765000  0.44091000  1.0
  H  H48  1  0.57080000  0.20254000  0.94082000  1.0
  H  H49  1  0.71643000  0.79686000  0.05946000  1.0
  H  H50  1  0.00370000  0.71010000  0.55241000  1.0
  H  H51  1  0.26478000  0.29013000  0.44753000  1.0
  H  H52  1  0.30452000  0.20996000  0.94741000  1.0
  H  H53  1  0.46401000  0.79001000  0.05223000  1.0
  C  C54  1  0.65168000  0.78133000  0.32285000  1.0
  C  C55  1  0.75560000  0.21979000  0.67669000  1.0
  C  C56  1  0.72545000  0.28017000  0.17668000  1.0
  C  C57  1  0.18292000  0.71857000  0.82297000  1.0
  C  C58  1  0.60538000  0.76178000  0.26606000  1.0
  C  C59  1  0.63394000  0.23818000  0.73325000  1.0
  C  C60  1  0.62262000  0.26165000  0.23329000  1.0
  C  C61  1  0.11690000  0.73843000  0.76620000  1.0
  C  C62  1  0.68607000  0.81852000  0.21576000  1.0
  C  C63  1  0.72237000  0.18118000  0.78365000  1.0
  C  C64  1  0.65373000  0.31894000  0.28366000  1.0
  C  C65  1  0.25437000  0.68205000  0.71585000  1.0
  C  C66  1  0.81416000  0.89063000  0.22349000  1.0
  C  C67  1  0.93027000  0.10965000  0.77623000  1.0
  C  C68  1  0.78961000  0.39080000  0.27616000  1.0
  C  C69  1  0.45455000  0.60974000  0.72349000  1.0
  C  C70  1  0.85857000  0.90359000  0.28169000  1.0
  C  C71  1  0.04454000  0.09749000  0.71824000  1.0
  C  C72  1  0.89169000  0.40280000  0.21815000  1.0
  C  C73  1  0.51194000  0.59634000  0.78168000  1.0
  C  C74  1  0.00072000  0.97342000  0.29401000  1.0
  C  C75  1  0.26832000  0.02752000  0.70617000  1.0
  C  C76  1  0.04568000  0.47263000  0.20609000  1.0
  C  C77  1  0.72388000  0.52636000  0.79399000  1.0
  C  C78  1  0.09526000  0.03584000  0.24876000  1.0
  C  C79  1  0.38084000  0.96375000  0.75141000  1.0
  C  C80  1  0.09478000  0.53623000  0.25132000  1.0
  C  C81  1  0.88075000  0.46384000  0.74872000  1.0
  C  C82  1  0.22636000  0.09960000  0.26419000  1.0
  C  C83  1  0.59022000  0.89948000  0.73614000  1.0
  C  C84  1  0.24038000  0.60018000  0.23608000  1.0
  C  C85  1  0.07567000  0.40016000  0.76412000  1.0
  C  C86  1  0.26495000  0.09746000  0.32384000  1.0
  C  C87  1  0.68478000  0.90256000  0.67670000  1.0
  C  C88  1  0.33830000  0.59690000  0.17667000  1.0
  C  C89  1  0.11224000  0.40254000  0.82374000  1.0
  C  C90  1  0.16626000  0.03247000  0.36651000  1.0
  C  C91  1  0.56317000  0.96891000  0.63404000  1.0
  C  C92  1  0.28268000  0.53072000  0.13400000  1.0
  C  C93  1  0.94868000  0.46751000  0.86642000  1.0
  C  C94  1  0.20573000  0.68867000  0.46966000  1.0
  C  C95  1  0.36411000  0.31201000  0.53058000  1.0
  C  C96  1  0.42573000  0.18797000  0.03046000  1.0
  C  C97  1  0.64491000  0.81130000  0.96952000  1.0
  C  C98  1  0.13805000  0.74048000  0.53182000  1.0
  C  C99  1  0.40933000  0.26011000  0.46840000  1.0
  C  C100  1  0.41898000  0.23996000  0.96832000  1.0
  C  C101  1  0.62879000  0.75959000  0.03170000  1.0
  C  C102  1  0.07128000  0.88336000  0.53474000  1.0
  C  C103  1  0.48892000  0.11724000  0.46553000  1.0
  C  C104  1  0.35566000  0.38286000  0.96549000  1.0
  C  C105  1  0.70476000  0.61671000  0.03467000  1.0
  N  N106  1  0.77521000  0.85042000  0.33025000  1.0
  N  N107  1  0.95556000  0.15129000  0.66956000  1.0
  N  N108  1  0.85663000  0.34886000  0.16952000  1.0
  N  N109  1  0.37551000  0.64939000  0.83030000  1.0
  N  N110  1  0.03640000  0.97340000  0.35198000  1.0
  N  N111  1  0.36057000  0.02844000  0.64840000  1.0
  N  N112  1  0.13907000  0.47154000  0.14833000  1.0
  N  N113  1  0.75967000  0.52651000  0.85194000  1.0
  N  N114  1  0.09839000  0.72169000  0.42283000  1.0
  N  N115  1  0.24341000  0.27946000  0.57711000  1.0
  N  N116  1  0.27252000  0.22053000  0.07701000  1.0
  N  N117  1  0.57051000  0.77827000  0.92271000  1.0
  N  N118  1  0.21523000  0.65240000  0.37493000  1.0
  N  N119  1  0.24369000  0.34912000  0.62507000  1.0
  N  N120  1  0.34246000  0.15081000  0.12496000  1.0
  N  N121  1  0.61804000  0.84756000  0.87481000  1.0
  N  N122  1  0.38710000  0.57928000  0.39172000  1.0
  N  N123  1  0.35915000  0.42194000  0.60860000  1.0
  N  N124  1  0.53068000  0.07793000  0.10846000  1.0
  N  N125  1  0.71685000  0.92067000  0.89157000  1.0
  N  N126  1  0.38575000  0.60075000  0.45115000  1.0
  N  N127  1  0.43807000  0.39993000  0.54934000  1.0
  N  N128  1  0.58756000  0.09997000  0.04920000  1.0
  N  N129  1  0.73702000  0.89919000  0.95100000  1.0
  Cl  Cl130  1  0.87746000  0.38422000  0.43536000  1.0
  Cl  Cl131  1  0.69879000  0.61670000  0.56530000  1.0
  Cl  Cl132  1  0.06523000  0.88344000  0.06531000  1.0
  Cl  Cl133  1  0.01163000  0.11587000  0.93534000  1.0
  O  O134  1  0.61607000  0.82568000  0.46694000  1.0
  O  O135  1  0.90787000  0.17480000  0.53265000  1.0
  O  O136  1  0.83237000  0.32525000  0.03264000  1.0
  O  O137  1  0.19190000  0.67453000  0.96700000  1.0
  O  O138  1  0.96436000  0.94685000  0.49493000  1.0
  O  O139  1  0.40635000  0.05371000  0.50498000  1.0
  O  O140  1  0.20964000  0.44644000  0.00494000  1.0
  O  O141  1  0.66137000  0.55320000  0.99485000  1.0
  O  O142  1  0.12232000  0.93016000  0.57820000  1.0
  O  O143  1  0.62968000  0.07070000  0.42235000  1.0
  O  O144  1  0.44983000  0.42937000  0.92228000  1.0
  O  O145  1  0.80227000  0.56986000  0.07817000  1.0
