# generated using pymatgen
data_Zr6H33C52N5(ClO16)2
_symmetry_space_group_name_H-M   'P 1'
_cell_length_a   14.76800000
_cell_length_b   14.77050000
_cell_length_c   14.77580000
_cell_angle_alpha   60.04420000
_cell_angle_beta   60.17870000
_cell_angle_gamma   60.13500000
_symmetry_Int_Tables_number   1
_chemical_formula_structural   Zr6H33C52N5(ClO16)2
_chemical_formula_sum   'Zr6 H33 C52 N5 Cl2 O32'
_cell_volume   2285.19817620
_cell_formula_units_Z   1
loop_
 _symmetry_equiv_pos_site_id
 _symmetry_equiv_pos_as_xyz
  1  'x, y, z'
loop_
 _atom_site_type_symbol
 _atom_site_label
 _atom_site_symmetry_multiplicity
 _atom_site_fract_x
 _atom_site_fract_y
 _atom_site_fract_z
 _atom_site_occupancy
  Zr  Zr0  1  0.11622000  0.12582000  0.38048000  1.0
  Zr  Zr1  1  0.88187000  0.88351000  0.61633000  1.0
  Zr  Zr2  1  0.11932000  0.88660000  0.37735000  1.0
  Zr  Zr3  1  0.87868000  0.12353000  0.61893000  1.0
  Zr  Zr4  1  0.11774000  0.88455000  0.61837000  1.0
  Zr  Zr5  1  0.87785000  0.12309000  0.38070000  1.0
  H  H6  1  0.28103000  0.91015000  0.40508000  1.0
  H  H7  1  0.90696000  0.90490000  0.78113000  1.0
  H  H8  1  0.90634000  0.90912000  0.40357000  1.0
  H  H9  1  0.90247000  0.28657000  0.40634000  1.0
  H  H10  1  0.38928000  0.17341000  0.38440000  1.0
  H  H11  1  0.41984000  0.84882000  0.62965000  1.0
  H  H12  1  0.56139000  0.16511000  0.38901000  1.0
  H  H13  1  0.15040000  0.41337000  0.07616000  1.0
  H  H14  1  0.86383000  0.40378000  0.07783000  1.0
  H  H15  1  0.14702000  0.58194000  0.90475000  1.0
  H  H16  1  0.14370000  0.85530000  0.91887000  1.0
  H  H17  1  0.87514000  0.16404000  0.88998000  1.0
  H  H18  1  0.13878000  0.86251000  0.08772000  1.0
  H  H19  1  0.57540000  0.41628000  0.35696000  1.0
  H  H20  1  0.57821000  0.40361000  0.65215000  1.0
  H  H21  1  0.40760000  0.58792000  0.36070000  1.0
  H  H22  1  0.42387000  0.01262000  0.25918000  1.0
  H  H23  1  0.59466000  0.99747000  0.26361000  1.0
  H  H24  1  0.76316000  0.00062000  0.92712000  1.0
  H  H25  1  0.76595000  0.99105000  0.09610000  1.0
  H  H26  1  0.85879000  0.41579000  0.65341000  1.0
  H  H27  1  0.14994000  0.40409000  0.36527000  1.0
  H  H28  1  0.86651000  0.58584000  0.64568000  1.0
  H  H29  1  0.66153000  0.81930000  0.66194000  1.0
  H  H30  1  0.56152000  0.76132000  0.70608000  1.0
  H  H31  1  0.83364000  0.64937000  0.83776000  1.0
  H  H32  1  0.77808000  0.54606000  0.94655000  1.0
  H  H33  1  0.84463000  0.19231000  0.13434000  1.0
  H  H34  1  0.79522000  0.24747000  0.02458000  1.0
  H  H35  1  0.33060000  0.64117000  0.68554000  1.0
  H  H36  1  0.42988000  0.52794000  0.74385000  1.0
  H  H37  1  0.18538000  0.64392000  0.33713000  1.0
  H  H38  1  0.23967000  0.53324000  0.28922000  1.0
  C  C39  1  0.29693000  0.00960000  0.50409000  1.0
  C  C40  1  0.00404000  0.69167000  0.79806000  1.0
  C  C41  1  0.69035000  0.00373000  0.50519000  1.0
  C  C42  1  0.00123000  0.30413000  0.19184000  1.0
  C  C43  1  0.29531000  0.01564000  0.18870000  1.0
  C  C44  1  0.00093000  0.30321000  0.50691000  1.0
  C  C45  1  0.69070000  0.00820000  0.79738000  1.0
  C  C46  1  0.00669000  0.69403000  0.50093000  1.0
  C  C47  1  0.30085000  0.69578000  0.50194000  1.0
  C  C48  1  0.00332000  0.01055000  0.18818000  1.0
  C  C49  1  0.68906000  0.30243000  0.50282000  1.0
  C  C50  1  0.00455000  0.00592000  0.79896000  1.0
  C  C51  1  0.58822000  0.00312000  0.51024000  1.0
  C  C52  1  0.39626000  0.01016000  0.50697000  1.0
  C  C53  1  0.54820000  0.91145000  0.58156000  1.0
  C  C54  1  0.43451000  0.10135000  0.43805000  1.0
  C  C55  1  0.45160000  0.91804000  0.57732000  1.0
  C  C56  1  0.52922000  0.09627000  0.44085000  1.0
  C  C57  1  0.00422000  0.58857000  0.89453000  1.0
  C  C58  1  0.00551000  0.40064000  0.08674000  1.0
  C  C59  1  0.92260000  0.53759000  0.94228000  1.0
  C  C60  1  0.08791000  0.44883000  0.03808000  1.0
  C  C61  1  0.92576000  0.44365000  0.03896000  1.0
  C  C62  1  0.08577000  0.54132000  0.94361000  1.0
  C  C63  1  0.00470000  0.01589000  0.08491000  1.0
  C  C64  1  0.00805000  0.00967000  0.89628000  1.0
  C  C65  1  0.92901000  0.10472000  0.02820000  1.0
  C  C66  1  0.08474000  0.92370000  0.95018000  1.0
  C  C67  1  0.93284000  0.09836000  0.93410000  1.0
  C  C68  1  0.08170000  0.92814000  0.04303000  1.0
  C  C69  1  0.39791000  0.59318000  0.50741000  1.0
  C  C70  1  0.58606000  0.40131000  0.50491000  1.0
  C  C71  1  0.44498000  0.54050000  0.59313000  1.0
  C  C72  1  0.53842000  0.45174000  0.42170000  1.0
  C  C73  1  0.53950000  0.44458000  0.58886000  1.0
  C  C74  1  0.44606000  0.54618000  0.42422000  1.0
  C  C75  1  0.39552000  0.01988000  0.08605000  1.0
  C  C76  1  0.49402000  0.01115000  0.09078000  1.0
  C  C77  1  0.39252000  0.03105000  0.98861000  1.0
  C  C78  1  0.49845000  0.00621000  0.18726000  1.0
  C  C79  1  0.59422000  0.99896000  0.18926000  1.0
  C  C80  1  0.58775000  0.01392000  0.89722000  1.0
  C  C81  1  0.48951000  0.02811000  0.89333000  1.0
  C  C82  1  0.59185000  0.00788000  0.99483000  1.0
  C  C83  1  0.68939000  0.99960000  0.00022000  1.0
  C  C84  1  0.69052000  0.99555000  0.09494000  1.0
  C  C85  1  0.01095000  0.59177000  0.50156000  1.0
  C  C86  1  0.00462000  0.40154000  0.50845000  1.0
  C  C87  1  0.09453000  0.54005000  0.42057000  1.0
  C  C88  1  0.92343000  0.45117000  0.58957000  1.0
  C  C89  1  0.08839000  0.44466000  0.42674000  1.0
  C  C90  1  0.92802000  0.54479000  0.58472000  1.0
  N  N91  1  0.60056000  0.81741000  0.65007000  1.0
  N  N92  1  0.84294000  0.57433000  0.89856000  1.0
  N  N93  1  0.85485000  0.19519000  0.05982000  1.0
  N  N94  1  0.40515000  0.57986000  0.67692000  1.0
  N  N95  1  0.17771000  0.57937000  0.33717000  1.0
  Cl  Cl96  1  0.48238000  0.04654000  0.77201000  1.0
  Cl  Cl97  1  0.27086000  0.05191000  0.98045000  1.0
  O  O98  1  0.25914000  0.08579000  0.42566000  1.0
  O  O99  1  0.92551000  0.73664000  0.75749000  1.0
  O  O100  1  0.73538000  0.92522000  0.57916000  1.0
  O  O101  1  0.07458000  0.26851000  0.23465000  1.0
  O  O102  1  0.26172000  0.93463000  0.22877000  1.0
  O  O103  1  0.92232000  0.26544000  0.58195000  1.0
  O  O104  1  0.73063000  0.08484000  0.75713000  1.0
  O  O105  1  0.08169000  0.73785000  0.42342000  1.0
  O  O106  1  0.25899000  0.73859000  0.57785000  1.0
  O  O107  1  0.92435000  0.08457000  0.23245000  1.0
  O  O108  1  0.72978000  0.26410000  0.42468000  1.0
  O  O109  1  0.07913000  0.92720000  0.76150000  1.0
  O  O110  1  0.07830000  0.93214000  0.23005000  1.0
  O  O111  1  0.73073000  0.26438000  0.57778000  1.0
  O  O112  1  0.92560000  0.08075000  0.76123000  1.0
  O  O113  1  0.26377000  0.73836000  0.42225000  1.0
  O  O114  1  0.25501000  0.09151000  0.22930000  1.0
  O  O115  1  0.92805000  0.73561000  0.57586000  1.0
  O  O116  1  0.73113000  0.92750000  0.76353000  1.0
  O  O117  1  0.07591000  0.26461000  0.42897000  1.0
  O  O118  1  0.92335000  0.26515000  0.23287000  1.0
  O  O119  1  0.25829000  0.93141000  0.57877000  1.0
  O  O120  1  0.07905000  0.73334000  0.76045000  1.0
  O  O121  1  0.73018000  0.08033000  0.42765000  1.0
  O  O122  1  0.92958000  0.20623000  0.43311000  1.0
  O  O123  1  0.93259000  0.93647000  0.43041000  1.0
  O  O124  1  0.93165000  0.93526000  0.70097000  1.0
  O  O125  1  0.20083000  0.93888000  0.43024000  1.0
  O  O126  1  0.04986000  0.85507000  0.54682000  1.0
  O  O127  1  0.04746000  0.05354000  0.54936000  1.0
  O  O128  1  0.84987000  0.05256000  0.54901000  1.0
  O  O129  1  0.04740000  0.05489000  0.35047000  1.0
