# generated using pymatgen
data_CuH4C3BrN
_symmetry_space_group_name_H-M   'P 1'
_cell_length_a   3.85508000
_cell_length_b   8.31812000
_cell_length_c   14.50600000
_cell_angle_alpha   92.85430000
_cell_angle_beta   91.24340000
_cell_angle_gamma   90.22210000
_symmetry_Int_Tables_number   1
_chemical_formula_structural   CuH4C3BrN
_chemical_formula_sum   'Cu4 H16 C12 Br4 N4'
_cell_volume   464.47195994
_cell_formula_units_Z   4
loop_
 _symmetry_equiv_pos_site_id
 _symmetry_equiv_pos_as_xyz
  1  'x, y, z'
loop_
 _atom_site_type_symbol
 _atom_site_label
 _atom_site_symmetry_multiplicity
 _atom_site_fract_x
 _atom_site_fract_y
 _atom_site_fract_z
 _atom_site_occupancy
  Cu  Cu0  1  0.65126000  0.39031000  0.75022000  1.0
  Cu  Cu1  1  0.34868000  0.60969000  0.24979000  1.0
  Cu  Cu2  1  0.00491000  0.17247000  0.84206000  1.0
  Cu  Cu3  1  0.99507000  0.82752000  0.15794000  1.0
  H  H4  1  0.70917000  0.98583000  0.68542000  1.0
  H  H5  1  0.29085000  0.01416000  0.31457000  1.0
  H  H6  1  0.13141000  0.86643000  0.93935000  1.0
  H  H7  1  0.86859000  0.13357000  0.06065000  1.0
  H  H8  1  0.95287000  0.57970000  0.90668000  1.0
  H  H9  1  0.04712000  0.42029000  0.09332000  1.0
  H  H10  1  0.27160000  0.60679000  0.63932000  1.0
  H  H11  1  0.72842000  0.39322000  0.36068000  1.0
  H  H12  1  0.67776000  0.58772000  0.59034000  1.0
  H  H13  1  0.32225000  0.41229000  0.40966000  1.0
  H  H14  1  0.27958000  0.75669000  0.49582000  1.0
  H  H15  1  0.72043000  0.24331000  0.50417000  1.0
  H  H16  1  0.64992000  0.86835000  0.53419000  1.0
  H  H17  1  0.35011000  0.13166000  0.46580000  1.0
  H  H18  1  0.24905000  0.90149000  0.58964000  1.0
  H  H19  1  0.75096000  0.09852000  0.41036000  1.0
  C  C20  1  0.67148000  0.73331000  0.71381000  1.0
  C  C21  1  0.32852000  0.26668000  0.28619000  1.0
  C  C22  1  0.76438000  0.89323000  0.73404000  1.0
  C  C23  1  0.23564000  0.10677000  0.26596000  1.0
  C  C24  1  0.99564000  0.82971000  0.87505000  1.0
  C  C25  1  0.00437000  0.17028000  0.12496000  1.0
  C  C26  1  0.89910000  0.67042000  0.85670000  1.0
  C  C27  1  0.10089000  0.32958000  0.14330000  1.0
  C  C28  1  0.50376000  0.67725000  0.62360000  1.0
  C  C29  1  0.49624000  0.32275000  0.37639000  1.0
  C  C30  1  0.41579000  0.80853000  0.55757000  1.0
  C  C31  1  0.58424000  0.19147000  0.44243000  1.0
  Br  Br32  1  0.51024000  0.29829000  0.91945000  1.0
  Br  Br33  1  0.48975000  0.70171000  0.08056000  1.0
  Br  Br34  1  0.14153000  0.26248000  0.67143000  1.0
  Br  Br35  1  0.85842000  0.73753000  0.32857000  1.0
  N  N36  1  0.73729000  0.62031000  0.77681000  1.0
  N  N37  1  0.26270000  0.37968000  0.22320000  1.0
  N  N38  1  0.92730000  0.94331000  0.81391000  1.0
  N  N39  1  0.07270000  0.05669000  0.18609000  1.0
