# generated using pymatgen
data_Zn4H18C32S7(N2O17)2
_symmetry_space_group_name_H-M   'P 1'
_cell_length_a   10.77770000
_cell_length_b   19.10660000
_cell_length_c   19.10880000
_cell_angle_alpha   93.96260000
_cell_angle_beta   92.24110000
_cell_angle_gamma   95.85140000
_symmetry_Int_Tables_number   1
_chemical_formula_structural   Zn4H18C32S7(N2O17)2
_chemical_formula_sum   'Zn4 H18 C32 S7 N4 O34'
_cell_volume   3900.89810953
_cell_formula_units_Z   1
loop_
 _symmetry_equiv_pos_site_id
 _symmetry_equiv_pos_as_xyz
  1  'x, y, z'
loop_
 _atom_site_type_symbol
 _atom_site_label
 _atom_site_symmetry_multiplicity
 _atom_site_fract_x
 _atom_site_fract_y
 _atom_site_fract_z
 _atom_site_occupancy
  Zn  Zn0  1  0.39022000  0.42756000  0.42551000  1.0
  Zn  Zn1  1  0.60638000  0.56075000  0.44397000  1.0
  Zn  Zn2  1  0.58811000  0.44267000  0.55666000  1.0
  Zn  Zn3  1  0.38691000  0.54961000  0.54979000  1.0
  H  H4  1  0.00564000  0.52078000  0.57155000  1.0
  H  H5  1  0.73741000  0.37241000  0.90771000  1.0
  H  H6  1  0.88074000  0.60557000  0.17155000  1.0
  H  H7  1  0.54727000  0.40904000  0.76658000  1.0
  H  H8  1  0.53107000  0.90083000  0.42442000  1.0
  H  H9  1  0.22842000  0.10494000  0.30582000  1.0
  H  H10  1  0.38850000  0.20704000  0.38580000  1.0
  H  H11  1  0.53181000  0.64379000  0.65348000  1.0
  H  H12  1  0.56974000  0.10099000  0.59301000  1.0
  H  H13  1  0.33755000  0.86781000  0.72470000  1.0
  H  H14  1  0.53802000  0.76916000  0.41878000  1.0
  H  H15  1  0.98577000  0.47265000  0.41303000  1.0
  H  H16  1  0.57720000  0.23292000  0.59011000  1.0
  H  H17  1  0.33242000  0.47011000  0.21060000  1.0
  H  H18  1  0.34547000  0.47808000  0.07969000  1.0
  H  H19  1  0.38758000  0.71975000  0.85042000  1.0
  H  H20  1  0.39273000  0.60823000  0.76873000  1.0
  H  H21  1  0.91727000  0.48700000  0.18678000  1.0
  C  C22  1  0.50875000  0.68408000  0.51657000  1.0
  C  C23  1  0.51967000  0.76275000  0.52969000  1.0
  C  C24  1  0.51179000  0.79946000  0.59588000  1.0
  C  C25  1  0.48459000  0.30536000  0.48799000  1.0
  C  C26  1  0.50356000  0.87275000  0.59860000  1.0
  C  C27  1  0.47786000  0.51038000  0.76046000  1.0
  C  C28  1  0.51578000  0.45414000  0.79618000  1.0
  C  C29  1  0.51043000  0.45455000  0.86875000  1.0
  C  C30  1  0.46706000  0.51263000  0.90701000  1.0
  C  C31  1  0.42064000  0.56647000  0.86956000  1.0
  C  C32  1  0.42738000  0.56611000  0.79707000  1.0
  C  C33  1  0.53504000  0.19781000  0.54635000  1.0
  C  C34  1  0.42826000  0.48628000  0.11509000  1.0
  C  C35  1  0.42190000  0.48116000  0.18676000  1.0
  C  C36  1  0.54428000  0.50234000  0.08646000  1.0
  C  C37  1  0.51248000  0.49149000  0.30797000  1.0
  C  C38  1  0.53074000  0.48987000  0.23020000  1.0
  C  C39  1  0.64916000  0.50141000  0.20139000  1.0
  C  C40  1  0.65593000  0.51063000  0.12922000  1.0
  C  C41  1  0.48679000  0.50780000  0.68297000  1.0
  C  C42  1  0.82405000  0.51072000  0.51298000  1.0
  C  C43  1  0.16296000  0.48177000  0.47624000  1.0
  C  C44  1  0.53181000  0.12526000  0.54801000  1.0
  C  C45  1  0.02791000  0.48783000  0.46540000  1.0
  C  C46  1  0.96121000  0.50898000  0.51916000  1.0
  C  C47  1  0.48237000  0.22714000  0.48816000  1.0
  C  C48  1  0.47820000  0.08118000  0.49057000  1.0
  C  C49  1  0.42702000  0.11085000  0.43174000  1.0
  C  C50  1  0.42790000  0.18359000  0.43073000  1.0
  C  C51  1  0.52411000  0.87130000  0.47117000  1.0
  C  C52  1  0.52840000  0.79917000  0.46855000  1.0
  C  C53  1  0.51012000  0.90796000  0.53587000  1.0
  S  S54  1  0.35309000  0.63551000  0.91892000  1.0
  S  S55  1  0.78180000  0.49810000  0.26229000  1.0
  S  S56  1  0.53957000  0.37329000  0.90587000  1.0
  S  S57  1  0.79233000  0.53899000  0.08075000  1.0
  S  S58  1  0.36321000  0.05172000  0.35925000  1.0
  S  S59  1  0.53355000  0.75568000  0.67656000  1.0
  S  S60  1  0.47439000  0.93179000  0.67388000  1.0
  N  N61  1  0.47023000  0.00694000  0.48702000  1.0
  N  N62  1  0.51270000  0.98200000  0.54142000  1.0
  N  N63  1  0.46031000  0.51920000  0.98022000  1.0
  N  N64  1  0.55615000  0.50419000  0.01341000  1.0
  O  O65  1  0.49299000  0.49454000  0.49232000  1.0
  O  O66  1  0.77942000  0.54174000  0.46256000  1.0
  O  O67  1  0.21585000  0.50830000  0.53478000  1.0
  O  O68  1  0.76419000  0.47964000  0.56057000  1.0
  O  O69  1  0.21600000  0.45053000  0.42614000  1.0
  O  O70  1  0.23631000  0.60607000  0.94295000  1.0
  O  O71  1  0.44863000  0.67376000  0.96534000  1.0
  O  O72  1  0.31703000  0.68476000  0.85785000  1.0
  O  O73  1  0.83865000  0.56912000  0.28002000  1.0
  O  O74  1  0.74135000  0.45283000  0.31560000  1.0
  O  O75  1  0.87366000  0.45426000  0.21825000  1.0
  O  O76  1  0.44481000  0.43972000  0.32922000  1.0
  O  O77  1  0.45758000  0.36255000  0.96222000  1.0
  O  O78  1  0.54233000  0.32148000  0.84766000  1.0
  O  O79  1  0.67794000  0.38849000  0.94119000  1.0
  O  O80  1  0.83983000  0.47954000  0.04577000  1.0
  O  O81  1  0.76298000  0.60030000  0.04699000  1.0
  O  O82  1  0.90118000  0.56496000  0.14126000  1.0
  O  O83  1  0.46357000  0.01963000  0.32733000  1.0
  O  O84  1  0.25177000  0.01126000  0.37919000  1.0
  O  O85  1  0.31955000  0.10727000  0.30504000  1.0
  O  O86  1  0.63036000  0.79915000  0.71704000  1.0
  O  O87  1  0.45024000  0.55977000  0.65063000  1.0
  O  O88  1  0.41521000  0.73342000  0.70559000  1.0
  O  O89  1  0.59324000  0.68629000  0.64968000  1.0
  O  O90  1  0.58983000  0.96884000  0.70104000  1.0
  O  O91  1  0.36842000  0.96700000  0.65268000  1.0
  O  O92  1  0.42774000  0.88042000  0.73256000  1.0
  O  O93  1  0.59221000  0.65856000  0.48045000  1.0
  O  O94  1  0.56044000  0.34146000  0.53295000  1.0
  O  O95  1  0.41013000  0.65097000  0.53785000  1.0
  O  O96  1  0.41093000  0.32943000  0.44381000  1.0
  O  O97  1  0.55883000  0.54780000  0.34316000  1.0
  O  O98  1  0.52875000  0.45423000  0.65335000  1.0
