# generated using pymatgen
data_CdH25C25(NO)5
_symmetry_space_group_name_H-M   'P 1'
_cell_length_a   16.55940000
_cell_length_b   17.24790000
_cell_length_c   18.32240000
_cell_angle_alpha   90.00000000
_cell_angle_beta   89.99930000
_cell_angle_gamma   89.99980000
_symmetry_Int_Tables_number   1
_chemical_formula_structural   CdH25C25(NO)5
_chemical_formula_sum   'Cd8 H200 C200 N40 O40'
_cell_volume   5233.14999004
_cell_formula_units_Z   8
loop_
 _symmetry_equiv_pos_site_id
 _symmetry_equiv_pos_as_xyz
  1  'x, y, z'
loop_
 _atom_site_type_symbol
 _atom_site_label
 _atom_site_symmetry_multiplicity
 _atom_site_fract_x
 _atom_site_fract_y
 _atom_site_fract_z
 _atom_site_occupancy
  Cd  Cd0  1  0.21245000  0.00692000  0.47730000  1.0
  Cd  Cd1  1  0.28755000  0.99308000  0.97730000  1.0
  Cd  Cd2  1  0.71245000  0.49308000  0.52270000  1.0
  Cd  Cd3  1  0.78755000  0.50692000  0.02270000  1.0
  Cd  Cd4  1  0.78755000  0.99308000  0.52270000  1.0
  Cd  Cd5  1  0.71245000  0.00692000  0.02270000  1.0
  Cd  Cd6  1  0.28755000  0.50692000  0.47730000  1.0
  Cd  Cd7  1  0.21245000  0.49308000  0.97730000  1.0
  H  H8  1  0.38771000  0.07235000  0.37971000  1.0
  H  H9  1  0.11229000  0.92765000  0.87971000  1.0
  H  H10  1  0.88771000  0.42765000  0.62029000  1.0
  H  H11  1  0.61229000  0.57235000  0.12029000  1.0
  H  H12  1  0.61229000  0.92765000  0.62029000  1.0
  H  H13  1  0.88770000  0.07235000  0.12029000  1.0
  H  H14  1  0.11229000  0.57235000  0.37971000  1.0
  H  H15  1  0.38771000  0.42765000  0.87971000  1.0
  H  H16  1  0.52562000  0.98211000  0.37382000  1.0
  H  H17  1  0.97438000  0.01789000  0.87381000  1.0
  H  H18  1  0.02562000  0.51789000  0.62618000  1.0
  H  H19  1  0.47438000  0.48211000  0.12619000  1.0
  H  H20  1  0.47438000  0.01789000  0.62618000  1.0
  H  H21  1  0.02561000  0.98211000  0.12619000  1.0
  H  H22  1  0.97438000  0.48211000  0.37382000  1.0
  H  H23  1  0.52562000  0.51789000  0.87382000  1.0
  H  H24  1  0.35047000  0.87455000  0.51030000  1.0
  H  H25  1  0.14953000  0.12545000  0.01031000  1.0
  H  H26  1  0.85046000  0.62545000  0.48969000  1.0
  H  H27  1  0.64953000  0.37455000  0.98970000  1.0
  H  H28  1  0.64954000  0.12545000  0.48970000  1.0
  H  H29  1  0.85047000  0.87455000  0.98969000  1.0
  H  H30  1  0.14953000  0.37455000  0.51031000  1.0
  H  H31  1  0.35047000  0.62545000  0.01030000  1.0
  H  H32  1  0.61530000  0.90504000  0.44635000  1.0
  H  H33  1  0.88470000  0.09496000  0.94635000  1.0
  H  H34  1  0.11530000  0.59496000  0.55365000  1.0
  H  H35  1  0.38470000  0.40504000  0.05365000  1.0
  H  H36  1  0.38470000  0.09496000  0.55365000  1.0
  H  H37  1  0.11530000  0.90504000  0.05365000  1.0
  H  H38  1  0.88470000  0.40504000  0.44635000  1.0
  H  H39  1  0.61530000  0.59496000  0.94635000  1.0
  H  H40  1  0.70009000  0.78781000  0.46694000  1.0
  H  H41  1  0.79991000  0.21220000  0.96695000  1.0
  H  H42  1  0.20008000  0.71220000  0.53305000  1.0
  H  H43  1  0.29991000  0.28781000  0.03305000  1.0
  H  H44  1  0.29991000  0.21220000  0.53305000  1.0
  H  H45  1  0.20009000  0.78781000  0.03305000  1.0
  H  H46  1  0.79992000  0.28780000  0.46694000  1.0
  H  H47  1  0.70009000  0.71219000  0.96695000  1.0
  H  H48  1  0.48644000  0.64850000  0.49007000  1.0
  H  H49  1  0.01357000  0.35150000  0.99007000  1.0
  H  H50  1  0.98643000  0.85150000  0.50993000  1.0
  H  H51  1  0.51356000  0.14849000  0.00993000  1.0
  H  H52  1  0.51357000  0.35151000  0.50993000  1.0
  H  H53  1  0.98644000  0.64849000  0.00993000  1.0
  H  H54  1  0.01357000  0.14849000  0.49007000  1.0
  H  H55  1  0.48644000  0.85150000  0.99007000  1.0
  H  H56  1  0.40092000  0.76300000  0.46604000  1.0
  H  H57  1  0.09908000  0.23700000  0.96604000  1.0
  H  H58  1  0.90092000  0.73700000  0.53396000  1.0
  H  H59  1  0.59908000  0.26299000  0.03396000  1.0
  H  H60  1  0.59908000  0.23701000  0.53396000  1.0
  H  H61  1  0.90092000  0.76300000  0.03396000  1.0
  H  H62  1  0.09908000  0.26299000  0.46604000  1.0
  H  H63  1  0.40092000  0.73701000  0.96604000  1.0
  H  H64  1  0.30116000  0.94061000  0.63521000  1.0
  H  H65  1  0.19883000  0.05940000  0.13521000  1.0
  H  H66  1  0.80116000  0.55939000  0.36479000  1.0
  H  H67  1  0.69883000  0.44060000  0.86479000  1.0
  H  H68  1  0.69883000  0.05940000  0.36479000  1.0
  H  H69  1  0.80118000  0.94060000  0.86479000  1.0
  H  H70  1  0.19883000  0.44061000  0.63521000  1.0
  H  H71  1  0.30118000  0.55940000  0.13522000  1.0
  H  H72  1  0.30597000  0.02544000  0.76336000  1.0
  H  H73  1  0.19402000  0.97456000  0.26337000  1.0
  H  H74  1  0.80597000  0.47456000  0.23664000  1.0
  H  H75  1  0.69402000  0.52544000  0.73664000  1.0
  H  H76  1  0.69403000  0.97456000  0.23664000  1.0
  H  H77  1  0.80598000  0.02544000  0.73664000  1.0
  H  H78  1  0.19403000  0.52544000  0.76336000  1.0
  H  H79  1  0.30598000  0.47456000  0.26337000  1.0
  H  H80  1  0.17784000  0.15117000  0.60016000  1.0
  H  H81  1  0.32215000  0.84884000  0.10016000  1.0
  H  H82  1  0.67784000  0.34883000  0.39984000  1.0
  H  H83  1  0.82215000  0.65117000  0.89984000  1.0
  H  H84  1  0.82216000  0.84884000  0.39985000  1.0
  H  H85  1  0.67785000  0.15116000  0.89984000  1.0
  H  H86  1  0.32216000  0.65117000  0.60016000  1.0
  H  H87  1  0.17785000  0.34884000  0.10016000  1.0
  H  H88  1  0.22082000  0.25744000  0.65817000  1.0
  H  H89  1  0.27917000  0.74256000  0.15817000  1.0
  H  H90  1  0.72083000  0.24256000  0.34183000  1.0
  H  H91  1  0.77917000  0.75744000  0.84183000  1.0
  H  H92  1  0.77917000  0.74256000  0.34183000  1.0
  H  H93  1  0.72083000  0.25744000  0.84183000  1.0
  H  H94  1  0.27917000  0.75744000  0.65817000  1.0
  H  H95  1  0.22083000  0.24256000  0.15817000  1.0
  H  H96  1  0.20003000  0.36673000  0.74353000  1.0
  H  H97  1  0.29997000  0.63328000  0.24353000  1.0
  H  H98  1  0.70003000  0.13328000  0.25647000  1.0
  H  H99  1  0.79997000  0.86672000  0.75647000  1.0
  H  H100  1  0.79997000  0.63327000  0.25647000  1.0
  H  H101  1  0.70003000  0.36672000  0.75647000  1.0
  H  H102  1  0.29997000  0.86673000  0.74353000  1.0
  H  H103  1  0.20003000  0.13328000  0.24353000  1.0
  H  H104  1  0.22436000  0.21256000  0.92641000  1.0
  H  H105  1  0.27565000  0.78744000  0.42640000  1.0
  H  H106  1  0.72436000  0.28744000  0.07360000  1.0
  H  H107  1  0.77565000  0.71256000  0.57360000  1.0
  H  H108  1  0.77564000  0.78744000  0.07360000  1.0
  H  H109  1  0.72436000  0.21256000  0.57360000  1.0
  H  H110  1  0.27564000  0.71257000  0.92640000  1.0
  H  H111  1  0.22436000  0.28744000  0.42640000  1.0
  H  H112  1  0.23735000  0.10071000  0.84201000  1.0
  H  H113  1  0.26265000  0.89929000  0.34201000  1.0
  H  H114  1  0.73736000  0.39929000  0.15799000  1.0
  H  H115  1  0.76265000  0.60071000  0.65799000  1.0
  H  H116  1  0.76264000  0.89929000  0.15799000  1.0
  H  H117  1  0.73736000  0.10071000  0.65799000  1.0
  H  H118  1  0.26264000  0.60072000  0.84201000  1.0
  H  H119  1  0.23736000  0.39929000  0.34201000  1.0
  H  H120  1  0.61571000  0.74956000  0.75395000  1.0
  H  H121  1  0.88429000  0.25044000  0.25397000  1.0
  H  H122  1  0.11570000  0.75044000  0.24605000  1.0
  H  H123  1  0.38429000  0.24956000  0.74602000  1.0
  H  H124  1  0.38429000  0.25044000  0.24605000  1.0
  H  H125  1  0.11571000  0.74956000  0.74602000  1.0
  H  H126  1  0.88429000  0.24956000  0.75395000  1.0
  H  H127  1  0.61571000  0.75044000  0.25397000  1.0
  H  H128  1  0.58317000  0.72577000  0.66524000  1.0
  H  H129  1  0.91681000  0.27424000  0.16526000  1.0
  H  H130  1  0.08317000  0.77423000  0.33476000  1.0
  H  H131  1  0.41681000  0.22576000  0.83473000  1.0
  H  H132  1  0.41683000  0.27423000  0.33476000  1.0
  H  H133  1  0.08319000  0.72576000  0.83473000  1.0
  H  H134  1  0.91683000  0.22577000  0.66525000  1.0
  H  H135  1  0.58319000  0.77424000  0.16526000  1.0
  H  H136  1  0.55486000  0.61852000  0.75709000  1.0
  H  H137  1  0.94514000  0.38148000  0.25710000  1.0
  H  H138  1  0.05486000  0.88148000  0.24291000  1.0
  H  H139  1  0.44514000  0.11851000  0.74289000  1.0
  H  H140  1  0.44514000  0.38148000  0.24291000  1.0
  H  H141  1  0.05486000  0.61852000  0.74290000  1.0
  H  H142  1  0.94514000  0.11852000  0.75709000  1.0
  H  H143  1  0.55486000  0.88148000  0.25710000  1.0
  H  H144  1  0.46553000  0.65259000  0.71369000  1.0
  H  H145  1  0.03447000  0.34742000  0.21369000  1.0
  H  H146  1  0.96552000  0.84741000  0.28631000  1.0
  H  H147  1  0.53446000  0.15258000  0.78631000  1.0
  H  H148  1  0.53447000  0.34741000  0.28632000  1.0
  H  H149  1  0.96553000  0.65258000  0.78631000  1.0
  H  H150  1  0.03447000  0.15259000  0.71369000  1.0
  H  H151  1  0.46553000  0.84742000  0.21369000  1.0
  H  H152  1  0.48849000  0.68190000  0.80443000  1.0
  H  H153  1  0.01151000  0.31810000  0.30444000  1.0
  H  H154  1  0.98849000  0.81809000  0.19557000  1.0
  H  H155  1  0.51151000  0.18190000  0.69556000  1.0
  H  H156  1  0.51151000  0.31809000  0.19557000  1.0
  H  H157  1  0.98849000  0.68190000  0.69556000  1.0
  H  H158  1  0.01151000  0.18190000  0.80443000  1.0
  H  H159  1  0.48849000  0.81810000  0.30444000  1.0
  H  H160  1  0.49842000  0.81669000  0.83128000  1.0
  H  H161  1  0.00158000  0.18330000  0.33129000  1.0
  H  H162  1  0.99842000  0.68331000  0.16872000  1.0
  H  H163  1  0.50158000  0.31670000  0.66871000  1.0
  H  H164  1  0.50158000  0.18331000  0.16872000  1.0
  H  H165  1  0.99842000  0.81670000  0.66871000  1.0
  H  H166  1  0.00158000  0.31669000  0.83128000  1.0
  H  H167  1  0.49842000  0.68330000  0.33129000  1.0
  H  H168  1  0.45032000  0.89023000  0.77945000  1.0
  H  H169  1  0.04968000  0.10977000  0.27945000  1.0
  H  H170  1  0.95032000  0.60977000  0.22055000  1.0
  H  H171  1  0.54968000  0.39022000  0.72055000  1.0
  H  H172  1  0.54968000  0.10977000  0.22055000  1.0
  H  H173  1  0.95032000  0.89023000  0.72055000  1.0
  H  H174  1  0.04968000  0.39023000  0.77945000  1.0
  H  H175  1  0.45032000  0.60977000  0.27945000  1.0
  H  H176  1  0.57054000  0.94112000  0.84947000  1.0
  H  H177  1  0.92947000  0.05888000  0.34948000  1.0
  H  H178  1  0.07053000  0.55888000  0.15052000  1.0
  H  H179  1  0.42947000  0.44113000  0.65052000  1.0
  H  H180  1  0.42946000  0.05888000  0.15052000  1.0
  H  H181  1  0.07053000  0.94113000  0.65052000  1.0
  H  H182  1  0.92946000  0.44112000  0.84947000  1.0
  H  H183  1  0.57053000  0.55888000  0.34948000  1.0
  H  H184  1  0.58352000  0.95296000  0.75368000  1.0
  H  H185  1  0.91648000  0.04704000  0.25368000  1.0
  H  H186  1  0.08353000  0.54704000  0.24632000  1.0
  H  H187  1  0.41648000  0.45296000  0.74632000  1.0
  H  H188  1  0.41647000  0.04704000  0.24632000  1.0
  H  H189  1  0.08353000  0.95296000  0.74632000  1.0
  H  H190  1  0.91647000  0.45296000  0.75368000  1.0
  H  H191  1  0.58353000  0.54704000  0.25368000  1.0
  H  H192  1  0.63527000  0.87766000  0.80079000  1.0
  H  H193  1  0.86473000  0.12233000  0.30080000  1.0
  H  H194  1  0.13527000  0.62234000  0.19921000  1.0
  H  H195  1  0.36473000  0.37767000  0.69920000  1.0
  H  H196  1  0.36473000  0.12233000  0.19921000  1.0
  H  H197  1  0.13527000  0.87767000  0.69920000  1.0
  H  H198  1  0.86473000  0.37766000  0.80079000  1.0
  H  H199  1  0.63527000  0.62233000  0.30080000  1.0
  H  H200  1  0.48388000  0.78615000  0.61233000  1.0
  H  H201  1  0.01610000  0.21387000  0.11234000  1.0
  H  H202  1  0.98388000  0.71385000  0.38767000  1.0
  H  H203  1  0.51609000  0.28612000  0.88766000  1.0
  H  H204  1  0.51612000  0.21385000  0.38767000  1.0
  H  H205  1  0.98390000  0.78613000  0.88766000  1.0
  H  H206  1  0.01612000  0.28614000  0.61233000  1.0
  H  H207  1  0.48390000  0.71387000  0.11234000  1.0
  C  C208  1  0.40055000  0.01727000  0.40568000  1.0
  C  C209  1  0.09946000  0.98274000  0.90567000  1.0
  C  C210  1  0.90054000  0.48274000  0.59432000  1.0
  C  C211  1  0.59945000  0.51726000  0.09433000  1.0
  C  C212  1  0.59945000  0.98274000  0.59432000  1.0
  C  C213  1  0.90054000  0.01726000  0.09433000  1.0
  C  C214  1  0.09945000  0.51726000  0.40567000  1.0
  C  C215  1  0.40055000  0.48273000  0.90568000  1.0
  C  C216  1  0.46908000  0.97272000  0.40209000  1.0
  C  C217  1  0.03092000  0.02728000  0.90209000  1.0
  C  C218  1  0.96908000  0.52728000  0.59791000  1.0
  C  C219  1  0.53092000  0.47272000  0.09791000  1.0
  C  C220  1  0.53092000  0.02728000  0.59791000  1.0
  C  C221  1  0.96907000  0.97272000  0.09791000  1.0
  C  C222  1  0.03092000  0.47272000  0.40209000  1.0
  C  C223  1  0.46908000  0.52728000  0.90209000  1.0
  C  C224  1  0.37804000  0.91539000  0.47301000  1.0
  C  C225  1  0.12197000  0.08461000  0.97301000  1.0
  C  C226  1  0.87803000  0.58461000  0.52699000  1.0
  C  C227  1  0.62197000  0.41539000  0.02699000  1.0
  C  C228  1  0.62197000  0.08461000  0.52699000  1.0
  C  C229  1  0.87803000  0.91539000  0.02698000  1.0
  C  C230  1  0.12197000  0.41539000  0.47301000  1.0
  C  C231  1  0.37803000  0.58461000  0.97301000  1.0
  C  C232  1  0.50316000  0.84154000  0.45528000  1.0
  C  C233  1  0.99684000  0.15845000  0.95528000  1.0
  C  C234  1  0.00316000  0.65845000  0.54472000  1.0
  C  C235  1  0.49684000  0.34154000  0.04472000  1.0
  C  C236  1  0.49684000  0.15846000  0.54472000  1.0
  C  C237  1  0.00316000  0.84155000  0.04472000  1.0
  C  C238  1  0.99684000  0.34155000  0.45528000  1.0
  C  C239  1  0.50316000  0.65845000  0.95528000  1.0
  C  C240  1  0.58723000  0.84858000  0.45439000  1.0
  C  C241  1  0.91278000  0.15142000  0.95440000  1.0
  C  C242  1  0.08722000  0.65142000  0.54560000  1.0
  C  C243  1  0.41278000  0.34858000  0.04560000  1.0
  C  C244  1  0.41278000  0.15142000  0.54560000  1.0
  C  C245  1  0.08722000  0.84858000  0.04560000  1.0
  C  C246  1  0.91278000  0.34858000  0.45440000  1.0
  C  C247  1  0.58722000  0.65142000  0.95439000  1.0
  C  C248  1  0.63453000  0.78294000  0.46573000  1.0
  C  C249  1  0.86548000  0.21706000  0.96573000  1.0
  C  C250  1  0.13452000  0.71706000  0.53427000  1.0
  C  C251  1  0.36548000  0.28295000  0.03427000  1.0
  C  C252  1  0.36548000  0.21706000  0.53427000  1.0
  C  C253  1  0.13452000  0.78294000  0.03427000  1.0
  C  C254  1  0.86548000  0.28294000  0.46573000  1.0
  C  C255  1  0.63452000  0.71705000  0.96573000  1.0
  C  C256  1  0.59852000  0.71079000  0.47905000  1.0
  C  C257  1  0.90149000  0.28921000  0.97905000  1.0
  C  C258  1  0.09851000  0.78921000  0.52095000  1.0
  C  C259  1  0.40148000  0.21079000  0.02095000  1.0
  C  C260  1  0.40149000  0.28921000  0.52095000  1.0
  C  C261  1  0.09851000  0.71079000  0.02095000  1.0
  C  C262  1  0.90149000  0.21079000  0.47905000  1.0
  C  C263  1  0.59852000  0.78921000  0.97905000  1.0
  C  C264  1  0.51420000  0.70478000  0.48026000  1.0
  C  C265  1  0.98581000  0.29522000  0.98027000  1.0
  C  C266  1  0.01419000  0.79521000  0.51973000  1.0
  C  C267  1  0.48580000  0.20478000  0.01974000  1.0
  C  C268  1  0.48581000  0.29522000  0.51973000  1.0
  C  C269  1  0.01419000  0.70478000  0.01974000  1.0
  C  C270  1  0.98581000  0.20478000  0.48027000  1.0
  C  C271  1  0.51420000  0.79522000  0.98026000  1.0
  C  C272  1  0.46632000  0.76954000  0.46742000  1.0
  C  C273  1  0.03369000  0.23046000  0.96743000  1.0
  C  C274  1  0.96631000  0.73046000  0.53257000  1.0
  C  C275  1  0.53369000  0.26954000  0.03257000  1.0
  C  C276  1  0.53369000  0.23046000  0.53258000  1.0
  C  C277  1  0.96631000  0.76954000  0.03257000  1.0
  C  C278  1  0.03369000  0.26954000  0.46743000  1.0
  C  C279  1  0.46631000  0.73046000  0.96743000  1.0
  C  C280  1  0.64966000  0.64047000  0.49095000  1.0
  C  C281  1  0.85035000  0.35953000  0.99095000  1.0
  C  C282  1  0.14965000  0.85953000  0.50905000  1.0
  C  C283  1  0.35034000  0.14047000  0.00905000  1.0
  C  C284  1  0.35034000  0.35953000  0.50905000  1.0
  C  C285  1  0.14966000  0.64047000  0.00905000  1.0
  C  C286  1  0.85035000  0.14047000  0.49094000  1.0
  C  C287  1  0.64966000  0.85953000  0.99095000  1.0
  C  C288  1  0.27528000  0.99683000  0.64752000  1.0
  C  C289  1  0.22471000  0.00318000  0.14752000  1.0
  C  C290  1  0.77528000  0.50317000  0.35248000  1.0
  C  C291  1  0.72472000  0.49683000  0.85248000  1.0
  C  C292  1  0.72472000  0.00317000  0.35248000  1.0
  C  C293  1  0.77529000  0.99683000  0.85248000  1.0
  C  C294  1  0.22472000  0.49683000  0.64752000  1.0
  C  C295  1  0.27529000  0.50317000  0.14752000  1.0
  C  C296  1  0.27957000  0.03914000  0.71077000  1.0
  C  C297  1  0.22042000  0.96086000  0.21077000  1.0
  C  C298  1  0.77957000  0.46086000  0.28923000  1.0
  C  C299  1  0.72042000  0.53914000  0.78923000  1.0
  C  C300  1  0.72043000  0.96086000  0.28923000  1.0
  C  C301  1  0.77958000  0.03914000  0.78923000  1.0
  C  C302  1  0.22043000  0.53914000  0.71077000  1.0
  C  C303  1  0.27958000  0.46086000  0.21077000  1.0
  C  C304  1  0.21174000  0.10534000  0.62656000  1.0
  C  C305  1  0.28826000  0.89467000  0.12656000  1.0
  C  C306  1  0.71174000  0.39466000  0.37344000  1.0
  C  C307  1  0.78825000  0.60533000  0.87344000  1.0
  C  C308  1  0.78826000  0.89467000  0.37344000  1.0
  C  C309  1  0.71175000  0.10533000  0.87344000  1.0
  C  C310  1  0.28826000  0.60534000  0.62656000  1.0
  C  C311  1  0.21175000  0.39467000  0.12656000  1.0
  C  C312  1  0.22903000  0.17181000  0.74510000  1.0
  C  C313  1  0.27097000  0.82820000  0.24510000  1.0
  C  C314  1  0.72903000  0.32820000  0.25490000  1.0
  C  C315  1  0.77096000  0.67180000  0.75490000  1.0
  C  C316  1  0.77097000  0.82820000  0.25490000  1.0
  C  C317  1  0.72903000  0.17180000  0.75490000  1.0
  C  C318  1  0.27097000  0.67181000  0.74510000  1.0
  C  C319  1  0.22903000  0.32820000  0.24510000  1.0
  C  C320  1  0.21890000  0.24664000  0.71682000  1.0
  C  C321  1  0.28110000  0.75336000  0.21681000  1.0
  C  C322  1  0.71890000  0.25336000  0.28319000  1.0
  C  C323  1  0.78110000  0.74664000  0.78319000  1.0
  C  C324  1  0.78110000  0.75336000  0.28319000  1.0
  C  C325  1  0.71890000  0.24664000  0.78319000  1.0
  C  C326  1  0.28110000  0.74664000  0.71681000  1.0
  C  C327  1  0.21890000  0.25336000  0.21681000  1.0
  C  C328  1  0.20859000  0.30841000  0.76460000  1.0
  C  C329  1  0.29142000  0.69160000  0.26460000  1.0
  C  C330  1  0.70858000  0.19159000  0.23540000  1.0
  C  C331  1  0.79142000  0.80841000  0.73540000  1.0
  C  C332  1  0.79141000  0.69159000  0.23540000  1.0
  C  C333  1  0.70858000  0.30840000  0.73540000  1.0
  C  C334  1  0.29142000  0.80841000  0.76460000  1.0
  C  C335  1  0.20858000  0.19160000  0.26460000  1.0
  C  C336  1  0.20958000  0.29677000  0.84025000  1.0
  C  C337  1  0.29043000  0.70324000  0.34024000  1.0
  C  C338  1  0.70958000  0.20324000  0.15976000  1.0
  C  C339  1  0.79043000  0.79676000  0.65976000  1.0
  C  C340  1  0.79042000  0.70323000  0.15976000  1.0
  C  C341  1  0.70957000  0.29676000  0.65976000  1.0
  C  C342  1  0.29043000  0.79677000  0.84024000  1.0
  C  C343  1  0.20957000  0.20324000  0.34024000  1.0
  C  C344  1  0.22142000  0.22179000  0.86765000  1.0
  C  C345  1  0.27858000  0.77821000  0.36765000  1.0
  C  C346  1  0.72142000  0.27821000  0.13235000  1.0
  C  C347  1  0.77858000  0.72179000  0.63235000  1.0
  C  C348  1  0.77858000  0.77821000  0.13235000  1.0
  C  C349  1  0.72142000  0.22179000  0.63235000  1.0
  C  C350  1  0.27858000  0.72179000  0.86765000  1.0
  C  C351  1  0.22142000  0.27821000  0.36765000  1.0
  C  C352  1  0.23031000  0.15918000  0.82047000  1.0
  C  C353  1  0.26969000  0.84083000  0.32047000  1.0
  C  C354  1  0.73031000  0.34082000  0.17953000  1.0
  C  C355  1  0.76969000  0.65918000  0.67953000  1.0
  C  C356  1  0.76969000  0.84082000  0.17953000  1.0
  C  C357  1  0.73031000  0.15917000  0.67953000  1.0
  C  C358  1  0.26969000  0.65918000  0.82047000  1.0
  C  C359  1  0.23031000  0.34083000  0.32047000  1.0
  C  C360  1  0.19994000  0.36420000  0.89085000  1.0
  C  C361  1  0.30006000  0.63581000  0.39085000  1.0
  C  C362  1  0.69994000  0.13580000  0.10915000  1.0
  C  C363  1  0.80006000  0.86419000  0.60915000  1.0
  C  C364  1  0.80006000  0.63580000  0.10915000  1.0
  C  C365  1  0.69993000  0.36419000  0.60915000  1.0
  C  C366  1  0.30006000  0.86420000  0.89085000  1.0
  C  C367  1  0.19994000  0.13581000  0.39085000  1.0
  C  C368  1  0.56172000  0.73812000  0.72083000  1.0
  C  C369  1  0.93827000  0.26189000  0.22085000  1.0
  C  C370  1  0.06172000  0.76188000  0.27917000  1.0
  C  C371  1  0.43827000  0.23811000  0.77915000  1.0
  C  C372  1  0.43828000  0.26188000  0.27917000  1.0
  C  C373  1  0.06173000  0.73811000  0.77915000  1.0
  C  C374  1  0.93828000  0.23812000  0.72083000  1.0
  C  C375  1  0.56173000  0.76189000  0.22085000  1.0
  C  C376  1  0.51479000  0.66889000  0.75082000  1.0
  C  C377  1  0.98521000  0.33112000  0.25083000  1.0
  C  C378  1  0.01479000  0.83111000  0.24918000  1.0
  C  C379  1  0.48520000  0.16888000  0.74917000  1.0
  C  C380  1  0.48521000  0.33111000  0.24918000  1.0
  C  C381  1  0.01479000  0.66888000  0.74917000  1.0
  C  C382  1  0.98521000  0.16889000  0.75082000  1.0
  C  C383  1  0.51479000  0.83112000  0.25083000  1.0
  C  C384  1  0.50608000  0.85634000  0.78481000  1.0
  C  C385  1  0.99392000  0.14366000  0.28482000  1.0
  C  C386  1  0.00608000  0.64366000  0.21519000  1.0
  C  C387  1  0.49392000  0.35634000  0.71519000  1.0
  C  C388  1  0.49392000  0.14365000  0.21519000  1.0
  C  C389  1  0.00608000  0.85634000  0.71518000  1.0
  C  C390  1  0.99392000  0.35634000  0.78481000  1.0
  C  C391  1  0.50608000  0.64366000  0.28481000  1.0
  C  C392  1  0.57817000  0.90993000  0.79762000  1.0
  C  C393  1  0.92183000  0.09006000  0.29762000  1.0
  C  C394  1  0.07817000  0.59007000  0.20238000  1.0
  C  C395  1  0.42183000  0.40994000  0.70238000  1.0
  C  C396  1  0.42183000  0.09007000  0.20238000  1.0
  C  C397  1  0.07817000  0.90994000  0.70238000  1.0
  C  C398  1  0.92183000  0.40993000  0.79762000  1.0
  C  C399  1  0.57817000  0.59006000  0.29762000  1.0
  C  C400  1  0.47285000  0.82804000  0.65725000  1.0
  C  C401  1  0.02714000  0.17197000  0.15725000  1.0
  C  C402  1  0.97284000  0.67195000  0.34276000  1.0
  C  C403  1  0.52714000  0.32803000  0.84275000  1.0
  C  C404  1  0.52715000  0.17195000  0.34275000  1.0
  C  C405  1  0.97286000  0.82803000  0.84275000  1.0
  C  C406  1  0.02715000  0.32804000  0.65725000  1.0
  C  C407  1  0.47286000  0.67197000  0.15725000  1.0
  N  N408  1  0.34445000  0.98080000  0.45000000  1.0
  N  N409  1  0.15555000  0.01920000  0.95000000  1.0
  N  N410  1  0.84445000  0.51920000  0.55000000  1.0
  N  N411  1  0.65555000  0.48080000  0.05000000  1.0
  N  N412  1  0.65555000  0.01920000  0.55000000  1.0
  N  N413  1  0.84445000  0.98080000  0.05000000  1.0
  N  N414  1  0.15555000  0.48080000  0.45000000  1.0
  N  N415  1  0.34445000  0.51920000  0.95000000  1.0
  N  N416  1  0.45353000  0.90756000  0.44453000  1.0
  N  N417  1  0.04648000  0.09244000  0.94453000  1.0
  N  N418  1  0.95352000  0.59244000  0.55547000  1.0
  N  N419  1  0.54647000  0.40756000  0.05547000  1.0
  N  N420  1  0.54648000  0.09244000  0.55547000  1.0
  N  N421  1  0.95352000  0.90756000  0.05547000  1.0
  N  N422  1  0.04648000  0.40756000  0.44453000  1.0
  N  N423  1  0.45353000  0.59244000  0.94453000  1.0
  N  N424  1  0.23268000  0.03872000  0.59596000  1.0
  N  N425  1  0.26731000  0.96129000  0.09596000  1.0
  N  N426  1  0.73268000  0.46128000  0.40404000  1.0
  N  N427  1  0.76731000  0.53872000  0.90404000  1.0
  N  N428  1  0.76732000  0.96128000  0.40404000  1.0
  N  N429  1  0.73269000  0.03871000  0.90404000  1.0
  N  N430  1  0.26732000  0.53872000  0.59596000  1.0
  N  N431  1  0.23269000  0.46128000  0.09596000  1.0
  N  N432  1  0.23910000  0.10831000  0.69679000  1.0
  N  N433  1  0.26089000  0.89170000  0.19678000  1.0
  N  N434  1  0.73910000  0.39169000  0.30322000  1.0
  N  N435  1  0.76089000  0.60831000  0.80322000  1.0
  N  N436  1  0.76090000  0.89169000  0.30322000  1.0
  N  N437  1  0.73911000  0.10830000  0.80322000  1.0
  N  N438  1  0.26090000  0.60831000  0.69678000  1.0
  N  N439  1  0.23911000  0.39169000  0.19679000  1.0
  N  N440  1  0.51376000  0.80944000  0.71849000  1.0
  N  N441  1  0.98623000  0.19056000  0.21850000  1.0
  N  N442  1  0.01376000  0.69056000  0.28152000  1.0
  N  N443  1  0.48623000  0.30943000  0.78150000  1.0
  N  N444  1  0.48624000  0.19056000  0.28151000  1.0
  N  N445  1  0.01377000  0.80943000  0.78151000  1.0
  N  N446  1  0.98624000  0.30944000  0.71849000  1.0
  N  N447  1  0.51377000  0.69056000  0.21849000  1.0
  O  O448  1  0.61478000  0.58193000  0.52151000  1.0
  O  O449  1  0.88522000  0.41807000  0.02151000  1.0
  O  O450  1  0.11478000  0.91807000  0.47848000  1.0
  O  O451  1  0.38522000  0.08193000  0.97849000  1.0
  O  O452  1  0.38522000  0.41807000  0.47849000  1.0
  O  O453  1  0.11478000  0.58193000  0.97849000  1.0
  O  O454  1  0.88522000  0.08193000  0.52151000  1.0
  O  O455  1  0.61478000  0.91807000  0.02151000  1.0
  O  O456  1  0.72268000  0.64126000  0.47109000  1.0
  O  O457  1  0.77733000  0.35874000  0.97109000  1.0
  O  O458  1  0.22267000  0.85874000  0.52890000  1.0
  O  O459  1  0.27732000  0.14127000  0.02891000  1.0
  O  O460  1  0.27733000  0.35874000  0.52891000  1.0
  O  O461  1  0.22267000  0.64127000  0.02891000  1.0
  O  O462  1  0.77733000  0.14126000  0.47110000  1.0
  O  O463  1  0.72268000  0.85873000  0.97109000  1.0
  O  O464  1  0.19386000  0.35186000  0.95926000  1.0
  O  O465  1  0.30615000  0.64815000  0.45926000  1.0
  O  O466  1  0.69386000  0.14814000  0.04074000  1.0
  O  O467  1  0.80615000  0.85185000  0.54074000  1.0
  O  O468  1  0.80613000  0.64814000  0.04074000  1.0
  O  O469  1  0.69385000  0.35185000  0.54074000  1.0
  O  O470  1  0.30614000  0.85187000  0.95925000  1.0
  O  O471  1  0.19385000  0.14815000  0.45926000  1.0
  O  O472  1  0.20009000  0.43255000  0.86333000  1.0
  O  O473  1  0.29992000  0.56746000  0.36333000  1.0
  O  O474  1  0.70008000  0.06745000  0.13667000  1.0
  O  O475  1  0.79991000  0.93255000  0.63667000  1.0
  O  O476  1  0.79992000  0.56745000  0.13667000  1.0
  O  O477  1  0.70008000  0.43254000  0.63667000  1.0
  O  O478  1  0.29992000  0.93255000  0.86332000  1.0
  O  O479  1  0.20009000  0.06745000  0.36333000  1.0
  O  O480  1  0.42771000  0.88498000  0.64927000  1.0
  O  O481  1  0.07228000  0.11504000  0.14927000  1.0
  O  O482  1  0.92771000  0.61502000  0.35073000  1.0
  O  O483  1  0.57228000  0.38495000  0.85074000  1.0
  O  O484  1  0.57229000  0.11502000  0.35073000  1.0
  O  O485  1  0.92772000  0.88496000  0.85073000  1.0
  O  O486  1  0.07229000  0.38497000  0.64927000  1.0
  O  O487  1  0.42773000  0.61504000  0.14926000  1.0
