# generated using pymatgen
data_NiH20C20(N2O)4
_symmetry_space_group_name_H-M   'P 1'
_cell_length_a   8.02734000
_cell_length_b   11.31330000
_cell_length_c   12.21088135
_cell_angle_alpha   94.35706834
_cell_angle_beta   109.00654518
_cell_angle_gamma   99.11330000
_symmetry_Int_Tables_number   1
_chemical_formula_structural   NiH20C20(N2O)4
_chemical_formula_sum   'Ni2 H40 C40 N16 O8'
_cell_volume   1025.53795491
_cell_formula_units_Z   2
loop_
 _symmetry_equiv_pos_site_id
 _symmetry_equiv_pos_as_xyz
  1  'x, y, z'
loop_
 _atom_site_type_symbol
 _atom_site_label
 _atom_site_symmetry_multiplicity
 _atom_site_fract_x
 _atom_site_fract_y
 _atom_site_fract_z
 _atom_site_occupancy
  Ni  Ni0  1  0.00000000  0.00000000  0.00000000  1.0
  Ni  Ni1  1  0.00000000  0.50000000  0.50001000  1.0
  H  H2  1  0.68692000  0.16202000  0.44045000  1.0
  H  H3  1  0.31308000  0.83798000  0.55954000  1.0
  H  H4  1  0.18283000  0.92296000  0.37517000  1.0
  H  H5  1  0.81717000  0.07704000  0.62482000  1.0
  H  H6  1  0.80090000  0.17379000  0.08888000  1.0
  H  H7  1  0.19911000  0.82621000  0.91112000  1.0
  H  H8  1  0.76387000  0.80787000  0.09755000  1.0
  H  H9  1  0.23613000  0.19213000  0.90245000  1.0
  H  H10  1  0.54247000  0.88362000  0.20711000  1.0
  H  H11  1  0.45753000  0.11638000  0.79289000  1.0
  H  H12  1  0.57681000  0.12828000  0.18872000  1.0
  H  H13  1  0.42319000  0.87172000  0.81128000  1.0
  H  H14  1  0.24594000  0.22886000  0.15178000  1.0
  H  H15  1  0.75406000  0.77113000  0.84822000  1.0
  H  H16  1  0.81589000  0.17261000  0.83890000  1.0
  H  H17  1  0.18412000  0.82740000  0.16110000  1.0
  H  H18  1  0.96394000  0.41889000  0.88207000  1.0
  H  H19  1  0.03609000  0.58112000  0.11794000  1.0
  H  H20  1  0.24625000  0.44058000  0.08972000  1.0
  H  H21  1  0.75379000  0.55942000  0.91030000  1.0
  H  H22  1  0.62607000  0.61722000  0.19814000  1.0
  H  H23  1  0.37392000  0.38279000  0.80186000  1.0
  H  H24  1  0.58921000  0.30326000  0.96529000  1.0
  H  H25  1  0.41079000  0.69675000  0.03471000  1.0
  H  H26  1  0.06538000  0.70535000  0.69320000  1.0
  H  H27  1  0.93462000  0.29464000  0.30682000  1.0
  H  H28  1  0.88913000  0.68777000  0.33300000  1.0
  H  H29  1  0.11088000  0.31222000  0.66701000  1.0
  H  H30  1  0.84976000  0.91196000  0.42014000  1.0
  H  H31  1  0.15024000  0.08803000  0.57986000  1.0
  H  H32  1  0.96602000  0.90821000  0.66004000  1.0
  H  H33  1  0.03397000  0.09179000  0.33997000  1.0
  H  H34  1  0.63139000  0.36063000  0.39546000  1.0
  H  H35  1  0.36861000  0.63936000  0.60454000  1.0
  H  H36  1  0.88785000  0.54806000  0.72402000  1.0
  H  H37  1  0.11215000  0.45194000  0.27599000  1.0
  H  H38  1  0.55050000  0.43727000  0.71645000  1.0
  H  H39  1  0.44949000  0.56273000  0.28355000  1.0
  H  H40  1  0.40022000  0.30698000  0.49461000  1.0
  H  H41  1  0.59978000  0.69302000  0.50539000  1.0
  C  C42  1  0.33535000  0.09972000  0.28605000  1.0
  C  C43  1  0.66464000  0.90028000  0.71394000  1.0
  C  C44  1  0.42471000  0.04876000  0.39625000  1.0
  C  C45  1  0.57528000  0.95123000  0.60374000  1.0
  C  C46  1  0.60446000  0.09157000  0.46658000  1.0
  C  C47  1  0.39554000  0.90842000  0.53341000  1.0
  C  C48  1  0.32214000  0.95626000  0.43072000  1.0
  C  C49  1  0.67786000  0.04373000  0.56928000  1.0
  C  C50  1  0.73626000  0.89750000  0.10982000  1.0
  C  C51  1  0.26375000  0.10250000  0.89018000  1.0
  C  C52  1  0.62338000  0.93681000  0.16576000  1.0
  C  C53  1  0.37662000  0.06319000  0.83424000  1.0
  C  C54  1  0.63796000  0.05971000  0.15789000  1.0
  C  C55  1  0.36204000  0.94030000  0.84211000  1.0
  C  C56  1  0.92513000  0.22578000  0.91264000  1.0
  C  C57  1  0.07488000  0.77423000  0.08736000  1.0
  C  C58  1  0.00389000  0.34883000  0.93497000  1.0
  C  C59  1  0.99613000  0.65118000  0.06503000  1.0
  C  C60  1  0.14656000  0.36203000  0.04017000  1.0
  C  C61  1  0.85347000  0.63796000  0.95984000  1.0
  C  C62  1  0.74153000  0.40893000  0.19439000  1.0
  C  C63  1  0.25846000  0.59107000  0.80561000  1.0
  C  C64  1  0.61904000  0.45531000  0.09223000  1.0
  C  C65  1  0.38096000  0.54470000  0.90777000  1.0
  C  C66  1  0.56893000  0.56638000  0.11064000  1.0
  C  C67  1  0.43107000  0.43363000  0.88936000  1.0
  C  C68  1  0.54982000  0.38927000  0.98017000  1.0
  C  C69  1  0.45018000  0.61074000  0.01983000  1.0
  C  C70  1  0.91760000  0.72756000  0.42232000  1.0
  C  C71  1  0.08242000  0.27244000  0.57770000  1.0
  C  C72  1  0.89890000  0.84043000  0.46795000  1.0
  C  C73  1  0.10111000  0.15956000  0.53206000  1.0
  C  C74  1  0.95716000  0.84116000  0.58879000  1.0
  C  C75  1  0.04283000  0.15883000  0.41122000  1.0
  C  C76  1  0.78097000  0.48809000  0.65382000  1.0
  C  C77  1  0.21902000  0.51190000  0.34618000  1.0
  C  C78  1  0.61086000  0.42925000  0.64956000  1.0
  C  C79  1  0.38913000  0.57074000  0.35044000  1.0
  C  C80  1  0.53075000  0.36460000  0.53797000  1.0
  C  C81  1  0.46925000  0.63539000  0.46203000  1.0
  N  N82  1  0.81498000  0.99067000  0.06959000  1.0
  N  N83  1  0.18502000  0.00933000  0.93040000  1.0
  N  N84  1  0.75265000  0.08783000  0.10000000  1.0
  N  N85  1  0.24735000  0.91217000  0.90000000  1.0
  N  N86  1  0.01513000  0.16867000  0.99975000  1.0
  N  N87  1  0.98487000  0.83134000  0.00025000  1.0
  N  N88  1  0.14999000  0.25273000  0.07673000  1.0
  N  N89  1  0.85001000  0.74727000  0.92327000  1.0
  N  N90  1  0.98146000  0.66383000  0.51030000  1.0
  N  N91  1  0.01855000  0.33616000  0.48971000  1.0
  N  N92  1  0.00483000  0.73379000  0.61086000  1.0
  N  N93  1  0.99517000  0.26621000  0.38915000  1.0
  N  N94  1  0.80180000  0.46076000  0.55039000  1.0
  N  N95  1  0.19820000  0.53923000  0.44961000  1.0
  N  N96  1  0.64934000  0.38556000  0.48172000  1.0
  N  N97  1  0.35066000  0.61443000  0.51829000  1.0
  O  O98  1  0.19205000  0.03512000  0.21501000  1.0
  O  O99  1  0.80795000  0.96488000  0.78499000  1.0
  O  O100  1  0.40572000  0.20488000  0.27096000  1.0
  O  O101  1  0.59427000  0.79512000  0.72903000  1.0
  O  O102  1  0.74731000  0.45054000  0.29473000  1.0
  O  O103  1  0.25268000  0.54947000  0.70526000  1.0
  O  O104  1  0.83320000  0.33167000  0.17464000  1.0
  O  O105  1  0.16680000  0.66834000  0.82536000  1.0
