# generated using pymatgen
data_CdH14C20N4(O3F2)2
_symmetry_space_group_name_H-M   'P 1'
_cell_length_a   7.80475000
_cell_length_b   8.29709000
_cell_length_c   8.95232000
_cell_angle_alpha   78.64880000
_cell_angle_beta   66.58030000
_cell_angle_gamma   83.56040000
_symmetry_Int_Tables_number   1
_chemical_formula_structural   CdH14C20N4(O3F2)2
_chemical_formula_sum   'Cd1 H14 C20 N4 O6 F4'
_cell_volume   521.18748256
_cell_formula_units_Z   1
loop_
 _symmetry_equiv_pos_site_id
 _symmetry_equiv_pos_as_xyz
  1  'x, y, z'
loop_
 _atom_site_type_symbol
 _atom_site_label
 _atom_site_symmetry_multiplicity
 _atom_site_fract_x
 _atom_site_fract_y
 _atom_site_fract_z
 _atom_site_occupancy
  Cd  Cd0  1  0.00000000  0.00000000  0.50000000  1.0
  H  H1  1  0.01522000  0.15074000  0.17770000  1.0
  H  H2  1  0.98479000  0.84927000  0.82230000  1.0
  H  H3  1  0.05214000  0.27412000  0.28110000  1.0
  H  H4  1  0.94786000  0.72589000  0.71889000  1.0
  H  H5  1  0.76191000  0.05269000  0.21204000  1.0
  H  H6  1  0.23809000  0.94730000  0.78796000  1.0
  H  H7  1  0.40221000  0.62654000  0.03220000  1.0
  H  H8  1  0.59780000  0.37346000  0.96780000  1.0
  H  H9  1  0.44131000  0.02697000  0.35269000  1.0
  H  H10  1  0.55869000  0.97304000  0.64731000  1.0
  H  H11  1  0.12186000  0.72835000  0.25395000  1.0
  H  H12  1  0.87814000  0.27164000  0.74605000  1.0
  H  H13  1  0.71324000  0.73800000  0.96217000  1.0
  H  H14  1  0.28676000  0.26200000  0.03783000  1.0
  C  C15  1  0.37813000  0.40727000  0.46908000  1.0
  C  C16  1  0.62186000  0.59274000  0.53092000  1.0
  C  C17  1  0.55872000  0.44056000  0.35399000  1.0
  C  C18  1  0.44128000  0.55945000  0.64601000  1.0
  C  C19  1  0.77238000  0.97291000  0.12443000  1.0
  C  C20  1  0.22762000  0.02709000  0.87557000  1.0
  C  C21  1  0.41732000  0.71774000  0.09761000  1.0
  C  C22  1  0.58269000  0.28225000  0.90239000  1.0
  C  C23  1  0.43851000  0.93996000  0.27687000  1.0
  C  C24  1  0.56149000  0.06004000  0.72313000  1.0
  C  C25  1  0.60313000  0.89455000  0.15122000  1.0
  C  C26  1  0.39687000  0.10545000  0.84878000  1.0
  C  C27  1  0.26022000  0.77296000  0.22233000  1.0
  C  C28  1  0.73978000  0.22704000  0.77767000  1.0
  C  C29  1  0.67758000  0.53236000  0.38306000  1.0
  C  C30  1  0.32242000  0.46764000  0.61695000  1.0
  C  C31  1  0.59027000  0.77978000  0.05986000  1.0
  C  C32  1  0.40973000  0.22023000  0.94014000  1.0
  C  C33  1  0.24663000  0.31296000  0.43337000  1.0
  C  C34  1  0.75336000  0.68704000  0.56663000  1.0
  N  N35  1  0.92895000  0.95550000  0.00139000  1.0
  N  N36  1  0.07105000  0.04450000  0.99861000  1.0
  N  N37  1  0.27102000  0.88306000  0.31009000  1.0
  N  N38  1  0.72898000  0.11694000  0.68991000  1.0
  O  O39  1  0.18930000  0.17979000  0.53359000  1.0
  O  O40  1  0.81069000  0.82021000  0.46641000  1.0
  O  O41  1  0.20818000  0.37415000  0.30959000  1.0
  O  O42  1  0.79182000  0.62585000  0.69041000  1.0
  O  O43  1  0.96419000  0.19202000  0.28506000  1.0
  O  O44  1  0.03581000  0.80799000  0.71493000  1.0
  F  F45  1  0.85028000  0.56247000  0.26478000  1.0
  F  F46  1  0.14971000  0.43752000  0.73522000  1.0
  F  F47  1  0.62221000  0.38181000  0.20928000  1.0
  F  F48  1  0.37778000  0.61818000  0.79073000  1.0
