# generated using pymatgen
data_Dy2NiH14C12(NO9)2
_symmetry_space_group_name_H-M   'P 1'
_cell_length_a   6.98069000
_cell_length_b   8.20310000
_cell_length_c   9.17401000
_cell_angle_alpha   84.85790000
_cell_angle_beta   89.04710000
_cell_angle_gamma   83.99830000
_symmetry_Int_Tables_number   1
_chemical_formula_structural   Dy2NiH14C12(NO9)2
_chemical_formula_sum   'Dy2 Ni1 H14 C12 N2 O18'
_cell_volume   520.33800065
_cell_formula_units_Z   1
loop_
 _symmetry_equiv_pos_site_id
 _symmetry_equiv_pos_as_xyz
  1  'x, y, z'
loop_
 _atom_site_type_symbol
 _atom_site_label
 _atom_site_symmetry_multiplicity
 _atom_site_fract_x
 _atom_site_fract_y
 _atom_site_fract_z
 _atom_site_occupancy
  Dy  Dy0  1  0.70135000  0.61588000  0.75339000  1.0
  Dy  Dy1  1  0.29866000  0.38412000  0.24661000  1.0
  Ni  Ni2  1  1.00000000  0.00001000  0.00000000  1.0
  H  H3  1  0.99056000  0.10857000  0.58039000  1.0
  H  H4  1  0.00944000  0.89145000  0.41961000  1.0
  H  H5  1  0.80003000  0.15647000  0.70283000  1.0
  H  H6  1  0.19996000  0.84357000  0.29720000  1.0
  H  H7  1  0.06698000  0.22048000  0.80765000  1.0
  H  H8  1  0.93306000  0.77952000  0.19236000  1.0
  H  H9  1  0.36744000  0.12490000  0.76438000  1.0
  H  H10  1  0.63258000  0.87506000  0.23560000  1.0
  H  H11  1  0.28013000  0.97840000  0.66039000  1.0
  H  H12  1  0.71983000  0.02156000  0.33963000  1.0
  H  H13  1  0.43177000  0.38513000  0.87730000  1.0
  H  H14  1  0.56825000  0.61487000  0.12271000  1.0
  H  H15  1  0.63853000  0.28567000  0.89245000  1.0
  H  H16  1  0.36148000  0.71433000  0.10755000  1.0
  C  C17  1  0.93102000  0.07275000  0.68881000  1.0
  C  C18  1  0.06896000  0.92728000  0.31118000  1.0
  C  C19  1  0.87465000  0.89936000  0.69552000  1.0
  C  C20  1  0.12533000  0.10066000  0.30448000  1.0
  C  C21  1  0.27049000  0.02695000  0.76830000  1.0
  C  C22  1  0.72950000  0.97304000  0.23170000  1.0
  C  C23  1  0.34405000  0.89355000  0.88289000  1.0
  C  C24  1  0.65593000  0.10643000  0.11712000  1.0
  C  C25  1  0.93302000  0.53811000  0.05842000  1.0
  C  C26  1  0.06702000  0.46192000  0.94157000  1.0
  C  C27  1  0.59642000  0.45075000  0.47834000  1.0
  C  C28  1  0.40358000  0.54924000  0.52166000  1.0
  N  N29  1  0.07062000  0.09465000  0.80346000  1.0
  N  N30  1  0.92938000  0.90535000  0.19654000  1.0
  O  O31  1  0.92876000  0.79821000  0.80456000  1.0
  O  O32  1  0.07124000  0.20182000  0.19542000  1.0
  O  O33  1  0.76818000  0.85911000  0.59589000  1.0
  O  O34  1  0.23177000  0.14088000  0.40411000  1.0
  O  O35  1  0.50055000  0.80740000  0.86700000  1.0
  O  O36  1  0.49943000  0.19258000  0.13300000  1.0
  O  O37  1  0.24125000  0.87523000  0.00116000  1.0
  O  O38  1  0.75874000  0.12475000  0.99884000  1.0
  O  O39  1  0.76043000  0.57974000  0.01969000  1.0
  O  O40  1  0.23959000  0.42027000  0.98029000  1.0
  O  O41  1  0.00567000  0.55623000  0.18092000  1.0
  O  O42  1  0.99434000  0.44378000  0.81907000  1.0
  O  O43  1  0.74507000  0.47017000  0.54965000  1.0
  O  O44  1  0.25493000  0.52982000  0.45035000  1.0
  O  O45  1  0.58846000  0.35856000  0.37558000  1.0
  O  O46  1  0.41154000  0.64142000  0.62443000  1.0
  O  O47  1  0.56099000  0.37111000  0.82820000  1.0
  O  O48  1  0.43904000  0.62889000  0.17181000  1.0
