# generated using pymatgen
data_Zn4H33C42N3O13
_symmetry_space_group_name_H-M   'P 1'
_cell_length_a   20.56830000
_cell_length_b   20.58240000
_cell_length_c   21.13840000
_cell_angle_alpha   62.47460000
_cell_angle_beta   62.77200000
_cell_angle_gamma   61.90700000
_symmetry_Int_Tables_number   1
_chemical_formula_structural   Zn4H33C42N3O13
_chemical_formula_sum   'Zn8 H66 C84 N6 O26'
_cell_volume   6663.60131260
_cell_formula_units_Z   2
loop_
 _symmetry_equiv_pos_site_id
 _symmetry_equiv_pos_as_xyz
  1  'x, y, z'
loop_
 _atom_site_type_symbol
 _atom_site_label
 _atom_site_symmetry_multiplicity
 _atom_site_fract_x
 _atom_site_fract_y
 _atom_site_fract_z
 _atom_site_occupancy
  Zn  Zn0  1  0.10998000  0.95535000  0.92163000  1.0
  Zn  Zn1  1  0.95188000  0.95338000  0.93221000  1.0
  Zn  Zn2  1  0.95907000  0.10403000  0.93635000  1.0
  Zn  Zn3  1  0.97205000  0.95201000  0.07592000  1.0
  Zn  Zn4  1  0.38654000  0.52117000  0.50053000  1.0
  Zn  Zn5  1  0.53433000  0.53116000  0.50668000  1.0
  Zn  Zn6  1  0.53550000  0.52576000  0.35783000  1.0
  Zn  Zn7  1  0.53948000  0.37631000  0.50165000  1.0
  H  H8  1  0.10100000  0.86992000  0.73790000  1.0
  H  H9  1  0.14633000  0.74796000  0.83834000  1.0
  H  H10  1  0.20955000  0.62671000  0.82200000  1.0
  H  H11  1  0.29131000  0.55128000  0.73209000  1.0
  H  H12  1  0.34604000  0.75324000  0.56058000  1.0
  H  H13  1  0.21939000  0.88516000  0.59535000  1.0
  H  H14  1  0.36723000  0.86860000  0.54974000  1.0
  H  H15  1  0.38579000  0.90773000  0.63955000  1.0
  H  H16  1  0.24912000  0.94634000  0.73891000  1.0
  H  H17  1  0.28319000  0.84406000  0.76765000  1.0
  H  H18  1  0.17289000  0.95764000  0.67461000  1.0
  H  H19  1  0.12930000  0.21905000  0.84202000  1.0
  H  H20  1  0.17104000  0.16966000  0.73307000  1.0
  H  H21  1  0.21946000  0.24913000  0.61630000  1.0
  H  H22  1  0.29611000  0.33962000  0.53939000  1.0
  H  H23  1  0.37224000  0.27361000  0.72542000  1.0
  H  H24  1  0.26609000  0.22446000  0.85611000  1.0
  H  H25  1  0.41207000  0.13505000  0.82538000  1.0
  H  H26  1  0.40802000  0.99451000  0.88287000  1.0
  H  H27  1  0.25972000  0.00602000  0.94003000  1.0
  H  H28  1  0.28545000  0.02436000  0.84294000  1.0
  H  H29  1  0.19864000  0.13842000  0.93089000  1.0
  H  H30  1  0.15820000  0.74481000  0.15549000  1.0
  H  H31  1  0.15438000  0.86061000  0.17197000  1.0
  H  H32  1  0.19495000  0.84214000  0.26777000  1.0
  H  H33  1  0.26906000  0.74635000  0.35822000  1.0
  H  H34  1  0.39113000  0.59541000  0.22298000  1.0
  H  H35  1  0.30928000  0.62374000  0.13762000  1.0
  H  H36  1  0.45029000  0.63203000  0.07590000  1.0
  H  H37  1  0.44839000  0.74716000  0.95199000  1.0
  H  H38  1  0.30514000  0.80585000  0.94562000  1.0
  H  H39  1  0.30457000  0.84473000  0.00476000  1.0
  H  H40  1  0.25158000  0.71178000  0.04495000  1.0
  H  H41  1  0.86034000  0.21229000  0.75345000  1.0
  H  H42  1  0.73876000  0.18281000  0.85840000  1.0
  H  H43  1  0.62397000  0.27370000  0.83243000  1.0
  H  H44  1  0.55934000  0.36750000  0.73412000  1.0
  H  H45  1  0.75440000  0.26666000  0.57062000  1.0
  H  H46  1  0.88231000  0.19638000  0.60970000  1.0
  H  H47  1  0.82946000  0.11214000  0.59358000  1.0
  H  H48  1  0.86866000  0.97570000  0.68933000  1.0
  H  H49  1  0.93752000  0.98681000  0.76229000  1.0
  H  H50  1  0.83679000  0.02222000  0.80462000  1.0
  H  H51  1  0.94787000  0.11205000  0.69625000  1.0
  H  H52  1  0.76730000  0.87993000  0.18578000  1.0
  H  H53  1  0.87484000  0.75402000  0.16987000  1.0
  H  H54  1  0.85581000  0.64053000  0.25998000  1.0
  H  H55  1  0.76173000  0.57004000  0.35164000  1.0
  H  H56  1  0.58585000  0.75183000  0.25226000  1.0
  H  H57  1  0.61910000  0.88823000  0.18839000  1.0
  H  H58  1  0.58749000  0.83734000  0.11566000  1.0
  H  H59  1  0.67913000  0.86956000  0.97932000  1.0
  H  H60  1  0.76654000  0.93360000  0.97620000  1.0
  H  H61  1  0.80764000  0.83249000  0.01448000  1.0
  H  H62  1  0.70176000  0.95442000  0.09364000  1.0
  H  H63  1  0.87916000  0.11945000  0.18977000  1.0
  H  H64  1  0.75577000  0.15093000  0.16386000  1.0
  H  H65  1  0.64006000  0.19621000  0.25036000  1.0
  H  H66  1  0.56872000  0.27194000  0.34007000  1.0
  H  H67  1  0.75615000  0.35989000  0.25031000  1.0
  H  H68  1  0.89085000  0.25567000  0.19187000  1.0
  H  H69  1  0.84543000  0.40378000  0.11478000  1.0
  H  H70  1  0.87986000  0.40834000  0.97860000  1.0
  H  H71  1  0.94137000  0.26217000  0.97892000  1.0
  H  H72  1  0.84001000  0.28285000  0.01514000  1.0
  H  H73  1  0.95902000  0.19760000  0.09870000  1.0
  C  C74  1  0.09984000  0.89199000  0.82743000  1.0
  C  C75  1  0.14445000  0.85853000  0.76211000  1.0
  C  C76  1  0.22803000  0.73420000  0.74059000  1.0
  C  C77  1  0.23881000  0.65467000  0.76406000  1.0
  C  C78  1  0.28494000  0.61224000  0.71435000  1.0
  C  C79  1  0.32497000  0.64756000  0.64093000  1.0
  C  C80  1  0.31495000  0.72629000  0.61798000  1.0
  C  C81  1  0.26477000  0.77124000  0.66565000  1.0
  C  C82  1  0.25061000  0.85817000  0.63680000  1.0
  C  C83  1  0.32555000  0.87587000  0.60331000  1.0
  C  C84  1  0.33495000  0.89576000  0.64975000  1.0
  C  C85  1  0.26789000  0.89633000  0.72091000  1.0
  C  C86  1  0.20474000  0.89670000  0.69989000  1.0
  C  C87  1  0.37650000  0.60209000  0.58778000  1.0
  C  C88  1  0.11587000  0.11102000  0.87339000  1.0
  C  C89  1  0.16775000  0.16077000  0.83696000  1.0
  C  C90  1  0.24999000  0.21318000  0.71545000  1.0
  C  C91  1  0.25289000  0.25510000  0.64009000  1.0
  C  C92  1  0.29588000  0.30499000  0.59701000  1.0
  C  C93  1  0.34014000  0.31079000  0.62747000  1.0
  C  C94  1  0.33788000  0.26821000  0.70228000  1.0
  C  C95  1  0.29123000  0.22130000  0.74792000  1.0
  C  C96  1  0.28527000  0.17967000  0.83062000  1.0
  C  C97  1  0.36147000  0.11924000  0.84230000  1.0
  C  C98  1  0.35921000  0.04694000  0.87166000  1.0
  C  C99  1  0.28182000  0.04502000  0.88454000  1.0
  C  C100  1  0.22920000  0.13078000  0.87508000  1.0
  C  C101  1  0.38783000  0.36268000  0.57994000  1.0
  C  C102  1  0.13229000  0.85074000  0.06915000  1.0
  C  C103  1  0.18879000  0.78670000  0.11231000  1.0
  C  C104  1  0.24811000  0.77024000  0.19660000  1.0
  C  C105  1  0.23748000  0.78723000  0.25873000  1.0
  C  C106  1  0.27891000  0.73436000  0.30888000  1.0
  C  C107  1  0.33457000  0.66467000  0.29606000  1.0
  C  C108  1  0.34707000  0.64945000  0.23260000  1.0
  C  C109  1  0.30375000  0.70018000  0.18324000  1.0
  C  C110  1  0.31789000  0.68013000  0.11608000  1.0
  C  C111  1  0.39852000  0.67677000  0.06163000  1.0
  C  C112  1  0.39722000  0.73639000  0.99817000  1.0
  C  C113  1  0.31622000  0.78989000  0.99791000  1.0
  C  C114  1  0.26526000  0.74248000  0.06582000  1.0
  C  C115  1  0.37977000  0.60733000  0.34875000  1.0
  C  C116  1  0.88355000  0.11185000  0.84568000  1.0
  C  C117  1  0.84912000  0.15643000  0.78103000  1.0
  C  C118  1  0.72771000  0.21988000  0.75576000  1.0
  C  C119  1  0.65275000  0.27280000  0.77458000  1.0
  C  C120  1  0.61642000  0.32487000  0.72010000  1.0
  C  C121  1  0.65300000  0.32242000  0.64627000  1.0
  C  C122  1  0.72677000  0.26829000  0.62818000  1.0
  C  C123  1  0.76587000  0.21825000  0.68119000  1.0
  C  C124  1  0.84716000  0.16211000  0.65892000  1.0
  C  C125  1  0.84729000  0.09898000  0.64062000  1.0
  C  C126  1  0.86710000  0.02895000  0.69031000  1.0
  C  C127  1  0.88355000  0.03157000  0.75131000  1.0
  C  C128  1  0.88688000  0.11462000  0.72214000  1.0
  C  C129  1  0.61385000  0.37573000  0.58782000  1.0
  C  C130  1  0.86132000  0.89296000  0.08581000  1.0
  C  C131  1  0.79360000  0.86150000  0.13536000  1.0
  C  C132  1  0.77248000  0.73784000  0.20668000  1.0
  C  C133  1  0.79605000  0.66509000  0.25908000  1.0
  C  C134  1  0.74405000  0.62547000  0.30982000  1.0
  C  C135  1  0.66825000  0.65626000  0.30648000  1.0
  C  C136  1  0.64511000  0.72851000  0.25401000  1.0
  C  C137  1  0.69513000  0.77147000  0.20559000  1.0
  C  C138  1  0.66658000  0.85247000  0.15299000  1.0
  C  C139  1  0.63887000  0.85227000  0.09782000  1.0
  C  C140  1  0.68641000  0.86861000  0.02773000  1.0
  C  C141  1  0.75446000  0.88233000  0.02291000  1.0
  C  C142  1  0.73003000  0.89206000  0.09991000  1.0
  C  C143  1  0.61392000  0.61153000  0.35676000  1.0
  C  C144  1  0.90000000  0.10674000  0.08761000  1.0
  C  C145  1  0.86406000  0.15765000  0.13732000  1.0
  C  C146  1  0.74023000  0.23275000  0.20191000  1.0
  C  C147  1  0.66559000  0.23197000  0.25086000  1.0
  C  C148  1  0.62548000  0.27439000  0.30054000  1.0
  C  C149  1  0.65772000  0.32182000  0.29943000  1.0
  C  C150  1  0.73161000  0.32308000  0.25022000  1.0
  C  C151  1  0.77483000  0.27718000  0.20312000  1.0
  C  C152  1  0.85717000  0.27591000  0.15412000  1.0
  C  C153  1  0.85998000  0.35482000  0.09774000  1.0
  C  C154  1  0.87744000  0.35690000  0.02776000  1.0
  C  C155  1  0.88990000  0.28031000  0.02431000  1.0
  C  C156  1  0.89723000  0.22398000  0.10261000  1.0
  C  C157  1  0.61404000  0.36992000  0.35016000  1.0
  N  N158  1  0.18197000  0.77526000  0.79206000  1.0
  N  N159  1  0.20606000  0.16374000  0.75849000  1.0
  N  N160  1  0.20326000  0.82226000  0.14864000  1.0
  N  N161  1  0.76576000  0.16952000  0.80977000  1.0
  N  N162  1  0.82558000  0.77679000  0.15576000  1.0
  N  N163  1  0.78020000  0.18966000  0.15239000  1.0
  O  O164  1  0.99814000  0.99008000  0.96649000  1.0
  O  O165  1  0.02612000  0.90924000  0.85024000  1.0
  O  O166  1  0.13931000  0.89862000  0.85445000  1.0
  O  O167  1  0.44232000  0.61172000  0.54711000  1.0
  O  O168  1  0.35067000  0.55683000  0.58695000  1.0
  O  O169  1  0.04529000  0.14076000  0.90832000  1.0
  O  O170  1  0.14676000  0.04455000  0.86436000  1.0
  O  O171  1  0.45571000  0.33787000  0.58529000  1.0
  O  O172  1  0.35747000  0.42826000  0.53636000  1.0
  O  O173  1  0.06138000  0.87007000  0.10912000  1.0
  O  O174  1  0.15961000  0.87988000  0.99905000  1.0
  O  O175  1  0.44727000  0.56324000  0.32168000  1.0
  O  O176  1  0.34796000  0.60565000  0.41749000  1.0
  O  O177  1  0.92020000  0.14395000  0.85127000  1.0
  O  O178  1  0.87346000  0.04709000  0.88908000  1.0
  O  O179  1  0.62416000  0.34802000  0.53939000  1.0
  O  O180  1  0.57281000  0.44504000  0.59003000  1.0
  O  O181  1  0.88054000  0.91920000  0.11655000  1.0
  O  O182  1  0.89454000  0.88806000  0.01974000  1.0
  O  O183  1  0.57001000  0.61329000  0.32788000  1.0
  O  O184  1  0.61555000  0.57425000  0.42444000  1.0
  O  O185  1  0.94274000  0.03754000  0.11263000  1.0
  O  O186  1  0.88508000  0.13606000  0.02587000  1.0
  O  O187  1  0.61923000  0.43790000  0.32368000  1.0
  O  O188  1  0.57439000  0.33978000  0.41650000  1.0
  O  O189  1  0.49923000  0.48917000  0.46670000  1.0
