# generated using pymatgen
data_CuH9(C5N)3
_symmetry_space_group_name_H-M   'P 1'
_cell_length_a   7.97139000
_cell_length_b   8.09684000
_cell_length_c   10.18740000
_cell_angle_alpha   110.67200000
_cell_angle_beta   96.51470000
_cell_angle_gamma   99.57630000
_symmetry_Int_Tables_number   1
_chemical_formula_structural   CuH9(C5N)3
_chemical_formula_sum   'Cu2 H18 C30 N6'
_cell_volume   595.96075923
_cell_formula_units_Z   2
loop_
 _symmetry_equiv_pos_site_id
 _symmetry_equiv_pos_as_xyz
  1  'x, y, z'
loop_
 _atom_site_type_symbol
 _atom_site_label
 _atom_site_symmetry_multiplicity
 _atom_site_fract_x
 _atom_site_fract_y
 _atom_site_fract_z
 _atom_site_occupancy
  Cu  Cu0  1  0.10900000  0.18866000  0.51228000  1.0
  Cu  Cu1  1  0.89101000  0.81134000  0.48771000  1.0
  H  H2  1  0.35993000  0.51503000  0.70389000  1.0
  H  H3  1  0.64006000  0.48497000  0.29611000  1.0
  H  H4  1  0.78784000  0.00566000  0.12413000  1.0
  H  H5  1  0.21217000  0.99435000  0.87586000  1.0
  H  H6  1  0.41482000  0.72801000  0.21740000  1.0
  H  H7  1  0.58516000  0.27198000  0.78261000  1.0
  H  H8  1  0.45209000  0.69268000  0.96424000  1.0
  H  H9  1  0.54790000  0.30732000  0.03577000  1.0
  H  H10  1  0.26860000  0.08607000  0.13655000  1.0
  H  H11  1  0.73141000  0.91393000  0.86345000  1.0
  H  H12  1  0.98308000  0.14308000  0.76523000  1.0
  H  H13  1  0.01692000  0.85692000  0.23476000  1.0
  H  H14  1  0.93860000  0.17060000  0.01067000  1.0
  H  H15  1  0.06138000  0.82939000  0.98932000  1.0
  H  H16  1  0.26526000  0.60647000  0.37576000  1.0
  H  H17  1  0.73473000  0.39352000  0.62425000  1.0
  H  H18  1  0.02821000  0.33008000  0.27400000  1.0
  H  H19  1  0.97177000  0.66991000  0.72599000  1.0
  C  C20  1  0.29717000  0.47458000  0.78085000  1.0
  C  C21  1  0.70283000  0.52543000  0.21915000  1.0
  C  C22  1  0.43230000  0.13909000  0.38262000  1.0
  C  C23  1  0.56771000  0.86091000  0.61738000  1.0
  C  C24  1  0.66106000  0.00409000  0.07031000  1.0
  C  C25  1  0.33896000  0.99592000  0.92969000  1.0
  C  C26  1  0.31204000  0.60536000  0.17257000  1.0
  C  C27  1  0.68795000  0.39464000  0.82744000  1.0
  C  C28  1  0.73355000  0.13260000  0.37914000  1.0
  C  C29  1  0.26647000  0.86741000  0.62085000  1.0
  C  C30  1  0.34745000  0.57243000  0.92498000  1.0
  C  C31  1  0.65254000  0.42757000  0.07503000  1.0
  C  C32  1  0.56684000  0.10766000  0.30789000  1.0
  C  C33  1  0.43317000  0.89234000  0.69211000  1.0
  C  C34  1  0.37030000  0.04600000  0.07710000  1.0
  C  C35  1  0.62972000  0.95400000  0.92289000  1.0
  C  C36  1  0.13023000  0.35443000  0.96375000  1.0
  C  C37  1  0.86976000  0.64557000  0.03625000  1.0
  C  C38  1  0.26560000  0.51457000  0.02219000  1.0
  C  C39  1  0.73439000  0.48543000  0.97781000  1.0
  C  C40  1  0.53242000  0.05154000  0.15139000  1.0
  C  C41  1  0.46760000  0.94845000  0.84860000  1.0
  C  C42  1  0.08690000  0.26502000  0.81366000  1.0
  C  C43  1  0.91309000  0.73498000  0.18633000  1.0
  C  C44  1  0.04461000  0.28993000  0.05652000  1.0
  C  C45  1  0.95537000  0.71007000  0.94348000  1.0
  C  C46  1  0.22879000  0.53732000  0.26025000  1.0
  C  C47  1  0.77119000  0.46267000  0.73975000  1.0
  C  C48  1  0.09371000  0.37941000  0.20227000  1.0
  C  C49  1  0.90627000  0.62059000  0.79773000  1.0
  N  N50  1  0.16786000  0.32074000  0.72451000  1.0
  N  N51  1  0.83214000  0.67927000  0.27549000  1.0
  N  N52  1  0.30761000  0.16054000  0.43314000  1.0
  N  N53  1  0.69241000  0.83947000  0.56686000  1.0
  N  N54  1  0.87989000  0.15037000  0.42898000  1.0
  N  N55  1  0.12013000  0.84963000  0.57102000  1.0
