# generated using pymatgen
data_AgH4C6SBrO4
_symmetry_space_group_name_H-M   'P 1'
_cell_length_a   5.43078000
_cell_length_b   15.69920000
_cell_length_c   19.66410000
_cell_angle_alpha   87.20550000
_cell_angle_beta   89.99970000
_cell_angle_gamma   89.99980000
_symmetry_Int_Tables_number   1
_chemical_formula_structural   AgH4C6SBrO4
_chemical_formula_sum   'Ag8 H32 C48 S8 Br8 O32'
_cell_volume   1674.54585852
_cell_formula_units_Z   8
loop_
 _symmetry_equiv_pos_site_id
 _symmetry_equiv_pos_as_xyz
  1  'x, y, z'
loop_
 _atom_site_type_symbol
 _atom_site_label
 _atom_site_symmetry_multiplicity
 _atom_site_fract_x
 _atom_site_fract_y
 _atom_site_fract_z
 _atom_site_occupancy
  Ag  Ag0  1  0.54549000  0.47102000  0.27157000  1.0
  Ag  Ag1  1  0.04549000  0.52898000  0.22843000  1.0
  Ag  Ag2  1  0.45451000  0.52898000  0.72843000  1.0
  Ag  Ag3  1  0.95451000  0.47103000  0.77157000  1.0
  Ag  Ag4  1  0.70238000  0.48523000  0.45040000  1.0
  Ag  Ag5  1  0.20239000  0.51477000  0.04960000  1.0
  Ag  Ag6  1  0.29760000  0.51477000  0.54960000  1.0
  Ag  Ag7  1  0.79761000  0.48523000  0.95040000  1.0
  H  H8  1  0.71574000  0.65511000  0.52716000  1.0
  H  H9  1  0.21574000  0.34489000  0.97284000  1.0
  H  H10  1  0.28426000  0.34489000  0.47284000  1.0
  H  H11  1  0.78425000  0.65511000  0.02716000  1.0
  H  H12  1  0.21070000  0.30869000  0.23036000  1.0
  H  H13  1  0.71071000  0.69131000  0.26965000  1.0
  H  H14  1  0.78928000  0.69131000  0.76964000  1.0
  H  H15  1  0.28929000  0.30868000  0.73036000  1.0
  H  H16  1  0.96045000  0.74994000  0.36533000  1.0
  H  H17  1  0.46045000  0.25006000  0.13467000  1.0
  H  H18  1  0.03955000  0.25005000  0.63467000  1.0
  H  H19  1  0.53955000  0.74994000  0.86533000  1.0
  H  H20  1  0.34935000  0.91405000  0.49889000  1.0
  H  H21  1  0.84936000  0.08595000  0.00111000  1.0
  H  H22  1  0.65065000  0.08595000  0.50112000  1.0
  H  H23  1  0.15065000  0.91405000  0.99888000  1.0
  H  H24  1  0.64192000  0.79718000  0.52830000  1.0
  H  H25  1  0.14193000  0.20282000  0.97170000  1.0
  H  H26  1  0.35809000  0.20282000  0.47169000  1.0
  H  H27  1  0.85809000  0.79718000  0.02830000  1.0
  H  H28  1  0.60874000  0.23451000  0.38534000  1.0
  H  H29  1  0.10878000  0.76548000  0.11466000  1.0
  H  H30  1  0.39123000  0.76549000  0.61467000  1.0
  H  H31  1  0.89124000  0.23452000  0.88533000  1.0
  H  H32  1  0.64606000  0.03323000  0.24376000  1.0
  H  H33  1  0.14607000  0.96676000  0.25624000  1.0
  H  H34  1  0.35393000  0.96677000  0.75624000  1.0
  H  H35  1  0.85395000  0.03323000  0.74376000  1.0
  H  H36  1  0.98330000  0.11055000  0.18212000  1.0
  H  H37  1  0.48330000  0.88944000  0.31789000  1.0
  H  H38  1  0.01669000  0.88945000  0.81788000  1.0
  H  H39  1  0.51670000  0.11055000  0.68212000  1.0
  C  C40  1  0.45934000  0.70575000  0.46783000  1.0
  C  C41  1  0.95934000  0.29426000  0.03217000  1.0
  C  C42  1  0.54068000  0.29426000  0.53217000  1.0
  C  C43  1  0.04067000  0.70575000  0.96783000  1.0
  C  C44  1  0.27055000  0.69391000  0.41994000  1.0
  C  C45  1  0.77055000  0.30609000  0.08006000  1.0
  C  C46  1  0.72945000  0.30609000  0.58006000  1.0
  C  C47  1  0.22944000  0.69391000  0.91994000  1.0
  C  C48  1  0.10597000  0.75990000  0.40218000  1.0
  C  C49  1  0.60598000  0.24010000  0.09782000  1.0
  C  C50  1  0.89402000  0.24009000  0.59782000  1.0
  C  C51  1  0.39403000  0.75990000  0.90218000  1.0
  C  C52  1  0.13227000  0.83802000  0.43213000  1.0
  C  C53  1  0.63227000  0.16198000  0.06787000  1.0
  C  C54  1  0.86773000  0.16199000  0.56787000  1.0
  C  C55  1  0.36773000  0.83802000  0.93213000  1.0
  C  C56  1  0.32507000  0.85224000  0.47693000  1.0
  C  C57  1  0.82507000  0.14776000  0.02307000  1.0
  C  C58  1  0.67494000  0.14776000  0.52307000  1.0
  C  C59  1  0.17495000  0.85225000  0.97692000  1.0
  C  C60  1  0.48881000  0.78640000  0.49390000  1.0
  C  C61  1  0.98881000  0.21360000  0.00610000  1.0
  C  C62  1  0.51121000  0.21360000  0.50610000  1.0
  C  C63  1  0.01120000  0.78640000  0.99390000  1.0
  C  C64  1  0.99221000  0.21456000  0.24901000  1.0
  C  C65  1  0.49221000  0.78544000  0.25100000  1.0
  C  C66  1  0.00778000  0.78545000  0.75100000  1.0
  C  C67  1  0.50779000  0.21455000  0.74900000  1.0
  C  C68  1  0.88489000  0.24831000  0.30723000  1.0
  C  C69  1  0.38491000  0.75169000  0.19277000  1.0
  C  C70  1  0.11509000  0.75169000  0.69277000  1.0
  C  C71  1  0.61510000  0.24831000  0.80723000  1.0
  C  C72  1  0.69072000  0.20603000  0.34145000  1.0
  C  C73  1  0.19075000  0.79398000  0.15855000  1.0
  C  C74  1  0.30926000  0.79398000  0.65855000  1.0
  C  C75  1  0.80927000  0.20603000  0.84145000  1.0
  C  C76  1  0.60814000  0.12886000  0.31904000  1.0
  C  C77  1  0.10815000  0.87114000  0.18096000  1.0
  C  C78  1  0.39185000  0.87115000  0.68096000  1.0
  C  C79  1  0.89187000  0.12886000  0.81903000  1.0
  C  C80  1  0.71278000  0.09356000  0.26182000  1.0
  C  C81  1  0.21279000  0.90644000  0.23818000  1.0
  C  C82  1  0.28721000  0.90645000  0.73818000  1.0
  C  C83  1  0.78723000  0.09356000  0.76181000  1.0
  C  C84  1  0.90138000  0.13660000  0.22722000  1.0
  C  C85  1  0.40139000  0.86339000  0.27279000  1.0
  C  C86  1  0.09860000  0.86340000  0.77279000  1.0
  C  C87  1  0.59863000  0.13660000  0.72722000  1.0
  S  S88  1  0.23162000  0.59401000  0.38282000  1.0
  S  S89  1  0.73162000  0.40599000  0.11718000  1.0
  S  S90  1  0.76838000  0.40599000  0.61718000  1.0
  S  S91  1  0.26839000  0.59401000  0.88282000  1.0
  S  S92  1  0.99489000  0.34095000  0.34464000  1.0
  S  S93  1  0.49491000  0.65905000  0.15535000  1.0
  S  S94  1  0.00509000  0.65905000  0.65536000  1.0
  S  S95  1  0.50510000  0.34095000  0.84464000  1.0
  Br  Br96  1  0.90366000  0.92764000  0.41053000  1.0
  Br  Br97  1  0.40366000  0.07237000  0.08947000  1.0
  Br  Br98  1  0.09635000  0.07238000  0.58947000  1.0
  Br  Br99  1  0.59633000  0.92763000  0.91053000  1.0
  Br  Br100  1  0.34894000  0.06938000  0.36671000  1.0
  Br  Br101  1  0.84895000  0.93062000  0.13329000  1.0
  Br  Br102  1  0.65107000  0.93062000  0.63329000  1.0
  Br  Br103  1  0.15106000  0.06938000  0.86671000  1.0
  O  O104  1  0.47859000  0.56712000  0.35938000  1.0
  O  O105  1  0.97859000  0.43288000  0.14062000  1.0
  O  O106  1  0.52139000  0.43288000  0.64062000  1.0
  O  O107  1  0.02141000  0.56711000  0.85938000  1.0
  O  O108  1  0.05508000  0.60762000  0.32675000  1.0
  O  O109  1  0.55507000  0.39238000  0.17325000  1.0
  O  O110  1  0.94491000  0.39239000  0.67325000  1.0
  O  O111  1  0.44493000  0.60762000  0.82675000  1.0
  O  O112  1  0.13784000  0.53348000  0.43723000  1.0
  O  O113  1  0.63784000  0.46652000  0.06277000  1.0
  O  O114  1  0.86215000  0.46652000  0.56277000  1.0
  O  O115  1  0.36217000  0.53348000  0.93723000  1.0
  O  O116  1  0.60731000  0.63927000  0.48852000  1.0
  O  O117  1  0.10733000  0.36074000  0.01148000  1.0
  O  O118  1  0.39269000  0.36074000  0.51147000  1.0
  O  O119  1  0.89269000  0.63926000  0.98852000  1.0
  O  O120  1  0.77418000  0.39298000  0.35915000  1.0
  O  O121  1  0.27420000  0.60702000  0.14085000  1.0
  O  O122  1  0.22580000  0.60702000  0.64085000  1.0
  O  O123  1  0.72581000  0.39298000  0.85915000  1.0
  O  O124  1  0.15610000  0.38407000  0.29245000  1.0
  O  O125  1  0.65610000  0.61593000  0.20755000  1.0
  O  O126  1  0.84390000  0.61593000  0.70755000  1.0
  O  O127  1  0.34391000  0.38407000  0.79244000  1.0
  O  O128  1  0.12536000  0.31346000  0.40705000  1.0
  O  O129  1  0.62537000  0.68654000  0.09295000  1.0
  O  O130  1  0.87462000  0.68654000  0.59295000  1.0
  O  O131  1  0.37461000  0.31347000  0.90705000  1.0
  O  O132  1  0.17649000  0.25206000  0.21242000  1.0
  O  O133  1  0.67650000  0.74794000  0.28758000  1.0
  O  O134  1  0.82349000  0.74794000  0.78758000  1.0
  O  O135  1  0.32350000  0.25205000  0.71242000  1.0
