# generated using pymatgen
data_InH25C11(SN)2
_symmetry_space_group_name_H-M   'P 1'
_cell_length_a   8.45959000
_cell_length_b   9.49289000
_cell_length_c   10.27320000
_cell_angle_alpha   77.56610000
_cell_angle_beta   69.70660000
_cell_angle_gamma   86.74410000
_symmetry_Int_Tables_number   1
_chemical_formula_structural   InH25C11(SN)2
_chemical_formula_sum   'In2 H50 C22 S4 N4'
_cell_volume   755.49732774
_cell_formula_units_Z   2
loop_
 _symmetry_equiv_pos_site_id
 _symmetry_equiv_pos_as_xyz
  1  'x, y, z'
loop_
 _atom_site_type_symbol
 _atom_site_label
 _atom_site_symmetry_multiplicity
 _atom_site_fract_x
 _atom_site_fract_y
 _atom_site_fract_z
 _atom_site_occupancy
  In  In0  1  0.21469000  0.15200000  0.34079000  1.0
  In  In1  1  0.78530000  0.84801000  0.65921000  1.0
  H  H2  1  0.99307000  0.41619000  0.90482000  1.0
  H  H3  1  0.00695000  0.58379000  0.09516000  1.0
  H  H4  1  0.97590000  0.28456000  0.80814000  1.0
  H  H5  1  0.02411000  0.71541000  0.19185000  1.0
  H  H6  1  0.16558000  0.30185000  0.84297000  1.0
  H  H7  1  0.83443000  0.69813000  0.15703000  1.0
  H  H8  1  0.78407000  0.03066000  0.12169000  1.0
  H  H9  1  0.21592000  0.96934000  0.87831000  1.0
  H  H10  1  0.81200000  0.09541000  0.93900000  1.0
  H  H11  1  0.18800000  0.90459000  0.06100000  1.0
  H  H12  1  0.66629000  0.32378000  0.99342000  1.0
  H  H13  1  0.33371000  0.67622000  0.00657000  1.0
  H  H14  1  0.53785000  0.16979000  0.08870000  1.0
  H  H15  1  0.46215000  0.83022000  0.91130000  1.0
  H  H16  1  0.65069000  0.17499000  0.29346000  1.0
  H  H17  1  0.34930000  0.82502000  0.70654000  1.0
  H  H18  1  0.73191000  0.34950000  0.20185000  1.0
  H  H19  1  0.26809000  0.65050000  0.79815000  1.0
  H  H20  1  0.31944000  0.51331000  0.26692000  1.0
  H  H21  1  0.68056000  0.48669000  0.73307000  1.0
  H  H22  1  0.43389000  0.45747000  0.10650000  1.0
  H  H23  1  0.56611000  0.54253000  0.89349000  1.0
  H  H24  1  0.54213000  0.54810000  0.18726000  1.0
  H  H25  1  0.45787000  0.45191000  0.81273000  1.0
  H  H26  1  0.47261000  0.23898000  0.49497000  1.0
  H  H27  1  0.52738000  0.76103000  0.50503000  1.0
  H  H28  1  0.34356000  0.39363000  0.48441000  1.0
  H  H29  1  0.65644000  0.60638000  0.51558000  1.0
  H  H30  1  0.56795000  0.41440000  0.42084000  1.0
  H  H31  1  0.43204000  0.58561000  0.57915000  1.0
  H  H32  1  0.94970000  0.18587000  0.56789000  1.0
  H  H33  1  0.05030000  0.81413000  0.43211000  1.0
  H  H34  1  0.09679000  0.32313000  0.53855000  1.0
  H  H35  1  0.90321000  0.67687000  0.46145000  1.0
  H  H36  1  0.82629000  0.42280000  0.49597000  1.0
  H  H37  1  0.17372000  0.57721000  0.50403000  1.0
  H  H38  1  0.86932000  0.32559000  0.35861000  1.0
  H  H39  1  0.13068000  0.67442000  0.64139000  1.0
  H  H40  1  0.00574000  0.46841000  0.34028000  1.0
  H  H41  1  0.99426000  0.53160000  0.65972000  1.0
  H  H42  1  0.48604000  0.99622000  0.36998000  1.0
  H  H43  1  0.51395000  0.00378000  0.63004000  1.0
  H  H44  1  0.29726000  0.89566000  0.46632000  1.0
  H  H45  1  0.70273000  0.10435000  0.53370000  1.0
  H  H46  1  0.48620000  0.77949000  0.26386000  1.0
  H  H47  1  0.51380000  0.22051000  0.73616000  1.0
  H  H48  1  0.47265000  0.93618000  0.13980000  1.0
  H  H49  1  0.52735000  0.06382000  0.86022000  1.0
  H  H50  1  0.28954000  0.83025000  0.24430000  1.0
  H  H51  1  0.71045000  0.16975000  0.75572000  1.0
  C  C52  1  0.03827000  0.16992000  0.11418000  1.0
  C  C53  1  0.96172000  0.83008000  0.88582000  1.0
  C  C54  1  0.02771000  0.30679000  0.88597000  1.0
  C  C55  1  0.97230000  0.69319000  0.11402000  1.0
  C  C56  1  0.80090000  0.12820000  0.03806000  1.0
  C  C57  1  0.19910000  0.87180000  0.96194000  1.0
  C  C58  1  0.65138000  0.22800000  0.07925000  1.0
  C  C59  1  0.34862000  0.77200000  0.92075000  1.0
  C  C60  1  0.63140000  0.27048000  0.21891000  1.0
  C  C61  1  0.36860000  0.72952000  0.78108000  1.0
  C  C62  1  0.43971000  0.46979000  0.20827000  1.0
  C  C63  1  0.56030000  0.53022000  0.79172000  1.0
  C  C64  1  0.46224000  0.34507000  0.43037000  1.0
  C  C65  1  0.53776000  0.65494000  0.56962000  1.0
  C  C66  1  0.03172000  0.27051000  0.48563000  1.0
  C  C67  1  0.96828000  0.72949000  0.51437000  1.0
  C  C68  1  0.92839000  0.37734000  0.41660000  1.0
  C  C69  1  0.07161000  0.62266000  0.58339000  1.0
  C  C70  1  0.36907000  0.96067000  0.36164000  1.0
  C  C71  1  0.63091000  0.03934000  0.63838000  1.0
  C  C72  1  0.40648000  0.87277000  0.24674000  1.0
  C  C73  1  0.59352000  0.12723000  0.75327000  1.0
  S  S74  1  0.96538000  0.03905000  0.26555000  1.0
  S  S75  1  0.03461000  0.96095000  0.73446000  1.0
  S  S76  1  0.21673000  0.27036000  0.08359000  1.0
  S  S77  1  0.78327000  0.72963000  0.91640000  1.0
  N  N78  1  0.96209000  0.19668000  0.01589000  1.0
  N  N79  1  0.03791000  0.80330000  0.98410000  1.0
  N  N80  1  0.46621000  0.32923000  0.29009000  1.0
  N  N81  1  0.53379000  0.67077000  0.70990000  1.0
