# generated using pymatgen
data_NiH12(CO)8
_symmetry_space_group_name_H-M   'P 1'
_cell_length_a   8.46753000
_cell_length_b   8.80329000
_cell_length_c   8.80329000
_cell_angle_alpha   99.40530000
_cell_angle_beta   109.39200000
_cell_angle_gamma   109.39200000
_symmetry_Int_Tables_number   1
_chemical_formula_structural   NiH12(CO)8
_chemical_formula_sum   'Ni2 H24 C16 O16'
_cell_volume   555.56975146
_cell_formula_units_Z   2
loop_
 _symmetry_equiv_pos_site_id
 _symmetry_equiv_pos_as_xyz
  1  'x, y, z'
loop_
 _atom_site_type_symbol
 _atom_site_label
 _atom_site_symmetry_multiplicity
 _atom_site_fract_x
 _atom_site_fract_y
 _atom_site_fract_z
 _atom_site_occupancy
  Ni  Ni0  1  0.25000000  0.91633000  0.08367000  1.0
  Ni  Ni1  1  0.75000000  0.08366000  0.91634000  1.0
  H  H2  1  0.49526000  0.62944000  0.86308000  1.0
  H  H3  1  0.00474000  0.13692000  0.37056000  1.0
  H  H4  1  0.50474000  0.37056000  0.13692000  1.0
  H  H5  1  0.99526000  0.86308000  0.62944000  1.0
  H  H6  1  0.57908000  0.44527000  0.68650000  1.0
  H  H7  1  0.92092000  0.31350000  0.55473000  1.0
  H  H8  1  0.42092000  0.55473000  0.31350000  1.0
  H  H9  1  0.07908000  0.68650000  0.44528000  1.0
  H  H10  1  0.18309000  0.14395000  0.92414000  1.0
  H  H11  1  0.31691000  0.07586000  0.85605000  1.0
  H  H12  1  0.81691000  0.85604000  0.07586000  1.0
  H  H13  1  0.68309000  0.92414000  0.14396000  1.0
  H  H14  1  0.14710000  0.65757000  0.20741000  1.0
  H  H15  1  0.35290000  0.79259000  0.34243000  1.0
  H  H16  1  0.85290000  0.34244000  0.79258000  1.0
  H  H17  1  0.64710000  0.20742000  0.65756000  1.0
  H  H18  1  0.90140000  0.83122000  0.87676000  1.0
  H  H19  1  0.59860000  0.12324000  0.16879000  1.0
  H  H20  1  0.09859000  0.16878000  0.12323000  1.0
  H  H21  1  0.40141000  0.87677000  0.83122000  1.0
  H  H22  1  0.95284000  0.67851000  0.91671000  1.0
  H  H23  1  0.54716000  0.08329000  0.32149000  1.0
  H  H24  1  0.04716000  0.32149000  0.08329000  1.0
  H  H25  1  0.45284000  0.91671000  0.67851000  1.0
  C  C26  1  0.15288000  0.59392000  0.82493000  1.0
  C  C27  1  0.34712000  0.17507000  0.40608000  1.0
  C  C28  1  0.84712000  0.40608000  0.17507000  1.0
  C  C29  1  0.65288000  0.82493000  0.59392000  1.0
  C  C30  1  0.20313000  0.48278000  0.71995000  1.0
  C  C31  1  0.29687000  0.28005000  0.51722000  1.0
  C  C32  1  0.79687000  0.51722000  0.28005000  1.0
  C  C33  1  0.70313000  0.71995000  0.48278000  1.0
  C  C34  1  0.38863000  0.51985000  0.75660000  1.0
  C  C35  1  0.11137000  0.24340000  0.48015000  1.0
  C  C36  1  0.61137000  0.48015000  0.24340000  1.0
  C  C37  1  0.88863000  0.75660000  0.51985000  1.0
  C  C38  1  0.43521000  0.41756000  0.65747000  1.0
  C  C39  1  0.06479000  0.34253000  0.58244000  1.0
  C  C40  1  0.56479000  0.58244000  0.34253000  1.0
  C  C41  1  0.93521000  0.65747000  0.41756000  1.0
  O  O42  1  0.27209000  0.74690000  0.90577000  1.0
  O  O43  1  0.22791000  0.09423000  0.25310000  1.0
  O  O44  1  0.72790000  0.25310000  0.09423000  1.0
  O  O45  1  0.77210000  0.90577000  0.74690000  1.0
  O  O46  1  0.99595000  0.53439000  0.82865000  1.0
  O  O47  1  0.50405000  0.17135000  0.46561000  1.0
  O  O48  1  0.00405000  0.46561000  0.17135000  1.0
  O  O49  1  0.49595000  0.82865000  0.53439000  1.0
  O  O50  1  0.95591000  0.79060000  0.97235000  1.0
  O  O51  1  0.54409000  0.02765000  0.20940000  1.0
  O  O52  1  0.04407000  0.20940000  0.02764000  1.0
  O  O53  1  0.45593000  0.97236000  0.79061000  1.0
  O  O54  1  0.25000000  0.07101000  0.92899000  1.0
  O  O55  1  0.75000000  0.92898000  0.07102000  1.0
  O  O56  1  0.25000000  0.76795000  0.23204000  1.0
  O  O57  1  0.75000000  0.23205000  0.76795000  1.0
