# generated using pymatgen
data_U2H18PtC26(NO)10
_symmetry_space_group_name_H-M   'P 1'
_cell_length_a   9.70494000
_cell_length_b   9.70491000
_cell_length_c   9.77251000
_cell_angle_alpha   99.83090000
_cell_angle_beta   99.83060000
_cell_angle_gamma   104.11100000
_symmetry_Int_Tables_number   1
_chemical_formula_structural   U2H18PtC26(NO)10
_chemical_formula_sum   'U2 H18 Pt1 C26 N10 O10'
_cell_volume   857.55349009
_cell_formula_units_Z   1
loop_
 _symmetry_equiv_pos_site_id
 _symmetry_equiv_pos_as_xyz
  1  'x, y, z'
loop_
 _atom_site_type_symbol
 _atom_site_label
 _atom_site_symmetry_multiplicity
 _atom_site_fract_x
 _atom_site_fract_y
 _atom_site_fract_z
 _atom_site_occupancy
  U  U0  1  0.12497000  0.87503000  0.50000000  1.0
  U  U1  1  0.87503000  0.12497000  0.50000000  1.0
  H  H2  1  0.79411000  0.28367000  0.22004000  1.0
  H  H3  1  0.71633000  0.20589000  0.77996000  1.0
  H  H4  1  0.20589000  0.71633000  0.77996000  1.0
  H  H5  1  0.28367000  0.79412000  0.22004000  1.0
  H  H6  1  0.00225000  0.50143000  0.35271000  1.0
  H  H7  1  0.49857000  0.99775000  0.64729000  1.0
  H  H8  1  0.99775000  0.49857000  0.64729000  1.0
  H  H9  1  0.50143000  0.00225000  0.35271000  1.0
  H  H10  1  0.93492000  0.72445000  0.03161000  1.0
  H  H11  1  0.27555000  0.06508000  0.96839000  1.0
  H  H12  1  0.06508000  0.27555000  0.96839000  1.0
  H  H13  1  0.72445000  0.93492000  0.03161000  1.0
  H  H14  1  0.72928000  0.51450000  0.88311000  1.0
  H  H15  1  0.48549000  0.27072000  0.11689000  1.0
  H  H16  1  0.27072000  0.48549000  0.11689000  1.0
  H  H17  1  0.51451000  0.72928000  0.88311000  1.0
  H  H18  1  0.83319000  0.83319000  0.34708000  1.0
  H  H19  1  0.16681000  0.16681000  0.65292000  1.0
  Pt  Pt20  1  0.50000000  0.50000000  0.50000000  1.0
  C  C21  1  0.36931000  0.63069000  0.50000000  1.0
  C  C22  1  0.63069000  0.36931000  0.50000000  1.0
  C  C23  1  0.74358000  0.38094000  0.04048000  1.0
  C  C24  1  0.61906000  0.25642000  0.95952000  1.0
  C  C25  1  0.25642000  0.61906000  0.95952000  1.0
  C  C26  1  0.38094000  0.74358000  0.04048000  1.0
  C  C27  1  0.82107000  0.37919000  0.17463000  1.0
  C  C28  1  0.62081000  0.17893000  0.82537000  1.0
  C  C29  1  0.17893000  0.62081000  0.82537000  1.0
  C  C30  1  0.37919000  0.82108000  0.17463000  1.0
  C  C31  1  0.93617000  0.49725000  0.24962000  1.0
  C  C32  1  0.50275000  0.06383000  0.75038000  1.0
  C  C33  1  0.06383000  0.50275000  0.75038000  1.0
  C  C34  1  0.49725000  0.93617000  0.24962000  1.0
  C  C35  1  0.89895000  0.62293000  0.06504000  1.0
  C  C36  1  0.37707000  0.10105000  0.93496000  1.0
  C  C37  1  0.10105000  0.37707000  0.93496000  1.0
  C  C38  1  0.62293000  0.89895000  0.06504000  1.0
  C  C39  1  0.35935000  0.35935000  0.32719000  1.0
  C  C40  1  0.64065000  0.64066000  0.67281000  1.0
  C  C41  1  0.78592000  0.50513000  0.98574000  1.0
  C  C42  1  0.49487000  0.21408000  0.01426000  1.0
  C  C43  1  0.21408000  0.49487000  0.01426000  1.0
  C  C44  1  0.50513000  0.78592000  0.98573000  1.0
  C  C45  1  0.39156000  0.39156000  0.62599000  1.0
  C  C46  1  0.60844000  0.60844000  0.37401000  1.0
  N  N47  1  0.97210000  0.61715000  0.19465000  1.0
  N  N48  1  0.38285000  0.02790000  0.80535000  1.0
  N  N49  1  0.02790000  0.38285000  0.80535000  1.0
  N  N50  1  0.61715000  0.97210000  0.19464000  1.0
  N  N51  1  0.32697000  0.32697000  0.69644000  1.0
  N  N52  1  0.67303000  0.67303000  0.30356000  1.0
  N  N53  1  0.28026000  0.28026000  0.22489000  1.0
  N  N54  1  0.71974000  0.71974000  0.77511000  1.0
  N  N55  1  0.29325000  0.70675000  0.50000000  1.0
  N  N56  1  0.70675000  0.29325000  0.50000000  1.0
  O  O57  1  0.08250000  0.73137000  0.26543000  1.0
  O  O58  1  0.26863000  0.91750000  0.73457000  1.0
  O  O59  1  0.91750000  0.26863000  0.73457000  1.0
  O  O60  1  0.73137000  0.08250000  0.26543000  1.0
  O  O61  1  0.91988000  0.91988000  0.37510000  1.0
  O  O62  1  0.08012000  0.08012000  0.62490000  1.0
  O  O63  1  0.26980000  0.00089000  0.44992000  1.0
  O  O64  1  0.99911000  0.73020000  0.55008000  1.0
  O  O65  1  0.73020000  0.99911000  0.55008000  1.0
  O  O66  1  0.00089000  0.26980000  0.44992000  1.0
