# generated using pymatgen
data_ZnH14C21N(Cl2O3)2
_symmetry_space_group_name_H-M   'P 1'
_cell_length_a   13.91460000
_cell_length_b   15.25650000
_cell_length_c   16.04850000
_cell_angle_alpha   89.92740000
_cell_angle_beta   90.10910000
_cell_angle_gamma   89.94840000
_symmetry_Int_Tables_number   1
_chemical_formula_structural   ZnH14C21N(Cl2O3)2
_chemical_formula_sum   'Zn2 H28 C42 N2 Cl8 O12'
_cell_volume   3406.89519060
_cell_formula_units_Z   2
loop_
 _symmetry_equiv_pos_site_id
 _symmetry_equiv_pos_as_xyz
  1  'x, y, z'
loop_
 _atom_site_type_symbol
 _atom_site_label
 _atom_site_symmetry_multiplicity
 _atom_site_fract_x
 _atom_site_fract_y
 _atom_site_fract_z
 _atom_site_occupancy
  Zn  Zn0  1  0.40046000  0.50032000  0.49985000  1.0
  Zn  Zn1  1  0.60049000  0.50129000  0.50083000  1.0
  H  H2  1  0.39616000  0.38973000  0.92950000  1.0
  H  H3  1  0.56915000  0.36904000  0.92931000  1.0
  H  H4  1  0.62427000  0.77561000  0.42158000  1.0
  H  H5  1  0.37022000  0.77951000  0.57374000  1.0
  H  H6  1  0.74859000  0.43387000  0.38816000  1.0
  H  H7  1  0.25122000  0.56479000  0.38607000  1.0
  H  H8  1  0.75320000  0.57599000  0.60790000  1.0
  H  H9  1  0.24912000  0.42678000  0.60845000  1.0
  H  H10  1  0.65022000  0.45823000  0.92499000  1.0
  H  H11  1  0.34260000  0.49481000  0.92449000  1.0
  H  H12  1  0.45499000  0.62888000  0.07427000  1.0
  H  H13  1  0.58040000  0.61343000  0.07429000  1.0
  H  H14  1  0.45481000  0.63152000  0.92855000  1.0
  H  H15  1  0.58078000  0.61610000  0.92857000  1.0
  H  H16  1  0.38311000  0.22705000  0.41158000  1.0
  H  H17  1  0.62295000  0.22242000  0.58162000  1.0
  H  H18  1  0.85560000  0.44395000  0.27155000  1.0
  H  H19  1  0.84265000  0.33648000  0.31659000  1.0
  H  H20  1  0.94909000  0.36365000  0.25919000  1.0
  H  H21  1  0.14336000  0.55125000  0.27000000  1.0
  H  H22  1  0.15643000  0.65985000  0.31239000  1.0
  H  H23  1  0.04962000  0.63113000  0.25591000  1.0
  H  H24  1  0.45713000  0.01631000  0.30105000  1.0
  H  H25  1  0.39210000  0.11686000  0.28548000  1.0
  H  H26  1  0.32960000  0.01392000  0.28340000  1.0
  H  H27  1  0.54394000  0.01020000  0.68811000  1.0
  H  H28  1  0.61106000  0.10906000  0.70572000  1.0
  H  H29  1  0.67145000  0.00492000  0.70553000  1.0
  C  C30  1  0.50321000  0.33227000  0.49834000  1.0
  C  C31  1  0.51288000  0.58982000  0.95276000  1.0
  C  C32  1  0.51284000  0.58855000  0.04875000  1.0
  C  C33  1  0.49944000  0.49628000  0.82820000  1.0
  C  C34  1  0.49911000  0.49407000  0.17276000  1.0
  C  C35  1  0.49975000  0.49781000  0.24820000  1.0
  C  C36  1  0.43508000  0.09863000  0.44660000  1.0
  C  C37  1  0.56757000  0.09603000  0.54440000  1.0
  C  C38  1  0.43528000  0.18991000  0.44802000  1.0
  C  C39  1  0.56978000  0.18733000  0.54460000  1.0
  C  C40  1  0.50295000  0.23421000  0.49687000  1.0
  C  C41  1  0.50047000  0.05026000  0.49532000  1.0
  C  C42  1  0.56815000  0.90377000  0.45247000  1.0
  C  C43  1  0.42823000  0.90598000  0.53931000  1.0
  C  C44  1  0.50035000  0.50074000  0.33824000  1.0
  C  C45  1  0.56904000  0.81258000  0.45417000  1.0
  C  C46  1  0.42596000  0.81474000  0.54008000  1.0
  C  C47  1  0.49731000  0.76806000  0.49793000  1.0
  C  C48  1  0.49876000  0.95324000  0.49545000  1.0
  C  C49  1  0.89412000  0.46000000  0.43380000  1.0
  C  C50  1  0.10618000  0.53891000  0.43254000  1.0
  C  C51  1  0.79368000  0.46340000  0.43599000  1.0
  C  C52  1  0.20663000  0.53601000  0.43458000  1.0
  C  C53  1  0.79530000  0.54440000  0.55923000  1.0
  C  C54  1  0.20643000  0.45731000  0.55934000  1.0
  C  C55  1  0.89559000  0.54550000  0.55966000  1.0
  C  C56  1  0.10614000  0.45579000  0.56005000  1.0
  C  C57  1  0.94745000  0.50148000  0.49771000  1.0
  C  C58  1  0.05357000  0.49859000  0.49747000  1.0
  C  C59  1  0.49749000  0.66980000  0.49971000  1.0
  C  C60  1  0.50020000  0.49938000  0.66227000  1.0
  C  C61  1  0.39929000  0.46049000  0.04663000  1.0
  C  C62  1  0.58557000  0.43768000  0.04677000  1.0
  C  C63  1  0.58143000  0.43633000  0.95072000  1.0
  C  C64  1  0.40302000  0.45776000  0.95066000  1.0
  C  C65  1  0.49992000  0.49752000  0.75254000  1.0
  C  C66  1  0.49895000  0.49335000  0.08278000  1.0
  C  C67  1  0.49913000  0.49579000  0.91862000  1.0
  C  C68  1  0.89384000  0.38894000  0.30127000  1.0
  C  C69  1  0.10524000  0.60692000  0.29844000  1.0
  C  C70  1  0.38855000  0.05045000  0.31248000  1.0
  C  C71  1  0.61322000  0.04331000  0.67735000  1.0
  N  N72  1  0.74720000  0.50377000  0.49837000  1.0
  N  N73  1  0.25381000  0.49712000  0.49764000  1.0
  Cl  Cl74  1  0.95287000  0.60472000  0.63632000  1.0
  Cl  Cl75  1  0.04975000  0.39768000  0.63788000  1.0
  Cl  Cl76  1  0.36294000  0.35670000  0.08779000  1.0
  Cl  Cl77  1  0.59051000  0.32862000  0.08755000  1.0
  Cl  Cl78  1  0.69713000  0.48868000  0.08043000  1.0
  Cl  Cl79  1  0.30639000  0.53688000  0.07952000  1.0
  Cl  Cl80  1  0.65512000  0.95754000  0.39439000  1.0
  Cl  Cl81  1  0.34192000  0.96256000  0.59565000  1.0
  O  O82  1  0.42570000  0.37073000  0.47671000  1.0
  O  O83  1  0.58059000  0.37009000  0.52114000  1.0
  O  O84  1  0.42244000  0.52427000  0.37312000  1.0
  O  O85  1  0.57880000  0.47946000  0.37380000  1.0
  O  O86  1  0.41978000  0.63191000  0.52096000  1.0
  O  O87  1  0.57571000  0.63194000  0.47970000  1.0
  O  O88  1  0.42217000  0.47753000  0.62638000  1.0
  O  O89  1  0.57829000  0.52266000  0.62756000  1.0
  O  O90  1  0.94493000  0.41811000  0.37414000  1.0
  O  O91  1  0.05478000  0.57950000  0.37213000  1.0
  O  O92  1  0.36768000  0.05341000  0.39999000  1.0
  O  O93  1  0.63403000  0.04829000  0.58990000  1.0
