# generated using pymatgen
data_PrH14C12N3O10
_symmetry_space_group_name_H-M   'P 1'
_cell_length_a   8.39943000
_cell_length_b   9.41318000
_cell_length_c   10.80780000
_cell_angle_alpha   106.35900000
_cell_angle_beta   99.17800000
_cell_angle_gamma   93.65200000
_symmetry_Int_Tables_number   1
_chemical_formula_structural   PrH14C12N3O10
_chemical_formula_sum   'Pr2 H28 C24 N6 O20'
_cell_volume   804.09123638
_cell_formula_units_Z   2
loop_
 _symmetry_equiv_pos_site_id
 _symmetry_equiv_pos_as_xyz
  1  'x, y, z'
loop_
 _atom_site_type_symbol
 _atom_site_label
 _atom_site_symmetry_multiplicity
 _atom_site_fract_x
 _atom_site_fract_y
 _atom_site_fract_z
 _atom_site_occupancy
  Pr  Pr0  1  0.75257000  0.98812000  0.50651000  1.0
  Pr  Pr1  1  0.24743000  0.01188000  0.49349000  1.0
  H  H2  1  0.95390000  0.27397000  0.83659000  1.0
  H  H3  1  0.04610000  0.72603000  0.16341000  1.0
  H  H4  1  0.00056000  0.11692000  0.88974000  1.0
  H  H5  1  0.99943000  0.88308000  0.11026000  1.0
  H  H6  1  0.35024000  0.17225000  0.01777000  1.0
  H  H7  1  0.64976000  0.82775000  0.98223000  1.0
  H  H8  1  0.17596000  0.16169000  0.08720000  1.0
  H  H9  1  0.82404000  0.83832000  0.91280000  1.0
  H  H10  1  0.43217000  0.57892000  0.04810000  1.0
  H  H11  1  0.56783000  0.42108000  0.95190000  1.0
  H  H12  1  0.27386000  0.65576000  0.12368000  1.0
  H  H13  1  0.72614000  0.34424000  0.87632000  1.0
  H  H14  1  0.58750000  0.63378000  0.29867000  1.0
  H  H15  1  0.41250000  0.36622000  0.70133000  1.0
  H  H16  1  0.48781000  0.53980000  0.39224000  1.0
  H  H17  1  0.51219000  0.46020000  0.60776000  1.0
  H  H18  1  0.86896000  0.54001000  0.31125000  1.0
  H  H19  1  0.13104000  0.45999000  0.68875000  1.0
  H  H20  1  0.74153000  0.46078000  0.39656000  1.0
  H  H21  1  0.25847000  0.53922000  0.60344000  1.0
  H  H22  1  0.10402000  0.70004000  0.81750000  1.0
  H  H23  1  0.89598000  0.29996000  0.18249000  1.0
  H  H24  1  0.98891000  0.81917000  0.74343000  1.0
  H  H25  1  0.01109000  0.18083000  0.25657000  1.0
  H  H26  1  0.59049000  0.01657000  0.75599000  1.0
  H  H27  1  0.40951000  0.98343000  0.24400000  1.0
  H  H28  1  0.65429000  0.86188000  0.71815000  1.0
  H  H29  1  0.34571000  0.13812000  0.28185000  1.0
  C  C30  1  0.12359000  0.15277000  0.73950000  1.0
  C  C31  1  0.87641000  0.84723000  0.26050000  1.0
  C  C32  1  0.05312000  0.21129000  0.86287000  1.0
  C  C33  1  0.94688000  0.78871000  0.13713000  1.0
  C  C34  1  0.26035000  0.23999000  0.06349000  1.0
  C  C35  1  0.73965000  0.76001000  0.93652000  1.0
  C  C36  1  0.34577000  0.34892000  0.19184000  1.0
  C  C37  1  0.65424000  0.65108000  0.80816000  1.0
  C  C38  1  0.19903000  0.45155000  0.97718000  1.0
  C  C39  1  0.80097000  0.54845000  0.02282000  1.0
  C  C40  1  0.32553000  0.55095000  0.08818000  1.0
  C  C41  1  0.67448000  0.44905000  0.91181000  1.0
  C  C42  1  0.46878000  0.59737000  0.31658000  1.0
  C  C43  1  0.53122000  0.40263000  0.68342000  1.0
  C  C44  1  0.38667000  0.73424000  0.36930000  1.0
  C  C45  1  0.61334000  0.26576000  0.63070000  1.0
  C  C46  1  0.91851000  0.63364000  0.51862000  1.0
  C  C47  1  0.08148000  0.36636000  0.48138000  1.0
  C  C48  1  0.86828000  0.50103000  0.39815000  1.0
  C  C49  1  0.13172000  0.49897000  0.60185000  1.0
  C  C50  1  0.08710000  0.74726000  0.73503000  1.0
  C  C51  1  0.91290000  0.25274000  0.26497000  1.0
  C  C52  1  0.24318000  0.84798000  0.74166000  1.0
  C  C53  1  0.75682000  0.15201000  0.25834000  1.0
  N  N54  1  0.16934000  0.30747000  0.97281000  1.0
  N  N55  1  0.83066000  0.69254000  0.02719000  1.0
  N  N56  1  0.37386000  0.49319000  0.19806000  1.0
  N  N57  1  0.62615000  0.50681000  0.80194000  1.0
  N  N58  1  0.03670000  0.62498000  0.61378000  1.0
  N  N59  1  0.96330000  0.37502000  0.38622000  1.0
  O  O60  1  0.02615000  0.06433000  0.63871000  1.0
  O  O61  1  0.97385000  0.93567000  0.36129000  1.0
  O  O62  1  0.26858000  0.18882000  0.73532000  1.0
  O  O63  1  0.73142000  0.81118000  0.26468000  1.0
  O  O64  1  0.12726000  0.50557000  0.89438000  1.0
  O  O65  1  0.87274000  0.49443000  0.10561000  1.0
  O  O66  1  0.39214000  0.30429000  0.28890000  1.0
  O  O67  1  0.60786000  0.69571000  0.71110000  1.0
  O  O68  1  0.23514000  0.73375000  0.34579000  1.0
  O  O69  1  0.76487000  0.26625000  0.65421000  1.0
  O  O70  1  0.48085000  0.85186000  0.43986000  1.0
  O  O71  1  0.51915000  0.14815000  0.56014000  1.0
  O  O72  1  0.84228000  0.74590000  0.52638000  1.0
  O  O73  1  0.15772000  0.25410000  0.47362000  1.0
  O  O74  1  0.27497000  0.85576000  0.63082000  1.0
  O  O75  1  0.72503000  0.14424000  0.36918000  1.0
  O  O76  1  0.32136000  0.91719000  0.85267000  1.0
  O  O77  1  0.67865000  0.08280000  0.14733000  1.0
  O  O78  1  0.68251000  0.97038000  0.72347000  1.0
  O  O79  1  0.31749000  0.02962000  0.27653000  1.0
