# generated using pymatgen
data_Zn2H16C21(N2O)5
_symmetry_space_group_name_H-M   'P 1'
_cell_length_a   14.60645427
_cell_length_b   14.88780000
_cell_length_c   14.90920000
_cell_angle_alpha   84.69310000
_cell_angle_beta   61.70317252
_cell_angle_gamma   61.84330077
_symmetry_Int_Tables_number   1
_chemical_formula_structural   Zn2H16C21(N2O)5
_chemical_formula_sum   'Zn4 H32 C42 N20 O10'
_cell_volume   2480.67176402
_cell_formula_units_Z   2
loop_
 _symmetry_equiv_pos_site_id
 _symmetry_equiv_pos_as_xyz
  1  'x, y, z'
loop_
 _atom_site_type_symbol
 _atom_site_label
 _atom_site_symmetry_multiplicity
 _atom_site_fract_x
 _atom_site_fract_y
 _atom_site_fract_z
 _atom_site_occupancy
  Zn  Zn0  1  0.66449000  0.85718000  0.84975000  1.0
  Zn  Zn1  1  0.33522000  0.15041000  0.14285000  1.0
  Zn  Zn2  1  0.65501000  0.00427000  0.01157000  1.0
  Zn  Zn3  1  0.34470000  0.98840000  0.99616000  1.0
  H  H4  1  0.69280000  0.66065000  0.96904000  1.0
  H  H5  1  0.30721000  0.03122000  0.33931000  1.0
  H  H6  1  0.70067000  0.05353000  0.20933000  1.0
  H  H7  1  0.29910000  0.79062000  0.94620000  1.0
  H  H8  1  0.35768000  0.80426000  0.13377000  1.0
  H  H9  1  0.64229000  0.86672000  0.19552000  1.0
  H  H10  1  0.68635000  0.00292000  0.67770000  1.0
  H  H11  1  0.31348000  0.32196000  0.99699000  1.0
  H  H12  1  0.92302000  0.99044000  0.86806000  1.0
  H  H13  1  0.07774000  0.13218000  0.00861000  1.0
  H  H14  1  0.30060000  0.14789000  0.84600000  1.0
  H  H15  1  0.69921000  0.15469000  0.85176000  1.0
  H  H16  1  0.68484000  0.32426000  0.78695000  1.0
  H  H17  1  0.31493000  0.21227000  0.67591000  1.0
  H  H18  1  0.41215000  0.43006000  0.88171000  1.0
  H  H19  1  0.58766000  0.11800000  0.57001000  1.0
  H  H20  1  0.67788000  0.48422000  0.76240000  1.0
  H  H21  1  0.32187000  0.23665000  0.51622000  1.0
  H  H22  1  0.14074000  0.78735000  0.53078000  1.0
  H  H23  1  0.85933000  0.46957000  0.21247000  1.0
  H  H24  1  0.21988000  0.95471000  0.47817000  1.0
  H  H25  1  0.78081000  0.52192000  0.04508000  1.0
  H  H26  1  0.07756000  0.98144000  0.65493000  1.0
  H  H27  1  0.92345000  0.34533000  0.01802000  1.0
  H  H28  1  0.27481000  0.77369000  0.34110000  1.0
  H  H29  1  0.72495000  0.65930000  0.22629000  1.0
  H  H30  1  0.99371000  0.51374000  0.14525000  1.0
  H  H31  1  0.12977000  0.42843000  0.03490000  1.0
  H  H32  1  0.13282000  0.48497000  0.13450000  1.0
  H  H33  1  0.00669000  0.85603000  0.48689000  1.0
  H  H34  1  0.86989000  0.96593000  0.57205000  1.0
  H  H35  1  0.86829000  0.86590000  0.51456000  1.0
  C  C36  1  0.67572000  0.72442000  0.01550000  1.0
  C  C37  1  0.32422000  0.98471000  0.27564000  1.0
  C  C38  1  0.60885000  0.09309000  0.22557000  1.0
  C  C39  1  0.39098000  0.77441000  0.90672000  1.0
  C  C40  1  0.41415000  0.18068000  0.29057000  1.0
  C  C41  1  0.58571000  0.70956000  0.81912000  1.0
  C  C42  1  0.35017000  0.86889000  0.17060000  1.0
  C  C43  1  0.64972000  0.82971000  0.13108000  1.0
  C  C44  1  0.67946000  0.72672000  0.10807000  1.0
  C  C45  1  0.32055000  0.89196000  0.27344000  1.0
  C  C46  1  0.50395000  0.15226000  0.31921000  1.0
  C  C47  1  0.49584000  0.68094000  0.84719000  1.0
  C  C48  1  0.59311000  0.02937000  0.73238000  1.0
  C  C49  1  0.40670000  0.26751000  0.97060000  1.0
  C  C50  1  0.90266000  0.95212000  0.82716000  1.0
  C  C51  1  0.09779000  0.17311000  0.04726000  1.0
  C  C52  1  0.10400000  0.28575000  0.12758000  1.0
  C  C53  1  0.89604000  0.87248000  0.71439000  1.0
  C  C54  1  0.39604000  0.10284000  0.81698000  1.0
  C  C55  1  0.60378000  0.18342000  0.89691000  1.0
  C  C56  1  0.49183000  0.10049000  0.72400000  1.0
  C  C57  1  0.50791000  0.27613000  0.89931000  1.0
  C  C58  1  0.96497000  0.91135000  0.72131000  1.0
  C  C59  1  0.03553000  0.27898000  0.08816000  1.0
  C  C60  1  0.59544000  0.38907000  0.81117000  1.0
  C  C61  1  0.40439000  0.18815000  0.61108000  1.0
  C  C62  1  0.50231000  0.36915000  0.86062000  1.0
  C  C63  1  0.49741000  0.13905000  0.63097000  1.0
  C  C64  1  0.59186000  0.48690000  0.79813000  1.0
  C  C65  1  0.40794000  0.20097000  0.51332000  1.0
  C  C66  1  0.49795000  0.58542000  0.83439000  1.0
  C  C67  1  0.50184000  0.16467000  0.41473000  1.0
  C  C68  1  0.27573000  0.84272000  0.35932000  1.0
  C  C69  1  0.72437000  0.64089000  0.15721000  1.0
  C  C70  1  0.22067000  0.88456000  0.46019000  1.0
  C  C71  1  0.77978000  0.53995000  0.11526000  1.0
  C  C72  1  0.06724000  0.91686000  0.64042000  1.0
  C  C73  1  0.93340000  0.35990000  0.08273000  1.0
  C  C74  1  0.14465000  0.85566000  0.54578000  1.0
  C  C75  1  0.85572000  0.45446000  0.14410000  1.0
  C  C76  1  0.08647000  0.45373000  0.11850000  1.0
  C  C77  1  0.91381000  0.88227000  0.54648000  1.0
  N  N78  1  0.64865000  0.81732000  0.98595000  1.0
  N  N79  1  0.35119000  0.01427000  0.18277000  1.0
  N  N80  1  0.58152000  0.08725000  0.15225000  1.0
  N  N81  1  0.41839000  0.84764000  0.91309000  1.0
  N  N82  1  0.46340000  0.14039000  0.19134000  1.0
  N  N83  1  0.53654000  0.80863000  0.85993000  1.0
  N  N84  1  0.36721000  0.94324000  0.11759000  1.0
  N  N85  1  0.63258000  0.88264000  0.05685000  1.0
  N  N86  1  0.56044000  0.99129000  0.82010000  1.0
  N  N87  1  0.43947000  0.17989000  0.00876000  1.0
  N  N88  1  0.80850000  0.93604000  0.87845000  1.0
  N  N89  1  0.19143000  0.12172000  0.06380000  1.0
  N  N90  1  0.19584000  0.19213000  0.11306000  1.0
  N  N91  1  0.80388000  0.88714000  0.80798000  1.0
  N  N92  1  0.43866000  0.03706000  0.87260000  1.0
  N  N93  1  0.56125000  0.12769000  0.96288000  1.0
  N  N94  1  0.37501000  0.60061000  0.88094000  1.0
  N  N95  1  0.62482000  0.11831000  0.39934000  1.0
  N  N96  1  0.28850000  0.24048000  0.34313000  1.0
  N  N97  1  0.71135000  0.65714000  0.75913000  1.0
  O  O98  1  0.31741000  0.61196000  0.97652000  1.0
  O  O99  1  0.33881000  0.60079000  0.82092000  1.0
  O  O100  1  0.68265000  0.02272000  0.38757000  1.0
  O  O101  1  0.66078000  0.17857000  0.39948000  1.0
  O  O102  1  0.23396000  0.24679000  0.29444000  1.0
  O  O103  1  0.23355000  0.28522000  0.43343000  1.0
  O  O104  1  0.76600000  0.70577000  0.75312000  1.0
  O  O105  1  0.76617000  0.56701000  0.71395000  1.0
  O  O106  1  0.09289000  0.36765000  0.17356000  1.0
  O  O107  1  0.90689000  0.82696000  0.63242000  1.0
