# generated using pymatgen
data_Co2H12C15N3O8
_symmetry_space_group_name_H-M   'P 1'
_cell_length_a   10.36920000
_cell_length_b   10.37680000
_cell_length_c   20.53720000
_cell_angle_alpha   90.00060000
_cell_angle_beta   90.00030000
_cell_angle_gamma   101.30600000
_symmetry_Int_Tables_number   1
_chemical_formula_structural   Co2H12C15N3O8
_chemical_formula_sum   'Co8 H48 C60 N12 O32'
_cell_volume   2166.90175220
_cell_formula_units_Z   4
loop_
 _symmetry_equiv_pos_site_id
 _symmetry_equiv_pos_as_xyz
  1  'x, y, z'
loop_
 _atom_site_type_symbol
 _atom_site_label
 _atom_site_symmetry_multiplicity
 _atom_site_fract_x
 _atom_site_fract_y
 _atom_site_fract_z
 _atom_site_occupancy
  Co  Co0  1  0.08342000  0.43304000  0.54969000  1.0
  Co  Co1  1  0.41662000  0.06715000  0.04975000  1.0
  Co  Co2  1  0.91657000  0.56719000  0.45026000  1.0
  Co  Co3  1  0.58341000  0.93302000  0.95031000  1.0
  Co  Co4  1  0.93676000  0.63574000  0.61636000  1.0
  Co  Co5  1  0.56327000  0.86422000  0.11633000  1.0
  Co  Co6  1  0.06326000  0.36423000  0.38370000  1.0
  Co  Co7  1  0.43675000  0.13575000  0.88362000  1.0
  H  H8  1  0.82835000  0.44161000  0.55509000  1.0
  H  H9  1  0.67169000  0.05838000  0.05512000  1.0
  H  H10  1  0.17169000  0.55840000  0.44489000  1.0
  H  H11  1  0.32836000  0.94161000  0.94491000  1.0
  H  H12  1  0.32392000  0.44786000  0.55519000  1.0
  H  H13  1  0.17616000  0.05223000  0.05517000  1.0
  H  H14  1  0.67618000  0.55223000  0.44482000  1.0
  H  H15  1  0.82391000  0.94786000  0.94480000  1.0
  H  H16  1  0.28825000  0.37483000  0.48834000  1.0
  H  H17  1  0.21193000  0.12513000  0.98828000  1.0
  H  H18  1  0.71195000  0.62514000  0.51171000  1.0
  H  H19  1  0.78825000  0.87484000  0.01165000  1.0
  H  H20  1  0.61822000  0.94329000  0.40206000  1.0
  H  H21  1  0.88167000  0.55672000  0.90180000  1.0
  H  H22  1  0.38167000  0.05671000  0.59819000  1.0
  H  H23  1  0.11822000  0.44329000  0.09792000  1.0
  H  H24  1  0.59967000  0.99637000  0.61010000  1.0
  H  H25  1  0.90024000  0.50366000  0.10985000  1.0
  H  H26  1  0.40023000  0.00365000  0.39013000  1.0
  H  H27  1  0.09967000  0.49639000  0.88987000  1.0
  H  H28  1  0.77653000  0.90009000  0.56207000  1.0
  H  H29  1  0.72348000  0.60009000  0.06181000  1.0
  H  H30  1  0.22346000  0.10008000  0.43818000  1.0
  H  H31  1  0.27654000  0.40011000  0.93791000  1.0
  H  H32  1  0.77665000  0.86374000  0.47771000  1.0
  H  H33  1  0.72323000  0.63625000  0.97744000  1.0
  H  H34  1  0.22323000  0.13624000  0.52255000  1.0
  H  H35  1  0.27665000  0.36374000  0.02227000  1.0
  H  H36  1  0.87791000  0.14826000  0.59866000  1.0
  H  H37  1  0.62223000  0.35187000  0.09853000  1.0
  H  H38  1  0.12221000  0.85186000  0.40145000  1.0
  H  H39  1  0.37794000  0.64829000  0.90134000  1.0
  H  H40  1  0.90138000  0.04996000  0.39943000  1.0
  H  H41  1  0.59834000  0.44996000  0.89930000  1.0
  H  H42  1  0.09836000  0.94995000  0.60069000  1.0
  H  H43  1  0.40136000  0.54995000  0.10056000  1.0
  H  H44  1  0.18310000  0.32844000  0.74801000  1.0
  H  H45  1  0.31693000  0.17144000  0.24803000  1.0
  H  H46  1  0.81690000  0.67139000  0.25197000  1.0
  H  H47  1  0.68312000  0.82846000  0.75200000  1.0
  H  H48  1  0.96497000  0.13358000  0.91000000  1.0
  H  H49  1  0.53506000  0.36636000  0.41000000  1.0
  H  H50  1  0.03505000  0.86633000  0.09001000  1.0
  H  H51  1  0.46498000  0.63358000  0.59002000  1.0
  H  H52  1  0.76660000  0.31962000  0.76361000  1.0
  H  H53  1  0.73345000  0.18038000  0.26361000  1.0
  H  H54  1  0.23344000  0.68037000  0.23640000  1.0
  H  H55  1  0.26660000  0.81961000  0.73640000  1.0
  C  C56  1  0.62374000  0.96667000  0.50684000  1.0
  C  C57  1  0.87614000  0.53332000  0.00657000  1.0
  C  C58  1  0.37615000  0.03333000  0.49341000  1.0
  C  C59  1  0.12374000  0.46669000  0.99314000  1.0
  C  C60  1  0.56651000  0.96806000  0.44518000  1.0
  C  C61  1  0.93337000  0.53195000  0.94492000  1.0
  C  C62  1  0.43338000  0.03196000  0.55506000  1.0
  C  C63  1  0.06651000  0.46805000  0.05480000  1.0
  C  C64  1  0.55652000  0.99875000  0.56175000  1.0
  C  C65  1  0.94337000  0.50126000  0.06149000  1.0
  C  C66  1  0.44337000  0.00126000  0.43849000  1.0
  C  C67  1  0.05652000  0.49876000  0.93823000  1.0
  C  C68  1  0.75971000  0.93719000  0.51344000  1.0
  C  C69  1  0.74019000  0.56288000  0.01320000  1.0
  C  C70  1  0.24019000  0.06287000  0.48678000  1.0
  C  C71  1  0.25971000  0.43720000  0.98654000  1.0
  C  C72  1  0.90506000  0.15253000  0.54760000  1.0
  C  C73  1  0.59495000  0.34757000  0.04749000  1.0
  C  C74  1  0.09494000  0.84755000  0.45250000  1.0
  C  C75  1  0.40509000  0.65255000  0.95240000  1.0
  C  C76  1  0.91802000  0.10164000  0.44548000  1.0
  C  C77  1  0.58178000  0.39834000  0.94537000  1.0
  C  C78  1  0.08178000  0.89833000  0.55462000  1.0
  C  C79  1  0.41801000  0.60166000  0.05452000  1.0
  C  C80  1  0.97521000  0.33203000  0.74966000  1.0
  C  C81  1  0.52484000  0.16795000  0.24966000  1.0
  C  C82  1  0.02481000  0.66790000  0.25035000  1.0
  C  C83  1  0.47522000  0.83204000  0.75035000  1.0
  C  C84  1  0.09062000  0.29948000  0.77426000  1.0
  C  C85  1  0.40942000  0.20047000  0.27426000  1.0
  C  C86  1  0.90940000  0.70043000  0.22575000  1.0
  C  C87  1  0.59062000  0.79949000  0.72576000  1.0
  C  C88  1  0.08695000  0.22969000  0.83279000  1.0
  C  C89  1  0.41308000  0.27021000  0.33280000  1.0
  C  C90  1  0.91307000  0.77018000  0.16721000  1.0
  C  C91  1  0.58695000  0.72971000  0.66723000  1.0
  C  C92  1  0.96684000  0.18880000  0.86487000  1.0
  C  C93  1  0.53319000  0.31111000  0.36489000  1.0
  C  C94  1  0.03317000  0.81107000  0.13512000  1.0
  C  C95  1  0.46685000  0.68880000  0.63514000  1.0
  C  C96  1  0.85082000  0.21904000  0.83993000  1.0
  C  C97  1  0.64920000  0.28092000  0.33993000  1.0
  C  C98  1  0.14918000  0.78089000  0.16009000  1.0
  C  C99  1  0.35084000  0.71905000  0.66008000  1.0
  C  C100  1  0.85606000  0.29373000  0.78290000  1.0
  C  C101  1  0.64400000  0.20629000  0.28288000  1.0
  C  C102  1  0.14397000  0.70625000  0.21713000  1.0
  C  C103  1  0.35607000  0.79373000  0.71712000  1.0
  C  C104  1  0.97814000  0.40691000  0.68731000  1.0
  C  C105  1  0.52193000  0.09306000  0.18732000  1.0
  C  C106  1  0.02191000  0.59304000  0.31269000  1.0
  C  C107  1  0.47814000  0.90693000  0.81269000  1.0
  C  C108  1  0.20855000  0.19515000  0.86091000  1.0
  C  C109  1  0.29151000  0.30475000  0.36095000  1.0
  C  C110  1  0.79150000  0.80473000  0.13906000  1.0
  C  C111  1  0.70855000  0.69517000  0.63910000  1.0
  C  C112  1  0.72203000  0.16853000  0.87285000  1.0
  C  C113  1  0.77798000  0.33149000  0.37284000  1.0
  C  C114  1  0.27798000  0.83145000  0.12718000  1.0
  C  C115  1  0.22205000  0.66854000  0.62716000  1.0
  N  N116  1  0.98656000  0.25002000  0.51897000  1.0
  N  N117  1  0.51344000  0.25002000  0.01891000  1.0
  N  N118  1  0.01343000  0.75002000  0.48108000  1.0
  N  N119  1  0.48658000  0.75003000  0.98104000  1.0
  N  N120  1  0.99513000  0.21800000  0.45435000  1.0
  N  N121  1  0.50474000  0.28197000  0.95428000  1.0
  N  N122  1  0.00474000  0.78196000  0.54571000  1.0
  N  N123  1  0.49513000  0.71800000  0.04566000  1.0
  N  N124  1  0.86037000  0.05694000  0.50297000  1.0
  N  N125  1  0.63952000  0.44313000  0.00282000  1.0
  N  N126  1  0.13952000  0.94311000  0.49717000  1.0
  N  N127  1  0.36037000  0.55696000  0.99702000  1.0
  O  O128  1  0.06160000  0.38631000  0.64452000  1.0
  O  O129  1  0.43851000  0.11375000  0.14453000  1.0
  O  O130  1  0.93851000  0.61375000  0.35551000  1.0
  O  O131  1  0.56160000  0.88632000  0.85549000  1.0
  O  O132  1  0.89775000  0.48447000  0.68180000  1.0
  O  O133  1  0.60229000  0.01547000  0.18180000  1.0
  O  O134  1  0.10227000  0.51546000  0.31821000  1.0
  O  O135  1  0.39775000  0.98448000  0.81821000  1.0
  O  O136  1  0.32129000  0.24988000  0.83827000  1.0
  O  O137  1  0.17877000  0.25006000  0.33830000  1.0
  O  O138  1  0.67875000  0.75005000  0.16171000  1.0
  O  O139  1  0.82128000  0.74991000  0.66175000  1.0
  O  O140  1  0.19826000  0.11074000  0.90676000  1.0
  O  O141  1  0.30183000  0.38913000  0.40681000  1.0
  O  O142  1  0.80182000  0.88911000  0.09320000  1.0
  O  O143  1  0.69828000  0.61078000  0.59324000  1.0
  O  O144  1  0.72327000  0.10294000  0.92532000  1.0
  O  O145  1  0.77675000  0.39722000  0.42527000  1.0
  O  O146  1  0.27674000  0.89717000  0.07474000  1.0
  O  O147  1  0.22329000  0.60294000  0.57468000  1.0
  O  O148  1  0.61844000  0.19320000  0.84589000  1.0
  O  O149  1  0.88156000  0.30675000  0.34591000  1.0
  O  O150  1  0.38157000  0.80673000  0.15411000  1.0
  O  O151  1  0.11846000  0.69322000  0.65411000  1.0
  O  O152  1  0.90842000  0.50410000  0.54419000  1.0
  O  O153  1  0.59163000  0.99589000  0.04423000  1.0
  O  O154  1  0.09160000  0.49594000  0.45578000  1.0
  O  O155  1  0.40844000  0.00409000  0.95577000  1.0
  O  O156  1  0.27104000  0.36815000  0.53636000  1.0
  O  O157  1  0.22911000  0.13188000  0.03630000  1.0
  O  O158  1  0.72915000  0.63185000  0.46369000  1.0
  O  O159  1  0.77101000  0.86816000  0.96364000  1.0
