# generated using pymatgen
data_CdH18C20(N6O)2
_symmetry_space_group_name_H-M   'P 1'
_cell_length_a   7.64915000
_cell_length_b   8.00703000
_cell_length_c   8.96134000
_cell_angle_alpha   102.26300000
_cell_angle_beta   95.33810000
_cell_angle_gamma   107.66800000
_symmetry_Int_Tables_number   1
_chemical_formula_structural   CdH18C20(N6O)2
_chemical_formula_sum   'Cd1 H18 C20 N12 O2'
_cell_volume   503.66950500
_cell_formula_units_Z   1
loop_
 _symmetry_equiv_pos_site_id
 _symmetry_equiv_pos_as_xyz
  1  'x, y, z'
loop_
 _atom_site_type_symbol
 _atom_site_label
 _atom_site_symmetry_multiplicity
 _atom_site_fract_x
 _atom_site_fract_y
 _atom_site_fract_z
 _atom_site_occupancy
  Cd  Cd0  1  0.00000000  0.00000000  0.00000000  1.0
  H  H1  1  0.93922000  0.04171000  0.64596000  1.0
  H  H2  1  0.06078000  0.95830000  0.35404000  1.0
  H  H3  1  0.66779000  0.75618000  0.12252000  1.0
  H  H4  1  0.33221000  0.24382000  0.87748000  1.0
  H  H5  1  0.77250000  0.62834000  0.04373000  1.0
  H  H6  1  0.22750000  0.37166000  0.95627000  1.0
  H  H7  1  0.38955000  0.22259000  0.11596000  1.0
  H  H8  1  0.61045000  0.77741000  0.88404000  1.0
  H  H9  1  0.64993000  0.97925000  0.41486000  1.0
  H  H10  1  0.35007000  0.02074000  0.58514000  1.0
  H  H11  1  0.78131000  0.75989000  0.37936000  1.0
  H  H12  1  0.21869000  0.24012000  0.62064000  1.0
  H  H13  1  0.87918000  0.54900000  0.76436000  1.0
  H  H14  1  0.12082000  0.45100000  0.23564000  1.0
  H  H15  1  0.83177000  0.28316000  0.58170000  1.0
  H  H16  1  0.16824000  0.71684000  0.41830000  1.0
  H  H17  1  0.55911000  0.52319000  0.28494000  1.0
  H  H18  1  0.44089000  0.47681000  0.71506000  1.0
  C  C19  1  0.90215000  0.89676000  0.62957000  1.0
  C  C20  1  0.09785000  0.10324000  0.37043000  1.0
  C  C21  1  0.87552000  0.64516000  0.69637000  1.0
  C  C22  1  0.12448000  0.35484000  0.30363000  1.0
  C  C23  1  0.82107000  0.75963000  0.49847000  1.0
  C  C24  1  0.17893000  0.24037000  0.50154000  1.0
  C  C25  1  0.70779000  0.42350000  0.44471000  1.0
  C  C26  1  0.29221000  0.57650000  0.55529000  1.0
  C  C27  1  0.39232000  0.90008000  0.15668000  1.0
  C  C28  1  0.60768000  0.09992000  0.84332000  1.0
  C  C29  1  0.50648000  0.07872000  0.25314000  1.0
  C  C30  1  0.49352000  0.92128000  0.74686000  1.0
  C  C31  1  0.48546000  0.23461000  0.21810000  1.0
  C  C32  1  0.51453000  0.76539000  0.78190000  1.0
  C  C33  1  0.63314000  0.09885000  0.38492000  1.0
  C  C34  1  0.36686000  0.90115000  0.61507000  1.0
  C  C35  1  0.73362000  0.26978000  0.48017000  1.0
  C  C36  1  0.26638000  0.73021000  0.51983000  1.0
  C  C37  1  0.58325000  0.40534000  0.31302000  1.0
  C  C38  1  0.41675000  0.59466000  0.68698000  1.0
  N  N39  1  0.93528000  0.82399000  0.75128000  1.0
  N  N40  1  0.06473000  0.17601000  0.24872000  1.0
  N  N41  1  0.80353000  0.59963000  0.54199000  1.0
  N  N42  1  0.19647000  0.40037000  0.45801000  1.0
  N  N43  1  0.22663000  0.86389000  0.06596000  1.0
  N  N44  1  0.77336000  0.13611000  0.93404000  1.0
  N  N45  1  0.16518000  0.68458000  0.00031000  1.0
  N  N46  1  0.83482000  0.31542000  0.99969000  1.0
  N  N47  1  0.28810000  0.61469000  0.04823000  1.0
  N  N48  1  0.71190000  0.38531000  0.95177000  1.0
  N  N49  1  0.43330000  0.74621000  0.14687000  1.0
  N  N50  1  0.56670000  0.25378000  0.85313000  1.0
  O  O51  1  0.79352000  0.75665000  0.10025000  1.0
  O  O52  1  0.20647000  0.24334000  0.89975000  1.0
