# generated using pymatgen
data_Cu2H4C6N5Cl
_symmetry_space_group_name_H-M   'P 1'
_cell_length_a   3.56415000
_cell_length_b   9.97625000
_cell_length_c   11.53860000
_cell_angle_alpha   103.19700000
_cell_angle_beta   90.08920000
_cell_angle_gamma   100.20500000
_symmetry_Int_Tables_number   1
_chemical_formula_structural   Cu2H4C6N5Cl
_chemical_formula_sum   'Cu4 H8 C12 N10 Cl2'
_cell_volume   392.74421797
_cell_formula_units_Z   2
loop_
 _symmetry_equiv_pos_site_id
 _symmetry_equiv_pos_as_xyz
  1  'x, y, z'
loop_
 _atom_site_type_symbol
 _atom_site_label
 _atom_site_symmetry_multiplicity
 _atom_site_fract_x
 _atom_site_fract_y
 _atom_site_fract_z
 _atom_site_occupancy
  Cu  Cu0  1  0.82750000  0.65358000  0.83700000  1.0
  Cu  Cu1  1  0.82255000  0.65367000  0.33716000  1.0
  Cu  Cu2  1  0.74873000  0.84154000  0.65307000  1.0
  Cu  Cu3  1  0.09204000  0.84178000  0.15214000  1.0
  H  H4  1  0.06592000  0.98767000  0.48134000  1.0
  H  H5  1  0.92421000  0.98843000  0.97997000  1.0
  H  H6  1  0.10518000  0.22797000  0.44813000  1.0
  H  H7  1  0.12292000  0.22926000  0.94784000  1.0
  H  H8  1  0.61209000  0.10169000  0.81261000  1.0
  H  H9  1  0.49354000  0.10090000  0.31139000  1.0
  H  H10  1  0.65743000  0.34821000  0.79748000  1.0
  H  H11  1  0.69301000  0.34776000  0.29717000  1.0
  C  C12  1  0.97376000  0.07022000  0.54810000  1.0
  C  C13  1  0.09861000  0.07073000  0.04703000  1.0
  C  C14  1  0.99706000  0.20399000  0.53054000  1.0
  C  C15  1  0.20758000  0.20472000  0.03006000  1.0
  C  C16  1  0.72886000  0.13555000  0.73453000  1.0
  C  C17  1  0.40985000  0.13523000  0.23350000  1.0
  C  C18  1  0.75198000  0.27291000  0.72457000  1.0
  C  C19  1  0.52288000  0.27275000  0.22411000  1.0
  C  C20  1  0.87826000  0.30843000  0.61868000  1.0
  C  C21  1  0.43044000  0.30886000  0.11850000  1.0
  C  C22  1  0.86412000  0.44284000  0.59116000  1.0
  C  C23  1  0.57768000  0.44336000  0.09120000  1.0
  N  N24  1  0.80551000  0.56336000  0.66473000  1.0
  N  N25  1  0.75670000  0.56382000  0.16476000  1.0
  N  N26  1  0.78653000  0.65158000  0.59307000  1.0
  N  N27  1  0.86270000  0.65204000  0.09309000  1.0
  N  N28  1  0.83048000  0.58561000  0.48042000  1.0
  N  N29  1  0.75216000  0.58606000  0.98044000  1.0
  N  N30  1  0.88161000  0.45640000  0.47755000  1.0
  N  N31  1  0.57252000  0.45692000  0.97756000  1.0
  N  N32  1  0.83268000  0.03407000  0.64797000  1.0
  N  N33  1  0.20459000  0.03404000  0.14668000  1.0
  Cl  Cl34  1  0.41053000  0.82456000  0.83897000  1.0
  Cl  Cl35  1  0.41034000  0.82454000  0.33927000  1.0
