# generated using pymatgen
data_BaDy2H32(C10O7)4
_symmetry_space_group_name_H-M   'P 1'
_cell_length_a   10.52860000
_cell_length_b   11.18280000
_cell_length_c   22.87700000
_cell_angle_alpha   90.00000000
_cell_angle_beta   90.00000000
_cell_angle_gamma   115.93300000
_symmetry_Int_Tables_number   1
_chemical_formula_structural   BaDy2H32(C10O7)4
_chemical_formula_sum   'Ba2 Dy4 H64 C80 O56'
_cell_volume   2422.29912027
_cell_formula_units_Z   2
loop_
 _symmetry_equiv_pos_site_id
 _symmetry_equiv_pos_as_xyz
  1  'x, y, z'
loop_
 _atom_site_type_symbol
 _atom_site_label
 _atom_site_symmetry_multiplicity
 _atom_site_fract_x
 _atom_site_fract_y
 _atom_site_fract_z
 _atom_site_occupancy
  Ba  Ba0  1  0.00000000  0.00000000  0.00000000  1.0
  Ba  Ba1  1  0.50000000  0.00000000  0.50000000  1.0
  Dy  Dy2  1  0.28624000  0.85742000  0.96624000  1.0
  Dy  Dy3  1  0.21376000  0.14258000  0.46624000  1.0
  Dy  Dy4  1  0.71376000  0.14258000  0.03375000  1.0
  Dy  Dy5  1  0.78624000  0.85742000  0.53376000  1.0
  H  H6  1  0.13551000  0.60597000  0.01740000  1.0
  H  H7  1  0.36449000  0.39403000  0.51740000  1.0
  H  H8  1  0.86449000  0.39403000  0.98259000  1.0
  H  H9  1  0.63551000  0.60597000  0.48260000  1.0
  H  H10  1  0.13645000  0.56294000  0.95207000  1.0
  H  H11  1  0.36355000  0.43706000  0.45207000  1.0
  H  H12  1  0.86355000  0.43706000  0.04793000  1.0
  H  H13  1  0.63646000  0.56294000  0.54793000  1.0
  H  H14  1  0.37485000  0.78938000  0.85753000  1.0
  H  H15  1  0.12514000  0.21062000  0.35753000  1.0
  H  H16  1  0.62515000  0.21062000  0.14247000  1.0
  H  H17  1  0.87485000  0.78938000  0.64247000  1.0
  H  H18  1  0.21693000  0.77589000  0.84571000  1.0
  H  H19  1  0.28307000  0.22411000  0.34571000  1.0
  H  H20  1  0.78307000  0.22411000  0.15429000  1.0
  H  H21  1  0.71693000  0.77589000  0.65429000  1.0
  H  H22  1  0.18897000  0.63226000  0.13351000  1.0
  H  H23  1  0.31103000  0.36774000  0.63351000  1.0
  H  H24  1  0.81103000  0.36774000  0.86649000  1.0
  H  H25  1  0.68898000  0.63226000  0.36649000  1.0
  H  H26  1  0.77757000  0.50199000  0.14381000  1.0
  H  H27  1  0.72243000  0.49801000  0.64381000  1.0
  H  H28  1  0.22243000  0.49801000  0.85619000  1.0
  H  H29  1  0.27758000  0.50199000  0.35619000  1.0
  H  H30  1  0.22939000  0.53281000  0.23809000  1.0
  H  H31  1  0.27061000  0.46719000  0.73809000  1.0
  H  H32  1  0.77061000  0.46719000  0.76191000  1.0
  H  H33  1  0.72939000  0.53281000  0.26191000  1.0
  H  H34  1  0.59480000  0.60515000  0.17828000  1.0
  H  H35  1  0.90520000  0.39484000  0.67828000  1.0
  H  H36  1  0.40521000  0.39485000  0.82172000  1.0
  H  H37  1  0.09480000  0.60515000  0.32172000  1.0
  H  H38  1  0.13469000  0.38318000  0.06324000  1.0
  H  H39  1  0.36531000  0.61682000  0.56325000  1.0
  H  H40  1  0.86531000  0.61682000  0.93676000  1.0
  H  H41  1  0.63469000  0.38318000  0.43676000  1.0
  H  H42  1  0.92609000  0.88211000  0.74337000  1.0
  H  H43  1  0.57391000  0.11789000  0.24337000  1.0
  H  H44  1  0.07391000  0.11789000  0.25663000  1.0
  H  H45  1  0.42609000  0.88211000  0.75663000  1.0
  H  H46  1  0.77440000  0.06623000  0.87677000  1.0
  H  H47  1  0.72560000  0.93377000  0.37677000  1.0
  H  H48  1  0.22560000  0.93377000  0.12323000  1.0
  H  H49  1  0.27440000  0.06623000  0.62323000  1.0
  H  H50  1  0.56822000  0.43116000  0.06496000  1.0
  H  H51  1  0.93178000  0.56884000  0.56496000  1.0
  H  H52  1  0.43178000  0.56884000  0.93504000  1.0
  H  H53  1  0.06822000  0.43116000  0.43504000  1.0
  H  H54  1  0.74871000  0.99859000  0.75837000  1.0
  H  H55  1  0.75129000  0.00141000  0.25837000  1.0
  H  H56  1  0.25129000  0.00141000  0.24163000  1.0
  H  H57  1  0.24871000  0.99859000  0.74163000  1.0
  H  H58  1  0.68606000  0.84349000  0.11837000  1.0
  H  H59  1  0.81393000  0.15651000  0.61837000  1.0
  H  H60  1  0.31394000  0.15651000  0.88163000  1.0
  H  H61  1  0.18606000  0.84349000  0.38163000  1.0
  H  H62  1  0.40898000  0.56823000  0.08384000  1.0
  H  H63  1  0.09101000  0.43177000  0.58384000  1.0
  H  H64  1  0.59102000  0.43177000  0.91616000  1.0
  H  H65  1  0.90898000  0.56822000  0.41616000  1.0
  H  H66  1  0.49558000  0.71349000  0.27380000  1.0
  H  H67  1  0.00442000  0.28651000  0.77380000  1.0
  H  H68  1  0.50443000  0.28651000  0.72620000  1.0
  H  H69  1  0.99558000  0.71349000  0.22620000  1.0
  C  C70  1  0.99328000  0.68770000  0.05978000  1.0
  C  C71  1  0.50672000  0.31230000  0.55978000  1.0
  C  C72  1  0.00672000  0.31230000  0.94022000  1.0
  C  C73  1  0.49328000  0.68770000  0.44022000  1.0
  C  C74  1  0.38451000  0.15141000  0.02949000  1.0
  C  C75  1  0.11549000  0.84859000  0.52949000  1.0
  C  C76  1  0.61548000  0.84859000  0.97051000  1.0
  C  C77  1  0.88451000  0.15141000  0.47052000  1.0
  C  C78  1  0.28119000  0.67341000  0.16174000  1.0
  C  C79  1  0.21882000  0.32659000  0.66174000  1.0
  C  C80  1  0.71882000  0.32659000  0.83826000  1.0
  C  C81  1  0.78118000  0.67341000  0.33826000  1.0
  C  C82  1  0.77786000  0.59551000  0.13067000  1.0
  C  C83  1  0.72214000  0.40449000  0.63067000  1.0
  C  C84  1  0.22215000  0.40449000  0.86933000  1.0
  C  C85  1  0.27786000  0.59551000  0.36933000  1.0
  C  C86  1  0.30241000  0.62229000  0.21595000  1.0
  C  C87  1  0.19759000  0.37771000  0.71595000  1.0
  C  C88  1  0.69759000  0.37771000  0.78405000  1.0
  C  C89  1  0.80241000  0.62229000  0.28405000  1.0
  C  C90  1  0.87177000  0.68509000  0.09219000  1.0
  C  C91  1  0.62823000  0.31491000  0.59218000  1.0
  C  C92  1  0.12823000  0.31491000  0.90782000  1.0
  C  C93  1  0.37177000  0.68509000  0.40782000  1.0
  C  C94  1  0.36264000  0.26720000  0.04623000  1.0
  C  C95  1  0.13736000  0.73280000  0.54623000  1.0
  C  C96  1  0.63736000  0.73280000  0.95377000  1.0
  C  C97  1  0.86264000  0.26719000  0.45377000  1.0
  C  C98  1  0.44598000  0.87722000  0.09987000  1.0
  C  C99  1  0.05402000  0.12278000  0.59987000  1.0
  C  C100  1  0.55402000  0.12277000  0.90013000  1.0
  C  C101  1  0.94598000  0.87722000  0.40013000  1.0
  C  C102  1  0.68286000  0.64874000  0.14818000  1.0
  C  C103  1  0.81714000  0.35125000  0.64818000  1.0
  C  C104  1  0.31714000  0.35126000  0.85182000  1.0
  C  C105  1  0.18286000  0.64874000  0.35182000  1.0
  C  C106  1  0.40277000  0.78711000  0.15057000  1.0
  C  C107  1  0.09724000  0.21290000  0.65057000  1.0
  C  C108  1  0.59724000  0.21289000  0.84943000  1.0
  C  C109  1  0.90277000  0.78711000  0.34943000  1.0
  C  C110  1  0.23451000  0.37706000  0.06111000  1.0
  C  C111  1  0.26550000  0.62294000  0.56111000  1.0
  C  C112  1  0.76550000  0.62294000  0.93889000  1.0
  C  C113  1  0.73451000  0.37706000  0.43889000  1.0
  C  C114  1  0.06693000  0.87122000  0.85630000  1.0
  C  C115  1  0.43306000  0.12878000  0.35630000  1.0
  C  C116  1  0.93306000  0.12878000  0.14370000  1.0
  C  C117  1  0.56694000  0.87122000  0.64370000  1.0
  C  C118  1  0.90523000  0.92128000  0.78364000  1.0
  C  C119  1  0.59476000  0.07872000  0.28364000  1.0
  C  C120  1  0.09476000  0.07872000  0.21636000  1.0
  C  C121  1  0.40524000  0.92128000  0.71636000  1.0
  C  C122  1  0.82196000  0.01736000  0.84945000  1.0
  C  C123  1  0.67803000  0.98264000  0.34945000  1.0
  C  C124  1  0.17804000  0.98264000  0.15055000  1.0
  C  C125  1  0.32196000  0.01736000  0.65055000  1.0
  C  C126  1  0.96497000  0.92072000  0.83697000  1.0
  C  C127  1  0.53503000  0.07928000  0.33697000  1.0
  C  C128  1  0.03503000  0.07928000  0.16303000  1.0
  C  C129  1  0.46498000  0.92072000  0.66303000  1.0
  C  C130  1  0.45455000  0.39421000  0.06202000  1.0
  C  C131  1  0.04545000  0.60580000  0.56202000  1.0
  C  C132  1  0.54545000  0.60579000  0.93798000  1.0
  C  C133  1  0.95455000  0.39420000  0.43798000  1.0
  C  C134  1  0.81325000  0.98309000  0.79167000  1.0
  C  C135  1  0.68674000  0.01691000  0.29166000  1.0
  C  C136  1  0.18675000  0.01691000  0.20833000  1.0
  C  C137  1  0.31325000  0.98309000  0.70833000  1.0
  C  C138  1  0.72350000  0.76715000  0.11941000  1.0
  C  C139  1  0.77650000  0.23285000  0.61941000  1.0
  C  C140  1  0.27650000  0.23285000  0.88059000  1.0
  C  C141  1  0.22351000  0.76715000  0.38059000  1.0
  C  C142  1  0.37195000  0.46498000  0.07141000  1.0
  C  C143  1  0.12805000  0.53502000  0.57141000  1.0
  C  C144  1  0.62805000  0.53502000  0.92859000  1.0
  C  C145  1  0.87195000  0.46498000  0.42859000  1.0
  C  C146  1  0.43464000  0.70854000  0.23490000  1.0
  C  C147  1  0.06536000  0.29146000  0.73490000  1.0
  C  C148  1  0.56536000  0.29146000  0.76510000  1.0
  C  C149  1  0.93464000  0.70854000  0.26510000  1.0
  O  O150  1  0.28080000  0.05180000  0.00638000  1.0
  O  O151  1  0.21920000  0.94820000  0.50638000  1.0
  O  O152  1  0.71920000  0.94820000  0.99362000  1.0
  O  O153  1  0.78080000  0.05180000  0.49362000  1.0
  O  O154  1  0.22632000  0.25591000  0.04517000  1.0
  O  O155  1  0.27368000  0.74409000  0.54517000  1.0
  O  O156  1  0.77368000  0.74409000  0.95483000  1.0
  O  O157  1  0.72632000  0.25591000  0.45482000  1.0
  O  O158  1  0.10519000  0.88645000  0.91065000  1.0
  O  O159  1  0.39481000  0.11355000  0.41065000  1.0
  O  O160  1  0.89481000  0.11355000  0.08935000  1.0
  O  O161  1  0.60519000  0.88645000  0.58935000  1.0
  O  O162  1  0.06270000  0.78687000  0.02634000  1.0
  O  O163  1  0.43730000  0.21313000  0.52634000  1.0
  O  O164  1  0.93730000  0.21313000  0.97366000  1.0
  O  O165  1  0.56270000  0.78687000  0.47366000  1.0
  O  O166  1  0.02013000  0.58781000  0.06722000  1.0
  O  O167  1  0.47987000  0.41219000  0.56722000  1.0
  O  O168  1  0.97987000  0.41219000  0.93278000  1.0
  O  O169  1  0.52013000  0.58781000  0.43278000  1.0
  O  O170  1  0.91364000  0.97984000  0.87780000  1.0
  O  O171  1  0.58635000  0.02016000  0.37780000  1.0
  O  O172  1  0.08636000  0.02016000  0.12220000  1.0
  O  O173  1  0.41364000  0.97984000  0.62220000  1.0
  O  O174  1  0.19691000  0.62800000  0.98130000  1.0
  O  O175  1  0.30309000  0.37200000  0.48130000  1.0
  O  O176  1  0.80309000  0.37200000  0.01870000  1.0
  O  O177  1  0.69691000  0.62800000  0.51870000  1.0
  O  O178  1  0.34941000  0.85577000  0.06212000  1.0
  O  O179  1  0.15059000  0.14424000  0.56212000  1.0
  O  O180  1  0.65059000  0.14423000  0.93788000  1.0
  O  O181  1  0.84941000  0.85577000  0.43788000  1.0
  O  O182  1  0.83808000  0.79050000  0.08487000  1.0
  O  O183  1  0.66192000  0.20950000  0.58487000  1.0
  O  O184  1  0.16192000  0.20950000  0.91513000  1.0
  O  O185  1  0.33809000  0.79050000  0.41513000  1.0
  O  O186  1  0.27904000  0.74948000  0.87276000  1.0
  O  O187  1  0.22096000  0.25052000  0.37276000  1.0
  O  O188  1  0.72096000  0.25052000  0.12723000  1.0
  O  O189  1  0.77904000  0.74948000  0.62723000  1.0
  O  O190  1  0.10974000  0.81646000  0.81773000  1.0
  O  O191  1  0.39025000  0.18355000  0.31773000  1.0
  O  O192  1  0.89025000  0.18354000  0.18227000  1.0
  O  O193  1  0.60975000  0.81646000  0.68227000  1.0
  O  O194  1  0.49771000  0.80914000  0.19565000  1.0
  O  O195  1  0.00229000  0.19086000  0.69565000  1.0
  O  O196  1  0.50230000  0.19086000  0.80435000  1.0
  O  O197  1  0.99771000  0.80914000  0.30435000  1.0
  O  O198  1  0.50547000  0.15724000  0.03868000  1.0
  O  O199  1  0.99453000  0.84276000  0.53868000  1.0
  O  O200  1  0.49453000  0.84276000  0.96132000  1.0
  O  O201  1  0.00547000  0.15724000  0.46132000  1.0
  O  O202  1  0.57288000  0.96683000  0.09715000  1.0
  O  O203  1  0.92712000  0.03317000  0.59715000  1.0
  O  O204  1  0.42712000  0.03317000  0.90285000  1.0
  O  O205  1  0.07288000  0.96684000  0.40285000  1.0
