# generated using pymatgen
data_ZnH19C26N3O4
_symmetry_space_group_name_H-M   'P 1'
_cell_length_a   17.17360000
_cell_length_b   18.25250000
_cell_length_c   19.66300000
_cell_angle_alpha   89.98170000
_cell_angle_beta   88.33650000
_cell_angle_gamma   84.81010000
_symmetry_Int_Tables_number   1
_chemical_formula_structural   ZnH19C26N3O4
_chemical_formula_sum   'Zn2 H38 C52 N6 O8'
_cell_volume   6135.71436435
_cell_formula_units_Z   2
loop_
 _symmetry_equiv_pos_site_id
 _symmetry_equiv_pos_as_xyz
  1  'x, y, z'
loop_
 _atom_site_type_symbol
 _atom_site_label
 _atom_site_symmetry_multiplicity
 _atom_site_fract_x
 _atom_site_fract_y
 _atom_site_fract_z
 _atom_site_occupancy
  Zn  Zn0  1  0.49675000  0.57560000  0.50249000  1.0
  Zn  Zn1  1  0.50119000  0.42312000  0.50244000  1.0
  H  H2  1  0.73866000  0.59945000  0.47913000  1.0
  H  H3  1  0.58708000  0.16238000  0.42168000  1.0
  H  H4  1  0.41460000  0.69988000  0.57794000  1.0
  H  H5  1  0.58293000  0.30004000  0.42550000  1.0
  H  H6  1  0.48021000  0.93360000  0.61003000  1.0
  H  H7  1  0.51907000  0.06498000  0.39226000  1.0
  H  H8  1  0.47655000  0.06899000  0.60941000  1.0
  H  H9  1  0.52281000  0.92959000  0.39289000  1.0
  H  H10  1  0.88538000  0.59596000  0.47487000  1.0
  H  H11  1  0.11671000  0.40453000  0.47283000  1.0
  H  H12  1  0.24269000  0.63467000  0.51637000  1.0
  H  H13  1  0.26148000  0.40046000  0.49089000  1.0
  H  H14  1  0.75379000  0.36439000  0.46245000  1.0
  H  H15  1  0.49586000  0.38384000  0.28587000  1.0
  H  H16  1  0.50350000  0.61553000  0.71848000  1.0
  H  H17  1  0.50179000  0.38293000  0.15902000  1.0
  H  H18  1  0.49942000  0.61713000  0.84529000  1.0
  H  H19  1  0.48602000  0.61994000  0.15932000  1.0
  H  H20  1  0.51408000  0.38020000  0.84622000  1.0
  H  H21  1  0.41363000  0.59529000  0.06427000  1.0
  H  H22  1  0.58811000  0.40524000  0.94068000  1.0
  H  H23  1  0.02891000  0.64839000  0.49153000  1.0
  H  H24  1  0.41853000  0.59395000  0.93882000  1.0
  H  H25  1  0.06459000  0.76646000  0.50938000  1.0
  H  H26  1  0.16043000  0.73821000  0.47713000  1.0
  H  H27  1  0.13635000  0.72567000  0.56497000  1.0
  H  H28  1  0.97012000  0.35142000  0.45600000  1.0
  H  H29  1  0.93208000  0.23283000  0.45077000  1.0
  H  H30  1  0.84430000  0.26723000  0.41142000  1.0
  H  H31  1  0.84879000  0.26580000  0.50193000  1.0
  H  H32  1  0.47863000  0.61936000  0.28617000  1.0
  H  H33  1  0.51932000  0.37996000  0.71939000  1.0
  H  H34  1  0.58329000  0.40667000  0.06616000  1.0
  H  H35  1  0.58840000  0.68332000  0.42769000  1.0
  H  H36  1  0.40948000  0.31425000  0.57607000  1.0
  H  H37  1  0.59372000  0.82021000  0.42376000  1.0
  H  H38  1  0.40470000  0.17734000  0.57864000  1.0
  H  H39  1  0.41097000  0.83749000  0.58038000  1.0
  C  C40  1  0.51232000  0.49745000  0.63496000  1.0
  C  C41  1  0.51532000  0.43155000  0.74769000  1.0
  C  C42  1  0.48696000  0.50160000  0.29356000  1.0
  C  C43  1  0.51163000  0.49771000  0.71122000  1.0
  C  C44  1  0.45303000  0.55415000  0.03734000  1.0
  C  C45  1  0.54872000  0.44640000  0.96761000  1.0
  C  C46  1  0.45581000  0.55339000  0.96656000  1.0
  C  C47  1  0.54597000  0.44719000  0.03840000  1.0
  C  C48  1  0.50366000  0.49946000  0.93011000  1.0
  C  C49  1  0.49796000  0.50100000  0.07484000  1.0
  C  C50  1  0.55022000  0.72025000  0.46024000  1.0
  C  C51  1  0.48531000  0.50153000  0.36976000  1.0
  C  C52  1  0.44782000  0.27786000  0.54318000  1.0
  C  C53  1  0.55233000  0.79614000  0.45829000  1.0
  C  C54  1  0.44599000  0.20193000  0.54439000  1.0
  C  C55  1  0.34573000  0.51453000  0.51414000  1.0
  C  C56  1  0.65160000  0.48421000  0.47997000  1.0
  C  C57  1  0.50232000  0.84084000  0.50199000  1.0
  C  C58  1  0.49625000  0.15780000  0.50040000  1.0
  C  C59  1  0.45210000  0.80559000  0.54627000  1.0
  C  C60  1  0.54600000  0.19373000  0.45623000  1.0
  C  C61  1  0.45324000  0.72948000  0.54508000  1.0
  C  C62  1  0.49771000  0.43503000  0.18663000  1.0
  C  C63  1  0.54460000  0.26986000  0.45816000  1.0
  C  C64  1  0.48759000  0.96237000  0.56199000  1.0
  C  C65  1  0.51172000  0.03623000  0.44030000  1.0
  C  C66  1  0.48550000  0.03868000  0.56163000  1.0
  C  C67  1  0.51384000  0.95992000  0.44066000  1.0
  C  C68  1  0.49753000  0.07694000  0.50074000  1.0
  C  C69  1  0.50164000  0.92166000  0.50152000  1.0
  C  C70  1  0.25900000  0.51763000  0.50543000  1.0
  C  C71  1  0.73891000  0.48167000  0.47147000  1.0
  C  C72  1  0.22427000  0.45198000  0.49286000  1.0
  C  C73  1  0.50294000  0.56486000  0.81794000  1.0
  C  C74  1  0.77533000  0.54784000  0.47377000  1.0
  C  C75  1  0.14484000  0.45442000  0.48265000  1.0
  C  C76  1  0.85595000  0.54577000  0.47139000  1.0
  C  C77  1  0.09759000  0.52163000  0.48466000  1.0
  C  C78  1  0.90278000  0.47847000  0.46614000  1.0
  C  C79  1  0.13276000  0.58878000  0.49664000  1.0
  C  C80  1  0.86606000  0.41119000  0.46040000  1.0
  C  C81  1  0.21385000  0.58504000  0.50724000  1.0
  C  C82  1  0.78371000  0.41442000  0.46408000  1.0
  C  C83  1  0.49390000  0.43513000  0.25735000  1.0
  C  C84  1  0.49433000  0.50139000  0.14992000  1.0
  C  C85  1  0.50566000  0.56436000  0.74718000  1.0
  C  C86  1  0.11364000  0.72397000  0.51303000  1.0
  C  C87  1  0.88252000  0.27506000  0.45449000  1.0
  C  C88  1  0.50658000  0.49873000  0.85501000  1.0
  C  C89  1  0.48703000  0.56788000  0.18675000  1.0
  C  C90  1  0.51297000  0.43206000  0.81847000  1.0
  C  C91  1  0.48348000  0.56799000  0.25751000  1.0
  N  N92  1  0.01716000  0.52964000  0.47746000  1.0
  N  N93  1  0.98381000  0.47034000  0.46892000  1.0
  N  N94  1  0.50137000  0.68762000  0.50276000  1.0
  N  N95  1  0.49659000  0.31111000  0.50107000  1.0
  N  N96  1  0.08674000  0.65361000  0.49716000  1.0
  N  N97  1  0.91188000  0.34658000  0.45282000  1.0
  O  O98  1  0.50978000  0.55973000  0.60534000  1.0
  O  O99  1  0.48935000  0.43906000  0.39907000  1.0
  O  O100  1  0.51468000  0.43512000  0.60538000  1.0
  O  O101  1  0.48087000  0.56382000  0.39955000  1.0
  O  O102  1  0.37680000  0.57525000  0.51763000  1.0
  O  O103  1  0.62086000  0.42331000  0.48462000  1.0
  O  O104  1  0.38249000  0.45062000  0.51605000  1.0
  O  O105  1  0.61447000  0.54797000  0.48307000  1.0
