# generated using pymatgen
data_CdH26(C9N2)4
_symmetry_space_group_name_H-M   'P 1'
_cell_length_a   9.10840000
_cell_length_b   13.30410000
_cell_length_c   16.81120000
_cell_angle_alpha   104.92900000
_cell_angle_beta   90.06180000
_cell_angle_gamma   109.98100000
_symmetry_Int_Tables_number   1
_chemical_formula_structural   CdH26(C9N2)4
_chemical_formula_sum   'Cd2 H52 C72 N16'
_cell_volume   1840.98814179
_cell_formula_units_Z   2
loop_
 _symmetry_equiv_pos_site_id
 _symmetry_equiv_pos_as_xyz
  1  'x, y, z'
loop_
 _atom_site_type_symbol
 _atom_site_label
 _atom_site_symmetry_multiplicity
 _atom_site_fract_x
 _atom_site_fract_y
 _atom_site_fract_z
 _atom_site_occupancy
  Cd  Cd0  1  0.91254000  0.99075000  0.25980000  1.0
  Cd  Cd1  1  0.07800000  0.99076000  0.75969000  1.0
  H  H2  1  0.55756000  0.00308000  0.27734000  1.0
  H  H3  1  0.44540000  0.00268000  0.77734000  1.0
  H  H4  1  0.48987000  0.19415000  0.33503000  1.0
  H  H5  1  0.70424000  0.19362000  0.83483000  1.0
  H  H6  1  0.74778000  0.36169000  0.32046000  1.0
  H  H7  1  0.61401000  0.36121000  0.81987000  1.0
  H  H8  1  0.31699000  0.39222000  0.22165000  1.0
  H  H9  1  0.07564000  0.39231000  0.72092000  1.0
  H  H10  1  0.47034000  0.24798000  0.17510000  1.0
  H  H11  1  0.77755000  0.24868000  0.67530000  1.0
  H  H12  1  0.26795000  0.04754000  0.18709000  1.0
  H  H13  1  0.77909000  0.04826000  0.68799000  1.0
  H  H14  1  0.87304000  0.37857000  0.16656000  1.0
  H  H15  1  0.50523000  0.37839000  0.66568000  1.0
  H  H16  1  0.93849000  0.57953000  0.17970000  1.0
  H  H17  1  0.64092000  0.57937000  0.67908000  1.0
  H  H18  1  0.26366000  0.66031000  0.39273000  1.0
  H  H19  1  0.39749000  0.66000000  0.89227000  1.0
  H  H20  1  0.20693000  0.45898000  0.37500000  1.0
  H  H21  1  0.25262000  0.45874000  0.87422000  1.0
  H  H22  1  0.91291000  0.74145000  0.24953000  1.0
  H  H23  1  0.82904000  0.74120000  0.74932000  1.0
  H  H24  1  0.32705000  0.01517000  0.34626000  1.0
  H  H25  1  0.68868000  0.01500000  0.84594000  1.0
  H  H26  1  0.37991000  0.82227000  0.34981000  1.0
  H  H27  1  0.44325000  0.82223000  0.84967000  1.0
  H  H28  1  0.73483000  0.92412000  0.42040000  1.0
  H  H29  1  0.18984000  0.92375000  0.92020000  1.0
  H  H30  1  0.56342000  0.71620000  0.43322000  1.0
  H  H31  1  0.15264000  0.71560000  0.93291000  1.0
  H  H32  1  0.49979000  0.58164000  0.27644000  1.0
  H  H33  1  0.08102000  0.58115000  0.77608000  1.0
  H  H34  1  0.64002000  0.64148000  0.97697000  1.0
  H  H35  1  0.00071000  0.64170000  0.47669000  1.0
  H  H36  1  0.86388000  0.80028000  0.92678000  1.0
  H  H37  1  0.93539000  0.80064000  0.42659000  1.0
  H  H38  1  0.00702000  0.96528000  0.06745000  1.0
  H  H39  1  0.95736000  0.96550000  0.56727000  1.0
  H  H40  1  0.71353000  0.52351000  0.07139000  1.0
  H  H41  1  0.80943000  0.52360000  0.57035000  1.0
  H  H42  1  0.53321000  0.33050000  0.00755000  1.0
  H  H43  1  0.79691000  0.33063000  0.50653000  1.0
  H  H44  1  0.13897000  0.42954000  0.08216000  1.0
  H  H45  1  0.29012000  0.42961000  0.58190000  1.0
  H  H46  1  0.32107000  0.61987000  0.15147000  1.0
  H  H47  1  0.29792000  0.61977000  0.65140000  1.0
  H  H48  1  0.35163000  0.20766000  0.90409000  1.0
  H  H49  1  0.85416000  0.20646000  0.40439000  1.0
  H  H50  1  0.89844000  0.03899000  0.96021000  1.0
  H  H51  1  0.14236000  0.03976000  0.46015000  1.0
  H  H52  1  0.02531000  0.24210000  0.07881000  1.0
  H  H53  1  0.21858000  0.24332000  0.57821000  1.0
  C  C54  1  0.63204000  0.08829000  0.28131000  1.0
  C  C55  1  0.45610000  0.08792000  0.78125000  1.0
  C  C56  1  0.59851000  0.18744000  0.31212000  1.0
  C  C57  1  0.58891000  0.18700000  0.81189000  1.0
  C  C58  1  0.73048000  0.27370000  0.30342000  1.0
  C  C59  1  0.54329000  0.27325000  0.80293000  1.0
  C  C60  1  0.84242000  0.22442000  0.26878000  1.0
  C  C61  1  0.38201000  0.22406000  0.76833000  1.0
  C  C62  1  0.99946000  0.28370000  0.25833000  1.0
  C  C63  1  0.28451000  0.28347000  0.75758000  1.0
  C  C64  1  0.12191000  0.24249000  0.23826000  1.0
  C  C65  1  0.12084000  0.24245000  0.73757000  1.0
  C  C66  1  0.27470000  0.30464000  0.21914000  1.0
  C  C67  1  0.03024000  0.30482000  0.71860000  1.0
  C  C68  1  0.35244000  0.23069000  0.19407000  1.0
  C  C69  1  0.87824000  0.23120000  0.69410000  1.0
  C  C70  1  0.24731000  0.12588000  0.20010000  1.0
  C  C71  1  0.87832000  0.12639000  0.70040000  1.0
  C  C72  1  0.03752000  0.40484000  0.26897000  1.0
  C  C73  1  0.36761000  0.40460000  0.76819000  1.0
  C  C74  1  0.96021000  0.44045000  0.21559000  1.0
  C  C75  1  0.48012000  0.44027000  0.71476000  1.0
  C  C76  1  0.99533000  0.55308000  0.22339000  1.0
  C  C77  1  0.55784000  0.55294000  0.72276000  1.0
  C  C78  1  0.10553000  0.63249000  0.28713000  1.0
  C  C79  1  0.52757000  0.63231000  0.78669000  1.0
  C  C80  1  0.18097000  0.59852000  0.34205000  1.0
  C  C81  1  0.41838000  0.59823000  0.84157000  1.0
  C  C82  1  0.14831000  0.48551000  0.33209000  1.0
  C  C83  1  0.33781000  0.48522000  0.83141000  1.0
  C  C84  1  0.03314000  0.79127000  0.27459000  1.0
  C  C85  1  0.75868000  0.79106000  0.77440000  1.0
  C  C86  1  0.24809000  0.92934000  0.32644000  1.0
  C  C87  1  0.68174000  0.92917000  0.82610000  1.0
  C  C88  1  0.27623000  0.83525000  0.32964000  1.0
  C  C89  1  0.55969000  0.83510000  0.82935000  1.0
  C  C90  1  0.68585000  0.84760000  0.37070000  1.0
  C  C91  1  0.16205000  0.84724000  0.87043000  1.0
  C  C92  1  0.59584000  0.73952000  0.37659000  1.0
  C  C93  1  0.14348000  0.73901000  0.87628000  1.0
  C  C94  1  0.56363000  0.67068000  0.29617000  1.0
  C  C95  1  0.10650000  0.67023000  0.79583000  1.0
  C  C96  1  0.63605000  0.73911000  0.24333000  1.0
  C  C97  1  0.10286000  0.73886000  0.74303000  1.0
  C  C98  1  0.63846000  0.70090000  0.15660000  1.0
  C  C99  1  0.06182000  0.70077000  0.65627000  1.0
  C  C100  1  0.73183000  0.75813000  0.10441000  1.0
  C  C101  1  0.02591000  0.75830000  0.60413000  1.0
  C  C102  1  0.72227000  0.71940000  0.01549000  1.0
  C  C103  1  0.99639000  0.71959000  0.51522000  1.0
  C  C104  1  0.83533000  0.80098000  0.98951000  1.0
  C  C105  1  0.96486000  0.80127000  0.48929000  1.0
  C  C106  1  0.91125000  0.88713000  0.06270000  1.0
  C  C107  1  0.97519000  0.88737000  0.56250000  1.0
  C  C108  1  0.53035000  0.58534000  0.11636000  1.0
  C  C109  1  0.05419000  0.58523000  0.61592000  1.0
  C  C110  1  0.58742000  0.50260000  0.07437000  1.0
  C  C111  1  0.91460000  0.50261000  0.57352000  1.0
  C  C112  1  0.48625000  0.39428000  0.03777000  1.0
  C  C113  1  0.90760000  0.39433000  0.53688000  1.0
  C  C114  1  0.32414000  0.36765000  0.04075000  1.0
  C  C115  1  0.04303000  0.36763000  0.54023000  1.0
  C  C116  1  0.26502000  0.44959000  0.08069000  1.0
  C  C117  1  0.18403000  0.44962000  0.58034000  1.0
  C  C118  1  0.36759000  0.55670000  0.11932000  1.0
  C  C119  1  0.18837000  0.55663000  0.61906000  1.0
  C  C120  1  0.24465000  0.18659000  0.93424000  1.0
  C  C121  1  0.94103000  0.18593000  0.43439000  1.0
  C  C122  1  0.01097000  0.10490000  0.96507000  1.0
  C  C123  1  0.09498000  0.10534000  0.46505000  1.0
  C  C124  1  0.07017000  0.20597000  0.02336000  1.0
  C  C125  1  0.13682000  0.20666000  0.52300000  1.0
  N  N126  1  0.77633000  0.10959000  0.25580000  1.0
  N  N127  1  0.33306000  0.10923000  0.75568000  1.0
  N  N128  1  0.11130000  0.13216000  0.22648000  1.0
  N  N129  1  0.02082000  0.13230000  0.72624000  1.0
  N  N130  1  0.13790000  0.74714000  0.29605000  1.0
  N  N131  1  0.60998000  0.74697000  0.79586000  1.0
  N  N132  1  0.09626000  0.90091000  0.29230000  1.0
  N  N133  1  0.80498000  0.90067000  0.79196000  1.0
  N  N134  1  0.71082000  0.84808000  0.29204000  1.0
  N  N135  1  0.13761000  0.84788000  0.79177000  1.0
  N  N136  1  0.85051000  0.86273000  0.13066000  1.0
  N  N137  1  0.01189000  0.86294000  0.63043000  1.0
  N  N138  1  0.21970000  0.25811000  0.00292000  1.0
  N  N139  1  0.03821000  0.25812000  0.50271000  1.0
  N  N140  1  0.12036000  0.09403000  0.90947000  1.0
  N  N141  1  0.97345000  0.09365000  0.40976000  1.0
