# generated using pymatgen
data_CdH21C28(NO)4
_symmetry_space_group_name_H-M   'P 1'
_cell_length_a   10.66690000
_cell_length_b   13.14420000
_cell_length_c   20.95520000
_cell_angle_alpha   90.00000000
_cell_angle_beta   90.00010000
_cell_angle_gamma   113.93000000
_symmetry_Int_Tables_number   1
_chemical_formula_structural   CdH21C28(NO)4
_chemical_formula_sum   'Cd4 H84 C112 N16 O16'
_cell_volume   2685.53119229
_cell_formula_units_Z   4
loop_
 _symmetry_equiv_pos_site_id
 _symmetry_equiv_pos_as_xyz
  1  'x, y, z'
loop_
 _atom_site_type_symbol
 _atom_site_label
 _atom_site_symmetry_multiplicity
 _atom_site_fract_x
 _atom_site_fract_y
 _atom_site_fract_z
 _atom_site_occupancy
  Cd  Cd0  1  0.60128000  0.46418000  0.56503000  1.0
  Cd  Cd1  1  0.39872000  0.53581000  0.06503000  1.0
  Cd  Cd2  1  0.13743000  0.53591000  0.43474000  1.0
  Cd  Cd3  1  0.86257000  0.46409000  0.93474000  1.0
  H  H4  1  0.79139000  0.53204000  0.35730000  1.0
  H  H5  1  0.20861000  0.46796000  0.85730000  1.0
  H  H6  1  0.25917000  0.46806000  0.64243000  1.0
  H  H7  1  0.74083000  0.53195000  0.14243000  1.0
  H  H8  1  0.63841000  0.62799000  0.18737000  1.0
  H  H9  1  0.36159000  0.37201000  0.68737000  1.0
  H  H10  1  0.01023000  0.37221000  0.81235000  1.0
  H  H11  1  0.98977000  0.62779000  0.31235000  1.0
  H  H12  1  0.43211000  0.61422000  0.24649000  1.0
  H  H13  1  0.56788000  0.38577000  0.74649000  1.0
  H  H14  1  0.81767000  0.38588000  0.75320000  1.0
  H  H15  1  0.18233000  0.61412000  0.25320000  1.0
  H  H16  1  0.43465000  0.61913000  0.51323000  1.0
  H  H17  1  0.56535000  0.38087000  0.01323000  1.0
  H  H18  1  0.81570000  0.38135000  0.48666000  1.0
  H  H19  1  0.18430000  0.61865000  0.98666000  1.0
  H  H20  1  0.58673000  0.61628000  0.69936000  1.0
  H  H21  1  0.41327000  0.38372000  0.19936000  1.0
  H  H22  1  0.97059000  0.38358000  0.30057000  1.0
  H  H23  1  0.02941000  0.61642000  0.80058000  1.0
  H  H24  1  0.46011000  0.76419000  0.69629000  1.0
  H  H25  1  0.53990000  0.23581000  0.19629000  1.0
  H  H26  1  0.69607000  0.23570000  0.30376000  1.0
  H  H27  1  0.30394000  0.76430000  0.80376000  1.0
  H  H28  1  0.26768000  0.71931000  0.54264000  1.0
  H  H29  1  0.73231000  0.28068000  0.04264000  1.0
  H  H30  1  0.54859000  0.28097000  0.45732000  1.0
  H  H31  1  0.45141000  0.71903000  0.95732000  1.0
  H  H32  1  0.42624000  0.83817000  0.53870000  1.0
  H  H33  1  0.57375000  0.16183000  0.03870000  1.0
  H  H34  1  0.58834000  0.16213000  0.46135000  1.0
  H  H35  1  0.41166000  0.83787000  0.96135000  1.0
  H  H36  1  0.50379000  0.96787000  0.63356000  1.0
  H  H37  1  0.49621000  0.03213000  0.13356000  1.0
  H  H38  1  0.53553000  0.03192000  0.36666000  1.0
  H  H39  1  0.46447000  0.96808000  0.86667000  1.0
  H  H40  1  0.42897000  0.05391000  0.72249000  1.0
  H  H41  1  0.57103000  0.94609000  0.22249000  1.0
  H  H42  1  0.37441000  0.94587000  0.27781000  1.0
  H  H43  1  0.62559000  0.05413000  0.77782000  1.0
  H  H44  1  0.02302000  0.79184000  0.71169000  1.0
  H  H45  1  0.97698000  0.20816000  0.21169000  1.0
  H  H46  1  0.23121000  0.20841000  0.28846000  1.0
  H  H47  1  0.76878000  0.79159000  0.78846000  1.0
  H  H48  1  0.09836000  0.70432000  0.62339000  1.0
  H  H49  1  0.90164000  0.29568000  0.12339000  1.0
  H  H50  1  0.39443000  0.29601000  0.37662000  1.0
  H  H51  1  0.60557000  0.70399000  0.87662000  1.0
  H  H52  1  0.09462000  0.35447000  0.95479000  1.0
  H  H53  1  0.90538000  0.64554000  0.45479000  1.0
  H  H54  1  0.74068000  0.64572000  0.04527000  1.0
  H  H55  1  0.25932000  0.35428000  0.54527000  1.0
  H  H56  1  0.68666000  0.18370000  0.88989000  1.0
  H  H57  1  0.31334000  0.81630000  0.38989000  1.0
  H  H58  1  0.50279000  0.81599000  0.11008000  1.0
  H  H59  1  0.49721000  0.18401000  0.61008000  1.0
  H  H60  1  0.81250000  0.03405000  0.89722000  1.0
  H  H61  1  0.18750000  0.96595000  0.39721000  1.0
  H  H62  1  0.77813000  0.96590000  0.10298000  1.0
  H  H63  1  0.22187000  0.03410000  0.60298000  1.0
  H  H64  1  0.05279000  0.08066000  0.98149000  1.0
  H  H65  1  0.94722000  0.91934000  0.48149000  1.0
  H  H66  1  0.97219000  0.91968000  0.01869000  1.0
  H  H67  1  0.02781000  0.08032000  0.51869000  1.0
  H  H68  1  0.17959000  0.21126000  0.95697000  1.0
  H  H69  1  0.82041000  0.78874000  0.45697000  1.0
  H  H70  1  0.96862000  0.78910000  0.04315000  1.0
  H  H71  1  0.03138000  0.21090000  0.54315000  1.0
  H  H72  1  0.25149000  0.23920000  0.84050000  1.0
  H  H73  1  0.74852000  0.76080000  0.34050000  1.0
  H  H74  1  0.01230000  0.76097000  0.15962000  1.0
  H  H75  1  0.98770000  0.23903000  0.65963000  1.0
  H  H76  1  0.30320000  0.15051000  0.74657000  1.0
  H  H77  1  0.69680000  0.84949000  0.24657000  1.0
  H  H78  1  0.15246000  0.84956000  0.25365000  1.0
  H  H79  1  0.84754000  0.15044000  0.75365000  1.0
  H  H80  1  0.04473000  0.82712000  0.82140000  1.0
  H  H81  1  0.95527000  0.17288000  0.32140000  1.0
  H  H82  1  0.21768000  0.17307000  0.17886000  1.0
  H  H83  1  0.78232000  0.82693000  0.67886000  1.0
  H  H84  1  0.98666000  0.91650000  0.91322000  1.0
  H  H85  1  0.01334000  0.08350000  0.41322000  1.0
  H  H86  1  0.07042000  0.08378000  0.08694000  1.0
  H  H87  1  0.92958000  0.91622000  0.58694000  1.0
  C  C88  1  0.58666000  0.51307000  0.43563000  1.0
  C  C89  1  0.41334000  0.48692000  0.93564000  1.0
  C  C90  1  0.07351000  0.48715000  0.56412000  1.0
  C  C91  1  0.92649000  0.51285000  0.06412000  1.0
  C  C92  1  0.60079000  0.54867000  0.36708000  1.0
  C  C93  1  0.39921000  0.45133000  0.86708000  1.0
  C  C94  1  0.05195000  0.45145000  0.63264000  1.0
  C  C95  1  0.94805000  0.54855000  0.13264000  1.0
  C  C96  1  0.71518000  0.55319000  0.33274000  1.0
  C  C97  1  0.28482000  0.44681000  0.83274000  1.0
  C  C98  1  0.16179000  0.44687000  0.66697000  1.0
  C  C99  1  0.83821000  0.55313000  0.16697000  1.0
  C  C100  1  0.73076000  0.58036000  0.26766000  1.0
  C  C101  1  0.26924000  0.41964000  0.76766000  1.0
  C  C102  1  0.15015000  0.41968000  0.73204000  1.0
  C  C103  1  0.84985000  0.58032000  0.23204000  1.0
  C  C104  1  0.62819000  0.60447000  0.23758000  1.0
  C  C105  1  0.37181000  0.39554000  0.73758000  1.0
  C  C106  1  0.02352000  0.39566000  0.76212000  1.0
  C  C107  1  0.97648000  0.60435000  0.26213000  1.0
  C  C108  1  0.51269000  0.59848000  0.27106000  1.0
  C  C109  1  0.48730000  0.40152000  0.77106000  1.0
  C  C110  1  0.91400000  0.40162000  0.72864000  1.0
  C  C111  1  0.08600000  0.59838000  0.22864000  1.0
  C  C112  1  0.49735000  0.57058000  0.33595000  1.0
  C  C113  1  0.50265000  0.42942000  0.83595000  1.0
  C  C114  1  0.92661000  0.42955000  0.66376000  1.0
  C  C115  1  0.07339000  0.57045000  0.16376000  1.0
  C  C116  1  0.37252000  0.56647000  0.37073000  1.0
  C  C117  1  0.62747000  0.43352000  0.87073000  1.0
  C  C118  1  0.80594000  0.43380000  0.62900000  1.0
  C  C119  1  0.19406000  0.56620000  0.12901000  1.0
  C  C120  1  0.45944000  0.63676000  0.56354000  1.0
  C  C121  1  0.54056000  0.36324000  0.06354000  1.0
  C  C122  1  0.82286000  0.36356000  0.43637000  1.0
  C  C123  1  0.17714000  0.63644000  0.93638000  1.0
  C  C124  1  0.53688000  0.63924000  0.66028000  1.0
  C  C125  1  0.46313000  0.36076000  0.16028000  1.0
  C  C126  1  0.89778000  0.36078000  0.33966000  1.0
  C  C127  1  0.10222000  0.63922000  0.83966000  1.0
  C  C128  1  0.47403000  0.71209000  0.65945000  1.0
  C  C129  1  0.52597000  0.28791000  0.15945000  1.0
  C  C130  1  0.76211000  0.28794000  0.34054000  1.0
  C  C131  1  0.23789000  0.71206000  0.84054000  1.0
  C  C132  1  0.35454000  0.77560000  0.57104000  1.0
  C  C133  1  0.64545000  0.22440000  0.07104000  1.0
  C  C134  1  0.57918000  0.22463000  0.42897000  1.0
  C  C135  1  0.42082000  0.77536000  0.92897000  1.0
  C  C136  1  0.30601000  0.83039000  0.62255000  1.0
  C  C137  1  0.69398000  0.16960000  0.12255000  1.0
  C  C138  1  0.47573000  0.16974000  0.37751000  1.0
  C  C139  1  0.52427000  0.83026000  0.87751000  1.0
  C  C140  1  0.39790000  0.92943000  0.65052000  1.0
  C  C141  1  0.60210000  0.07057000  0.15052000  1.0
  C  C142  1  0.46822000  0.07049000  0.34967000  1.0
  C  C143  1  0.53178000  0.92951000  0.84968000  1.0
  C  C144  1  0.35601000  0.97772000  0.70058000  1.0
  C  C145  1  0.64399000  0.02228000  0.20058000  1.0
  C  C146  1  0.37787000  0.02218000  0.29969000  1.0
  C  C147  1  0.62213000  0.97782000  0.79969000  1.0
  C  C148  1  0.22083000  0.92914000  0.72390000  1.0
  C  C149  1  0.77917000  0.07086000  0.22390000  1.0
  C  C150  1  0.29146000  0.07089000  0.27633000  1.0
  C  C151  1  0.70854000  0.92911000  0.77633000  1.0
  C  C152  1  0.12908000  0.83020000  0.69527000  1.0
  C  C153  1  0.87092000  0.16980000  0.19527000  1.0
  C  C154  1  0.29888000  0.17000000  0.30487000  1.0
  C  C155  1  0.70112000  0.83001000  0.80487000  1.0
  C  C156  1  0.17090000  0.78113000  0.64526000  1.0
  C  C157  1  0.82910000  0.21887000  0.14526000  1.0
  C  C158  1  0.38998000  0.21910000  0.35478000  1.0
  C  C159  1  0.61002000  0.78090000  0.85479000  1.0
  C  C160  1  0.99895000  0.28939000  0.93807000  1.0
  C  C161  1  0.00105000  0.71061000  0.43807000  1.0
  C  C162  1  0.70988000  0.71070000  0.06200000  1.0
  C  C163  1  0.29012000  0.28930000  0.56200000  1.0
  C  C164  1  0.78969000  0.19650000  0.90417000  1.0
  C  C165  1  0.21032000  0.80350000  0.40416000  1.0
  C  C166  1  0.59314000  0.80333000  0.09588000  1.0
  C  C167  1  0.40687000  0.19667000  0.59588000  1.0
  C  C168  1  0.84990000  0.12190000  0.90818000  1.0
  C  C169  1  0.15010000  0.87810000  0.40818000  1.0
  C  C170  1  0.72791000  0.87807000  0.09197000  1.0
  C  C171  1  0.27209000  0.12193000  0.59197000  1.0
  C  C172  1  0.08739000  0.13967000  0.94152000  1.0
  C  C173  1  0.91261000  0.86033000  0.44152000  1.0
  C  C174  1  0.94787000  0.86062000  0.05864000  1.0
  C  C175  1  0.05213000  0.13938000  0.55864000  1.0
  C  C176  1  0.11698000  0.08430000  0.88393000  1.0
  C  C177  1  0.88303000  0.91570000  0.38393000  1.0
  C  C178  1  0.03277000  0.91595000  0.11625000  1.0
  C  C179  1  0.96723000  0.08405000  0.61625000  1.0
  C  C180  1  0.20551000  0.14882000  0.83625000  1.0
  C  C181  1  0.79449000  0.85118000  0.33625000  1.0
  C  C182  1  0.05666000  0.85134000  0.16391000  1.0
  C  C183  1  0.94334000  0.14866000  0.66391000  1.0
  C  C184  1  0.23580000  0.09846000  0.78364000  1.0
  C  C185  1  0.76420000  0.90154000  0.28364000  1.0
  C  C186  1  0.13719000  0.90164000  0.21657000  1.0
  C  C187  1  0.86280000  0.09836000  0.71657000  1.0
  C  C188  1  0.17965000  0.98192000  0.77740000  1.0
  C  C189  1  0.82034000  0.01808000  0.27740000  1.0
  C  C190  1  0.19755000  0.01817000  0.22282000  1.0
  C  C191  1  0.80245000  0.98183000  0.72282000  1.0
  C  C192  1  0.08800000  0.91766000  0.82448000  1.0
  C  C193  1  0.91200000  0.08234000  0.32448000  1.0
  C  C194  1  0.17034000  0.08252000  0.17574000  1.0
  C  C195  1  0.82966000  0.91748000  0.67574000  1.0
  C  C196  1  0.05711000  0.96843000  0.87696000  1.0
  C  C197  1  0.94289000  0.03157000  0.37696000  1.0
  C  C198  1  0.08880000  0.03182000  0.12323000  1.0
  C  C199  1  0.91120000  0.96818000  0.62324000  1.0
  N  N200  1  0.52672000  0.59292000  0.60033000  1.0
  N  N201  1  0.47328000  0.40709000  0.10033000  1.0
  N  N202  1  0.93396000  0.40729000  0.39957000  1.0
  N  N203  1  0.06605000  0.59271000  0.89957000  1.0
  N  N204  1  0.42567000  0.70950000  0.59785000  1.0
  N  N205  1  0.57433000  0.29050000  0.09785000  1.0
  N  N206  1  0.71637000  0.29071000  0.40211000  1.0
  N  N207  1  0.28363000  0.70929000  0.90212000  1.0
  N  N208  1  0.88365000  0.30016000  0.92282000  1.0
  N  N209  1  0.11634000  0.69984000  0.42281000  1.0
  N  N210  1  0.58372000  0.69976000  0.07717000  1.0
  N  N211  1  0.41628000  0.30024000  0.57718000  1.0
  N  N212  1  0.98217000  0.18238000  0.92950000  1.0
  N  N213  1  0.01783000  0.81762000  0.42950000  1.0
  N  N214  1  0.79992000  0.81774000  0.07066000  1.0
  N  N215  1  0.20007000  0.18226000  0.57066000  1.0
  O  O216  1  0.69628000  0.54905000  0.47023000  1.0
  O  O217  1  0.30371000  0.45095000  0.97023000  1.0
  O  O218  1  0.14727000  0.45120000  0.52957000  1.0
  O  O219  1  0.85273000  0.54880000  0.02957000  1.0
  O  O220  1  0.47079000  0.44793000  0.45635000  1.0
  O  O221  1  0.52921000  0.55207000  0.95635000  1.0
  O  O222  1  0.02282000  0.55233000  0.54342000  1.0
  O  O223  1  0.97718000  0.44767000  0.04342000  1.0
  O  O224  1  0.38722000  0.63337000  0.41700000  1.0
  O  O225  1  0.61278000  0.36663000  0.91700000  1.0
  O  O226  1  0.75381000  0.36705000  0.58267000  1.0
  O  O227  1  0.24619000  0.63294000  0.08267000  1.0
  O  O228  1  0.25607000  0.49728000  0.35084000  1.0
  O  O229  1  0.74392000  0.50272000  0.85084000  1.0
  O  O230  1  0.75860000  0.50288000  0.64901000  1.0
  O  O231  1  0.24139000  0.49712000  0.14901000  1.0
