# generated using pymatgen
data_H24Pb3C24Br6(NO)4
_symmetry_space_group_name_H-M   'P 1'
_cell_length_a   8.00933000
_cell_length_b   10.11720000
_cell_length_c   11.28930000
_cell_angle_alpha   107.23500000
_cell_angle_beta   97.82910000
_cell_angle_gamma   98.00700000
_symmetry_Int_Tables_number   1
_chemical_formula_structural   H24Pb3C24Br6(NO)4
_chemical_formula_sum   'H24 Pb3 C24 Br6 N4 O4'
_cell_volume   849.82831350
_cell_formula_units_Z   1
loop_
 _symmetry_equiv_pos_site_id
 _symmetry_equiv_pos_as_xyz
  1  'x, y, z'
loop_
 _atom_site_type_symbol
 _atom_site_label
 _atom_site_symmetry_multiplicity
 _atom_site_fract_x
 _atom_site_fract_y
 _atom_site_fract_z
 _atom_site_occupancy
  H  H0  1  0.61995000  0.59461000  0.42743000  1.0
  H  H1  1  0.37997000  0.40536000  0.57258000  1.0
  H  H2  1  0.64068000  0.34212000  0.34365000  1.0
  H  H3  1  0.35932000  0.65791000  0.65634000  1.0
  H  H4  1  0.31848000  0.32226000  0.99624000  1.0
  H  H5  1  0.68143000  0.67772000  0.00377000  1.0
  H  H6  1  0.19081000  0.42858000  0.90185000  1.0
  H  H7  1  0.80923000  0.57141000  0.09820000  1.0
  H  H8  1  0.02045000  0.82033000  0.92375000  1.0
  H  H9  1  0.97956000  0.17964000  0.07625000  1.0
  H  H10  1  0.18461000  0.91865000  0.14427000  1.0
  H  H11  1  0.81523000  0.08130000  0.85577000  1.0
  H  H12  1  0.56565000  0.99732000  0.10225000  1.0
  H  H13  1  0.43446000  0.00268000  0.89779000  1.0
  H  H14  1  0.53262000  0.10336000  0.25387000  1.0
  H  H15  1  0.46743000  0.89664000  0.74614000  1.0
  H  H16  1  0.71696000  0.15403000  0.19229000  1.0
  H  H17  1  0.28311000  0.84598000  0.80773000  1.0
  H  H18  1  0.87499000  0.54651000  0.61392000  1.0
  H  H19  1  0.12501000  0.45356000  0.38603000  1.0
  H  H20  1  0.02336000  0.70921000  0.69385000  1.0
  H  H21  1  0.97663000  0.29083000  0.30612000  1.0
  H  H22  1  0.83161000  0.66839000  0.75268000  1.0
  H  H23  1  0.16841000  0.33163000  0.24732000  1.0
  Pb  Pb24  1  0.47042000  0.84930000  0.35278000  1.0
  Pb  Pb25  1  0.52948000  0.15071000  0.64724000  1.0
  Pb  Pb26  1  0.99994000  0.99996000  0.49998000  1.0
  C  C27  1  0.55376000  0.53020000  0.33225000  1.0
  C  C28  1  0.44622000  0.46983000  0.66778000  1.0
  C  C29  1  0.56648000  0.38959000  0.28470000  1.0
  C  C30  1  0.43357000  0.61045000  0.71529000  1.0
  C  C31  1  0.48029000  0.31394000  0.16101000  1.0
  C  C32  1  0.51970000  0.68606000  0.83898000  1.0
  C  C33  1  0.38464000  0.38234000  0.09229000  1.0
  C  C34  1  0.61534000  0.61763000  0.90771000  1.0
  C  C35  1  0.37803000  0.52359000  0.14734000  1.0
  C  C36  1  0.62205000  0.47644000  0.85264000  1.0
  C  C37  1  0.27809000  0.60082000  0.07925000  1.0
  C  C38  1  0.72198000  0.39921000  0.92073000  1.0
  C  C39  1  0.18978000  0.53742000  0.95571000  1.0
  C  C40  1  0.81023000  0.46256000  0.04427000  1.0
  C  C41  1  0.09722000  0.61556000  0.89575000  1.0
  C  C42  1  0.90280000  0.38443000  0.10423000  1.0
  C  C43  1  0.09241000  0.75532000  0.96405000  1.0
  C  C44  1  0.90767000  0.24468000  0.03593000  1.0
  C  C45  1  0.18430000  0.81048000  0.08718000  1.0
  C  C46  1  0.81561000  0.18949000  0.91285000  1.0
  C  C47  1  0.58070000  0.10413000  0.16742000  1.0
  C  C48  1  0.41937000  0.89588000  0.83259000  1.0
  C  C49  1  0.93233000  0.62443000  0.70594000  1.0
  C  C50  1  0.06769000  0.37560000  0.29404000  1.0
  Br  Br51  1  0.72025000  0.86198000  0.60496000  1.0
  Br  Br52  1  0.27967000  0.13787000  0.39510000  1.0
  Br  Br53  1  0.20077000  0.76373000  0.48526000  1.0
  Br  Br54  1  0.79933000  0.23633000  0.51465000  1.0
  Br  Br55  1  0.20457000  0.15075000  0.76383000  1.0
  Br  Br56  1  0.79520000  0.84920000  0.23620000  1.0
  N  N57  1  0.46284000  0.59617000  0.26680000  1.0
  N  N58  1  0.53717000  0.40385000  0.73319000  1.0
  N  N59  1  0.27645000  0.73729000  0.14342000  1.0
  N  N60  1  0.72353000  0.26270000  0.85660000  1.0
  O  O61  1  0.48178000  0.17780000  0.10082000  1.0
  O  O62  1  0.51830000  0.82221000  0.89918000  1.0
  O  O63  1  0.01947000  0.54747000  0.77558000  1.0
  O  O64  1  0.98061000  0.45255000  0.22438000  1.0
