# generated using pymatgen
data_ZnH17C26N2(ClO2)3
_symmetry_space_group_name_H-M   'P 1'
_cell_length_a   12.66850000
_cell_length_b   13.88050000
_cell_length_c   23.51630000
_cell_angle_alpha   89.81130000
_cell_angle_beta   88.08590000
_cell_angle_gamma   85.75570000
_symmetry_Int_Tables_number   1
_chemical_formula_structural   ZnH17C26N2(ClO2)3
_chemical_formula_sum   'Zn2 H34 C52 N4 Cl6 O12'
_cell_volume   4121.58340096
_cell_formula_units_Z   2
loop_
 _symmetry_equiv_pos_site_id
 _symmetry_equiv_pos_as_xyz
  1  'x, y, z'
loop_
 _atom_site_type_symbol
 _atom_site_label
 _atom_site_symmetry_multiplicity
 _atom_site_fract_x
 _atom_site_fract_y
 _atom_site_fract_z
 _atom_site_occupancy
  Zn  Zn0  1  0.60961000  0.50489000  0.49441000  1.0
  Zn  Zn1  1  0.39039000  0.49510000  0.50559000  1.0
  H  H2  1  0.55728000  0.67856000  0.78105000  1.0
  H  H3  1  0.44274000  0.32144000  0.21895000  1.0
  H  H4  1  0.99315000  0.42258000  0.54796000  1.0
  H  H5  1  0.00685000  0.57742000  0.45205000  1.0
  H  H6  1  0.72671000  0.24677000  0.07588000  1.0
  H  H7  1  0.80541000  0.25931000  0.01250000  1.0
  H  H8  1  0.86569000  0.25366000  0.07986000  1.0
  H  H9  1  0.84876000  0.42522000  0.04697000  1.0
  H  H10  1  0.76913000  0.40929000  0.10876000  1.0
  H  H11  1  0.19460000  0.74067000  0.98750000  1.0
  H  H12  1  0.27330000  0.75322000  0.92412000  1.0
  H  H13  1  0.13431000  0.74632000  0.92014000  1.0
  H  H14  1  0.23089000  0.59070000  0.89124000  1.0
  H  H15  1  0.15126000  0.57476000  0.95302000  1.0
  H  H16  1  0.81258000  0.60048000  0.92915000  1.0
  H  H17  1  0.85691000  0.56584000  0.99754000  1.0
  H  H18  1  0.93873000  0.53715000  0.93600000  1.0
  H  H19  1  0.85486000  0.38848000  0.96669000  1.0
  H  H20  1  0.80331000  0.42839000  0.90130000  1.0
  H  H21  1  0.14311000  0.43413000  0.00245000  1.0
  H  H22  1  0.18743000  0.39948000  0.07084000  1.0
  H  H23  1  0.06128000  0.46282000  0.06399000  1.0
  H  H24  1  0.19670000  0.57156000  0.09870000  1.0
  H  H25  1  0.14515000  0.61149000  0.03331000  1.0
  H  H26  1  0.39725000  0.71174000  0.62810000  1.0
  H  H27  1  0.40183000  0.77721000  0.69261000  1.0
  H  H28  1  0.45892000  0.82270000  0.62854000  1.0
  H  H29  1  0.60108000  0.74940000  0.69032000  1.0
  H  H30  1  0.59747000  0.68489000  0.62586000  1.0
  H  H31  1  0.59818000  0.22279000  0.30739000  1.0
  H  H32  1  0.60277000  0.28826000  0.37189000  1.0
  H  H33  1  0.54111000  0.17730000  0.37146000  1.0
  H  H34  1  0.40255000  0.31510000  0.37415000  1.0
  H  H35  1  0.39893000  0.25059000  0.30968000  1.0
  C  C36  1  0.53760000  0.31402000  0.50950000  1.0
  C  C37  1  0.46240000  0.68598000  0.49050000  1.0
  C  C38  1  0.54193000  0.61228000  0.75903000  1.0
  C  C39  1  0.45808000  0.38772000  0.24097000  1.0
  C  C40  1  0.53960000  0.61095000  0.69964000  1.0
  C  C41  1  0.46041000  0.38905000  0.30036000  1.0
  C  C42  1  0.51916000  0.52410000  0.67289000  1.0
  C  C43  1  0.48084000  0.47590000  0.32711000  1.0
  C  C44  1  0.50094000  0.44134000  0.70504000  1.0
  C  C45  1  0.49904000  0.55867000  0.29496000  1.0
  C  C46  1  0.50140000  0.44441000  0.76465000  1.0
  C  C47  1  0.49858000  0.55559000  0.23535000  1.0
  C  C48  1  0.52339000  0.53071000  0.79121000  1.0
  C  C49  1  0.47661000  0.46929000  0.20879000  1.0
  C  C50  1  0.45288000  0.79008000  0.48796000  1.0
  C  C51  1  0.54710000  0.20992000  0.51205000  1.0
  C  C52  1  0.45722000  0.97782000  0.49030000  1.0
  C  C53  1  0.54269000  0.02218000  0.50972000  1.0
  C  C54  1  0.54747000  0.12204000  0.51147000  1.0
  C  C55  1  0.45247000  0.87796000  0.48855000  1.0
  C  C56  1  0.97083000  0.52844000  0.48212000  1.0
  C  C57  1  0.02918000  0.47157000  0.51790000  1.0
  C  C58  1  0.51502000  0.51847000  0.60906000  1.0
  C  C59  1  0.48497000  0.48153000  0.39094000  1.0
  C  C60  1  0.14045000  0.47387000  0.51747000  1.0
  C  C61  1  0.85955000  0.52614000  0.48254000  1.0
  C  C62  1  0.38819000  0.51145000  0.12149000  1.0
  C  C63  1  0.61181000  0.48855000  0.87851000  1.0
  C  C64  1  0.56619000  0.42022000  0.11956000  1.0
  C  C65  1  0.43383000  0.57977000  0.88044000  1.0
  C  C66  1  0.58227000  0.44782000  0.05913000  1.0
  C  C67  1  0.41775000  0.55217000  0.94087000  1.0
  C  C68  1  0.49405000  0.49117000  0.02976000  1.0
  C  C69  1  0.50597000  0.50882000  0.97024000  1.0
  C  C70  1  0.39378000  0.51489000  0.05810000  1.0
  C  C71  1  0.60623000  0.48510000  0.94190000  1.0
  C  C72  1  0.68262000  0.43244000  0.03220000  1.0
  C  C73  1  0.31739000  0.56755000  0.96780000  1.0
  C  C74  1  0.69529000  0.45353000  0.97286000  1.0
  C  C75  1  0.30472000  0.54645000  0.02713000  1.0
  C  C76  1  0.77826000  0.39162000  0.06351000  1.0
  C  C77  1  0.79506000  0.28120000  0.05735000  1.0
  C  C78  1  0.22175000  0.60837000  0.93649000  1.0
  C  C79  1  0.20495000  0.71878000  0.94265000  1.0
  C  C80  1  0.80593000  0.44627000  0.94634000  1.0
  C  C81  1  0.85654000  0.54304000  0.95280000  1.0
  C  C82  1  0.19408000  0.55370000  0.05365000  1.0
  C  C83  1  0.14347000  0.45692000  0.04719000  1.0
  C  C84  1  0.55310000  0.70227000  0.66594000  1.0
  C  C85  1  0.44644000  0.75675000  0.65305000  1.0
  C  C86  1  0.44692000  0.29773000  0.33406000  1.0
  C  C87  1  0.55358000  0.24325000  0.34695000  1.0
  N  N88  1  0.47675000  0.46654000  0.14776000  1.0
  N  N89  1  0.52326000  0.53346000  0.85223000  1.0
  N  N90  1  0.76817000  0.52378000  0.48309000  1.0
  N  N91  1  0.23183000  0.47622000  0.51692000  1.0
  Cl  Cl92  1  0.47926000  0.33506000  0.67105000  1.0
  Cl  Cl93  1  0.52071000  0.66495000  0.32895000  1.0
  Cl  Cl94  1  0.47462000  0.34478000  0.80473000  1.0
  Cl  Cl95  1  0.52536000  0.65523000  0.19527000  1.0
  Cl  Cl96  1  0.65083000  0.95148000  0.53345000  1.0
  Cl  Cl97  1  0.34908000  0.04850000  0.46656000  1.0
  O  O98  1  0.62268000  0.35701000  0.50499000  1.0
  O  O99  1  0.37732000  0.64298000  0.49502000  1.0
  O  O100  1  0.44278000  0.35184000  0.51127000  1.0
  O  O101  1  0.55722000  0.64816000  0.48873000  1.0
  O  O102  1  0.60285000  0.51704000  0.58127000  1.0
  O  O103  1  0.39714000  0.48296000  0.41873000  1.0
  O  O104  1  0.42364000  0.51614000  0.58871000  1.0
  O  O105  1  0.57636000  0.48385000  0.41130000  1.0
  O  O106  1  0.31452000  0.54614000  0.15224000  1.0
  O  O107  1  0.68549000  0.45385000  0.84776000  1.0
  O  O108  1  0.62523000  0.36345000  0.14616000  1.0
  O  O109  1  0.37477000  0.63654000  0.85384000  1.0
