# generated using pymatgen
data_CuH6C10(NO)4
_symmetry_space_group_name_H-M   'P 1'
_cell_length_a   7.91484000
_cell_length_b   12.59090000
_cell_length_c   12.59270000
_cell_angle_alpha   115.72200000
_cell_angle_beta   102.07700000
_cell_angle_gamma   102.12300000
_symmetry_Int_Tables_number   1
_chemical_formula_structural   CuH6C10(NO)4
_chemical_formula_sum   'Cu3 H18 C30 N12 O12'
_cell_volume   1039.10463149
_cell_formula_units_Z   3
loop_
 _symmetry_equiv_pos_site_id
 _symmetry_equiv_pos_as_xyz
  1  'x, y, z'
loop_
 _atom_site_type_symbol
 _atom_site_label
 _atom_site_symmetry_multiplicity
 _atom_site_fract_x
 _atom_site_fract_y
 _atom_site_fract_z
 _atom_site_occupancy
  Cu  Cu0  1  0.50000000  0.00000000  0.50000000  1.0
  Cu  Cu1  1  0.00000000  0.50000000  0.50000000  1.0
  Cu  Cu2  1  0.50000000  0.50000000  0.00000000  1.0
  H  H3  1  0.92314000  0.98801000  0.37870000  1.0
  H  H4  1  0.68374000  0.25968000  0.41298000  1.0
  H  H5  1  0.25411000  0.37147000  0.52213000  1.0
  H  H6  1  0.54419000  0.62152000  0.60950000  1.0
  H  H7  1  0.27024000  0.58695000  0.84669000  1.0
  H  H8  1  0.73161000  0.47808000  0.84941000  1.0
  H  H9  1  0.93462000  0.39053000  0.01191000  1.0
  H  H10  1  0.42346000  0.15345000  0.74007000  1.0
  H  H11  1  0.88223000  0.15112000  0.62847000  1.0
  H  H12  1  0.07686000  0.01199000  0.62131000  1.0
  H  H13  1  0.31626000  0.74032000  0.58703000  1.0
  H  H14  1  0.74589000  0.62853000  0.47787000  1.0
  H  H15  1  0.45581000  0.37848000  0.39050000  1.0
  H  H16  1  0.72976000  0.41305000  0.15331000  1.0
  H  H17  1  0.26839000  0.52192000  0.15059000  1.0
  H  H18  1  0.06539000  0.60947000  0.98809000  1.0
  H  H19  1  0.57654000  0.84655000  0.25993000  1.0
  H  H20  1  0.11776000  0.84888000  0.37153000  1.0
  C  C21  1  0.29569000  0.15205000  0.47782000  1.0
  C  C22  1  0.11661000  0.17644000  0.45720000  1.0
  C  C23  1  0.94169000  0.08614000  0.40706000  1.0
  C  C24  1  0.80702000  0.23422000  0.42268000  1.0
  C  C25  1  0.12329000  0.29726000  0.48602000  1.0
  C  C26  1  0.81748000  0.52212000  0.67421000  1.0
  C  C27  1  0.65893000  0.54273000  0.71915000  1.0
  C  C28  1  0.53433000  0.59300000  0.67915000  1.0
  C  C29  1  0.38389000  0.57730000  0.81157000  1.0
  C  C30  1  0.63678000  0.51402000  0.81123000  1.0
  C  C31  1  0.14328000  0.32592000  0.84788000  1.0
  C  C32  1  0.93975000  0.28100000  0.82347000  1.0
  C  C33  1  0.85511000  0.32095000  0.91375000  1.0
  C  C34  1  0.57224000  0.18866000  0.76556000  1.0
  C  C35  1  0.82555000  0.18913000  0.70262000  1.0
  C  C36  1  0.70432000  0.84795000  0.52219000  1.0
  C  C37  1  0.88340000  0.82357000  0.54281000  1.0
  C  C38  1  0.05831000  0.91386000  0.59295000  1.0
  C  C39  1  0.19298000  0.76578000  0.57732000  1.0
  C  C40  1  0.87671000  0.70274000  0.51398000  1.0
  C  C41  1  0.18251000  0.47788000  0.32578000  1.0
  C  C42  1  0.34107000  0.45727000  0.28084000  1.0
  C  C43  1  0.46567000  0.40700000  0.32085000  1.0
  C  C44  1  0.61611000  0.42270000  0.18843000  1.0
  C  C45  1  0.36322000  0.48598000  0.18876000  1.0
  C  C46  1  0.85671000  0.67408000  0.15212000  1.0
  C  C47  1  0.06025000  0.71900000  0.17652000  1.0
  C  C48  1  0.14490000  0.67905000  0.08625000  1.0
  C  C49  1  0.42776000  0.81134000  0.23445000  1.0
  C  C50  1  0.17445000  0.81087000  0.29738000  1.0
  N  N51  1  0.97007000  0.32628000  0.46829000  1.0
  N  N52  1  0.78781000  0.11538000  0.39061000  1.0
  N  N53  1  0.50140000  0.53183000  0.85808000  1.0
  N  N54  1  0.39686000  0.60940000  0.72486000  1.0
  N  N55  1  0.64330000  0.14227000  0.67356000  1.0
  N  N56  1  0.67189000  0.27529000  0.88439000  1.0
  N  N57  1  0.02993000  0.67372000  0.53171000  1.0
  N  N58  1  0.21219000  0.88462000  0.60940000  1.0
  N  N59  1  0.49860000  0.46817000  0.14192000  1.0
  N  N60  1  0.60314000  0.39060000  0.27514000  1.0
  N  N61  1  0.35670000  0.85773000  0.32644000  1.0
  N  N62  1  0.32811000  0.72471000  0.11561000  1.0
  O  O63  1  0.28648000  0.05589000  0.49303000  1.0
  O  O64  1  0.43328000  0.22259000  0.47901000  1.0
  O  O65  1  0.79313000  0.50653000  0.56274000  1.0
  O  O66  1  0.95396000  0.52135000  0.74380000  1.0
  O  O67  1  0.23046000  0.43727000  0.94399000  1.0
  O  O68  1  0.21019000  0.25647000  0.77736000  1.0
  O  O69  1  0.71352000  0.94411000  0.50698000  1.0
  O  O70  1  0.56673000  0.77742000  0.52101000  1.0
  O  O71  1  0.20686000  0.49347000  0.43725000  1.0
  O  O72  1  0.04604000  0.47865000  0.25619000  1.0
  O  O73  1  0.76955000  0.56273000  0.05601000  1.0
  O  O74  1  0.78980000  0.74353000  0.22263000  1.0
