# generated using pymatgen
data_ZnH11C9N5O4
_symmetry_space_group_name_H-M   'P 1'
_cell_length_a   9.02082000
_cell_length_b   9.74573000
_cell_length_c   10.94620000
_cell_angle_alpha   90.90850000
_cell_angle_beta   93.94260000
_cell_angle_gamma   101.41200000
_symmetry_Int_Tables_number   1
_chemical_formula_structural   ZnH11C9N5O4
_chemical_formula_sum   'Zn2 H22 C18 N10 O8'
_cell_volume   940.64442639
_cell_formula_units_Z   2
loop_
 _symmetry_equiv_pos_site_id
 _symmetry_equiv_pos_as_xyz
  1  'x, y, z'
loop_
 _atom_site_type_symbol
 _atom_site_label
 _atom_site_symmetry_multiplicity
 _atom_site_fract_x
 _atom_site_fract_y
 _atom_site_fract_z
 _atom_site_occupancy
  Zn  Zn0  1  0.51265000  0.64983000  0.50115000  1.0
  Zn  Zn1  1  0.48026000  0.34686000  0.49641000  1.0
  H  H2  1  0.30243000  0.35580000  0.85068000  1.0
  H  H3  1  0.18174000  0.31378000  0.26345000  1.0
  H  H4  1  0.84300000  0.67121000  0.98582000  1.0
  H  H5  1  0.71947000  0.87476000  0.93751000  1.0
  H  H6  1  0.69182000  0.80062000  0.78506000  1.0
  H  H7  1  0.87868000  0.85656000  0.85373000  1.0
  H  H8  1  0.71136000  0.14578000  0.28360000  1.0
  H  H9  1  0.57485000  0.24777000  0.29199000  1.0
  H  H10  1  0.37459000  0.90064000  0.76460000  1.0
  H  H11  1  0.42329000  0.75411000  0.70665000  1.0
  H  H12  1  0.65684000  0.90635000  0.25677000  1.0
  H  H13  1  0.67629000  0.65130000  0.14391000  1.0
  H  H14  1  0.70723000  0.80268000  0.36806000  1.0
  H  H15  1  0.26428000  0.18490000  0.61647000  1.0
  H  H16  1  0.22133000  0.02068000  0.67521000  1.0
  H  H17  1  0.84589000  0.28308000  0.49530000  1.0
  H  H18  1  0.01906000  0.22997000  0.48728000  1.0
  H  H19  1  0.14459000  0.71102000  0.51551000  1.0
  H  H20  1  0.96757000  0.75982000  0.50834000  1.0
  H  H21  1  0.14749000  0.30112000  0.00182000  1.0
  H  H22  1  0.02109000  0.33153000  0.16510000  1.0
  H  H23  1  0.16381000  0.48103000  0.20834000  1.0
  C  C24  1  0.52628000  0.49725000  0.73748000  1.0
  C  C25  1  0.62232000  0.58916000  0.95441000  1.0
  C  C26  1  0.46474000  0.50428000  0.12343000  1.0
  C  C27  1  0.51333000  0.50229000  0.87307000  1.0
  C  C28  1  0.55303000  0.07947000  0.40478000  1.0
  C  C29  1  0.43844000  0.91829000  0.59155000  1.0
  C  C30  1  0.58534000  0.94463000  0.42250000  1.0
  C  C31  1  0.40030000  0.05014000  0.57023000  1.0
  C  C32  1  0.14376000  0.36831000  0.18375000  1.0
  C  C33  1  0.76205000  0.80705000  0.87137000  1.0
  C  C34  1  0.46187000  0.50440000  0.25951000  1.0
  C  C35  1  0.20022000  0.45974000  0.51154000  1.0
  C  C36  1  0.79182000  0.53202000  0.48721000  1.0
  C  C37  1  0.03327000  0.43951000  0.50602000  1.0
  C  C38  1  0.95951000  0.55190000  0.49509000  1.0
  C  C39  1  0.38406000  0.42122000  0.91647000  1.0
  C  C40  1  0.59322000  0.58776000  0.07790000  1.0
  C  C41  1  0.35373000  0.42100000  0.04133000  1.0
  N  N42  1  0.52567000  0.86588000  0.51428000  1.0
  N  N43  1  0.30216000  0.09719000  0.64395000  1.0
  N  N44  1  0.46434000  0.13126000  0.48111000  1.0
  N  N45  1  0.95988000  0.30124000  0.51590000  1.0
  N  N46  1  0.03237000  0.68988000  0.48767000  1.0
  N  N47  1  0.21860000  0.34210000  0.07462000  1.0
  N  N48  1  0.76201000  0.66536000  0.91519000  1.0
  N  N49  1  0.60570000  0.15330000  0.30566000  1.0
  N  N50  1  0.37866000  0.84126000  0.68801000  1.0
  N  N51  1  0.68511000  0.89903000  0.34793000  1.0
  O  O52  1  0.53902000  0.61470000  0.68418000  1.0
  O  O53  1  0.45368000  0.38639000  0.31106000  1.0
  O  O54  1  0.51612000  0.37920000  0.68454000  1.0
  O  O55  1  0.47568000  0.62219000  0.31491000  1.0
  O  O56  1  0.28067000  0.58337000  0.51102000  1.0
  O  O57  1  0.71143000  0.40802000  0.48710000  1.0
  O  O58  1  0.25546000  0.34731000  0.51462000  1.0
  O  O59  1  0.73693000  0.64394000  0.48124000  1.0
