# generated using pymatgen
data_ZnH28C31(NO2)2
_symmetry_space_group_name_H-M   'P 1'
_cell_length_a   8.51747000
_cell_length_b   10.93890000
_cell_length_c   14.38849123
_cell_angle_alpha   102.30254607
_cell_angle_beta   107.22059782
_cell_angle_gamma   89.99330000
_symmetry_Int_Tables_number   1
_chemical_formula_structural   ZnH28C31(NO2)2
_chemical_formula_sum   'Zn2 H56 C62 N4 O8'
_cell_volume   1248.24838457
_cell_formula_units_Z   2
loop_
 _symmetry_equiv_pos_site_id
 _symmetry_equiv_pos_as_xyz
  1  'x, y, z'
loop_
 _atom_site_type_symbol
 _atom_site_label
 _atom_site_symmetry_multiplicity
 _atom_site_fract_x
 _atom_site_fract_y
 _atom_site_fract_z
 _atom_site_occupancy
  Zn  Zn0  1  0.03380000  0.83082000  0.31645000  1.0
  Zn  Zn1  1  0.28267000  0.33088000  0.31644000  1.0
  H  H2  1  0.33482000  0.16572000  0.63650000  1.0
  H  H3  1  0.30129000  0.66582000  0.63644000  1.0
  H  H4  1  0.44943000  0.78347000  0.55570000  1.0
  H  H5  1  0.10645000  0.28345000  0.55555000  1.0
  H  H6  1  0.67272000  0.80680000  0.71791000  1.0
  H  H7  1  0.04558000  0.30653000  0.71778000  1.0
  H  H8  1  0.87959000  0.87980000  0.89973000  1.0
  H  H9  1  0.02052000  0.37943000  0.89974000  1.0
  H  H10  1  0.05064000  0.99292000  0.06906000  1.0
  H  H11  1  0.01821000  0.49266000  0.06893000  1.0
  H  H12  1  0.82038000  0.33476000  0.02534000  1.0
  H  H13  1  0.20453000  0.83456000  0.02526000  1.0
  H  H14  1  0.72685000  0.40435000  0.86244000  1.0
  H  H15  1  0.13507000  0.90411000  0.86226000  1.0
  H  H16  1  0.78344000  0.29128000  0.77318000  1.0
  H  H17  1  0.98949000  0.79096000  0.77288000  1.0
  H  H18  1  0.45925000  0.42156000  0.73267000  1.0
  H  H19  1  0.27336000  0.92142000  0.73270000  1.0
  H  H20  1  0.51878000  0.30999000  0.64419000  1.0
  H  H21  1  0.12548000  0.80987000  0.64413000  1.0
  H  H22  1  0.57922000  0.52609000  0.62892000  1.0
  H  H23  1  0.04933000  0.02592000  0.62888000  1.0
  H  H24  1  0.76539000  0.44981000  0.66427000  1.0
  H  H25  1  0.89870000  0.94935000  0.66420000  1.0
  H  H26  1  0.71033000  0.56368000  0.75468000  1.0
  H  H27  1  0.04394000  0.06331000  0.75464000  1.0
  H  H28  1  0.36024000  0.29922000  0.82092000  1.0
  H  H29  1  0.46044000  0.79910000  0.82091000  1.0
  H  H30  1  0.51365000  0.34982000  0.93686000  1.0
  H  H31  1  0.42282000  0.84995000  0.93678000  1.0
  H  H32  1  0.33434000  0.08785000  0.85382000  1.0
  H  H33  1  0.51912000  0.58784000  0.85412000  1.0
  H  H34  1  0.50397000  0.12472000  0.96174000  1.0
  H  H35  1  0.45779000  0.62514000  0.96214000  1.0
  H  H36  1  0.25628000  0.13687000  0.01393000  1.0
  H  H37  1  0.75775000  0.63726000  0.01388000  1.0
  H  H38  1  0.16601000  0.23562000  0.93357000  1.0
  H  H39  1  0.76709000  0.73585000  0.93328000  1.0
  H  H40  1  0.33959000  0.29324000  0.03850000  1.0
  H  H41  1  0.69890000  0.79361000  0.03838000  1.0
  H  H42  1  0.06746000  0.65736000  0.46501000  1.0
  H  H43  1  0.39776000  0.15731000  0.46510000  1.0
  H  H44  1  0.87702000  0.56333000  0.53999000  1.0
  H  H45  1  0.66331000  0.06337000  0.54002000  1.0
  H  H46  1  0.57960000  0.61930000  0.49515000  1.0
  H  H47  1  0.91573000  0.11926000  0.49502000  1.0
  H  H48  1  0.49056000  0.77114000  0.38840000  1.0
  H  H49  1  0.89774000  0.27104000  0.38820000  1.0
  H  H50  1  0.42913000  0.88775000  0.28457000  1.0
  H  H51  1  0.85559000  0.38753000  0.28463000  1.0
  H  H52  1  0.38324000  0.03683000  0.17455000  1.0
  H  H53  1  0.79175000  0.53688000  0.17486000  1.0
  H  H54  1  0.62348000  0.10805000  0.12337000  1.0
  H  H55  1  0.50043000  0.60834000  0.12366000  1.0
  H  H56  1  0.89897000  0.02319000  0.18890000  1.0
  H  H57  1  0.29016000  0.52334000  0.18886000  1.0
  C  C58  1  0.41458000  0.09078000  0.65447000  1.0
  C  C59  1  0.23986000  0.59077000  0.65449000  1.0
  C  C60  1  0.38521000  0.97461000  0.58568000  1.0
  C  C61  1  0.20047000  0.47465000  0.58568000  1.0
  C  C62  1  0.47947000  0.87358000  0.60879000  1.0
  C  C63  1  0.12950000  0.37351000  0.60870000  1.0
  C  C64  1  0.60333000  0.88687000  0.69962000  1.0
  C  C65  1  0.09667000  0.38668000  0.69957000  1.0
  C  C66  1  0.86630000  0.97895000  0.92607000  1.0
  C  C67  1  0.06009000  0.47859000  0.92604000  1.0
  C  C68  1  0.96281000  0.04219000  0.02046000  1.0
  C  C69  1  0.05761000  0.54189000  0.02037000  1.0
  C  C70  1  0.94821000  0.17063000  0.05535000  1.0
  C  C71  1  0.10684000  0.67037000  0.05526000  1.0
  C  C72  1  0.83207000  0.23586000  0.99616000  1.0
  C  C73  1  0.16392000  0.73560000  0.99614000  1.0
  C  C74  1  0.59891000  0.22256000  0.82783000  1.0
  C  C75  1  0.22875000  0.72241000  0.82783000  1.0
  C  C76  1  0.54150000  0.10628000  0.74351000  1.0
  C  C77  1  0.20209000  0.60614000  0.74355000  1.0
  C  C78  1  0.63507000  0.00377000  0.76684000  1.0
  C  C79  1  0.13213000  0.50352000  0.76685000  1.0
  C  C80  1  0.75317000  0.04460000  0.86641000  1.0
  C  C81  1  0.11363000  0.54427000  0.86643000  1.0
  C  C82  1  0.73517000  0.17263000  0.90251000  1.0
  C  C83  1  0.16730000  0.67238000  0.90252000  1.0
  C  C84  1  0.24821000  0.95846000  0.48960000  1.0
  C  C85  1  0.24138000  0.45863000  0.48963000  1.0
  C  C86  1  0.06128000  0.23963000  0.15315000  1.0
  C  C87  1  0.09146000  0.73943000  0.15303000  1.0
  C  C88  1  0.67642000  0.32845000  0.79554000  1.0
  C  C89  1  0.11885000  0.82819000  0.79540000  1.0
  C  C90  1  0.56713000  0.38397000  0.71229000  1.0
  C  C91  1  0.14510000  0.88378000  0.71224000  1.0
  C  C92  1  0.66044000  0.48685000  0.68860000  1.0
  C  C93  1  0.02792000  0.98656000  0.68854000  1.0
  C  C94  1  0.46215000  0.26710000  0.87567000  1.0
  C  C95  1  0.41326000  0.76714000  0.87570000  1.0
  C  C96  1  0.39809000  0.16532000  0.91637000  1.0
  C  C97  1  0.51809000  0.66553000  0.91656000  1.0
  C  C98  1  0.28434000  0.21040000  0.97883000  1.0
  C  C99  1  0.69439000  0.71071000  0.97875000  1.0
  C  C100  1  0.93851000  0.67910000  0.45024000  1.0
  C  C101  1  0.51188000  0.17907000  0.45028000  1.0
  C  C102  1  0.83213000  0.62781000  0.49129000  1.0
  C  C103  1  0.65940000  0.12783000  0.49129000  1.0
  C  C104  1  0.66887000  0.66010000  0.46750000  1.0
  C  C105  1  0.79878000  0.16003000  0.46739000  1.0
  C  C106  1  0.61729000  0.74372000  0.40519000  1.0
  C  C107  1  0.78786000  0.24361000  0.40504000  1.0
  C  C108  1  0.73056000  0.79056000  0.36597000  1.0
  C  C109  1  0.63533000  0.29040000  0.36586000  1.0
  C  C110  1  0.68947000  0.87704000  0.29688000  1.0
  C  C111  1  0.60743000  0.37686000  0.29679000  1.0
  C  C112  1  0.53170000  0.91861000  0.26258000  1.0
  C  C113  1  0.73105000  0.41846000  0.26264000  1.0
  C  C114  1  0.50552000  0.00220000  0.19942000  1.0
  C  C115  1  0.69423000  0.50221000  0.19959000  1.0
  C  C116  1  0.63756000  0.04199000  0.17181000  1.0
  C  C117  1  0.53463000  0.54213000  0.17197000  1.0
  C  C118  1  0.79120000  0.99594000  0.20780000  1.0
  C  C119  1  0.41683000  0.49603000  0.20783000  1.0
  N  N120  1  0.88789000  0.75709000  0.38882000  1.0
  N  N121  1  0.50091000  0.25699000  0.38877000  1.0
  N  N122  1  0.81587000  0.91545000  0.26835000  1.0
  N  N123  1  0.45254000  0.41541000  0.26827000  1.0
  O  O124  1  0.14196000  0.03788000  0.47816000  1.0
  O  O125  1  0.33614000  0.53814000  0.47823000  1.0
  O  O126  1  0.24794000  0.85851000  0.42154000  1.0
  O  O127  1  0.17375000  0.35867000  0.42156000  1.0
  O  O128  1  0.05340000  0.35678000  0.18287000  1.0
  O  O129  1  0.12888000  0.85662000  0.18265000  1.0
  O  O130  1  0.16915000  0.17785000  0.20517000  1.0
  O  O131  1  0.03584000  0.67769000  0.20513000  1.0
