# generated using pymatgen
data_ZnH8C8(O2F)4
_symmetry_space_group_name_H-M   'P 1'
_cell_length_a   6.15599000
_cell_length_b   6.42819000
_cell_length_c   8.93688518
_cell_angle_alpha   110.83071453
_cell_angle_beta   100.39821219
_cell_angle_gamma   77.42300000
_symmetry_Int_Tables_number   1
_chemical_formula_structural   ZnH8C8(O2F)4
_chemical_formula_sum   'Zn1 H8 C8 O8 F4'
_cell_volume   320.53642447
_cell_formula_units_Z   1
loop_
 _symmetry_equiv_pos_site_id
 _symmetry_equiv_pos_as_xyz
  1  'x, y, z'
loop_
 _atom_site_type_symbol
 _atom_site_label
 _atom_site_symmetry_multiplicity
 _atom_site_fract_x
 _atom_site_fract_y
 _atom_site_fract_z
 _atom_site_occupancy
  Zn  Zn0  1  0.50000000  1.00000000  0.00000000  1.0
  H  H1  1  0.68556000  0.32144000  0.24818000  1.0
  H  H2  1  0.31444000  0.67854000  0.75182000  1.0
  H  H3  1  0.79035000  0.24614000  0.08062000  1.0
  H  H4  1  0.20965000  0.75386000  0.91938000  1.0
  H  H5  1  0.11903000  0.26613000  0.94754000  1.0
  H  H6  1  0.88096000  0.73386000  0.05246000  1.0
  H  H7  1  0.27266000  0.44569000  0.04423000  1.0
  H  H8  1  0.72734000  0.55430000  0.95577000  1.0
  C  C9  1  0.77305000  0.09825000  0.78744000  1.0
  C  C10  1  0.22695000  0.90175000  0.21256000  1.0
  C  C11  1  0.87573000  0.05336000  0.63532000  1.0
  C  C12  1  0.12428000  0.94664000  0.36466000  1.0
  C  C13  1  0.88801000  0.84370000  0.51201000  1.0
  C  C14  1  0.11198000  0.15633000  0.48801000  1.0
  C  C15  1  0.98798000  0.20896000  0.61631000  1.0
  C  C16  1  0.01202000  0.79104000  0.38368000  1.0
  O  O17  1  0.74068000  0.19103000  0.15961000  1.0
  O  O18  1  0.25932000  0.80896000  0.84038000  1.0
  O  O19  1  0.27924000  0.28560000  0.97797000  1.0
  O  O20  1  0.72076000  0.71439000  0.02203000  1.0
  O  O21  1  0.63445000  0.97999000  0.78558000  1.0
  O  O22  1  0.36555000  0.02001000  0.21442000  1.0
  O  O23  1  0.84357000  0.25404000  0.91278000  1.0
  O  O24  1  0.15643000  0.74595000  0.08722000  1.0
  F  F25  1  0.78320000  0.68050000  0.51382000  1.0
  F  F26  1  0.21681000  0.31949000  0.48617000  1.0
  F  F27  1  0.97843000  0.42128000  0.72224000  1.0
  F  F28  1  0.02158000  0.57876000  0.27778000  1.0
