# generated using pymatgen
data_ZnH16C12(N2Cl)2
_symmetry_space_group_name_H-M   'P 1'
_cell_length_a   9.30943000
_cell_length_b   12.47150000
_cell_length_c   14.19590000
_cell_angle_alpha   112.61100000
_cell_angle_beta   90.00000000
_cell_angle_gamma   90.00000000
_symmetry_Int_Tables_number   1
_chemical_formula_structural   ZnH16C12(N2Cl)2
_chemical_formula_sum   'Zn4 H64 C48 N16 Cl8'
_cell_volume   1521.49524267
_cell_formula_units_Z   4
loop_
 _symmetry_equiv_pos_site_id
 _symmetry_equiv_pos_as_xyz
  1  'x, y, z'
loop_
 _atom_site_type_symbol
 _atom_site_label
 _atom_site_symmetry_multiplicity
 _atom_site_fract_x
 _atom_site_fract_y
 _atom_site_fract_z
 _atom_site_occupancy
  Zn  Zn0  1  0.37682000  0.78269000  0.53891000  1.0
  Zn  Zn1  1  0.87682000  0.71731000  0.96109000  1.0
  Zn  Zn2  1  0.62318000  0.21731000  0.46109000  1.0
  Zn  Zn3  1  0.12318000  0.28269000  0.03891000  1.0
  H  H4  1  0.59687000  0.93327000  0.49450000  1.0
  H  H5  1  0.09687000  0.56673000  0.00550000  1.0
  H  H6  1  0.40313000  0.06673000  0.50550000  1.0
  H  H7  1  0.90313000  0.43327000  0.99450000  1.0
  H  H8  1  0.81928000  0.90740000  0.39323000  1.0
  H  H9  1  0.31928000  0.59260000  0.10677000  1.0
  H  H10  1  0.18072000  0.09260000  0.60677000  1.0
  H  H11  1  0.68072000  0.40741000  0.89323000  1.0
  H  H12  1  0.79229000  0.53922000  0.33055000  1.0
  H  H13  1  0.29229000  0.96078000  0.16945000  1.0
  H  H14  1  0.20771000  0.46078000  0.66945000  1.0
  H  H15  1  0.70771000  0.03922000  0.83054000  1.0
  H  H16  1  0.56901000  0.58015000  0.43322000  1.0
  H  H17  1  0.06901000  0.91984000  0.06678000  1.0
  H  H18  1  0.43099000  0.41984000  0.56678000  1.0
  H  H19  1  0.93099000  0.08016000  0.93322000  1.0
  H  H20  1  0.92303000  0.70236000  0.20929000  1.0
  H  H21  1  0.42303000  0.79764000  0.29070000  1.0
  H  H22  1  0.07697000  0.29764000  0.79070000  1.0
  H  H23  1  0.57697000  0.20236000  0.70929000  1.0
  H  H24  1  0.03381000  0.77135000  0.32031000  1.0
  H  H25  1  0.53381000  0.72865000  0.17968000  1.0
  H  H26  1  0.96619000  0.22865000  0.67969000  1.0
  H  H27  1  0.46619000  0.27135000  0.82031000  1.0
  H  H28  1  0.10884000  0.60823000  0.41005000  1.0
  H  H29  1  0.60884000  0.89177000  0.08995000  1.0
  H  H30  1  0.89116000  0.39177000  0.58995000  1.0
  H  H31  1  0.39116000  0.10823000  0.91005000  1.0
  H  H32  1  0.25145000  0.39434000  0.37893000  1.0
  H  H33  1  0.75145000  0.10566000  0.12107000  1.0
  H  H34  1  0.74855000  0.60566000  0.62107000  1.0
  H  H35  1  0.24855000  0.89434000  0.87893000  1.0
  H  H36  1  0.27793000  0.30176000  0.24899000  1.0
  H  H37  1  0.77793000  0.19824000  0.25101000  1.0
  H  H38  1  0.72207000  0.69824000  0.75101000  1.0
  H  H39  1  0.22207000  0.80176000  0.74899000  1.0
  H  H40  1  0.00060000  0.31262000  0.37014000  1.0
  H  H41  1  0.50060000  0.18737000  0.12987000  1.0
  H  H42  1  0.99940000  0.68737000  0.62987000  1.0
  H  H43  1  0.49940000  0.81262000  0.87014000  1.0
  H  H44  1  0.02719000  0.22648000  0.23931000  1.0
  H  H45  1  0.52719000  0.27352000  0.26070000  1.0
  H  H46  1  0.97281000  0.77352000  0.76069000  1.0
  H  H47  1  0.47281000  0.72648000  0.73931000  1.0
  H  H48  1  0.19765000  0.20663000  0.41617000  1.0
  H  H49  1  0.69765000  0.29337000  0.08383000  1.0
  H  H50  1  0.80235000  0.79337000  0.58383000  1.0
  H  H51  1  0.30235000  0.70663000  0.91617000  1.0
  H  H52  1  0.23634000  0.12819000  0.28653000  1.0
  H  H53  1  0.73634000  0.37180000  0.21347000  1.0
  H  H54  1  0.76366000  0.87180000  0.71347000  1.0
  H  H55  1  0.26367000  0.62820000  0.78653000  1.0
  H  H56  1  0.95399000  0.11344000  0.39534000  1.0
  H  H57  1  0.45399000  0.38656000  0.10466000  1.0
  H  H58  1  0.04601000  0.88656000  0.60466000  1.0
  H  H59  1  0.54601000  0.61344000  0.89534000  1.0
  H  H60  1  0.09172000  0.00724000  0.35678000  1.0
  H  H61  1  0.59172000  0.49276000  0.14322000  1.0
  H  H62  1  0.90828000  0.99276000  0.64322000  1.0
  H  H63  1  0.40828000  0.50724000  0.85678000  1.0
  H  H64  1  0.98861000  0.03559000  0.26316000  1.0
  H  H65  1  0.48861000  0.46441000  0.23684000  1.0
  H  H66  1  0.01139000  0.96441000  0.73684000  1.0
  H  H67  1  0.51139000  0.53559000  0.76316000  1.0
  C  C68  1  0.64171000  0.84697000  0.45496000  1.0
  C  C69  1  0.14171000  0.65303000  0.04504000  1.0
  C  C70  1  0.35829000  0.15303000  0.54504000  1.0
  C  C71  1  0.85828000  0.34697000  0.95496000  1.0
  C  C72  1  0.76686000  0.83151000  0.39807000  1.0
  C  C73  1  0.26686000  0.66849000  0.10193000  1.0
  C  C74  1  0.23314000  0.16849000  0.60193000  1.0
  C  C75  1  0.73314000  0.33151000  0.89807000  1.0
  C  C76  1  0.82341000  0.71966000  0.34999000  1.0
  C  C77  1  0.32341000  0.78034000  0.15001000  1.0
  C  C78  1  0.17659000  0.28034000  0.65001000  1.0
  C  C79  1  0.67659000  0.21966000  0.84999000  1.0
  C  C80  1  0.75231000  0.62794000  0.36373000  1.0
  C  C81  1  0.25231000  0.87206000  0.13627000  1.0
  C  C82  1  0.24769000  0.37206000  0.63627000  1.0
  C  C83  1  0.74769000  0.12794000  0.86373000  1.0
  C  C84  1  0.62711000  0.64985000  0.42126000  1.0
  C  C85  1  0.12711000  0.85015000  0.07874000  1.0
  C  C86  1  0.37289000  0.35015000  0.57874000  1.0
  C  C87  1  0.87289000  0.14985000  0.92126000  1.0
  C  C88  1  0.95500000  0.70205000  0.28392000  1.0
  C  C89  1  0.45500000  0.79795000  0.21608000  1.0
  C  C90  1  0.04500000  0.29795000  0.71608000  1.0
  C  C91  1  0.54500000  0.20205000  0.78392000  1.0
  C  C92  1  0.09179000  0.55374000  0.33038000  1.0
  C  C93  1  0.59179000  0.94626000  0.16962000  1.0
  C  C94  1  0.90821000  0.44626000  0.66962000  1.0
  C  C95  1  0.40821000  0.05374000  0.83038000  1.0
  C  C96  1  0.13147000  0.44017000  0.27346000  1.0
  C  C97  1  0.63147000  0.05983000  0.22654000  1.0
  C  C98  1  0.86853000  0.55983000  0.72654000  1.0
  C  C99  1  0.36853000  0.94017000  0.77346000  1.0
  C  C100  1  0.19669000  0.35065000  0.30542000  1.0
  C  C101  1  0.69669000  0.14935000  0.19459000  1.0
  C  C102  1  0.80331000  0.64935000  0.69459000  1.0
  C  C103  1  0.30331000  0.85065000  0.80542000  1.0
  C  C104  1  0.08259000  0.26518000  0.31334000  1.0
  C  C105  1  0.58259000  0.23482000  0.18666000  1.0
  C  C106  1  0.91741000  0.73482000  0.68666000  1.0
  C  C107  1  0.41741000  0.76518000  0.81334000  1.0
  C  C108  1  0.14797000  0.16848000  0.34024000  1.0
  C  C109  1  0.64797000  0.33152000  0.15976000  1.0
  C  C110  1  0.85203000  0.83152000  0.65976000  1.0
  C  C111  1  0.35203000  0.66848000  0.84024000  1.0
  C  C112  1  0.03945000  0.07605000  0.33866000  1.0
  C  C113  1  0.53944000  0.42395000  0.16134000  1.0
  C  C114  1  0.96056000  0.92395000  0.66134000  1.0
  C  C115  1  0.46056000  0.57605000  0.83866000  1.0
  N  N116  1  0.57173000  0.75747000  0.46551000  1.0
  N  N117  1  0.07173000  0.74253000  0.03449000  1.0
  N  N118  1  0.42827000  0.24253000  0.53449000  1.0
  N  N119  1  0.92827000  0.25747000  0.96551000  1.0
  N  N120  1  0.02482000  0.59100000  0.26338000  1.0
  N  N121  1  0.52482000  0.90900000  0.23662000  1.0
  N  N122  1  0.97518000  0.40900000  0.73662000  1.0
  N  N123  1  0.47518000  0.09100000  0.76338000  1.0
  N  N124  1  0.02112000  0.50841000  0.16944000  1.0
  N  N125  1  0.52112000  0.99159000  0.33056000  1.0
  N  N126  1  0.97888000  0.49159000  0.83056000  1.0
  N  N127  1  0.47888000  0.00841000  0.66944000  1.0
  N  N128  1  0.08681000  0.41727000  0.17558000  1.0
  N  N129  1  0.58681000  0.08273000  0.32442000  1.0
  N  N130  1  0.91319000  0.58273000  0.82442000  1.0
  N  N131  1  0.41319000  0.91727000  0.67558000  1.0
  Cl  Cl132  1  0.23718000  0.85220000  0.44491000  1.0
  Cl  Cl133  1  0.73718000  0.64780000  0.05509000  1.0
  Cl  Cl134  1  0.76282000  0.14780000  0.55509000  1.0
  Cl  Cl135  1  0.26282000  0.35220000  0.94491000  1.0
  Cl  Cl136  1  0.30486000  0.61791000  0.55104000  1.0
  Cl  Cl137  1  0.80486000  0.88209000  0.94896000  1.0
  Cl  Cl138  1  0.69514000  0.38209000  0.44896000  1.0
  Cl  Cl139  1  0.19514000  0.11791000  0.05104000  1.0
