# generated using pymatgen
data_Zn2H4C47N2(O3F5)4
_symmetry_space_group_name_H-M   'P 1'
_cell_length_a   16.70290000
_cell_length_b   17.89850000
_cell_length_c   33.06500000
_cell_angle_alpha   90.27140000
_cell_angle_beta   89.92920000
_cell_angle_gamma   89.94840000
_symmetry_Int_Tables_number   1
_chemical_formula_structural   Zn2H4C47N2(O3F5)4
_chemical_formula_sum   'Zn4 H8 C94 N4 O24 F40'
_cell_volume   9884.88592703
_cell_formula_units_Z   2
loop_
 _symmetry_equiv_pos_site_id
 _symmetry_equiv_pos_as_xyz
  1  'x, y, z'
loop_
 _atom_site_type_symbol
 _atom_site_label
 _atom_site_symmetry_multiplicity
 _atom_site_fract_x
 _atom_site_fract_y
 _atom_site_fract_z
 _atom_site_occupancy
  Zn  Zn0  1  0.58213000  0.50019000  0.50198000  1.0
  Zn  Zn1  1  0.41477000  0.49779000  0.50162000  1.0
  Zn  Zn2  1  0.41798000  0.50287000  0.96085000  1.0
  Zn  Zn3  1  0.58538000  0.50087000  0.96117000  1.0
  H  H4  1  0.37323000  0.50332000  0.62803000  1.0
  H  H5  1  0.62891000  0.49544000  0.62842000  1.0
  H  H6  1  0.62700000  0.50445000  0.83471000  1.0
  H  H7  1  0.37131000  0.49688000  0.83432000  1.0
  H  H8  1  0.27901000  0.60360000  0.78016000  1.0
  H  H9  1  0.27129000  0.39675000  0.69080000  1.0
  H  H10  1  0.72883000  0.39678000  0.77162000  1.0
  H  H11  1  0.72059000  0.60263000  0.68240000  1.0
  C  C12  1  0.49399000  0.64245000  0.50096000  1.0
  C  C13  1  0.50119000  0.49753000  0.57946000  1.0
  C  C14  1  0.49779000  0.35540000  0.50094000  1.0
  C  C15  1  0.50239000  0.50192000  0.42442000  1.0
  C  C16  1  0.50554000  0.64528000  0.96164000  1.0
  C  C17  1  0.49899000  0.49956000  0.88328000  1.0
  C  C18  1  0.50271000  0.35833000  0.96121000  1.0
  C  C19  1  0.49769000  0.50523000  0.03842000  1.0
  C  C20  1  0.24688000  0.54726000  0.52519000  1.0
  C  C21  1  0.16363000  0.55013000  0.52646000  1.0
  C  C22  1  0.11888000  0.50062000  0.50220000  1.0
  C  C23  1  0.16232000  0.45053000  0.47759000  1.0
  C  C24  1  0.24561000  0.45170000  0.47849000  1.0
  C  C25  1  0.03478000  0.50111000  0.50257000  1.0
  C  C26  1  0.96198000  0.50120000  0.50295000  1.0
  C  C27  1  0.87787000  0.50095000  0.50301000  1.0
  C  C28  1  0.83331000  0.54308000  0.53122000  1.0
  C  C29  1  0.75009000  0.54088000  0.52987000  1.0
  C  C30  1  0.75093000  0.46000000  0.47570000  1.0
  C  C31  1  0.83420000  0.45840000  0.47473000  1.0
  C  C32  1  0.49584000  0.72637000  0.49854000  1.0
  C  C33  1  0.56814000  0.76514000  0.49250000  1.0
  C  C34  1  0.57082000  0.84274000  0.49138000  1.0
  C  C35  1  0.50122000  0.88628000  0.49613000  1.0
  C  C36  1  0.42868000  0.84758000  0.50156000  1.0
  C  C37  1  0.42616000  0.76994000  0.50277000  1.0
  C  C38  1  0.50383000  0.96475000  0.49598000  1.0
  C  C39  1  0.50507000  0.03276000  0.49671000  1.0
  C  C40  1  0.50405000  0.11125000  0.49768000  1.0
  C  C41  1  0.57396000  0.15364000  0.50383000  1.0
  C  C42  1  0.57188000  0.23133000  0.50500000  1.0
  C  C43  1  0.50000000  0.27131000  0.49997000  1.0
  C  C44  1  0.43021000  0.22881000  0.49377000  1.0
  C  C45  1  0.43211000  0.15117000  0.49269000  1.0
  C  C46  1  0.42835000  0.50140000  0.64559000  1.0
  C  C47  1  0.42658000  0.50125000  0.68797000  1.0
  C  C48  1  0.35238000  0.50095000  0.71027000  1.0
  C  C49  1  0.57352000  0.49800000  0.64583000  1.0
  C  C50  1  0.57456000  0.50014000  0.68823000  1.0
  C  C51  1  0.64827000  0.50016000  0.71092000  1.0
  C  C52  1  0.57187000  0.50241000  0.81715000  1.0
  C  C53  1  0.57363000  0.50167000  0.77477000  1.0
  C  C54  1  0.64780000  0.50091000  0.75246000  1.0
  C  C55  1  0.42670000  0.49918000  0.81691000  1.0
  C  C56  1  0.42566000  0.50081000  0.77451000  1.0
  C  C57  1  0.35196000  0.50067000  0.75181000  1.0
  C  C58  1  0.50108000  0.49902000  0.62482000  1.0
  C  C59  1  0.50034000  0.50103000  0.70989000  1.0
  C  C60  1  0.49915000  0.50037000  0.83793000  1.0
  C  C61  1  0.49987000  0.50133000  0.75286000  1.0
  C  C62  1  0.49768000  0.50608000  0.08393000  1.0
  C  C63  1  0.42688000  0.49651000  0.10640000  1.0
  C  C64  1  0.42729000  0.49580000  0.14846000  1.0
  C  C65  1  0.49862000  0.50476000  0.17054000  1.0
  C  C66  1  0.56944000  0.51474000  0.14810000  1.0
  C  C67  1  0.56892000  0.51546000  0.10606000  1.0
  C  C68  1  0.49927000  0.50402000  0.21303000  1.0
  C  C69  1  0.50010000  0.50358000  0.24985000  1.0
  C  C70  1  0.50086000  0.50345000  0.29233000  1.0
  C  C71  1  0.43005000  0.51263000  0.31495000  1.0
  C  C72  1  0.43075000  0.51260000  0.35699000  1.0
  C  C73  1  0.50216000  0.50327000  0.37893000  1.0
  C  C74  1  0.57294000  0.49445000  0.35630000  1.0
  C  C75  1  0.57238000  0.49446000  0.31424000  1.0
  C  C76  1  0.75315000  0.54985000  0.93715000  1.0
  C  C77  1  0.83640000  0.55223000  0.93557000  1.0
  C  C78  1  0.88129000  0.50272000  0.95955000  1.0
  C  C79  1  0.83798000  0.45304000  0.98416000  1.0
  C  C80  1  0.75471000  0.45473000  0.98361000  1.0
  C  C81  1  0.96538000  0.50297000  0.95897000  1.0
  C  C82  1  0.03817000  0.50309000  0.95858000  1.0
  C  C83  1  0.12228000  0.50292000  0.95872000  1.0
  C  C84  1  0.16706000  0.54499000  0.93081000  1.0
  C  C85  1  0.25026000  0.54313000  0.93253000  1.0
  C  C86  1  0.24901000  0.46249000  0.98640000  1.0
  C  C87  1  0.16575000  0.46070000  0.98705000  1.0
  C  C88  1  0.50382000  0.72930000  0.96311000  1.0
  C  C89  1  0.43159000  0.76860000  0.96871000  1.0
  C  C90  1  0.42891000  0.84624000  0.96866000  1.0
  C  C91  1  0.49849000  0.88928000  0.96315000  1.0
  C  C92  1  0.57098000  0.85007000  0.95814000  1.0
  C  C93  1  0.57350000  0.77239000  0.95811000  1.0
  C  C94  1  0.49600000  0.96773000  0.96262000  1.0
  C  C95  1  0.49472000  0.03575000  0.96206000  1.0
  C  C96  1  0.49603000  0.11423000  0.96164000  1.0
  C  C97  1  0.42626000  0.15698000  0.95583000  1.0
  C  C98  1  0.42846000  0.23467000  0.95557000  1.0
  C  C99  1  0.50038000  0.27425000  0.96122000  1.0
  C  C100  1  0.57007000  0.23142000  0.96702000  1.0
  C  C101  1  0.56805000  0.15376000  0.96717000  1.0
  C  C102  1  0.27385000  0.49661000  0.77454000  1.0
  C  C103  1  0.27524000  0.50387000  0.68662000  1.0
  C  C104  1  0.72488000  0.50391000  0.77616000  1.0
  C  C105  1  0.72632000  0.49577000  0.68810000  1.0
  N  N106  1  0.28670000  0.49899000  0.50179000  1.0
  N  N107  1  0.71006000  0.50046000  0.50267000  1.0
  N  N108  1  0.71346000  0.50204000  0.96059000  1.0
  N  N109  1  0.29007000  0.50296000  0.95975000  1.0
  O  O110  1  0.55736000  0.61117000  0.51359000  1.0
  O  O111  1  0.42964000  0.61010000  0.49034000  1.0
  O  O112  1  0.43550000  0.51354000  0.56208000  1.0
  O  O113  1  0.56696000  0.48049000  0.56222000  1.0
  O  O114  1  0.43250000  0.38560000  0.51200000  1.0
  O  O115  1  0.56148000  0.38881000  0.49041000  1.0
  O  O116  1  0.56605000  0.52350000  0.44190000  1.0
  O  O117  1  0.43887000  0.47900000  0.44139000  1.0
  O  O118  1  0.44203000  0.61359000  0.94941000  1.0
  O  O119  1  0.56994000  0.61332000  0.97242000  1.0
  O  O120  1  0.56458000  0.51599000  0.90070000  1.0
  O  O121  1  0.43330000  0.48263000  0.90049000  1.0
  O  O122  1  0.56802000  0.38856000  0.95045000  1.0
  O  O123  1  0.43907000  0.39170000  0.97210000  1.0
  O  O124  1  0.43395000  0.52662000  0.02102000  1.0
  O  O125  1  0.56150000  0.48280000  0.02136000  1.0
  O  O126  1  0.24511000  0.56249000  0.78933000  1.0
  O  O127  1  0.23806000  0.43857000  0.78026000  1.0
  O  O128  1  0.24188000  0.43668000  0.67722000  1.0
  O  O129  1  0.24486000  0.56176000  0.67536000  1.0
  O  O130  1  0.75819000  0.43672000  0.78538000  1.0
  O  O131  1  0.75520000  0.56182000  0.78764000  1.0
  O  O132  1  0.75466000  0.56143000  0.67322000  1.0
  O  O133  1  0.76232000  0.43769000  0.68237000  1.0
  F  F134  1  0.28917000  0.59388000  0.54808000  1.0
  F  F135  1  0.28675000  0.40428000  0.45544000  1.0
  F  F136  1  0.12394000  0.40193000  0.45357000  1.0
  F  F137  1  0.12661000  0.59963000  0.55050000  1.0
  F  F138  1  0.87050000  0.58495000  0.55908000  1.0
  F  F139  1  0.87235000  0.41682000  0.44697000  1.0
  F  F140  1  0.70975000  0.41999000  0.44899000  1.0
  F  F141  1  0.70789000  0.58053000  0.55657000  1.0
  F  F142  1  0.63787000  0.72854000  0.48674000  1.0
  F  F143  1  0.35421000  0.73811000  0.50930000  1.0
  F  F144  1  0.36028000  0.88675000  0.50622000  1.0
  F  F145  1  0.64168000  0.87714000  0.48558000  1.0
  F  F146  1  0.64437000  0.11808000  0.50909000  1.0
  F  F147  1  0.36349000  0.11321000  0.48651000  1.0
  F  F148  1  0.35864000  0.26169000  0.48767000  1.0
  F  F149  1  0.64170000  0.26677000  0.51212000  1.0
  F  F150  1  0.35579000  0.48574000  0.08805000  1.0
  F  F151  1  0.63954000  0.52727000  0.08736000  1.0
  F  F152  1  0.63927000  0.52433000  0.16786000  1.0
  F  F153  1  0.35785000  0.48578000  0.16854000  1.0
  F  F154  1  0.36004000  0.52215000  0.29537000  1.0
  F  F155  1  0.64183000  0.48518000  0.29400000  1.0
  F  F156  1  0.64419000  0.48382000  0.37447000  1.0
  F  F157  1  0.36009000  0.52361000  0.37588000  1.0
  F  F158  1  0.71077000  0.59652000  0.91451000  1.0
  F  F159  1  0.71369000  0.40776000  0.00672000  1.0
  F  F160  1  0.87648000  0.40439000  0.00791000  1.0
  F  F161  1  0.87334000  0.60133000  0.91156000  1.0
  F  F162  1  0.13009000  0.58655000  0.90294000  1.0
  F  F163  1  0.12740000  0.41928000  0.01457000  1.0
  F  F164  1  0.29001000  0.42275000  0.01315000  1.0
  F  F165  1  0.29263000  0.58286000  0.90617000  1.0
  F  F166  1  0.36191000  0.73251000  0.97512000  1.0
  F  F167  1  0.64543000  0.74002000  0.95204000  1.0
  F  F168  1  0.63938000  0.88877000  0.95285000  1.0
  F  F169  1  0.35811000  0.88113000  0.97413000  1.0
  F  F170  1  0.35582000  0.12173000  0.95013000  1.0
  F  F171  1  0.63649000  0.11539000  0.97312000  1.0
  F  F172  1  0.64164000  0.26398000  0.97364000  1.0
  F  F173  1  0.35877000  0.27052000  0.94873000  1.0
