# generated using pymatgen
data_Cd3H14C22(S3N8)2
_symmetry_space_group_name_H-M   'P 1'
_cell_length_a   8.59543000
_cell_length_b   8.68354000
_cell_length_c   11.69410000
_cell_angle_alpha   77.90870000
_cell_angle_beta   76.06320000
_cell_angle_gamma   87.42480000
_symmetry_Int_Tables_number   1
_chemical_formula_structural   Cd3H14C22(S3N8)2
_chemical_formula_sum   'Cd3 H14 C22 S6 N16'
_cell_volume   828.33091362
_cell_formula_units_Z   1
loop_
 _symmetry_equiv_pos_site_id
 _symmetry_equiv_pos_as_xyz
  1  'x, y, z'
loop_
 _atom_site_type_symbol
 _atom_site_label
 _atom_site_symmetry_multiplicity
 _atom_site_fract_x
 _atom_site_fract_y
 _atom_site_fract_z
 _atom_site_occupancy
  Cd  Cd0  1  0.96393000  0.72691000  0.31407000  1.0
  Cd  Cd1  1  0.03607000  0.27309000  0.68593000  1.0
  Cd  Cd2  1  0.50000000  0.50000000  0.00000000  1.0
  H  H3  1  0.59253000  0.67223000  0.43452000  1.0
  H  H4  1  0.40747000  0.32777000  0.56548000  1.0
  H  H5  1  0.32957000  0.81564000  0.45095000  1.0
  H  H6  1  0.67043000  0.18435000  0.54904000  1.0
  H  H7  1  0.33122000  0.10377000  0.35723000  1.0
  H  H8  1  0.66878000  0.89623000  0.64277000  1.0
  H  H9  1  0.59410000  0.23621000  0.24891000  1.0
  H  H10  1  0.40589000  0.76378000  0.75109000  1.0
  H  H11  1  0.88222000  0.22768000  0.19224000  1.0
  H  H12  1  0.11777000  0.77232000  0.80777000  1.0
  H  H13  1  0.29590000  0.90707000  0.08426000  1.0
  H  H14  1  0.70410000  0.09293000  0.91575000  1.0
  H  H15  1  0.11903000  0.33553000  0.18853000  1.0
  H  H16  1  0.88097000  0.66446000  0.81147000  1.0
  C  C17  1  0.13036000  0.65508000  0.04257000  1.0
  C  C18  1  0.86965000  0.34493000  0.95742000  1.0
  C  C19  1  0.07667000  0.63516000  0.56855000  1.0
  C  C20  1  0.92336000  0.36483000  0.43145000  1.0
  C  C21  1  0.35059000  0.61852000  0.25760000  1.0
  C  C22  1  0.64940000  0.38147000  0.74241000  1.0
  C  C23  1  0.58704000  0.79713000  0.39466000  1.0
  C  C24  1  0.41296000  0.20286000  0.60534000  1.0
  C  C25  1  0.44123000  0.87776000  0.40382000  1.0
  C  C26  1  0.55877000  0.12224000  0.59618000  1.0
  C  C27  1  0.44252000  0.03704000  0.35123000  1.0
  C  C28  1  0.55747000  0.96296000  0.64877000  1.0
  C  C29  1  0.58872000  0.11172000  0.29167000  1.0
  C  C30  1  0.41128000  0.88828000  0.70834000  1.0
  C  C31  1  0.72941000  0.02366000  0.28671000  1.0
  C  C32  1  0.27059000  0.97634000  0.71330000  1.0
  C  C33  1  0.88355000  0.10007000  0.22536000  1.0
  C  C34  1  0.11645000  0.89994000  0.77464000  1.0
  C  C35  1  0.28986000  0.02848000  0.09499000  1.0
  C  C36  1  0.71014000  0.97151000  0.90501000  1.0
  C  C37  1  0.19667000  0.24953000  0.14848000  1.0
  C  C38  1  0.80333000  0.75047000  0.85152000  1.0
  S  S39  1  0.93829000  0.66597000  0.09977000  1.0
  S  S40  1  0.06172000  0.33405000  0.90022000  1.0
  S  S41  1  0.98996000  0.80325000  0.53292000  1.0
  S  S42  1  0.01005000  0.19677000  0.46707000  1.0
  S  S43  1  0.52732000  0.54182000  0.22366000  1.0
  S  S44  1  0.47268000  0.45817000  0.77635000  1.0
  N  N45  1  0.26932000  0.64831000  0.99883000  1.0
  N  N46  1  0.73068000  0.35170000  0.00116000  1.0
  N  N47  1  0.14387000  0.51489000  0.59361000  1.0
  N  N48  1  0.85613000  0.48514000  0.40637000  1.0
  N  N49  1  0.22443000  0.67939000  0.28178000  1.0
  N  N50  1  0.77557000  0.32060000  0.71822000  1.0
  N  N51  1  0.72718000  0.86835000  0.33764000  1.0
  N  N52  1  0.27282000  0.13165000  0.66237000  1.0
  N  N53  1  0.01277000  0.01754000  0.20981000  1.0
  N  N54  1  0.98723000  0.98246000  0.79020000  1.0
  N  N55  1  0.15526000  0.09605000  0.15603000  1.0
  N  N56  1  0.84474000  0.90395000  0.84398000  1.0
  N  N57  1  0.40578000  0.13334000  0.05232000  1.0
  N  N58  1  0.59422000  0.86665000  0.94769000  1.0
  N  N59  1  0.34678000  0.27124000  0.08747000  1.0
  N  N60  1  0.65322000  0.72876000  0.91253000  1.0
