# generated using pymatgen
data_ErH13C12(SO7)2
_symmetry_space_group_name_H-M   'P 1'
_cell_length_a   6.72286000
_cell_length_b   10.71540000
_cell_length_c   11.83330000
_cell_angle_alpha   97.75830000
_cell_angle_beta   89.99990000
_cell_angle_gamma   89.99650000
_symmetry_Int_Tables_number   1
_chemical_formula_structural   ErH13C12(SO7)2
_chemical_formula_sum   'Er2 H26 C24 S4 O28'
_cell_volume   844.64583338
_cell_formula_units_Z   2
loop_
 _symmetry_equiv_pos_site_id
 _symmetry_equiv_pos_as_xyz
  1  'x, y, z'
loop_
 _atom_site_type_symbol
 _atom_site_label
 _atom_site_symmetry_multiplicity
 _atom_site_fract_x
 _atom_site_fract_y
 _atom_site_fract_z
 _atom_site_occupancy
  Er  Er0  1  0.25000000  0.68814000  0.77340000  1.0
  Er  Er1  1  0.75001000  0.31185000  0.22659000  1.0
  H  H2  1  0.75001000  0.93764000  0.17357000  1.0
  H  H3  1  0.24998000  0.06234000  0.82644000  1.0
  H  H4  1  0.93722000  0.54950000  0.88791000  1.0
  H  H5  1  0.43718000  0.45052000  0.11209000  1.0
  H  H6  1  0.06280000  0.45050000  0.11208000  1.0
  H  H7  1  0.56282000  0.54949000  0.88791000  1.0
  H  H8  1  0.95432000  0.68398000  0.96049000  1.0
  H  H9  1  0.45431000  0.31605000  0.03949000  1.0
  H  H10  1  0.04570000  0.31602000  0.03950000  1.0
  H  H11  1  0.54569000  0.68396000  0.96050000  1.0
  H  H12  1  0.13260000  0.42973000  0.70970000  1.0
  H  H13  1  0.63261000  0.57027000  0.29030000  1.0
  H  H14  1  0.86742000  0.57027000  0.29031000  1.0
  H  H15  1  0.36741000  0.42974000  0.70971000  1.0
  H  H16  1  0.13519000  0.60117000  0.52664000  1.0
  H  H17  1  0.63518000  0.39882000  0.47335000  1.0
  H  H18  1  0.86478000  0.39884000  0.47336000  1.0
  H  H19  1  0.36480000  0.60117000  0.52664000  1.0
  H  H20  1  0.75001000  0.86707000  0.83792000  1.0
  H  H21  1  0.25000000  0.13293000  0.16208000  1.0
  H  H22  1  0.75000000  0.26911000  0.92039000  1.0
  H  H23  1  0.25000000  0.73090000  0.07961000  1.0
  H  H24  1  0.75001000  0.19511000  0.50794000  1.0
  H  H25  1  0.24998000  0.80489000  0.49206000  1.0
  H  H26  1  0.75000000  0.79195000  0.42651000  1.0
  H  H27  1  0.24999000  0.20805000  0.57348000  1.0
  C  C28  1  0.75001000  0.95917000  0.80939000  1.0
  C  C29  1  0.25000000  0.04083000  0.19061000  1.0
  C  C30  1  0.75001000  0.06440000  0.89043000  1.0
  C  C31  1  0.25002000  0.93560000  0.10957000  1.0
  C  C32  1  0.75001000  0.18604000  0.85638000  1.0
  C  C33  1  0.25000000  0.81396000  0.14362000  1.0
  C  C34  1  0.75003000  0.20030000  0.74283000  1.0
  C  C35  1  0.24996000  0.79970000  0.25717000  1.0
  C  C36  1  0.75002000  0.10329000  0.53756000  1.0
  C  C37  1  0.24998000  0.89670000  0.46244000  1.0
  C  C38  1  0.75001000  0.99718000  0.45625000  1.0
  C  C39  1  0.24998000  0.00281000  0.54375000  1.0
  C  C40  1  0.75000000  0.87545000  0.49000000  1.0
  C  C41  1  0.25000000  0.12455000  0.51000000  1.0
  C  C42  1  0.75001000  0.86372000  0.60459000  1.0
  C  C43  1  0.25000000  0.13628000  0.39541000  1.0
  C  C44  1  0.75003000  0.09363000  0.65559000  1.0
  C  C45  1  0.24997000  0.90637000  0.34441000  1.0
  C  C46  1  0.75002000  0.97040000  0.69137000  1.0
  C  C47  1  0.24999000  0.02960000  0.30863000  1.0
  C  C48  1  0.75001000  0.05337000  0.01563000  1.0
  C  C49  1  0.25002000  0.94661000  0.98438000  1.0
  C  C50  1  0.75001000  0.01752000  0.33408000  1.0
  C  C51  1  0.24995000  0.98246000  0.66592000  1.0
  S  S52  1  0.75003000  0.35784000  0.70921000  1.0
  S  S53  1  0.24996000  0.64216000  0.29080000  1.0
  S  S54  1  0.75000000  0.70937000  0.64372000  1.0
  S  S55  1  0.25001000  0.29062000  0.35627000  1.0
  O  O56  1  0.75000000  0.15786000  0.08162000  1.0
  O  O57  1  0.25006000  0.84212000  0.91838000  1.0
  O  O58  1  0.75002000  0.94526000  0.04813000  1.0
  O  O59  1  0.24998000  0.05473000  0.95186000  1.0
  O  O60  1  0.75003000  0.12663000  0.30925000  1.0
  O  O61  1  0.24990000  0.87336000  0.69074000  1.0
  O  O62  1  0.75000000  0.91585000  0.25838000  1.0
  O  O63  1  0.24997000  0.08413000  0.74163000  1.0
  O  O64  1  0.75004000  0.44117000  0.81926000  1.0
  O  O65  1  0.24993000  0.55883000  0.18075000  1.0
  O  O66  1  0.56873000  0.37026000  0.64188000  1.0
  O  O67  1  0.06867000  0.62979000  0.35815000  1.0
  O  O68  1  0.43127000  0.62977000  0.35812000  1.0
  O  O69  1  0.93132000  0.37022000  0.64186000  1.0
  O  O70  1  0.92838000  0.70219000  0.71561000  1.0
  O  O71  1  0.42839000  0.29778000  0.28438000  1.0
  O  O72  1  0.07163000  0.29784000  0.28439000  1.0
  O  O73  1  0.57162000  0.70220000  0.71561000  1.0
  O  O74  1  0.75000000  0.62058000  0.54048000  1.0
  O  O75  1  0.25002000  0.37942000  0.45951000  1.0
  O  O76  1  0.03147000  0.61738000  0.91681000  1.0
  O  O77  1  0.53145000  0.38263000  0.08320000  1.0
  O  O78  1  0.96855000  0.38261000  0.08319000  1.0
  O  O79  1  0.46855000  0.61738000  0.91681000  1.0
  O  O80  1  0.24999000  0.46931000  0.75199000  1.0
  O  O81  1  0.75002000  0.53069000  0.24802000  1.0
  O  O82  1  0.24999000  0.62545000  0.57549000  1.0
  O  O83  1  0.75000000  0.37455000  0.42451000  1.0
