# generated using pymatgen
data_CoH4C8N4(OF)2
_symmetry_space_group_name_H-M   'P 1'
_cell_length_a   12.50010000
_cell_length_b   13.87710000
_cell_length_c   13.87710000
_cell_angle_alpha   111.38700000
_cell_angle_beta   107.48000000
_cell_angle_gamma   107.48000000
_symmetry_Int_Tables_number   1
_chemical_formula_structural   CoH4C8N4(OF)2
_chemical_formula_sum   'Co6 H24 C48 N24 O12 F12'
_cell_volume   1896.59969928
_cell_formula_units_Z   6
loop_
 _symmetry_equiv_pos_site_id
 _symmetry_equiv_pos_as_xyz
  1  'x, y, z'
loop_
 _atom_site_type_symbol
 _atom_site_label
 _atom_site_symmetry_multiplicity
 _atom_site_fract_x
 _atom_site_fract_y
 _atom_site_fract_z
 _atom_site_occupancy
  Co  Co0  1  0.76369000  0.75802000  0.51721000  1.0
  Co  Co1  1  0.24656000  0.24083000  0.48286000  1.0
  Co  Co2  1  0.24656000  0.48286000  0.24083000  1.0
  Co  Co3  1  0.00573000  0.75917000  0.24203000  1.0
  Co  Co4  1  0.76369000  0.51721000  0.75802000  1.0
  Co  Co5  1  0.00573000  0.24203000  0.75917000  1.0
  H  H6  1  0.74907000  0.52369000  0.36474000  1.0
  H  H7  1  0.38434000  0.15896000  0.63534000  1.0
  H  H8  1  0.38434000  0.63534000  0.15895000  1.0
  H  H9  1  0.22540000  0.84102000  0.47642000  1.0
  H  H10  1  0.74908000  0.36474000  0.52369000  1.0
  H  H11  1  0.22540000  0.47642000  0.84102000  1.0
  H  H12  1  0.60773000  0.81137000  0.34170000  1.0
  H  H13  1  0.26603000  0.46964000  0.65825000  1.0
  H  H14  1  0.26603000  0.65826000  0.46964000  1.0
  H  H15  1  0.79634000  0.53036000  0.18861000  1.0
  H  H16  1  0.60773000  0.34170000  0.81137000  1.0
  H  H17  1  0.79634000  0.18861000  0.53036000  1.0
  H  H18  1  0.67500000  0.87829000  0.68982000  1.0
  H  H19  1  0.98522000  0.18841000  0.31021000  1.0
  H  H20  1  0.98522000  0.31021000  0.18841000  1.0
  H  H21  1  0.79673000  0.81149000  0.12171000  1.0
  H  H22  1  0.67499000  0.68982000  0.87829000  1.0
  H  H23  1  0.79673000  0.12171000  0.81149000  1.0
  H  H24  1  0.03623000  0.82543000  0.68934000  1.0
  H  H25  1  0.34694000  0.13609000  0.31068000  1.0
  H  H26  1  0.34694000  0.31067000  0.13609000  1.0
  H  H27  1  0.21085000  0.86391000  0.17455000  1.0
  H  H28  1  0.03623000  0.68934000  0.82543000  1.0
  H  H29  1  0.21085000  0.17455000  0.86391000  1.0
  C  C30  1  0.51010000  0.58709000  0.35470000  1.0
  C  C31  1  0.15541000  0.23241000  0.64533000  1.0
  C  C32  1  0.15541000  0.64532000  0.23241000  1.0
  C  C33  1  0.92297000  0.76758000  0.41290000  1.0
  C  C34  1  0.51010000  0.35470000  0.58709000  1.0
  C  C35  1  0.92297000  0.41290000  0.76758000  1.0
  C  C36  1  0.65174000  0.51026000  0.33352000  1.0
  C  C37  1  0.31825000  0.17678000  0.66654000  1.0
  C  C38  1  0.31825000  0.66654000  0.17678000  1.0
  C  C39  1  0.14146000  0.82321000  0.48979000  1.0
  C  C40  1  0.65174000  0.33352000  0.51027000  1.0
  C  C41  1  0.14146000  0.48979000  0.82321000  1.0
  C  C42  1  0.84671000  0.99999000  0.60998000  1.0
  C  C43  1  0.23687000  0.39006000  0.39005000  1.0
  C  C44  1  0.84671000  0.60998000  0.99999000  1.0
  C  C45  1  0.67867000  0.89560000  0.41820000  1.0
  C  C46  1  0.26054000  0.47740000  0.58179000  1.0
  C  C47  1  0.26054000  0.58180000  0.47740000  1.0
  C  C48  1  0.78305000  0.52261000  0.10438000  1.0
  C  C49  1  0.67867000  0.41819000  0.89560000  1.0
  C  C50  1  0.78305000  0.10438000  0.52261000  1.0
  C  C51  1  0.76758000  0.67315000  0.67315000  1.0
  C  C52  1  0.09452000  0.99997000  0.32689000  1.0
  C  C53  1  0.09452000  0.32689000  0.99997000  1.0
  C  C54  1  0.69463000  0.81497000  0.71073000  1.0
  C  C55  1  0.98396000  0.10418000  0.28925000  1.0
  C  C56  1  0.98396000  0.28925000  0.10418000  1.0
  C  C57  1  0.87971000  0.89572000  0.18500000  1.0
  C  C58  1  0.69463000  0.71074000  0.81497000  1.0
  C  C59  1  0.87971000  0.18500000  0.89572000  1.0
  C  C60  1  0.03729000  0.81553000  0.60803000  1.0
  C  C61  1  0.42930000  0.20753000  0.39199000  1.0
  C  C62  1  0.42929000  0.39199000  0.20752000  1.0
  C  C63  1  0.22179000  0.79249000  0.18446000  1.0
  C  C64  1  0.03729000  0.60803000  0.81554000  1.0
  C  C65  1  0.22179000  0.18446000  0.79249000  1.0
  C  C66  1  0.55111000  0.40390000  0.24250000  1.0
  C  C67  1  0.30864000  0.16142000  0.75755000  1.0
  C  C68  1  0.30864000  0.75755000  0.16142000  1.0
  C  C69  1  0.14721000  0.83857000  0.59614000  1.0
  C  C70  1  0.55111000  0.24250000  0.40390000  1.0
  C  C71  1  0.14721000  0.59614000  0.83858000  1.0
  C  C72  1  0.69206000  0.99999000  0.42192000  1.0
  C  C73  1  0.27027000  0.57809000  0.57809000  1.0
  C  C74  1  0.69206000  0.42192000  0.99999000  1.0
  C  C75  1  0.67065000  0.79477000  0.79477000  1.0
  C  C76  1  0.87594000  0.99995000  0.20517000  1.0
  C  C77  1  0.87594000  0.20517000  0.99995000  1.0
  N  N78  1  0.63163000  0.59991000  0.38690000  1.0
  N  N79  1  0.24475000  0.21305000  0.61315000  1.0
  N  N80  1  0.24475000  0.61315000  0.21305000  1.0
  N  N81  1  0.03169000  0.78694000  0.40010000  1.0
  N  N82  1  0.63164000  0.38690000  0.59991000  1.0
  N  N83  1  0.03169000  0.40011000  0.78694000  1.0
  N  N84  1  0.75349000  0.89568000  0.51021000  1.0
  N  N85  1  0.24335000  0.38548000  0.48979000  1.0
  N  N86  1  0.24335000  0.48980000  0.38548000  1.0
  N  N87  1  0.85780000  0.61454000  0.10430000  1.0
  N  N88  1  0.75349000  0.51021000  0.89568000  1.0
  N  N89  1  0.85780000  0.10430000  0.61454000  1.0
  N  N90  1  0.74171000  0.75556000  0.65164000  1.0
  N  N91  1  0.09016000  0.10389000  0.34838000  1.0
  N  N92  1  0.09016000  0.34838000  0.10389000  1.0
  N  N93  1  0.98621000  0.89604000  0.24443000  1.0
  N  N94  1  0.74171000  0.65164000  0.75556000  1.0
  N  N95  1  0.98621000  0.24443000  0.89604000  1.0
  N  N96  1  0.92816000  0.78053000  0.51840000  1.0
  N  N97  1  0.40978000  0.26211000  0.48159000  1.0
  N  N98  1  0.40978000  0.48159000  0.26211000  1.0
  N  N99  1  0.14767000  0.73788000  0.21947000  1.0
  N  N100  1  0.92816000  0.51840000  0.78053000  1.0
  N  N101  1  0.14767000  0.21947000  0.73788000  1.0
  O  O102  1  0.49063000  0.66953000  0.40790000  1.0
  O  O103  1  0.08276000  0.26168000  0.59213000  1.0
  O  O104  1  0.08276000  0.59212000  0.26168000  1.0
  O  O105  1  0.82104000  0.73829000  0.33042000  1.0
  O  O106  1  0.49064000  0.40790000  0.66953000  1.0
  O  O107  1  0.82104000  0.33042000  0.73829000  1.0
  O  O108  1  0.91961000  0.99999000  0.69477000  1.0
  O  O109  1  0.22509000  0.30532000  0.30532000  1.0
  O  O110  1  0.91961000  0.69476000  0.99999000  1.0
  O  O111  1  0.81300000  0.61840000  0.61840000  1.0
  O  O112  1  0.19468000  0.99996000  0.38169000  1.0
  O  O113  1  0.19468000  0.38169000  0.99996000  1.0
  F  F114  1  0.57166000  0.31309000  0.18834000  1.0
  F  F115  1  0.38335000  0.12472000  0.81167000  1.0
  F  F116  1  0.38335000  0.81167000  0.12472000  1.0
  F  F117  1  0.25860000  0.87521000  0.68695000  1.0
  F  F118  1  0.57167000  0.18834000  0.31309000  1.0
  F  F119  1  0.25860000  0.68696000  0.87521000  1.0
  F  F120  1  0.61651000  0.99998000  0.32833000  1.0
  F  F121  1  0.28831000  0.67166000  0.67166000  1.0
  F  F122  1  0.61651000  0.32833000  0.99998000  1.0
  F  F123  1  0.62362000  0.85541000  0.85541000  1.0
  F  F124  1  0.76826000  0.99993000  0.14450000  1.0
  F  F125  1  0.76826000  0.14450000  0.99994000  1.0
