# generated using pymatgen
data_Lu2CuH18C22(NO9)2
_symmetry_space_group_name_H-M   'P 1'
_cell_length_a   6.59468000
_cell_length_b   7.93534000
_cell_length_c   13.02300000
_cell_angle_alpha   100.84800000
_cell_angle_beta   92.27980000
_cell_angle_gamma   102.74100000
_symmetry_Int_Tables_number   1
_chemical_formula_structural   Lu2CuH18C22(NO9)2
_chemical_formula_sum   'Lu2 Cu1 H18 C22 N2 O18'
_cell_volume   650.49287355
_cell_formula_units_Z   1
loop_
 _symmetry_equiv_pos_site_id
 _symmetry_equiv_pos_as_xyz
  1  'x, y, z'
loop_
 _atom_site_type_symbol
 _atom_site_label
 _atom_site_symmetry_multiplicity
 _atom_site_fract_x
 _atom_site_fract_y
 _atom_site_fract_z
 _atom_site_occupancy
  Lu  Lu0  1  0.56030000  0.93045000  0.35326000  1.0
  Lu  Lu1  1  0.43969000  0.06955000  0.64674000  1.0
  Cu  Cu2  1  0.00001000  0.50000000  0.00001000  1.0
  H  H3  1  0.10210000  0.73015000  0.30148000  1.0
  H  H4  1  0.89789000  0.26985000  0.69852000  1.0
  H  H5  1  0.16261000  0.79701000  0.42667000  1.0
  H  H6  1  0.83738000  0.20299000  0.57333000  1.0
  H  H7  1  0.67558000  0.25167000  0.17101000  1.0
  H  H8  1  0.32443000  0.74833000  0.82899000  1.0
  H  H9  1  0.37747000  0.03104000  0.06450000  1.0
  H  H10  1  0.62253000  0.96895000  0.93550000  1.0
  H  H11  1  0.08642000  0.14035000  0.98537000  1.0
  H  H12  1  0.91358000  0.85964000  0.01464000  1.0
  H  H13  1  0.37694000  0.48907000  0.43105000  1.0
  H  H14  1  0.62305000  0.51093000  0.56895000  1.0
  H  H15  1  0.21191000  0.37670000  0.51425000  1.0
  H  H16  1  0.78809000  0.62329000  0.48575000  1.0
  H  H17  1  0.01648000  0.45038000  0.36213000  1.0
  H  H18  1  0.98352000  0.54963000  0.63787000  1.0
  H  H19  1  0.14459000  0.32267000  0.27232000  1.0
  H  H20  1  0.85541000  0.67734000  0.72768000  1.0
  C  C21  1  0.37246000  0.52267000  0.11522000  1.0
  C  C22  1  0.62754000  0.47732000  0.88478000  1.0
  C  C23  1  0.54288000  0.47448000  0.15976000  1.0
  C  C24  1  0.45711000  0.52551000  0.84023000  1.0
  C  C25  1  0.54563000  0.29485000  0.13846000  1.0
  C  C26  1  0.45438000  0.70516000  0.86154000  1.0
  C  C27  1  0.38119000  0.17120000  0.07778000  1.0
  C  C28  1  0.61881000  0.82880000  0.92222000  1.0
  C  C29  1  0.21790000  0.22878000  0.03567000  1.0
  C  C30  1  0.78210000  0.77122000  0.96433000  1.0
  C  C31  1  0.34428000  0.70751000  0.12082000  1.0
  C  C32  1  0.65573000  0.29249000  0.87918000  1.0
  C  C33  1  0.72377000  0.59994000  0.23010000  1.0
  C  C34  1  0.27624000  0.40007000  0.76990000  1.0
  C  C35  1  0.37949000  0.21854000  0.41507000  1.0
  C  C36  1  0.62051000  0.78146000  0.58493000  1.0
  C  C37  1  0.26562000  0.36531000  0.43522000  1.0
  C  C38  1  0.73437000  0.63468000  0.56478000  1.0
  C  C39  1  0.08699000  0.33550000  0.35048000  1.0
  C  C40  1  0.91301000  0.66451000  0.64953000  1.0
  C  C41  1  0.91546000  0.17544000  0.35152000  1.0
  C  C42  1  0.08453000  0.82457000  0.64848000  1.0
  N  N43  1  0.21692000  0.40026000  0.05419000  1.0
  N  N44  1  0.78310000  0.59974000  0.94581000  1.0
  O  O45  1  0.21970000  0.78631000  0.35681000  1.0
  O  O46  1  0.78030000  0.21368000  0.64319000  1.0
  O  O47  1  0.19910000  0.72487000  0.05797000  1.0
  O  O48  1  0.80090000  0.27512000  0.94203000  1.0
  O  O49  1  0.46130000  0.83669000  0.18199000  1.0
  O  O50  1  0.53870000  0.16331000  0.81801000  1.0
  O  O51  1  0.90493000  0.59625000  0.20498000  1.0
  O  O52  1  0.09507000  0.40377000  0.79501000  1.0
  O  O53  1  0.68165000  0.69224000  0.31480000  1.0
  O  O54  1  0.31835000  0.30776000  0.68520000  1.0
  O  O55  1  0.42427000  0.14128000  0.48858000  1.0
  O  O56  1  0.57573000  0.85871000  0.51142000  1.0
  O  O57  1  0.43052000  0.16753000  0.32373000  1.0
  O  O58  1  0.56948000  0.83247000  0.67627000  1.0
  O  O59  1  0.82686000  0.07615000  0.26615000  1.0
  O  O60  1  0.17314000  0.92386000  0.73385000  1.0
  O  O61  1  0.85100000  0.14099000  0.43931000  1.0
  O  O62  1  0.14900000  0.85901000  0.56069000  1.0
