# generated using pymatgen
data_LaH16C15O8
_symmetry_space_group_name_H-M   'P 1'
_cell_length_a   8.86929000
_cell_length_b   10.81600000
_cell_length_c   11.28470000
_cell_angle_alpha   103.76500000
_cell_angle_beta   102.84800000
_cell_angle_gamma   111.72900000
_symmetry_Int_Tables_number   1
_chemical_formula_structural   LaH16C15O8
_chemical_formula_sum   'La2 H32 C30 O16'
_cell_volume   917.10159175
_cell_formula_units_Z   2
loop_
 _symmetry_equiv_pos_site_id
 _symmetry_equiv_pos_as_xyz
  1  'x, y, z'
loop_
 _atom_site_type_symbol
 _atom_site_label
 _atom_site_symmetry_multiplicity
 _atom_site_fract_x
 _atom_site_fract_y
 _atom_site_fract_z
 _atom_site_occupancy
  La  La0  1  0.75128000  0.51620000  0.47688000  1.0
  La  La1  1  0.24873000  0.48382000  0.52312000  1.0
  H  H2  1  0.49027000  0.59310000  0.31152000  1.0
  H  H3  1  0.50972000  0.40690000  0.68848000  1.0
  H  H4  1  0.67991000  0.70006000  0.32216000  1.0
  H  H5  1  0.32008000  0.29994000  0.67783000  1.0
  H  H6  1  0.97249000  0.80699000  0.52597000  1.0
  H  H7  1  0.02751000  0.19301000  0.47403000  1.0
  H  H8  1  0.08395000  0.74558000  0.46020000  1.0
  H  H9  1  0.91605000  0.25443000  0.53980000  1.0
  H  H10  1  0.89603000  0.29873000  0.10018000  1.0
  H  H11  1  0.10402000  0.70129000  0.89984000  1.0
  H  H12  1  0.93051000  0.20344000  0.20137000  1.0
  H  H13  1  0.06953000  0.79660000  0.79866000  1.0
  H  H14  1  0.68951000  0.98590000  0.18928000  1.0
  H  H15  1  0.31055000  0.01413000  0.81075000  1.0
  H  H16  1  0.97727000  0.12817000  0.84714000  1.0
  H  H17  1  0.02275000  0.87181000  0.15286000  1.0
  H  H18  1  0.60023000  0.21664000  0.94269000  1.0
  H  H19  1  0.39983000  0.78339000  0.05733000  1.0
  H  H20  1  0.68579000  0.94759000  0.72197000  1.0
  H  H21  1  0.31422000  0.05242000  0.27804000  1.0
  H  H22  1  0.57702000  0.81916000  0.78442000  1.0
  H  H23  1  0.42298000  0.18083000  0.21558000  1.0
  H  H24  1  0.76561000  0.76061000  0.95258000  1.0
  H  H25  1  0.23440000  0.23938000  0.04742000  1.0
  H  H26  1  0.12842000  0.37789000  0.86902000  1.0
  H  H27  1  0.87153000  0.62209000  0.13096000  1.0
  H  H28  1  0.68745000  0.43534000  0.91659000  1.0
  H  H29  1  0.31250000  0.56464000  0.08339000  1.0
  H  H30  1  0.65894000  0.20435000  0.75130000  1.0
  H  H31  1  0.34100000  0.79566000  0.24869000  1.0
  H  H32  1  0.84560000  0.21017000  0.71622000  1.0
  H  H33  1  0.15430000  0.78977000  0.28376000  1.0
  C  C34  1  0.70371000  0.75449000  0.65906000  1.0
  C  C35  1  0.29629000  0.24550000  0.34092000  1.0
  C  C36  1  0.82342000  0.34321000  0.26521000  1.0
  C  C37  1  0.17661000  0.65680000  0.73478000  1.0
  C  C38  1  0.73840000  0.33518000  0.64170000  1.0
  C  C39  1  0.26157000  0.66481000  0.35828000  1.0
  C  C40  1  0.66540000  0.11476000  0.07406000  1.0
  C  C41  1  0.33466000  0.88526000  0.92596000  1.0
  C  C42  1  0.83765000  0.23844000  0.15758000  1.0
  C  C43  1  0.16241000  0.76161000  0.84246000  1.0
  C  C44  1  0.60603000  0.99241000  0.10623000  1.0
  C  C45  1  0.39402000  0.00760000  0.89378000  1.0
  C  C46  1  0.85295000  0.93700000  0.88574000  1.0
  C  C47  1  0.14706000  0.06298000  0.11425000  1.0
  C  C48  1  0.98688000  0.07144000  0.91426000  1.0
  C  C49  1  0.01309000  0.92853000  0.08573000  1.0
  C  C50  1  0.55676000  0.12060000  0.96691000  1.0
  C  C51  1  0.44329000  0.87940000  0.03310000  1.0
  C  C52  1  0.69631000  0.86767000  0.76393000  1.0
  C  C53  1  0.30371000  0.13235000  0.23610000  1.0
  C  C54  1  0.86814000  0.86599000  0.97324000  1.0
  C  C55  1  0.13187000  0.13398000  0.02674000  1.0
  C  C56  1  0.89384000  0.39094000  0.87803000  1.0
  C  C57  1  0.10612000  0.60905000  0.12196000  1.0
  C  C58  1  0.07096000  0.43031000  0.92672000  1.0
  C  C59  1  0.92898000  0.56966000  0.07325000  1.0
  C  C60  1  0.82458000  0.46274000  0.95272000  1.0
  C  C61  1  0.17537000  0.53724000  0.04725000  1.0
  C  C62  1  0.78253000  0.27602000  0.74696000  1.0
  C  C63  1  0.21745000  0.72397000  0.25307000  1.0
  O  O64  1  0.56737000  0.63752000  0.59086000  1.0
  O  O65  1  0.43261000  0.36247000  0.40913000  1.0
  O  O66  1  0.95595000  0.42449000  0.36951000  1.0
  O  O67  1  0.04404000  0.57552000  0.63050000  1.0
  O  O68  1  0.74829000  0.28621000  0.53064000  1.0
  O  O69  1  0.25171000  0.71377000  0.46935000  1.0
  O  O70  1  0.84525000  0.77518000  0.63906000  1.0
  O  O71  1  0.15477000  0.22483000  0.36095000  1.0
  O  O72  1  0.69416000  0.43563000  0.66696000  1.0
  O  O73  1  0.30581000  0.56437000  0.33304000  1.0
  O  O74  1  0.68263000  0.35197000  0.25321000  1.0
  O  O75  1  0.31741000  0.64804000  0.74678000  1.0
  O  O76  1  0.60672000  0.60246000  0.31086000  1.0
  O  O77  1  0.39327000  0.39755000  0.68914000  1.0
  O  O78  1  0.96688000  0.74379000  0.44503000  1.0
  O  O79  1  0.03311000  0.25622000  0.55497000  1.0
