# generated using pymatgen
data_Ni3P4H24C14(NO9)2
_symmetry_space_group_name_H-M   'P 1'
_cell_length_a   6.41918000
_cell_length_b   9.98304000
_cell_length_c   11.96580000
_cell_angle_alpha   71.15260000
_cell_angle_beta   80.16730000
_cell_angle_gamma   78.35770000
_symmetry_Int_Tables_number   1
_chemical_formula_structural   Ni3P4H24C14(NO9)2
_chemical_formula_sum   'Ni3 P4 H24 C14 N2 O18'
_cell_volume   706.13346087
_cell_formula_units_Z   1
loop_
 _symmetry_equiv_pos_site_id
 _symmetry_equiv_pos_as_xyz
  1  'x, y, z'
loop_
 _atom_site_type_symbol
 _atom_site_label
 _atom_site_symmetry_multiplicity
 _atom_site_fract_x
 _atom_site_fract_y
 _atom_site_fract_z
 _atom_site_occupancy
  Ni  Ni0  1  0.50000000  0.50000000  0.00000000  1.0
  Ni  Ni1  1  0.86911000  0.55150000  0.29849000  1.0
  Ni  Ni2  1  0.13089000  0.44850000  0.70151000  1.0
  P  P3  1  0.62482000  0.47376000  0.75382000  1.0
  P  P4  1  0.37518000  0.52624000  0.24618000  1.0
  P  P5  1  0.79677000  0.68910000  0.82621000  1.0
  P  P6  1  0.20323000  0.31090000  0.17379000  1.0
  H  H7  1  0.94743000  0.31987000  0.46285000  1.0
  H  H8  1  0.05257000  0.68013000  0.53715000  1.0
  H  H9  1  0.82807000  0.41887000  0.54230000  1.0
  H  H10  1  0.17193000  0.58113000  0.45770000  1.0
  H  H11  1  0.85472000  0.65231000  0.06936000  1.0
  H  H12  1  0.14528000  0.34768000  0.93063000  1.0
  H  H13  1  0.07873000  0.66249000  0.10594000  1.0
  H  H14  1  0.92127000  0.33751000  0.89406000  1.0
  H  H15  1  0.25961000  0.65149000  0.82288000  1.0
  H  H16  1  0.74039000  0.34851000  0.17712000  1.0
  H  H17  1  0.67573000  0.88793000  0.86993000  1.0
  H  H18  1  0.32427000  0.11207000  0.13007000  1.0
  H  H19  1  0.34952000  0.75420000  0.63368000  1.0
  H  H20  1  0.65048000  0.24580000  0.36632000  1.0
  H  H21  1  0.46054000  0.88070000  0.67150000  1.0
  H  H22  1  0.53946000  0.11930000  0.32850000  1.0
  H  H23  1  0.76559000  0.98233000  0.54475000  1.0
  H  H24  1  0.23441000  0.01767000  0.45525000  1.0
  H  H25  1  0.99100000  0.01422000  0.34508000  1.0
  H  H26  1  0.00901000  0.98578000  0.65492000  1.0
  H  H27  1  0.00507000  0.83512000  0.23752000  1.0
  H  H28  1  0.99493000  0.16488000  0.76248000  1.0
  H  H29  1  0.55684000  0.62661000  0.49063000  1.0
  H  H30  1  0.44316000  0.37339000  0.50937000  1.0
  C  C31  1  0.57124000  0.66174000  0.76017000  1.0
  C  C32  1  0.42875000  0.33826000  0.23983000  1.0
  C  C33  1  0.49948000  0.77979000  0.64871000  1.0
  C  C34  1  0.50051000  0.22021000  0.35129000  1.0
  C  C35  1  0.64785000  0.79924000  0.53518000  1.0
  C  C36  1  0.35215000  0.20076000  0.46482000  1.0
  C  C37  1  0.77250000  0.90910000  0.49306000  1.0
  C  C38  1  0.22751000  0.09090000  0.50694000  1.0
  C  C39  1  0.89856000  0.92668000  0.38349000  1.0
  C  C40  1  0.10143000  0.07332000  0.61651000  1.0
  C  C41  1  0.90476000  0.82954000  0.32148000  1.0
  C  C42  1  0.09524000  0.17046000  0.67852000  1.0
  C  C43  1  0.65735000  0.71003000  0.46448000  1.0
  C  C44  1  0.34265000  0.28997000  0.53552000  1.0
  N  N45  1  0.78848000  0.72171000  0.36286000  1.0
  N  N46  1  0.21153000  0.27829000  0.63714000  1.0
  O  O47  1  0.82620000  0.39536000  0.46667000  1.0
  O  O48  1  0.17380000  0.60464000  0.53333000  1.0
  O  O49  1  0.82916000  0.45570000  0.66771000  1.0
  O  O50  1  0.17084000  0.54430000  0.33229000  1.0
  O  O51  1  0.91936000  0.68135000  0.12610000  1.0
  O  O52  1  0.08063000  0.31865000  0.87390000  1.0
  O  O53  1  0.43412000  0.45016000  0.70943000  1.0
  O  O54  1  0.56588000  0.54984000  0.29057000  1.0
  O  O55  1  0.65897000  0.38820000  0.88437000  1.0
  O  O56  1  0.34103000  0.61181000  0.11563000  1.0
  O  O57  1  0.38885000  0.66340000  0.85318000  1.0
  O  O58  1  0.61115000  0.33660000  0.14682000  1.0
  O  O59  1  0.77029000  0.86047000  0.80527000  1.0
  O  O60  1  0.22971000  0.13953000  0.19473000  1.0
  O  O61  1  0.01276000  0.64977000  0.76029000  1.0
  O  O62  1  0.98724000  0.35022000  0.23971000  1.0
  O  O63  1  0.75504000  0.61453000  0.95917000  1.0
  O  O64  1  0.24496000  0.38547000  0.04083000  1.0
