# generated using pymatgen
data_ZnH12C22BrNO4
_symmetry_space_group_name_H-M   'P 1'
_cell_length_a   11.23800000
_cell_length_b   13.97080000
_cell_length_c   16.05400000
_cell_angle_alpha   90.00000000
_cell_angle_beta   90.00000000
_cell_angle_gamma   89.99980000
_symmetry_Int_Tables_number   1
_chemical_formula_structural   ZnH12C22BrNO4
_chemical_formula_sum   'Zn2 H24 C44 Br2 N2 O8'
_cell_volume   2520.53981431
_cell_formula_units_Z   2
loop_
 _symmetry_equiv_pos_site_id
 _symmetry_equiv_pos_as_xyz
  1  'x, y, z'
loop_
 _atom_site_type_symbol
 _atom_site_label
 _atom_site_symmetry_multiplicity
 _atom_site_fract_x
 _atom_site_fract_y
 _atom_site_fract_z
 _atom_site_occupancy
  Zn  Zn0  1  0.50000000  0.09874000  0.00000000  1.0
  Zn  Zn1  1  0.50000000  0.90127000  0.00000000  1.0
  H  H2  1  0.13490000  0.15395000  0.33394000  1.0
  H  H3  1  0.86510000  0.84605000  0.33394000  1.0
  H  H4  1  0.86510000  0.15395000  0.66606000  1.0
  H  H5  1  0.13490000  0.84605000  0.66606000  1.0
  H  H6  1  0.86510000  0.84605000  0.66606000  1.0
  H  H7  1  0.13490000  0.15395000  0.66606000  1.0
  H  H8  1  0.13490000  0.84605000  0.33394000  1.0
  H  H9  1  0.86510000  0.15395000  0.33394000  1.0
  H  H10  1  0.25315000  0.15334000  0.20171000  1.0
  H  H11  1  0.74685000  0.84666000  0.20171000  1.0
  H  H12  1  0.74685000  0.15334000  0.79829000  1.0
  H  H13  1  0.25315000  0.84666000  0.79829000  1.0
  H  H14  1  0.74685000  0.84666000  0.79829000  1.0
  H  H15  1  0.25315000  0.15334000  0.79829000  1.0
  H  H16  1  0.25315000  0.84666000  0.20171000  1.0
  H  H17  1  0.74685000  0.15334000  0.20171000  1.0
  H  H18  1  0.31628000  0.25152000  0.00000000  1.0
  H  H19  1  0.68372000  0.74848000  0.00000000  1.0
  H  H20  1  0.68372000  0.25152000  0.00000000  1.0
  H  H21  1  0.31628000  0.74848000  0.00000000  1.0
  H  H22  1  0.30707000  0.42901000  0.00000000  1.0
  H  H23  1  0.69293000  0.57099000  0.00000000  1.0
  H  H24  1  0.69292000  0.42901000  0.00000000  1.0
  H  H25  1  0.30708000  0.57099000  0.00000000  1.0
  C  C26  1  0.12291000  0.00000000  0.50000000  1.0
  C  C27  1  0.87709000  0.00000000  0.50000000  1.0
  C  C28  1  0.06273000  0.00000000  0.42339000  1.0
  C  C29  1  0.93727000  0.00000000  0.42339000  1.0
  C  C30  1  0.93727000  0.00000000  0.57661000  1.0
  C  C31  1  0.06273000  0.00000000  0.57661000  1.0
  C  C32  1  0.12848000  0.00000000  0.34283000  1.0
  C  C33  1  0.87152000  0.00000000  0.34283000  1.0
  C  C34  1  0.87152000  0.00000000  0.65717000  1.0
  C  C35  1  0.12848000  0.00000000  0.65717000  1.0
  C  C36  1  0.16034000  0.08651000  0.30467000  1.0
  C  C37  1  0.83966000  0.91349000  0.30467000  1.0
  C  C38  1  0.83966000  0.08651000  0.69533000  1.0
  C  C39  1  0.16034000  0.91349000  0.69533000  1.0
  C  C40  1  0.83966000  0.91349000  0.69533000  1.0
  C  C41  1  0.16034000  0.08651000  0.69533000  1.0
  C  C42  1  0.16034000  0.91349000  0.30467000  1.0
  C  C43  1  0.83966000  0.08651000  0.30467000  1.0
  C  C44  1  0.22590000  0.08653000  0.23110000  1.0
  C  C45  1  0.77410000  0.91347000  0.23110000  1.0
  C  C46  1  0.77410000  0.08653000  0.76890000  1.0
  C  C47  1  0.22590000  0.91347000  0.76890000  1.0
  C  C48  1  0.77410000  0.91347000  0.76890000  1.0
  C  C49  1  0.22590000  0.08653000  0.76890000  1.0
  C  C50  1  0.22590000  0.91347000  0.23110000  1.0
  C  C51  1  0.77410000  0.08653000  0.23110000  1.0
  C  C52  1  0.26055000  0.00000000  0.19428000  1.0
  C  C53  1  0.73945000  0.00000000  0.19428000  1.0
  C  C54  1  0.73945000  0.00000000  0.80572000  1.0
  C  C55  1  0.26055000  0.00000000  0.80572000  1.0
  C  C56  1  0.33945000  0.00000000  0.11900000  1.0
  C  C57  1  0.66055000  0.00000000  0.11900000  1.0
  C  C58  1  0.66055000  0.00000000  0.88100000  1.0
  C  C59  1  0.33945000  0.00000000  0.88100000  1.0
  C  C60  1  0.39710000  0.29471000  0.00000000  1.0
  C  C61  1  0.60290000  0.70529000  0.00000000  1.0
  C  C62  1  0.60290000  0.29471000  0.00000000  1.0
  C  C63  1  0.39710000  0.70529000  0.00000000  1.0
  C  C64  1  0.39356000  0.39407000  0.00000000  1.0
  C  C65  1  0.60644000  0.60593000  0.00000000  1.0
  C  C66  1  0.60644000  0.39407000  0.00000000  1.0
  C  C67  1  0.39356000  0.60593000  0.00000000  1.0
  C  C68  1  0.50000000  0.44690000  0.00000000  1.0
  C  C69  1  0.50000000  0.55310000  0.00000000  1.0
  Br  Br70  1  0.29283000  0.00000000  0.50000000  1.0
  Br  Br71  1  0.70717000  0.00000000  0.50000000  1.0
  N  N72  1  0.50000000  0.24588000  0.00000000  1.0
  N  N73  1  0.50000000  0.75412000  0.00000000  1.0
  O  O74  1  0.37141000  0.08119000  0.09044000  1.0
  O  O75  1  0.62859000  0.91881000  0.09044000  1.0
  O  O76  1  0.62859000  0.08119000  0.90956000  1.0
  O  O77  1  0.37141000  0.91881000  0.90956000  1.0
  O  O78  1  0.62859000  0.91881000  0.90956000  1.0
  O  O79  1  0.37141000  0.08119000  0.90956000  1.0
  O  O80  1  0.37141000  0.91881000  0.09044000  1.0
  O  O81  1  0.62859000  0.08119000  0.09044000  1.0
