# generated using pymatgen
data_LuH6C6SNO8
_symmetry_space_group_name_H-M   'P 1'
_cell_length_a   7.48114000
_cell_length_b   9.24415000
_cell_length_c   14.58860000
_cell_angle_alpha   90.00010000
_cell_angle_beta   90.00000000
_cell_angle_gamma   100.90000000
_symmetry_Int_Tables_number   1
_chemical_formula_structural   LuH6C6SNO8
_chemical_formula_sum   'Lu4 H24 C24 S4 N4 O32'
_cell_volume   990.69873985
_cell_formula_units_Z   4
loop_
 _symmetry_equiv_pos_site_id
 _symmetry_equiv_pos_as_xyz
  1  'x, y, z'
loop_
 _atom_site_type_symbol
 _atom_site_label
 _atom_site_symmetry_multiplicity
 _atom_site_fract_x
 _atom_site_fract_y
 _atom_site_fract_z
 _atom_site_occupancy
  Lu  Lu0  1  0.13576000  0.27711000  0.04369000  1.0
  Lu  Lu1  1  0.36424000  0.72289000  0.54369000  1.0
  Lu  Lu2  1  0.86424000  0.72289000  0.95631000  1.0
  Lu  Lu3  1  0.63576000  0.27711000  0.45631000  1.0
  H  H4  1  0.15368000  0.04723000  0.44929000  1.0
  H  H5  1  0.34632000  0.95277000  0.94928000  1.0
  H  H6  1  0.84632000  0.95277000  0.55071000  1.0
  H  H7  1  0.65368000  0.04723000  0.05072000  1.0
  H  H8  1  0.10302000  0.12433000  0.28861000  1.0
  H  H9  1  0.39698000  0.87567000  0.78861000  1.0
  H  H10  1  0.89697000  0.87567000  0.71139000  1.0
  H  H11  1  0.60302000  0.12433000  0.21139000  1.0
  H  H12  1  0.91921000  0.66518000  0.22073000  1.0
  H  H13  1  0.58079000  0.33482000  0.72073000  1.0
  H  H14  1  0.08079000  0.33482000  0.77927000  1.0
  H  H15  1  0.41921000  0.66518000  0.27927000  1.0
  H  H16  1  0.96621000  0.60568000  0.38748000  1.0
  H  H17  1  0.53379000  0.39432000  0.88748000  1.0
  H  H18  1  0.03378000  0.39432000  0.61252000  1.0
  H  H19  1  0.46621000  0.60568000  0.11252000  1.0
  H  H20  1  0.28692000  0.36101000  0.22276000  1.0
  H  H21  1  0.21308000  0.63899000  0.72276000  1.0
  H  H22  1  0.71308000  0.63899000  0.77724000  1.0
  H  H23  1  0.78692000  0.36101000  0.27724000  1.0
  H  H24  1  0.46263000  0.34740000  0.16106000  1.0
  H  H25  1  0.03737000  0.65260000  0.66106000  1.0
  H  H26  1  0.53737000  0.65260000  0.83894000  1.0
  H  H27  1  0.96263000  0.34740000  0.33894000  1.0
  C  C28  1  0.09709000  0.96895000  0.39643000  1.0
  C  C29  1  0.40291000  0.03105000  0.89643000  1.0
  C  C30  1  0.90291000  0.03105000  0.60357000  1.0
  C  C31  1  0.59709000  0.96895000  0.10357000  1.0
  C  C32  1  0.07035000  0.00843000  0.30698000  1.0
  C  C33  1  0.42965000  0.99157000  0.80697000  1.0
  C  C34  1  0.92965000  0.99157000  0.69302000  1.0
  C  C35  1  0.57035000  0.00843000  0.19303000  1.0
  C  C36  1  0.00952000  0.90020000  0.24139000  1.0
  C  C37  1  0.49048000  0.09980000  0.74139000  1.0
  C  C38  1  0.99047000  0.09980000  0.75861000  1.0
  C  C39  1  0.50953000  0.90020000  0.25861000  1.0
  C  C40  1  0.96745000  0.75283000  0.26957000  1.0
  C  C41  1  0.53255000  0.24718000  0.76957000  1.0
  C  C42  1  0.03255000  0.24717000  0.73043000  1.0
  C  C43  1  0.46745000  0.75283000  0.23043000  1.0
  C  C44  1  0.99292000  0.71690000  0.36000000  1.0
  C  C45  1  0.50708000  0.28310000  0.86000000  1.0
  C  C46  1  0.00707000  0.28310000  0.64000000  1.0
  C  C47  1  0.49292000  0.71690000  0.14000000  1.0
  C  C48  1  0.99773000  0.94248000  0.14282000  1.0
  C  C49  1  0.50227000  0.05752000  0.64281000  1.0
  C  C50  1  0.00227000  0.05752000  0.85718000  1.0
  C  C51  1  0.49773000  0.94248000  0.35718000  1.0
  S  S52  1  0.81898000  0.40253000  0.09302000  1.0
  S  S53  1  0.68102000  0.59747000  0.59301000  1.0
  S  S54  1  0.18102000  0.59747000  0.90699000  1.0
  S  S55  1  0.31898000  0.40253000  0.40698000  1.0
  N  N56  1  0.06270000  0.82445000  0.42089000  1.0
  N  N57  1  0.43730000  0.17555000  0.92089000  1.0
  N  N58  1  0.93730000  0.17555000  0.57911000  1.0
  N  N59  1  0.56270000  0.82445000  0.07911000  1.0
  O  O60  1  0.04628000  0.07817000  0.12298000  1.0
  O  O61  1  0.45373000  0.92183000  0.62298000  1.0
  O  O62  1  0.95372000  0.92183000  0.87702000  1.0
  O  O63  1  0.54628000  0.07817000  0.37702000  1.0
  O  O64  1  0.94177000  0.84121000  0.08577000  1.0
  O  O65  1  0.55822000  0.15880000  0.58577000  1.0
  O  O66  1  0.05822000  0.15879000  0.91423000  1.0
  O  O67  1  0.44178000  0.84121000  0.41423000  1.0
  O  O68  1  0.10126000  0.78792000  0.50519000  1.0
  O  O69  1  0.39874000  0.21208000  0.00519000  1.0
  O  O70  1  0.89874000  0.21208000  0.49481000  1.0
  O  O71  1  0.60126000  0.78792000  0.99481000  1.0
  O  O72  1  0.00846000  0.44299000  0.13043000  1.0
  O  O73  1  0.49154000  0.55701000  0.63043000  1.0
  O  O74  1  0.99154000  0.55701000  0.86957000  1.0
  O  O75  1  0.50845000  0.44299000  0.36957000  1.0
  O  O76  1  0.82666000  0.27953000  0.02731000  1.0
  O  O77  1  0.67334000  0.72047000  0.52731000  1.0
  O  O78  1  0.17334000  0.72047000  0.97269000  1.0
  O  O79  1  0.32666000  0.27953000  0.47269000  1.0
  O  O80  1  0.76474000  0.52864000  0.04424000  1.0
  O  O81  1  0.73526000  0.47135000  0.54424000  1.0
  O  O82  1  0.23526000  0.47135000  0.95576000  1.0
  O  O83  1  0.26475000  0.52864000  0.45576000  1.0
  O  O84  1  0.68917000  0.35747000  0.16927000  1.0
  O  O85  1  0.81083000  0.64253000  0.66927000  1.0
  O  O86  1  0.31082000  0.64253000  0.83073000  1.0
  O  O87  1  0.18917000  0.35747000  0.33073000  1.0
  O  O88  1  0.33074000  0.35185000  0.15917000  1.0
  O  O89  1  0.16926000  0.64815000  0.65917000  1.0
  O  O90  1  0.66926000  0.64815000  0.84083000  1.0
  O  O91  1  0.83074000  0.35185000  0.34083000  1.0
