# generated using pymatgen
data_HgH8C10S2(NCl)2
_symmetry_space_group_name_H-M   'P 1'
_cell_length_a   8.94030000
_cell_length_b   11.52740000
_cell_length_c   13.12360000
_cell_angle_alpha   90.00000000
_cell_angle_beta   90.00000000
_cell_angle_gamma   103.28100000
_symmetry_Int_Tables_number   1
_chemical_formula_structural   HgH8C10S2(NCl)2
_chemical_formula_sum   'Hg4 H32 C40 S8 N8 Cl8'
_cell_volume   1316.32500601
_cell_formula_units_Z   4
loop_
 _symmetry_equiv_pos_site_id
 _symmetry_equiv_pos_as_xyz
  1  'x, y, z'
loop_
 _atom_site_type_symbol
 _atom_site_label
 _atom_site_symmetry_multiplicity
 _atom_site_fract_x
 _atom_site_fract_y
 _atom_site_fract_z
 _atom_site_occupancy
  Hg  Hg0  1  0.97463000  0.87012000  0.12398000  1.0
  Hg  Hg1  1  0.52537000  0.62988000  0.62398000  1.0
  Hg  Hg2  1  0.02537000  0.12988000  0.87602000  1.0
  Hg  Hg3  1  0.47463000  0.37012000  0.37602000  1.0
  H  H4  1  0.51494000  0.00414000  0.35948000  1.0
  H  H5  1  0.98506000  0.49586000  0.85948000  1.0
  H  H6  1  0.48506000  0.99586000  0.64052000  1.0
  H  H7  1  0.01494000  0.50414000  0.14052000  1.0
  H  H8  1  0.69591000  0.12868000  0.48164000  1.0
  H  H9  1  0.80409000  0.37132000  0.98164000  1.0
  H  H10  1  0.30409000  0.87132000  0.51836000  1.0
  H  H11  1  0.19591000  0.62868000  0.01836000  1.0
  H  H12  1  0.98013000  0.13398000  0.46820000  1.0
  H  H13  1  0.51987000  0.36602000  0.96820000  1.0
  H  H14  1  0.01987000  0.86602000  0.53180000  1.0
  H  H15  1  0.48013000  0.63398000  0.03180000  1.0
  H  H16  1  0.06778000  0.01699000  0.32956000  1.0
  H  H17  1  0.43222000  0.48301000  0.82956000  1.0
  H  H18  1  0.93221000  0.98301000  0.67044000  1.0
  H  H19  1  0.56778000  0.51699000  0.17044000  1.0
  H  H20  1  0.89822000  0.72576000  0.33284000  1.0
  H  H21  1  0.60178000  0.77424000  0.83284000  1.0
  H  H22  1  0.10178000  0.27424000  0.66716000  1.0
  H  H23  1  0.39822000  0.22576000  0.16716000  1.0
  H  H24  1  0.98073000  0.59759000  0.46411000  1.0
  H  H25  1  0.51927000  0.90241000  0.96411000  1.0
  H  H26  1  0.01927000  0.40241000  0.53589000  1.0
  H  H27  1  0.48073000  0.09759000  0.03589000  1.0
  H  H28  1  0.26099000  0.58898000  0.47057000  1.0
  H  H29  1  0.23901000  0.91102000  0.97057000  1.0
  H  H30  1  0.73901000  0.41102000  0.52943000  1.0
  H  H31  1  0.76099000  0.08898000  0.02943000  1.0
  H  H32  1  0.44619000  0.71708000  0.35162000  1.0
  H  H33  1  0.05381000  0.78292000  0.85162000  1.0
  H  H34  1  0.55381000  0.28292000  0.64838000  1.0
  H  H35  1  0.94619000  0.21708000  0.14838000  1.0
  C  C36  1  0.69753000  0.94298000  0.28251000  1.0
  C  C37  1  0.80247000  0.55702000  0.78251000  1.0
  C  C38  1  0.30247000  0.05702000  0.71749000  1.0
  C  C39  1  0.19753000  0.44298000  0.21749000  1.0
  C  C40  1  0.63746000  0.00719000  0.35595000  1.0
  C  C41  1  0.86254000  0.49281000  0.85595000  1.0
  C  C42  1  0.36254000  0.99281000  0.64405000  1.0
  C  C43  1  0.13746000  0.50720000  0.14405000  1.0
  C  C44  1  0.73956000  0.07710000  0.42381000  1.0
  C  C45  1  0.76044000  0.42290000  0.92381000  1.0
  C  C46  1  0.26044000  0.92290000  0.57619000  1.0
  C  C47  1  0.23956000  0.57710000  0.07619000  1.0
  C  C48  1  0.89644000  0.08055000  0.41671000  1.0
  C  C49  1  0.60356000  0.41945000  0.91671000  1.0
  C  C50  1  0.10356000  0.91945000  0.58329000  1.0
  C  C51  1  0.39644000  0.58055000  0.08329000  1.0
  C  C52  1  0.94612000  0.01469000  0.34033000  1.0
  C  C53  1  0.55388000  0.48531000  0.84033000  1.0
  C  C54  1  0.05388000  0.98531000  0.65967000  1.0
  C  C55  1  0.44612000  0.51469000  0.15967000  1.0
  C  C56  1  0.01880000  0.72290000  0.34062000  1.0
  C  C57  1  0.48120000  0.77710000  0.84062000  1.0
  C  C58  1  0.98120000  0.27710000  0.65938000  1.0
  C  C59  1  0.51880000  0.22290000  0.15938000  1.0
  C  C60  1  0.06556000  0.65035000  0.41291000  1.0
  C  C61  1  0.43444000  0.84965000  0.91291000  1.0
  C  C62  1  0.93444000  0.34965000  0.58710000  1.0
  C  C63  1  0.56556000  0.15035000  0.08710000  1.0
  C  C64  1  0.22076000  0.64705000  0.41656000  1.0
  C  C65  1  0.27924000  0.85295000  0.91656000  1.0
  C  C66  1  0.77924000  0.35295000  0.58344000  1.0
  C  C67  1  0.72076000  0.14705000  0.08344000  1.0
  C  C68  1  0.32461000  0.71808000  0.35028000  1.0
  C  C69  1  0.17539000  0.78191000  0.85028000  1.0
  C  C70  1  0.67538000  0.28191000  0.64972000  1.0
  C  C71  1  0.82462000  0.21809000  0.14972000  1.0
  C  C72  1  0.26683000  0.78908000  0.28114000  1.0
  C  C73  1  0.23317000  0.71092000  0.78114000  1.0
  C  C74  1  0.73317000  0.21092000  0.71886000  1.0
  C  C75  1  0.76683000  0.28908000  0.21886000  1.0
  S  S76  1  0.37923000  0.88866000  0.19202000  1.0
  S  S77  1  0.12077000  0.61134000  0.69202000  1.0
  S  S78  1  0.62077000  0.11134000  0.80798000  1.0
  S  S79  1  0.87923000  0.38866000  0.30798000  1.0
  S  S80  1  0.58689000  0.84586000  0.19095000  1.0
  S  S81  1  0.91311000  0.65414000  0.69095000  1.0
  S  S82  1  0.41311000  0.15414000  0.80905000  1.0
  S  S83  1  0.08689000  0.34586000  0.30905000  1.0
  N  N84  1  0.84834000  0.94719000  0.27430000  1.0
  N  N85  1  0.65167000  0.55281000  0.77430000  1.0
  N  N86  1  0.15166000  0.05281000  0.72570000  1.0
  N  N87  1  0.34833000  0.44719000  0.22570000  1.0
  N  N88  1  0.11757000  0.79108000  0.27567000  1.0
  N  N89  1  0.38243000  0.70891000  0.77567000  1.0
  N  N90  1  0.88243000  0.20892000  0.72433000  1.0
  N  N91  1  0.61757000  0.29109000  0.22433000  1.0
  Cl  Cl92  1  0.13924000  0.06544000  0.09994000  1.0
  Cl  Cl93  1  0.36076000  0.43455000  0.59994000  1.0
  Cl  Cl94  1  0.86076000  0.93455000  0.90006000  1.0
  Cl  Cl95  1  0.63924000  0.56544000  0.40006000  1.0
  Cl  Cl96  1  0.84405000  0.67292000  0.07913000  1.0
  Cl  Cl97  1  0.65595000  0.82708000  0.57913000  1.0
  Cl  Cl98  1  0.15595000  0.32708000  0.92087000  1.0
  Cl  Cl99  1  0.34405000  0.17292000  0.42087000  1.0
