# generated using pymatgen
data_SnH20C22(OF2)4
_symmetry_space_group_name_H-M   'P 1'
_cell_length_a   4.97260000
_cell_length_b   9.86554000
_cell_length_c   12.11470000
_cell_angle_alpha   100.03600000
_cell_angle_beta   98.24850000
_cell_angle_gamma   97.16650000
_symmetry_Int_Tables_number   1
_chemical_formula_structural   SnH20C22(OF2)4
_chemical_formula_sum   'Sn1 H20 C22 O4 F8'
_cell_volume   572.28816173
_cell_formula_units_Z   1
loop_
 _symmetry_equiv_pos_site_id
 _symmetry_equiv_pos_as_xyz
  1  'x, y, z'
loop_
 _atom_site_type_symbol
 _atom_site_label
 _atom_site_symmetry_multiplicity
 _atom_site_fract_x
 _atom_site_fract_y
 _atom_site_fract_z
 _atom_site_occupancy
  Sn  Sn0  1  0.65370000  0.24277000  0.03688000  1.0
  H  H1  1  0.46324000  0.29495000  0.39632000  1.0
  H  H2  1  0.39257000  0.93660000  0.80720000  1.0
  H  H3  1  0.44413000  0.34702000  0.86443000  1.0
  H  H4  1  0.37880000  0.44565000  0.99298000  1.0
  H  H5  1  0.93177000  0.47305000  0.90370000  1.0
  H  H6  1  0.86895000  0.57210000  0.03084000  1.0
  H  H7  1  0.57320000  0.57052000  0.79003000  1.0
  H  H8  1  0.49209000  0.66464000  0.91521000  1.0
  H  H9  1  0.80311000  0.81548000  0.82155000  1.0
  H  H10  1  0.05853000  0.70819000  0.84040000  1.0
  H  H11  1  0.96182000  0.80764000  0.96099000  1.0
  H  H12  1  0.93051000  0.04141000  0.08200000  1.0
  H  H13  1  0.84922000  0.13386000  0.20979000  1.0
  H  H14  1  0.44091000  0.91213000  0.03263000  1.0
  H  H15  1  0.36179000  0.00660000  0.15785000  1.0
  H  H16  1  0.79049000  0.80864000  0.14866000  1.0
  H  H17  1  0.71815000  0.90561000  0.27442000  1.0
  H  H18  1  0.45959000  0.66580000  0.23986000  1.0
  H  H19  1  0.30721000  0.68022000  0.10160000  1.0
  H  H20  1  0.22174000  0.78319000  0.22282000  1.0
  C  C21  1  0.24554000  0.36534000  0.20207000  1.0
  C  C22  1  0.19037000  0.41861000  0.31906000  1.0
  C  C23  1  0.01405000  0.51648000  0.34035000  1.0
  C  C24  1  0.97189000  0.56546000  0.45080000  1.0
  C  C25  1  0.10343000  0.51588000  0.54166000  1.0
  C  C26  1  0.27940000  0.41807000  0.52058000  1.0
  C  C27  1  0.32424000  0.37058000  0.41154000  1.0
  C  C28  1  0.05931000  0.11899000  0.86984000  1.0
  C  C29  1  0.11252000  0.07068000  0.75169000  1.0
  C  C30  1  0.98494000  0.11636000  0.65724000  1.0
  C  C31  1  0.03028000  0.06357000  0.54803000  1.0
  C  C32  1  0.20482000  0.96447000  0.53178000  1.0
  C  C33  1  0.33329000  0.91940000  0.62616000  1.0
  C  C34  1  0.29014000  0.97203000  0.73440000  1.0
  C  C35  1  0.53982000  0.40443000  0.95007000  1.0
  C  C36  1  0.77049000  0.51853000  0.94444000  1.0
  C  C37  1  0.66240000  0.62456000  0.87744000  1.0
  C  C38  1  0.88322000  0.74571000  0.87523000  1.0
  C  C39  1  0.76303000  0.07951000  0.12225000  1.0
  C  C40  1  0.53013000  0.96337000  0.12079000  1.0
  C  C41  1  0.62560000  0.85402000  0.18666000  1.0
  C  C42  1  0.39101000  0.73942000  0.18783000  1.0
  O  O43  1  0.06893000  0.36836000  0.11584000  1.0
  O  O44  1  0.47401000  0.32090000  0.19759000  1.0
  O  O45  1  0.24165000  0.11190000  0.95298000  1.0
  O  O46  1  0.82783000  0.15812000  0.87840000  1.0
  F  F47  1  0.88518000  0.57181000  0.25742000  1.0
  F  F48  1  0.80588000  0.66206000  0.47026000  1.0
  F  F49  1  0.06095000  0.56269000  0.64784000  1.0
  F  F50  1  0.40524000  0.37083000  0.61007000  1.0
  F  F51  1  0.82038000  0.21518000  0.66674000  1.0
  F  F52  1  0.90601000  0.10898000  0.45756000  1.0
  F  F53  1  0.24859000  0.91394000  0.42634000  1.0
  F  F54  1  0.50141000  0.82220000  0.60872000  1.0
