# generated using pymatgen
data_ZnH20C30N2O5
_symmetry_space_group_name_H-M   'P 1'
_cell_length_a   8.70653000
_cell_length_b   10.95030000
_cell_length_c   14.73440000
_cell_angle_alpha   109.84800000
_cell_angle_beta   105.15000000
_cell_angle_gamma   95.52940000
_symmetry_Int_Tables_number   1
_chemical_formula_structural   ZnH20C30N2O5
_chemical_formula_sum   'Zn2 H40 C60 N4 O10'
_cell_volume   1248.60984863
_cell_formula_units_Z   2
loop_
 _symmetry_equiv_pos_site_id
 _symmetry_equiv_pos_as_xyz
  1  'x, y, z'
loop_
 _atom_site_type_symbol
 _atom_site_label
 _atom_site_symmetry_multiplicity
 _atom_site_fract_x
 _atom_site_fract_y
 _atom_site_fract_z
 _atom_site_occupancy
  Zn  Zn0  1  0.63288000  0.88177000  0.76388000  1.0
  Zn  Zn1  1  0.36712000  0.11823000  0.23612000  1.0
  H  H2  1  0.44935000  0.07857000  0.53328000  1.0
  H  H3  1  0.58351000  0.45506000  0.53350000  1.0
  H  H4  1  0.55065000  0.92143000  0.46672000  1.0
  H  H5  1  0.41649000  0.54495000  0.46650000  1.0
  H  H6  1  0.26013000  0.18516000  0.44258000  1.0
  H  H7  1  0.68207000  0.25874000  0.44304000  1.0
  H  H8  1  0.73987000  0.81484000  0.55742000  1.0
  H  H9  1  0.31793000  0.74126000  0.55696000  1.0
  H  H10  1  0.95468000  0.17690000  0.62879000  1.0
  H  H11  1  0.17446000  0.45238000  0.62907000  1.0
  H  H12  1  0.04532000  0.82310000  0.37121000  1.0
  H  H13  1  0.82554000  0.54762000  0.37093000  1.0
  H  H14  1  0.14864000  0.07123000  0.72224000  1.0
  H  H15  1  0.07410000  0.65066000  0.72210000  1.0
  H  H16  1  0.85136000  0.92877000  0.27775000  1.0
  H  H17  1  0.92590000  0.34934000  0.27790000  1.0
  H  H18  1  0.78411000  0.10180000  0.72517000  1.0
  H  H19  1  0.44138000  0.62431000  0.72524000  1.0
  H  H20  1  0.21589000  0.89820000  0.27483000  1.0
  H  H21  1  0.55862000  0.37569000  0.27476000  1.0
  H  H22  1  0.99072000  0.30991000  0.81434000  1.0
  H  H23  1  0.32359000  0.50525000  0.81462000  1.0
  H  H24  1  0.00928000  0.69009000  0.18566000  1.0
  H  H25  1  0.67641000  0.49475000  0.18537000  1.0
  H  H26  1  0.05209000  0.23333000  0.09119000  1.0
  H  H27  1  0.53814000  0.85743000  0.09076000  1.0
  H  H28  1  0.94791000  0.76667000  0.90881000  1.0
  H  H29  1  0.46186000  0.14257000  0.90924000  1.0
  H  H30  1  0.85202000  0.02842000  0.98910000  1.0
  H  H31  1  0.63639000  0.96044000  0.98843000  1.0
  H  H32  1  0.14798000  0.97158000  0.01090000  1.0
  H  H33  1  0.36362000  0.03956000  0.01157000  1.0
  H  H34  1  0.19313000  0.44347000  0.88647000  1.0
  H  H35  1  0.80688000  0.55653000  0.11353000  1.0
  H  H36  1  0.16727000  0.42770000  0.17022000  1.0
  H  H37  1  0.50205000  0.74188000  0.17008000  1.0
  H  H38  1  0.83273000  0.57230000  0.82978000  1.0
  H  H39  1  0.49795000  0.25812000  0.82992000  1.0
  H  H40  1  0.38092000  0.63087000  0.26272000  1.0
  H  H41  1  0.61908000  0.36913000  0.73728000  1.0
  C  C42  1  0.34164000  0.10003000  0.55495000  1.0
  C  C43  1  0.71307000  0.45538000  0.55521000  1.0
  C  C44  1  0.65836000  0.89997000  0.44505000  1.0
  C  C45  1  0.28693000  0.54462000  0.44479000  1.0
  C  C46  1  0.23545000  0.15939000  0.50328000  1.0
  C  C47  1  0.76751000  0.34487000  0.50365000  1.0
  C  C48  1  0.76454000  0.84061000  0.49672000  1.0
  C  C49  1  0.23249000  0.65513000  0.49635000  1.0
  C  C50  1  0.09761000  0.18695000  0.53135000  1.0
  C  C51  1  0.93367000  0.34548000  0.53159000  1.0
  C  C52  1  0.90239000  0.81305000  0.46865000  1.0
  C  C53  1  0.06633000  0.65452000  0.46841000  1.0
  C  C54  1  0.06569000  0.15716000  0.61071000  1.0
  C  C55  1  0.04521000  0.45402000  0.61092000  1.0
  C  C56  1  0.93431000  0.84284000  0.38929000  1.0
  C  C57  1  0.95479000  0.54598000  0.38908000  1.0
  C  C58  1  0.17269000  0.09855000  0.66196000  1.0
  C  C59  1  0.98951000  0.56341000  0.66202000  1.0
  C  C60  1  0.82731000  0.90144000  0.33804000  1.0
  C  C61  1  0.01050000  0.43659000  0.33798000  1.0
  C  C62  1  0.31143000  0.06881000  0.63431000  1.0
  C  C63  1  0.82291000  0.56551000  0.63439000  1.0
  C  C64  1  0.68857000  0.93119000  0.36568000  1.0
  C  C65  1  0.17709000  0.43449000  0.36561000  1.0
  C  C66  1  0.42168000  0.00262000  0.68879000  1.0
  C  C67  1  0.76685000  0.68565000  0.68835000  1.0
  C  C68  1  0.57832000  0.99738000  0.31120000  1.0
  C  C69  1  0.23315000  0.31435000  0.31165000  1.0
  C  C70  1  0.84905000  0.13491000  0.80615000  1.0
  C  C71  1  0.45718000  0.67183000  0.80611000  1.0
  C  C72  1  0.15095000  0.86509000  0.19386000  1.0
  C  C73  1  0.54282000  0.32817000  0.19389000  1.0
  C  C74  1  0.96506000  0.25180000  0.85758000  1.0
  C  C75  1  0.39228000  0.60636000  0.85762000  1.0
  C  C76  1  0.03494000  0.74820000  0.14242000  1.0
  C  C77  1  0.60772000  0.39364000  0.14238000  1.0
  C  C78  1  0.04269000  0.29450000  0.96270000  1.0
  C  C79  1  0.41951000  0.66838000  0.96261000  1.0
  C  C80  1  0.95731000  0.70550000  0.03730000  1.0
  C  C81  1  0.58049000  0.33162000  0.03739000  1.0
  C  C82  1  0.99796000  0.21132000  0.01020000  1.0
  C  C83  1  0.51150000  0.79878000  0.00987000  1.0
  C  C84  1  0.00204000  0.78868000  0.98980000  1.0
  C  C85  1  0.48851000  0.20122000  0.99013000  1.0
  C  C86  1  0.88285000  0.09487000  0.95296000  1.0
  C  C87  1  0.56959000  0.85808000  0.95257000  1.0
  C  C88  1  0.11715000  0.90513000  0.04704000  1.0
  C  C89  1  0.43041000  0.14192000  0.04743000  1.0
  C  C90  1  0.16631000  0.41896000  0.02048000  1.0
  C  C91  1  0.35352000  0.60152000  0.02043000  1.0
  C  C92  1  0.83369000  0.58104000  0.97952000  1.0
  C  C93  1  0.64648000  0.39848000  0.97958000  1.0
  C  C94  1  0.23433000  0.48466000  0.96911000  1.0
  C  C95  1  0.76567000  0.51534000  0.03089000  1.0
  C  C96  1  0.21939000  0.47432000  0.12745000  1.0
  C  C97  1  0.40725000  0.65267000  0.12739000  1.0
  C  C98  1  0.78061000  0.52568000  0.87255000  1.0
  C  C99  1  0.59275000  0.34733000  0.87261000  1.0
  C  C100  1  0.33947000  0.58956000  0.17978000  1.0
  C  C101  1  0.66053000  0.41044000  0.82022000  1.0
  N  N102  1  0.80681000  0.05618000  0.85253000  1.0
  N  N103  1  0.54587000  0.79652000  0.85232000  1.0
  N  N104  1  0.19319000  0.94382000  0.14747000  1.0
  N  N105  1  0.45413000  0.20348000  0.14768000  1.0
  O  O106  1  0.53156000  0.95430000  0.65172000  1.0
  O  O107  1  0.61958000  0.69668000  0.65131000  1.0
  O  O108  1  0.46844000  0.04570000  0.34828000  1.0
  O  O109  1  0.38042000  0.30332000  0.34869000  1.0
  O  O110  1  0.40630000  0.99404000  0.76989000  1.0
  O  O111  1  0.86365000  0.77540000  0.76915000  1.0
  O  O112  1  0.59370000  0.00596000  0.23011000  1.0
  O  O113  1  0.13635000  0.22460000  0.23085000  1.0
  O  O114  1  0.98778000  0.23882000  0.47584000  1.0
  O  O115  1  0.01222000  0.76118000  0.52416000  1.0
