# generated using pymatgen
data_CdH12C15N2O5
_symmetry_space_group_name_H-M   'P 1'
_cell_length_a   7.44623000
_cell_length_b   11.36240000
_cell_length_c   18.51380000
_cell_angle_alpha   89.99990000
_cell_angle_beta   90.02200000
_cell_angle_gamma   89.99990000
_symmetry_Int_Tables_number   1
_chemical_formula_structural   CdH12C15N2O5
_chemical_formula_sum   'Cd4 H48 C60 N8 O20'
_cell_volume   1566.39777114
_cell_formula_units_Z   4
loop_
 _symmetry_equiv_pos_site_id
 _symmetry_equiv_pos_as_xyz
  1  'x, y, z'
loop_
 _atom_site_type_symbol
 _atom_site_label
 _atom_site_symmetry_multiplicity
 _atom_site_fract_x
 _atom_site_fract_y
 _atom_site_fract_z
 _atom_site_occupancy
  Cd  Cd0  1  0.50000000  0.50000000  0.00000000  1.0
  Cd  Cd1  1  0.50000000  0.00000000  0.50000000  1.0
  Cd  Cd2  1  0.00000000  0.50000000  0.00000000  1.0
  Cd  Cd3  1  0.00000000  0.00000000  0.50000000  1.0
  H  H4  1  0.97877000  0.20537000  0.67489000  1.0
  H  H5  1  0.02123000  0.70537000  0.82511000  1.0
  H  H6  1  0.02123000  0.79463000  0.32511000  1.0
  H  H7  1  0.97877000  0.29463000  0.17489000  1.0
  H  H8  1  0.53059000  0.50854000  0.81733000  1.0
  H  H9  1  0.46941000  0.00854000  0.68268000  1.0
  H  H10  1  0.46941000  0.49146000  0.18268000  1.0
  H  H11  1  0.53059000  0.99146000  0.31733000  1.0
  H  H12  1  0.96315000  0.31017000  0.79441000  1.0
  H  H13  1  0.03685000  0.81016000  0.70558000  1.0
  H  H14  1  0.03684000  0.68984000  0.20558000  1.0
  H  H15  1  0.96316000  0.18983000  0.29441000  1.0
  H  H16  1  0.81358000  0.42243000  0.62171000  1.0
  H  H17  1  0.18642000  0.92243000  0.87829000  1.0
  H  H18  1  0.18642000  0.57757000  0.37829000  1.0
  H  H19  1  0.81358000  0.07756000  0.12171000  1.0
  H  H20  1  0.56263000  0.29737000  0.58174000  1.0
  H  H21  1  0.43737000  0.79738000  0.91826000  1.0
  H  H22  1  0.43736000  0.70263000  0.41826000  1.0
  H  H23  1  0.56264000  0.20262000  0.08174000  1.0
  H  H24  1  0.51410000  0.28292000  0.89531000  1.0
  H  H25  1  0.48590000  0.78292000  0.60469000  1.0
  H  H26  1  0.48590000  0.71708000  0.10469000  1.0
  H  H27  1  0.51410000  0.21708000  0.39531000  1.0
  H  H28  1  0.79635000  0.52898000  0.74042000  1.0
  H  H29  1  0.20365000  0.02898000  0.75958000  1.0
  H  H30  1  0.20365000  0.47102000  0.25958000  1.0
  H  H31  1  0.79636000  0.97102000  0.24042000  1.0
  H  H32  1  0.84341000  0.02832000  0.94748000  1.0
  H  H33  1  0.15658000  0.52832000  0.55252000  1.0
  H  H34  1  0.15659000  0.97168000  0.05252000  1.0
  H  H35  1  0.84342000  0.47168000  0.44748000  1.0
  H  H36  1  0.97031000  0.07250000  0.87013000  1.0
  H  H37  1  0.02969000  0.57250000  0.62987000  1.0
  H  H38  1  0.02969000  0.92750000  0.12987000  1.0
  H  H39  1  0.97031000  0.42750000  0.37013000  1.0
  H  H40  1  0.00718000  0.22392000  0.98052000  1.0
  H  H41  1  0.99281000  0.72392000  0.51948000  1.0
  H  H42  1  0.99281000  0.77608000  0.01948000  1.0
  H  H43  1  0.00718000  0.27608000  0.48052000  1.0
  H  H44  1  0.71203000  0.15452000  0.81132000  1.0
  H  H45  1  0.28797000  0.65451000  0.68867000  1.0
  H  H46  1  0.28797000  0.84548000  0.18868000  1.0
  H  H47  1  0.71203000  0.34549000  0.31133000  1.0
  H  H48  1  0.59106000  0.05710000  0.86896000  1.0
  H  H49  1  0.40894000  0.55710000  0.63104000  1.0
  H  H50  1  0.40894000  0.94290000  0.13104000  1.0
  H  H51  1  0.59106000  0.44290000  0.36897000  1.0
  C  C52  1  0.39893000  0.32847000  0.67682000  1.0
  C  C53  1  0.60107000  0.82847000  0.82318000  1.0
  C  C54  1  0.60106000  0.67153000  0.32317000  1.0
  C  C55  1  0.39894000  0.17152000  0.17682000  1.0
  C  C56  1  0.23120000  0.37576000  0.78820000  1.0
  C  C57  1  0.76879000  0.87576000  0.71180000  1.0
  C  C58  1  0.76879000  0.62425000  0.21180000  1.0
  C  C59  1  0.23121000  0.12424000  0.28820000  1.0
  C  C60  1  0.39023000  0.38809000  0.74529000  1.0
  C  C61  1  0.60977000  0.88809000  0.75471000  1.0
  C  C62  1  0.60976000  0.61191000  0.25471000  1.0
  C  C63  1  0.39024000  0.11190000  0.24529000  1.0
  C  C64  1  0.24825000  0.26004000  0.65368000  1.0
  C  C65  1  0.75175000  0.76004000  0.84632000  1.0
  C  C66  1  0.75174000  0.73996000  0.34632000  1.0
  C  C67  1  0.24826000  0.23995000  0.15368000  1.0
  C  C68  1  0.25955000  0.18055000  0.58919000  1.0
  C  C69  1  0.74044000  0.68055000  0.91081000  1.0
  C  C70  1  0.74045000  0.81945000  0.41081000  1.0
  C  C71  1  0.25956000  0.31945000  0.08919000  1.0
  C  C72  1  0.09231000  0.25717000  0.69435000  1.0
  C  C73  1  0.90769000  0.75717000  0.80565000  1.0
  C  C74  1  0.90768000  0.74283000  0.30565000  1.0
  C  C75  1  0.09232000  0.24283000  0.19434000  1.0
  C  C76  1  0.53699000  0.46052000  0.76651000  1.0
  C  C77  1  0.46301000  0.96052000  0.73349000  1.0
  C  C78  1  0.46301000  0.53948000  0.23349000  1.0
  C  C79  1  0.53700000  0.03948000  0.26651000  1.0
  C  C80  1  0.22015000  0.42131000  0.86428000  1.0
  C  C81  1  0.77984000  0.92131000  0.63572000  1.0
  C  C82  1  0.77984000  0.57870000  0.13572000  1.0
  C  C83  1  0.22016000  0.07870000  0.36428000  1.0
  C  C84  1  0.08425000  0.31498000  0.76149000  1.0
  C  C85  1  0.91575000  0.81498000  0.73851000  1.0
  C  C86  1  0.91574000  0.68503000  0.23851000  1.0
  C  C87  1  0.08426000  0.18502000  0.26149000  1.0
  C  C88  1  0.69520000  0.41317000  0.65592000  1.0
  C  C89  1  0.30480000  0.91317000  0.84408000  1.0
  C  C90  1  0.30480000  0.58683000  0.34408000  1.0
  C  C91  1  0.69520000  0.08682000  0.15592000  1.0
  C  C92  1  0.75866000  0.27982000  0.94696000  1.0
  C  C93  1  0.24134000  0.77982000  0.55304000  1.0
  C  C94  1  0.24134000  0.72018000  0.05304000  1.0
  C  C95  1  0.75865000  0.22018000  0.44696000  1.0
  C  C96  1  0.55499000  0.34292000  0.63335000  1.0
  C  C97  1  0.44502000  0.84292000  0.86665000  1.0
  C  C98  1  0.44501000  0.65708000  0.36665000  1.0
  C  C99  1  0.55499000  0.15707000  0.13335000  1.0
  C  C100  1  0.68602000  0.47265000  0.72286000  1.0
  C  C101  1  0.31398000  0.97266000  0.77714000  1.0
  C  C102  1  0.31398000  0.52734000  0.27714000  1.0
  C  C103  1  0.68603000  0.02734000  0.22286000  1.0
  C  C104  1  0.86417000  0.09945000  0.90772000  1.0
  C  C105  1  0.13583000  0.59945000  0.59228000  1.0
  C  C106  1  0.13583000  0.90055000  0.09228000  1.0
  C  C107  1  0.86417000  0.40055000  0.40772000  1.0
  C  C108  1  0.68720000  0.12989000  0.86805000  1.0
  C  C109  1  0.31280000  0.62989000  0.63195000  1.0
  C  C110  1  0.31280000  0.87011000  0.13195000  1.0
  C  C111  1  0.68720000  0.37011000  0.36805000  1.0
  N  N112  1  0.62240000  0.23092000  0.90937000  1.0
  N  N113  1  0.37760000  0.73092000  0.59063000  1.0
  N  N114  1  0.37760000  0.76908000  0.09063000  1.0
  N  N115  1  0.62240000  0.26909000  0.40937000  1.0
  N  N116  1  0.90696000  0.21075000  0.94334000  1.0
  N  N117  1  0.09304000  0.71075000  0.55666000  1.0
  N  N118  1  0.09304000  0.78925000  0.05666000  1.0
  N  N119  1  0.90696000  0.28925000  0.44334000  1.0
  O  O120  1  0.74999000  0.37659000  0.98137000  1.0
  O  O121  1  0.25001000  0.87659000  0.51863000  1.0
  O  O122  1  0.25001000  0.62341000  0.01863000  1.0
  O  O123  1  0.74999000  0.12341000  0.48137000  1.0
  O  O124  1  0.12731000  0.17610000  0.54579000  1.0
  O  O125  1  0.87268000  0.67610000  0.95421000  1.0
  O  O126  1  0.87268000  0.82391000  0.45421000  1.0
  O  O127  1  0.12732000  0.32390000  0.04578000  1.0
  O  O128  1  0.40220000  0.11912000  0.58580000  1.0
  O  O129  1  0.59780000  0.61912000  0.91420000  1.0
  O  O130  1  0.59780000  0.88088000  0.41420000  1.0
  O  O131  1  0.40220000  0.38088000  0.08580000  1.0
  O  O132  1  0.35457000  0.40107000  0.90522000  1.0
  O  O133  1  0.64542000  0.90107000  0.59478000  1.0
  O  O134  1  0.64542000  0.59893000  0.09478000  1.0
  O  O135  1  0.35458000  0.09893000  0.40522000  1.0
  O  O136  1  0.07528000  0.47185000  0.88289000  1.0
  O  O137  1  0.92471000  0.97186000  0.61711000  1.0
  O  O138  1  0.92470000  0.52815000  0.11711000  1.0
  O  O139  1  0.07530000  0.02815000  0.38289000  1.0
