# generated using pymatgen
data_CuH26C26S2(N2O3)2
_symmetry_space_group_name_H-M   'P 1'
_cell_length_a   7.50582000
_cell_length_b   9.57859000
_cell_length_c   10.10350000
_cell_angle_alpha   68.17800000
_cell_angle_beta   70.70260000
_cell_angle_gamma   86.00960000
_symmetry_Int_Tables_number   1
_chemical_formula_structural   CuH26C26S2(N2O3)2
_chemical_formula_sum   'Cu1 H26 C26 S2 N4 O6'
_cell_volume   635.27789532
_cell_formula_units_Z   1
loop_
 _symmetry_equiv_pos_site_id
 _symmetry_equiv_pos_as_xyz
  1  'x, y, z'
loop_
 _atom_site_type_symbol
 _atom_site_label
 _atom_site_symmetry_multiplicity
 _atom_site_fract_x
 _atom_site_fract_y
 _atom_site_fract_z
 _atom_site_occupancy
  Cu  Cu0  1  0.00000000  0.00000000  0.50000000  1.0
  H  H1  1  0.28611000  0.49758000  0.30363000  1.0
  H  H2  1  0.71388000  0.50243000  0.69638000  1.0
  H  H3  1  0.58271000  0.35914000  0.24685000  1.0
  H  H4  1  0.41728000  0.64086000  0.75315000  1.0
  H  H5  1  0.85292000  0.49324000  0.01309000  1.0
  H  H6  1  0.14707000  0.50676000  0.98691000  1.0
  H  H7  1  0.18910000  0.03924000  0.87407000  1.0
  H  H8  1  0.81091000  0.96076000  0.12592000  1.0
  H  H9  1  0.21162000  0.95300000  0.05780000  1.0
  H  H10  1  0.78837000  0.04700000  0.94220000  1.0
  H  H11  1  0.14883000  0.83925000  0.97105000  1.0
  H  H12  1  0.85118000  0.16075000  0.02894000  1.0
  H  H13  1  0.60803000  0.89975000  0.55214000  1.0
  H  H14  1  0.39197000  0.10025000  0.44786000  1.0
  H  H15  1  0.67444000  0.61062000  0.30010000  1.0
  H  H16  1  0.32558000  0.38937000  0.69991000  1.0
  H  H17  1  0.02672000  0.64345000  0.23546000  1.0
  H  H18  1  0.97330000  0.35655000  0.76454000  1.0
  H  H19  1  0.14943000  0.81771000  0.32103000  1.0
  H  H20  1  0.85058000  0.18230000  0.67896000  1.0
  H  H21  1  0.37959000  0.76475000  0.35773000  1.0
  H  H22  1  0.62042000  0.23525000  0.64228000  1.0
  H  H23  1  0.35127000  0.61666000  0.53284000  1.0
  H  H24  1  0.64874000  0.38333000  0.46716000  1.0
  H  H25  1  0.18853000  0.76966000  0.63162000  1.0
  H  H26  1  0.81147000  0.23033000  0.36838000  1.0
  C  C27  1  0.86438000  0.76085000  0.80015000  1.0
  C  C28  1  0.13561000  0.23914000  0.19985000  1.0
  C  C29  1  0.70276000  0.69105000  0.94318000  1.0
  C  C30  1  0.29723000  0.30894000  0.05683000  1.0
  C  C31  1  0.52596000  0.75687000  0.98056000  1.0
  C  C32  1  0.47404000  0.24313000  0.01944000  1.0
  C  C33  1  0.40726000  0.54963000  0.20163000  1.0
  C  C34  1  0.59274000  0.45038000  0.79837000  1.0
  C  C35  1  0.57156000  0.47312000  0.17222000  1.0
  C  C36  1  0.42843000  0.52688000  0.82778000  1.0
  C  C37  1  0.72079000  0.54715000  0.04166000  1.0
  C  C38  1  0.27920000  0.45284000  0.95834000  1.0
  C  C39  1  0.23223000  0.93890000  0.95112000  1.0
  C  C40  1  0.76777000  0.06110000  0.04887000  1.0
  C  C41  1  0.69414000  0.84061000  0.48211000  1.0
  C  C42  1  0.30587000  0.15939000  0.51789000  1.0
  C  C43  1  0.61267000  0.75106000  0.43296000  1.0
  C  C44  1  0.38733000  0.24894000  0.56704000  1.0
  C  C45  1  0.73331000  0.67835000  0.34359000  1.0
  C  C46  1  0.26670000  0.32165000  0.65641000  1.0
  C  C47  1  0.92809000  0.69678000  0.30598000  1.0
  C  C48  1  0.07192000  0.30323000  0.69402000  1.0
  C  C49  1  0.99845000  0.79238000  0.35476000  1.0
  C  C50  1  0.00156000  0.20763000  0.64524000  1.0
  C  C51  1  0.40193000  0.73588000  0.46749000  1.0
  C  C52  1  0.59807000  0.26412000  0.53251000  1.0
  S  S53  1  0.47883000  0.92776000  0.85516000  1.0
  S  S54  1  0.52117000  0.07224000  0.14484000  1.0
  N  N55  1  0.38441000  0.68732000  0.10990000  1.0
  N  N56  1  0.61559000  0.31268000  0.89010000  1.0
  N  N57  1  0.88346000  0.86159000  0.44161000  1.0
  N  N58  1  0.11654000  0.13842000  0.55839000  1.0
  O  O59  1  0.84328000  0.89613000  0.71619000  1.0
  O  O60  1  0.15672000  0.10388000  0.28382000  1.0
  O  O61  1  0.00601000  0.68487000  0.77029000  1.0
  O  O62  1  0.99398000  0.31512000  0.22970000  1.0
  O  O63  1  0.30148000  0.82917000  0.54374000  1.0
  O  O64  1  0.69852000  0.17082000  0.45627000  1.0
