# generated using pymatgen
data_CdH14C20N4O5
_symmetry_space_group_name_H-M   'P 1'
_cell_length_a   9.57126000
_cell_length_b   10.19740000
_cell_length_c   10.49350000
_cell_angle_alpha   87.38340000
_cell_angle_beta   64.11630000
_cell_angle_gamma   86.35410000
_symmetry_Int_Tables_number   1
_chemical_formula_structural   CdH14C20N4O5
_chemical_formula_sum   'Cd2 H28 C40 N8 O10'
_cell_volume   919.39442105
_cell_formula_units_Z   2
loop_
 _symmetry_equiv_pos_site_id
 _symmetry_equiv_pos_as_xyz
  1  'x, y, z'
loop_
 _atom_site_type_symbol
 _atom_site_label
 _atom_site_symmetry_multiplicity
 _atom_site_fract_x
 _atom_site_fract_y
 _atom_site_fract_z
 _atom_site_occupancy
  Cd  Cd0  1  0.93957000  0.12571000  0.67037000  1.0
  Cd  Cd1  1  0.06043000  0.87429000  0.32963000  1.0
  H  H2  1  0.15799000  0.55602000  0.59617000  1.0
  H  H3  1  0.84201000  0.44398000  0.40383000  1.0
  H  H4  1  0.18706000  0.41545000  0.78773000  1.0
  H  H5  1  0.81294000  0.58455000  0.21227000  1.0
  H  H6  1  0.16950000  0.51984000  0.00168000  1.0
  H  H7  1  0.83050000  0.48016000  0.99832000  1.0
  H  H8  1  0.08346000  0.89975000  0.84592000  1.0
  H  H9  1  0.91654000  0.10025000  0.15408000  1.0
  H  H10  1  0.79416000  0.91568000  0.92446000  1.0
  H  H11  1  0.20583000  0.08432000  0.07554000  1.0
  H  H12  1  0.63557000  0.06561000  0.63463000  1.0
  H  H13  1  0.36443000  0.93439000  0.36537000  1.0
  H  H14  1  0.41327000  0.91345000  0.72689000  1.0
  H  H15  1  0.58673000  0.08655000  0.27311000  1.0
  H  H16  1  0.39413000  0.75045000  0.91569000  1.0
  H  H17  1  0.60587000  0.24955000  0.08431000  1.0
  H  H18  1  0.24071000  0.51226000  0.25329000  1.0
  H  H19  1  0.75929000  0.48774000  0.74671000  1.0
  H  H20  1  0.55506000  0.42245000  0.38077000  1.0
  H  H21  1  0.44495000  0.57754000  0.61923000  1.0
  H  H22  1  0.51285000  0.25824000  0.57825000  1.0
  H  H23  1  0.48715000  0.74176000  0.42175000  1.0
  H  H24  1  0.26170000  0.14094000  0.68618000  1.0
  H  H25  1  0.73831000  0.85906000  0.31383000  1.0
  H  H26  1  0.09954000  0.34254000  0.42253000  1.0
  H  H27  1  0.90046000  0.65746000  0.57747000  1.0
  H  H28  1  0.36432000  0.67358000  0.10640000  1.0
  H  H29  1  0.63568000  0.32642000  0.89360000  1.0
  C  C30  1  0.12166000  0.81691000  0.58499000  1.0
  C  C31  1  0.87834000  0.18309000  0.41501000  1.0
  C  C32  1  0.12414000  0.73595000  0.70671000  1.0
  C  C33  1  0.87586000  0.26405000  0.29329000  1.0
  C  C34  1  0.14773000  0.59890000  0.69311000  1.0
  C  C35  1  0.85227000  0.40110000  0.30689000  1.0
  C  C36  1  0.16376000  0.52110000  0.79870000  1.0
  C  C37  1  0.83624000  0.47890000  0.20130000  1.0
  C  C38  1  0.15483000  0.57972000  0.91954000  1.0
  C  C39  1  0.84517000  0.42028000  0.08046000  1.0
  C  C40  1  0.12217000  0.71524000  0.93826000  1.0
  C  C41  1  0.87783000  0.28476000  0.06174000  1.0
  C  C42  1  0.10693000  0.79398000  0.83147000  1.0
  C  C43  1  0.89308000  0.20602000  0.16852000  1.0
  C  C44  1  0.10376000  0.77376000  0.07296000  1.0
  C  C45  1  0.89625000  0.22624000  0.92704000  1.0
  C  C46  1  0.70848000  0.91241000  0.88237000  1.0
  C  C47  1  0.29151000  0.08759000  0.11763000  1.0
  C  C48  1  0.61750000  0.99638000  0.72198000  1.0
  C  C49  1  0.38249000  0.00363000  0.27803000  1.0
  C  C50  1  0.49592000  0.91150000  0.77272000  1.0
  C  C51  1  0.50407000  0.08849000  0.22728000  1.0
  C  C52  1  0.48433000  0.82149000  0.88041000  1.0
  C  C53  1  0.51567000  0.17851000  0.11959000  1.0
  C  C54  1  0.59062000  0.82236000  0.93890000  1.0
  C  C55  1  0.40937000  0.17764000  0.06110000  1.0
  C  C56  1  0.59266000  0.73113000  0.05440000  1.0
  C  C57  1  0.40734000  0.26887000  0.94560000  1.0
  C  C58  1  0.33070000  0.39619000  0.38551000  1.0
  C  C59  1  0.66930000  0.60380000  0.61449000  1.0
  C  C60  1  0.34094000  0.49567000  0.27805000  1.0
  C  C61  1  0.65906000  0.50433000  0.72195000  1.0
  C  C62  1  0.44846000  0.36948000  0.43044000  1.0
  C  C63  1  0.55155000  0.63052000  0.56956000  1.0
  C  C64  1  0.42577000  0.27703000  0.53814000  1.0
  C  C65  1  0.57423000  0.72297000  0.46186000  1.0
  C  C66  1  0.28699000  0.21149000  0.59854000  1.0
  C  C67  1  0.71301000  0.78851000  0.40146000  1.0
  C  C68  1  0.19566000  0.32524000  0.45168000  1.0
  C  C69  1  0.80434000  0.67476000  0.54832000  1.0
  N  N70  1  0.72258000  0.99581000  0.77528000  1.0
  N  N71  1  0.27741000  0.00419000  0.22472000  1.0
  N  N72  1  0.46586000  0.65409000  0.11891000  1.0
  N  N73  1  0.53414000  0.34591000  0.88109000  1.0
  N  N74  1  0.46442000  0.56269000  0.21705000  1.0
  N  N75  1  0.53558000  0.43731000  0.78295000  1.0
  N  N76  1  0.17454000  0.23521000  0.55505000  1.0
  N  N77  1  0.82546000  0.76479000  0.44495000  1.0
  O  O78  1  0.10276000  0.94107000  0.59333000  1.0
  O  O79  1  0.89724000  0.05894000  0.40666000  1.0
  O  O80  1  0.14389000  0.75458000  0.47364000  1.0
  O  O81  1  0.85611000  0.24541000  0.52636000  1.0
  O  O82  1  0.02861000  0.88274000  0.11284000  1.0
  O  O83  1  0.97139000  0.11725000  0.88716000  1.0
  O  O84  1  0.16593000  0.70943000  0.14569000  1.0
  O  O85  1  0.83407000  0.29057000  0.85431000  1.0
  O  O86  1  0.70291000  0.72629000  0.08605000  1.0
  O  O87  1  0.29709000  0.27371000  0.91395000  1.0
