# generated using pymatgen
data_AlH6C11SClO5
_symmetry_space_group_name_H-M   'P 1'
_cell_length_a   6.96116000
_cell_length_b   11.05729424
_cell_length_c   12.60451117
_cell_angle_alpha   82.10635266
_cell_angle_beta   76.35560590
_cell_angle_gamma   72.54340666
_symmetry_Int_Tables_number   1
_chemical_formula_structural   AlH6C11SClO5
_chemical_formula_sum   'Al2 H12 C22 S2 Cl2 O10'
_cell_volume   897.06561368
_cell_formula_units_Z   2
loop_
 _symmetry_equiv_pos_site_id
 _symmetry_equiv_pos_as_xyz
  1  'x, y, z'
loop_
 _atom_site_type_symbol
 _atom_site_label
 _atom_site_symmetry_multiplicity
 _atom_site_fract_x
 _atom_site_fract_y
 _atom_site_fract_z
 _atom_site_occupancy
  Al  Al0  1  0.50419000  0.49942000  0.49630000  1.0
  Al  Al1  1  0.00381000  0.50118000  0.49610000  1.0
  H  H2  1  0.21650000  0.64961000  0.42194000  1.0
  H  H3  1  0.80502000  0.34649000  0.55853000  1.0
  H  H4  1  0.78911000  0.75949000  0.66181000  1.0
  H  H5  1  0.87894000  0.87437000  0.78784000  1.0
  H  H6  1  0.54760000  0.23255000  0.65107000  1.0
  H  H7  1  0.75762000  0.11215000  0.78229000  1.0
  H  H8  1  0.49438000  0.50117000  0.21860000  1.0
  H  H9  1  0.54698000  0.42045000  0.09769000  1.0
  H  H10  1  0.46890000  0.58887000  0.09087000  1.0
  H  H11  1  0.53727000  0.41088000  0.90253000  1.0
  H  H12  1  0.46026000  0.57916000  0.89547000  1.0
  H  H13  1  0.51284000  0.49816000  0.77452000  1.0
  C  C14  1  0.63549000  0.72333000  0.50655000  1.0
  C  C15  1  0.84110000  0.50232000  0.30179000  1.0
  C  C16  1  0.36865000  0.27637000  0.48918000  1.0
  C  C17  1  0.16524000  0.49874000  0.69128000  1.0
  C  C18  1  0.77892000  0.50323000  0.10643000  1.0
  C  C19  1  0.22754000  0.49721000  0.88664000  1.0
  C  C20  1  0.89703000  0.49937000  0.18219000  1.0
  C  C21  1  0.10943000  0.50151000  0.81077000  1.0
  C  C22  1  0.10586000  0.49798000  0.99420000  1.0
  C  C23  1  0.90041000  0.50296000  0.99886000  1.0
  C  C24  1  0.56550000  0.86569000  0.50423000  1.0
  C  C25  1  0.62006000  0.92990000  0.57868000  1.0
  C  C26  1  0.45041000  0.93394000  0.42836000  1.0
  C  C27  1  0.73694000  0.86290000  0.65784000  1.0
  C  C28  1  0.78730000  0.92748000  0.72857000  1.0
  C  C29  1  0.43534000  0.13388000  0.49503000  1.0
  C  C30  1  0.38547000  0.06921000  0.42331000  1.0
  C  C31  1  0.55249000  0.06626000  0.57454000  1.0
  C  C32  1  0.60260000  0.12941000  0.65094000  1.0
  C  C33  1  0.71909000  0.06159000  0.72534000  1.0
  C  C34  1  0.56043000  0.50375000  0.13096000  1.0
  C  C35  1  0.44630000  0.49604000  0.86216000  1.0
  S  S36  1  0.15048000  0.49365000  0.12338000  1.0
  S  S37  1  0.85574000  0.50760000  0.86959000  1.0
  Cl  Cl38  1  0.25411000  0.15114000  0.32369000  1.0
  Cl  Cl39  1  0.39425000  0.85762000  0.33372000  1.0
  O  O40  1  0.49562000  0.66707000  0.52197000  1.0
  O  O41  1  0.99146000  0.49175000  0.34819000  1.0
  O  O42  1  0.17650000  0.32998000  0.50291000  1.0
  O  O43  1  0.35476000  0.47897000  0.64411000  1.0
  O  O44  1  0.51163000  0.33043000  0.47377000  1.0
  O  O45  1  0.01377000  0.51395000  0.64442000  1.0
  O  O46  1  0.82853000  0.67196000  0.49266000  1.0
  O  O47  1  0.65263000  0.51742000  0.34905000  1.0
  O  O48  1  0.24608000  0.56082000  0.44927000  1.0
  O  O49  1  0.76334000  0.43819000  0.54358000  1.0
