# generated using pymatgen
data_LiH7C4O5
_symmetry_space_group_name_H-M   'P 1'
_cell_length_a   9.48691000
_cell_length_b   10.41390000
_cell_length_c   13.23440000
_cell_angle_alpha   107.64800000
_cell_angle_beta   90.00000000
_cell_angle_gamma   90.00000000
_symmetry_Int_Tables_number   1
_chemical_formula_structural   LiH7C4O5
_chemical_formula_sum   'Li8 H56 C32 O40'
_cell_volume   1245.96728532
_cell_formula_units_Z   8
loop_
 _symmetry_equiv_pos_site_id
 _symmetry_equiv_pos_as_xyz
  1  'x, y, z'
loop_
 _atom_site_type_symbol
 _atom_site_label
 _atom_site_symmetry_multiplicity
 _atom_site_fract_x
 _atom_site_fract_y
 _atom_site_fract_z
 _atom_site_occupancy
  Li  Li0  1  0.14315000  0.44000000  0.63403000  1.0
  Li  Li1  1  0.64315000  0.06000000  0.86597000  1.0
  Li  Li2  1  0.85685000  0.56000000  0.36597000  1.0
  Li  Li3  1  0.35685000  0.94000000  0.13403000  1.0
  Li  Li4  1  0.64099000  0.54287000  0.84640000  1.0
  Li  Li5  1  0.14099000  0.95713000  0.65360000  1.0
  Li  Li6  1  0.35901000  0.45713000  0.15360000  1.0
  Li  Li7  1  0.85901000  0.04287000  0.34640000  1.0
  H  H8  1  0.25379000  0.67688000  0.76891000  1.0
  H  H9  1  0.75379000  0.82312000  0.73109000  1.0
  H  H10  1  0.74621000  0.32312000  0.23109000  1.0
  H  H11  1  0.24621000  0.17688000  0.26891000  1.0
  H  H12  1  0.25762000  0.71792000  0.90984000  1.0
  H  H13  1  0.75762000  0.78208000  0.59016000  1.0
  H  H14  1  0.74238000  0.28208000  0.09016000  1.0
  H  H15  1  0.24238000  0.21792000  0.40984000  1.0
  H  H16  1  0.09736000  0.73939000  0.84424000  1.0
  H  H17  1  0.59737000  0.76061000  0.65576000  1.0
  H  H18  1  0.90264000  0.26061000  0.15576000  1.0
  H  H19  1  0.40263000  0.23938000  0.34424000  1.0
  H  H20  1  0.39159000  0.74887000  0.35748000  1.0
  H  H21  1  0.89159000  0.75113000  0.14252000  1.0
  H  H22  1  0.60841000  0.25113000  0.64252000  1.0
  H  H23  1  0.10841000  0.24887000  0.85748000  1.0
  H  H24  1  0.23912000  0.71257000  0.42529000  1.0
  H  H25  1  0.73912000  0.78743000  0.07471000  1.0
  H  H26  1  0.76088000  0.28743000  0.57471000  1.0
  H  H27  1  0.26088000  0.21257000  0.92529000  1.0
  H  H28  1  0.23316000  0.68736000  0.28488000  1.0
  H  H29  1  0.73316000  0.81264000  0.21512000  1.0
  H  H30  1  0.76684000  0.31264000  0.71512000  1.0
  H  H31  1  0.26684000  0.18736000  0.78488000  1.0
  H  H32  1  0.93215000  0.55929000  0.72305000  1.0
  H  H33  1  0.43215000  0.94071000  0.77695000  1.0
  H  H34  1  0.06785000  0.44071000  0.27695000  1.0
  H  H35  1  0.56785000  0.05929000  0.22305000  1.0
  H  H36  1  0.89872000  0.53604000  0.60080000  1.0
  H  H37  1  0.39872000  0.96396000  0.89920000  1.0
  H  H38  1  0.10128000  0.46396000  0.39920000  1.0
  H  H39  1  0.60128000  0.03604000  0.10080000  1.0
  H  H40  1  0.54658000  0.79684000  0.87321000  1.0
  H  H41  1  0.04658000  0.70316000  0.62679000  1.0
  H  H42  1  0.45342000  0.20316000  0.12678000  1.0
  H  H43  1  0.95342000  0.29684000  0.37321000  1.0
  H  H44  1  0.52491000  0.74183000  0.97036000  1.0
  H  H45  1  0.02491000  0.75817000  0.52964000  1.0
  H  H46  1  0.47509000  0.25817000  0.02964000  1.0
  H  H47  1  0.97509000  0.24183000  0.47036000  1.0
  H  H48  1  0.41884000  0.42635000  0.76828000  1.0
  H  H49  1  0.91884000  0.07365000  0.73172000  1.0
  H  H50  1  0.58116000  0.57365000  0.23172000  1.0
  H  H51  1  0.08116000  0.92635000  0.26828000  1.0
  H  H52  1  0.39000000  0.46596000  0.89370000  1.0
  H  H53  1  0.89000000  0.03404000  0.60630000  1.0
  H  H54  1  0.61000000  0.53404000  0.10630000  1.0
  H  H55  1  0.11000000  0.96596000  0.39370000  1.0
  H  H56  1  0.02090000  0.20523000  0.62974000  1.0
  H  H57  1  0.52090000  0.29477000  0.87026000  1.0
  H  H58  1  0.97910000  0.79477000  0.37026000  1.0
  H  H59  1  0.47910000  0.70523000  0.12974000  1.0
  H  H60  1  0.14633000  0.18183000  0.55490000  1.0
  H  H61  1  0.64633000  0.31817000  0.94510000  1.0
  H  H62  1  0.85367000  0.81817000  0.44510000  1.0
  H  H63  1  0.35367000  0.68183000  0.05490000  1.0
  C  C64  1  0.84826000  0.49396000  0.00067000  1.0
  C  C65  1  0.34826000  0.00604000  0.49933000  1.0
  C  C66  1  0.15174000  0.50604000  0.99933000  1.0
  C  C67  1  0.65174000  0.99396000  0.50067000  1.0
  C  C68  1  0.07930000  0.52314000  0.91220000  1.0
  C  C69  1  0.57930000  0.97686000  0.58780000  1.0
  C  C70  1  0.92070000  0.47686000  0.08780000  1.0
  C  C71  1  0.42070000  0.02314000  0.41220000  1.0
  C  C72  1  0.93047000  0.52165000  0.90988000  1.0
  C  C73  1  0.43047000  0.97834000  0.59012000  1.0
  C  C74  1  0.06953000  0.47835000  0.09012000  1.0
  C  C75  1  0.56953000  0.02165000  0.40988000  1.0
  C  C76  1  0.19227000  0.67715000  0.83899000  1.0
  C  C77  1  0.69227000  0.82286000  0.66101000  1.0
  C  C78  1  0.80773000  0.32285000  0.16100000  1.0
  C  C79  1  0.30773000  0.17714000  0.33900000  1.0
  C  C80  1  0.34866000  0.49097000  0.49377000  1.0
  C  C81  1  0.84866000  0.00903000  0.00623000  1.0
  C  C82  1  0.65134000  0.50903000  0.50623000  1.0
  C  C83  1  0.15134000  0.99097000  0.99377000  1.0
  C  C84  1  0.42158000  0.52344000  0.41194000  1.0
  C  C85  1  0.92158000  0.97656000  0.08806000  1.0
  C  C86  1  0.57842000  0.47656000  0.58806000  1.0
  C  C87  1  0.07842000  0.02344000  0.91194000  1.0
  C  C88  1  0.43110000  0.46483000  0.58523000  1.0
  C  C89  1  0.93110000  0.03517000  0.91477000  1.0
  C  C90  1  0.56890000  0.53517000  0.41477000  1.0
  C  C91  1  0.06889000  0.96483000  0.08523000  1.0
  C  C92  1  0.29987000  0.68241000  0.35115000  1.0
  C  C93  1  0.79987000  0.81759000  0.14885000  1.0
  C  C94  1  0.70013000  0.31759000  0.64885000  1.0
  C  C95  1  0.20013000  0.18241000  0.85114000  1.0
  O  O96  1  0.71400000  0.48885000  0.99015000  1.0
  O  O97  1  0.21400000  0.01115000  0.50985000  1.0
  O  O98  1  0.28600000  0.51115000  0.00985000  1.0
  O  O99  1  0.78600000  0.98885000  0.49015000  1.0
  O  O100  1  0.15382000  0.53883000  0.82651000  1.0
  O  O101  1  0.65382000  0.96117000  0.67349000  1.0
  O  O102  1  0.84618000  0.46117000  0.17349000  1.0
  O  O103  1  0.34618000  0.03883000  0.32651000  1.0
  O  O104  1  0.85687000  0.54165000  0.83620000  1.0
  O  O105  1  0.35687000  0.95835000  0.66380000  1.0
  O  O106  1  0.14313000  0.45835000  0.16380000  1.0
  O  O107  1  0.64313000  0.04165000  0.33620000  1.0
  O  O108  1  0.21598000  0.47916000  0.49850000  1.0
  O  O109  1  0.71598000  0.02083000  0.00150000  1.0
  O  O110  1  0.78402000  0.52083000  0.50150000  1.0
  O  O111  1  0.28402000  0.97917000  0.99850000  1.0
  O  O112  1  0.34603000  0.54383000  0.32808000  1.0
  O  O113  1  0.84603000  0.95617000  0.17192000  1.0
  O  O114  1  0.65397000  0.45617000  0.67192000  1.0
  O  O115  1  0.15397000  0.04383000  0.82808000  1.0
  O  O116  1  0.35592000  0.43330000  0.65397000  1.0
  O  O117  1  0.85592000  0.06670000  0.84603000  1.0
  O  O118  1  0.64408000  0.56670000  0.34603000  1.0
  O  O119  1  0.14408000  0.93330000  0.15397000  1.0
  O  O120  1  0.97645000  0.55798000  0.65440000  1.0
  O  O121  1  0.47644000  0.94202000  0.84560000  1.0
  O  O122  1  0.02356000  0.44202000  0.34560000  1.0
  O  O123  1  0.52356000  0.05798000  0.15440000  1.0
  O  O124  1  0.57663000  0.72422000  0.90258000  1.0
  O  O125  1  0.07663000  0.77578000  0.59742000  1.0
  O  O126  1  0.42337000  0.27578000  0.09742000  1.0
  O  O127  1  0.92337000  0.22422000  0.40258000  1.0
  O  O128  1  0.46182000  0.42766000  0.83799000  1.0
  O  O129  1  0.96182000  0.07234000  0.66201000  1.0
  O  O130  1  0.53818000  0.57234000  0.16201000  1.0
  O  O131  1  0.03818000  0.92766000  0.33799000  1.0
  O  O132  1  0.07818000  0.25374000  0.58867000  1.0
  O  O133  1  0.57818000  0.24626000  0.91132000  1.0
  O  O134  1  0.92182000  0.74626000  0.41132000  1.0
  O  O135  1  0.42182000  0.75374000  0.08868000  1.0
