# generated using pymatgen
data_H16PbC22(BrN)2
_symmetry_space_group_name_H-M   'P 1'
_cell_length_a   4.27843000
_cell_length_b   16.11770000
_cell_length_c   16.22384595
_cell_angle_alpha   117.53086402
_cell_angle_beta   97.53290591
_cell_angle_gamma   90.02060000
_symmetry_Int_Tables_number   1
_chemical_formula_structural   H16PbC22(BrN)2
_chemical_formula_sum   'H32 Pb2 C44 Br4 N4'
_cell_volume   981.15479274
_cell_formula_units_Z   2
loop_
 _symmetry_equiv_pos_site_id
 _symmetry_equiv_pos_as_xyz
  1  'x, y, z'
loop_
 _atom_site_type_symbol
 _atom_site_label
 _atom_site_symmetry_multiplicity
 _atom_site_fract_x
 _atom_site_fract_y
 _atom_site_fract_z
 _atom_site_occupancy
  H  H0  1  0.85375000  0.09461000  0.06508000  1.0
  H  H1  1  0.78913000  0.40487000  0.93486000  1.0
  H  H2  1  0.14622000  0.90540000  0.93495000  1.0
  H  H3  1  0.21065000  0.59506000  0.06510000  1.0
  H  H4  1  0.91992000  0.03182000  0.17735000  1.0
  H  H5  1  0.74333000  0.46802000  0.82289000  1.0
  H  H6  1  0.08058000  0.96812000  0.82261000  1.0
  H  H7  1  0.25672000  0.53197000  0.17712000  1.0
  H  H8  1  0.63266000  0.25983000  0.34922000  1.0
  H  H9  1  0.28400000  0.24015000  0.65043000  1.0
  H  H10  1  0.36745000  0.74020000  0.65078000  1.0
  H  H11  1  0.71612000  0.75987000  0.34958000  1.0
  H  H12  1  0.52867000  0.31361000  0.22861000  1.0
  H  H13  1  0.30070000  0.18611000  0.77085000  1.0
  H  H14  1  0.47122000  0.68644000  0.77142000  1.0
  H  H15  1  0.69955000  0.81392000  0.22918000  1.0
  H  H16  1  0.05218000  0.97077000  0.25406000  1.0
  H  H17  1  0.79602000  0.52895000  0.74581000  1.0
  H  H18  1  0.94796000  0.02922000  0.74594000  1.0
  H  H19  1  0.20367000  0.47102000  0.25416000  1.0
  H  H20  1  0.15553000  0.90463000  0.36009000  1.0
  H  H21  1  0.79361000  0.59510000  0.63974000  1.0
  H  H22  1  0.84428000  0.09538000  0.63991000  1.0
  H  H23  1  0.20612000  0.40486000  0.36022000  1.0
  H  H24  1  0.75664000  0.15101000  0.55620000  1.0
  H  H25  1  0.20121000  0.34912000  0.44381000  1.0
  H  H26  1  0.24316000  0.84899000  0.44384000  1.0
  H  H27  1  0.79895000  0.65090000  0.55623000  1.0
  H  H28  1  0.65368000  0.21746000  0.45002000  1.0
  H  H29  1  0.20419000  0.28263000  0.54997000  1.0
  H  H30  1  0.34654000  0.78252000  0.54999000  1.0
  H  H31  1  0.79589000  0.71739000  0.45007000  1.0
  Pb  Pb32  1  0.07946000  0.25014000  0.00006000  1.0
  Pb  Pb33  1  0.92027000  0.74990000  0.99991000  1.0
  C  C34  1  0.02441000  0.12954000  0.12938000  1.0
  C  C35  1  0.89563000  0.37009000  0.87052000  1.0
  C  C36  1  0.97564000  0.87047000  0.87062000  1.0
  C  C37  1  0.10437000  0.62989000  0.12948000  1.0
  C  C38  1  0.06475000  0.09436000  0.19331000  1.0
  C  C39  1  0.87240000  0.40550000  0.80680000  1.0
  C  C40  1  0.93554000  0.90562000  0.80669000  1.0
  C  C41  1  0.12773000  0.59452000  0.19322000  1.0
  C  C42  1  0.28638000  0.13917000  0.27548000  1.0
  C  C43  1  0.01140000  0.36075000  0.72447000  1.0
  C  C44  1  0.71385000  0.86082000  0.72452000  1.0
  C  C45  1  0.98861000  0.63925000  0.27554000  1.0
  C  C46  1  0.45319000  0.22072000  0.28831000  1.0
  C  C47  1  0.16540000  0.27917000  0.71141000  1.0
  C  C48  1  0.54698000  0.77928000  0.71169000  1.0
  C  C49  1  0.83466000  0.72083000  0.28858000  1.0
  C  C50  1  0.39744000  0.25157000  0.22084000  1.0
  C  C51  1  0.17712000  0.24815000  0.77876000  1.0
  C  C52  1  0.60258000  0.74845000  0.77916000  1.0
  C  C53  1  0.82301000  0.75187000  0.22124000  1.0
  C  C54  1  0.34363000  0.10031000  0.34214000  1.0
  C  C55  1  0.00114000  0.39965000  0.65781000  1.0
  C  C56  1  0.65655000  0.89968000  0.65785000  1.0
  C  C57  1  0.99882000  0.60036000  0.34220000  1.0
  C  C58  1  0.20683000  0.01173000  0.32029000  1.0
  C  C59  1  0.88519000  0.48809000  0.67962000  1.0
  C  C60  1  0.79321000  0.98827000  0.67971000  1.0
  C  C61  1  0.11470000  0.51189000  0.32037000  1.0
  C  C62  1  0.26744000  0.97353000  0.38136000  1.0
  C  C63  1  0.88491000  0.52631000  0.61855000  1.0
  C  C64  1  0.73243000  0.02647000  0.61865000  1.0
  C  C65  1  0.11493000  0.47367000  0.38143000  1.0
  C  C66  1  0.46697000  0.02102000  0.46805000  1.0
  C  C67  1  0.99863000  0.47896000  0.53195000  1.0
  C  C68  1  0.53293000  0.97898000  0.53197000  1.0
  C  C69  1  0.00127000  0.52102000  0.46805000  1.0
  C  C70  1  0.60021000  0.11025000  0.49029000  1.0
  C  C71  1  0.11014000  0.38978000  0.50970000  1.0
  C  C72  1  0.39966000  0.88974000  0.50974000  1.0
  C  C73  1  0.88983000  0.61021000  0.49031000  1.0
  C  C74  1  0.54118000  0.14854000  0.42905000  1.0
  C  C75  1  0.11220000  0.35147000  0.57091000  1.0
  C  C76  1  0.45891000  0.85145000  0.57096000  1.0
  C  C77  1  0.88777000  0.64852000  0.42909000  1.0
  Br  Br78  1  0.51337000  0.10555000  0.90185000  1.0
  Br  Br79  1  0.61149000  0.39478000  0.09835000  1.0
  Br  Br80  1  0.48641000  0.89448000  0.09818000  1.0
  Br  Br81  1  0.38828000  0.60529000  0.90151000  1.0
  N  N82  1  0.18747000  0.20688000  0.14199000  1.0
  N  N83  1  0.04574000  0.29264000  0.85763000  1.0
  N  N84  1  0.81242000  0.79316000  0.85803000  1.0
  N  N85  1  0.95426000  0.70734000  0.14236000  1.0
