# generated using pymatgen
data_MnH4C8(N3O)2
_symmetry_space_group_name_H-M   'P 1'
_cell_length_a   6.81525000
_cell_length_b   8.56253054
_cell_length_c   11.38835242
_cell_angle_alpha   77.91250781
_cell_angle_beta   72.62313023
_cell_angle_gamma   66.59672407
_symmetry_Int_Tables_number   1
_chemical_formula_structural   MnH4C8(N3O)2
_chemical_formula_sum   'Mn2 H8 C16 N12 O4'
_cell_volume   578.93253862
_cell_formula_units_Z   2
loop_
 _symmetry_equiv_pos_site_id
 _symmetry_equiv_pos_as_xyz
  1  'x, y, z'
loop_
 _atom_site_type_symbol
 _atom_site_label
 _atom_site_symmetry_multiplicity
 _atom_site_fract_x
 _atom_site_fract_y
 _atom_site_fract_z
 _atom_site_occupancy
  Mn  Mn0  1  0.90822000  0.74976000  0.24998000  1.0
  Mn  Mn1  1  0.09177000  0.25025000  0.75002000  1.0
  H  H2  1  0.20085000  0.77934000  0.57524000  1.0
  H  H3  1  0.44533000  0.27878000  0.07498000  1.0
  H  H4  1  0.79913000  0.22065000  0.42477000  1.0
  H  H5  1  0.55464000  0.72122000  0.92503000  1.0
  H  H6  1  0.11776000  0.00104000  0.55249000  1.0
  H  H7  1  0.32867000  0.50044000  0.05240000  1.0
  H  H8  1  0.88222000  0.99897000  0.44751000  1.0
  H  H9  1  0.67132000  0.49957000  0.94760000  1.0
  C  C10  1  0.04706000  0.90674000  0.73280000  1.0
  C  C11  1  0.31343000  0.40610000  0.23267000  1.0
  C  C12  1  0.95294000  0.09326000  0.26720000  1.0
  C  C13  1  0.68657000  0.59391000  0.76732000  1.0
  C  C14  1  0.07795000  0.74961000  0.81558000  1.0
  C  C15  1  0.35730000  0.24909000  0.31553000  1.0
  C  C16  1  0.92206000  0.25039000  0.18442000  1.0
  C  C17  1  0.64271000  0.75094000  0.68446000  1.0
  C  C18  1  0.03552000  0.75418000  0.94251000  1.0
  C  C19  1  0.26828000  0.25384000  0.44248000  1.0
  C  C20  1  0.96451000  0.24580000  0.05748000  1.0
  C  C21  1  0.73171000  0.74621000  0.55752000  1.0
  C  C22  1  0.15632000  0.58912000  0.77362000  1.0
  C  C23  1  0.48156000  0.08862000  0.27363000  1.0
  C  C24  1  0.84372000  0.41086000  0.22637000  1.0
  C  C25  1  0.51844000  0.91139000  0.72638000  1.0
  N  N26  1  0.10912000  0.89396000  0.60906000  1.0
  N  N27  1  0.38802000  0.39341000  0.10892000  1.0
  N  N28  1  0.89087000  0.10604000  0.39094000  1.0
  N  N29  1  0.61197000  0.60660000  0.89107000  1.0
  N  N30  1  0.00691000  0.74822000  0.04994000  1.0
  N  N31  1  0.19455000  0.24815000  0.54982000  1.0
  N  N32  1  0.99310000  0.25176000  0.95006000  1.0
  N  N33  1  0.80544000  0.75185000  0.45017000  1.0
  N  N34  1  0.21945000  0.45376000  0.73838000  1.0
  N  N35  1  0.58935000  0.95336000  0.23838000  1.0
  N  N36  1  0.78055000  0.54623000  0.26161000  1.0
  N  N37  1  0.41065000  0.04666000  0.76162000  1.0
  O  O38  1  0.96382000  0.05053000  0.77456000  1.0
  O  O39  1  0.21083000  0.54988000  0.27441000  1.0
  O  O40  1  0.03617000  0.94947000  0.22543000  1.0
  O  O41  1  0.78915000  0.45013000  0.72560000  1.0
