# generated using pymatgen
data_CuH6C4BrNO
_symmetry_space_group_name_H-M   'P 1'
_cell_length_a   6.28762000
_cell_length_b   8.52523000
_cell_length_c   13.07070000
_cell_angle_alpha   81.66460000
_cell_angle_beta   76.12730000
_cell_angle_gamma   68.36050000
_symmetry_Int_Tables_number   1
_chemical_formula_structural   CuH6C4BrNO
_chemical_formula_sum   'Cu4 H24 C16 Br4 N4 O4'
_cell_volume   631.01586059
_cell_formula_units_Z   4
loop_
 _symmetry_equiv_pos_site_id
 _symmetry_equiv_pos_as_xyz
  1  'x, y, z'
loop_
 _atom_site_type_symbol
 _atom_site_label
 _atom_site_symmetry_multiplicity
 _atom_site_fract_x
 _atom_site_fract_y
 _atom_site_fract_z
 _atom_site_occupancy
  Cu  Cu0  1  0.37919000  0.83341000  0.82387000  1.0
  Cu  Cu1  1  0.03642000  0.66654000  0.67606000  1.0
  Cu  Cu2  1  0.62085000  0.16657000  0.17613000  1.0
  Cu  Cu3  1  0.96359000  0.33347000  0.32394000  1.0
  H  H4  1  0.13156000  0.15762000  0.93396000  1.0
  H  H5  1  0.22275000  0.34245000  0.56609000  1.0
  H  H6  1  0.86846000  0.84239000  0.06604000  1.0
  H  H7  1  0.77722000  0.65755000  0.43391000  1.0
  H  H8  1  0.93589000  0.13529000  0.86397000  1.0
  H  H9  1  0.93474000  0.36511000  0.63602000  1.0
  H  H10  1  0.06412000  0.86471000  0.13605000  1.0
  H  H11  1  0.06523000  0.63489000  0.36399000  1.0
  H  H12  1  0.61860000  0.08032000  0.70855000  1.0
  H  H13  1  0.40783000  0.41968000  0.79145000  1.0
  H  H14  1  0.38140000  0.91968000  0.29144000  1.0
  H  H15  1  0.59217000  0.58032000  0.20855000  1.0
  H  H16  1  0.52542000  0.12798000  0.84288000  1.0
  H  H17  1  0.49623000  0.37196000  0.65712000  1.0
  H  H18  1  0.47460000  0.87202000  0.15711000  1.0
  H  H19  1  0.50377000  0.62804000  0.34288000  1.0
  H  H20  1  0.81582000  0.42918000  0.81796000  1.0
  H  H21  1  0.06200000  0.07126000  0.68222000  1.0
  H  H22  1  0.18419000  0.57082000  0.18205000  1.0
  H  H23  1  0.93799000  0.92873000  0.31779000  1.0
  H  H24  1  0.01939000  0.44783000  0.88481000  1.0
  H  H25  1  0.35092000  0.05220000  0.61525000  1.0
  H  H26  1  0.98062000  0.55216000  0.11519000  1.0
  H  H27  1  0.64905000  0.94780000  0.38475000  1.0
  C  C28  1  0.47977000  0.73819000  0.94293000  1.0
  C  C29  1  0.16012000  0.76190000  0.55699000  1.0
  C  C30  1  0.52023000  0.26175000  0.05708000  1.0
  C  C31  1  0.83987000  0.23811000  0.44300000  1.0
  C  C32  1  0.07655000  0.18527000  0.85772000  1.0
  C  C33  1  0.11917000  0.31494000  0.64230000  1.0
  C  C34  1  0.92345000  0.81472000  0.14229000  1.0
  C  C35  1  0.88081000  0.68506000  0.35770000  1.0
  C  C36  1  0.47139000  0.15428000  0.76662000  1.0
  C  C37  1  0.39235000  0.34577000  0.73339000  1.0
  C  C38  1  0.52861000  0.84572000  0.23338000  1.0
  C  C39  1  0.60764000  0.65423000  0.26661000  1.0
  C  C40  1  0.99904000  0.37693000  0.82637000  1.0
  C  C41  1  0.20159000  0.12327000  0.67369000  1.0
  C  C42  1  0.00097000  0.62307000  0.17363000  1.0
  C  C43  1  0.79841000  0.87673000  0.32631000  1.0
  Br  Br44  1  0.62885000  0.70747000  0.65927000  1.0
  Br  Br45  1  0.99603000  0.79223000  0.84072000  1.0
  Br  Br46  1  0.37116000  0.29251000  0.34073000  1.0
  Br  Br47  1  0.00396000  0.20785000  0.15926000  1.0
  N  N48  1  0.27644000  0.08993000  0.77686000  1.0
  N  N49  1  0.14326000  0.41021000  0.72316000  1.0
  N  N50  1  0.72357000  0.91006000  0.22314000  1.0
  N  N51  1  0.85674000  0.58979000  0.27684000  1.0
  O  O52  1  0.52854000  0.66734000  0.02133000  1.0
  O  O53  1  0.21617000  0.83269000  0.47855000  1.0
  O  O54  1  0.47148000  0.33267000  0.97868000  1.0
  O  O55  1  0.78382000  0.16731000  0.52144000  1.0
