# generated using pymatgen
data_Zr3H24C31N5ClO16
_symmetry_space_group_name_H-M   'P 1'
_cell_length_a   14.84049983
_cell_length_b   14.86294729
_cell_length_c   14.87220000
_cell_angle_alpha   119.78929925
_cell_angle_beta   119.92684245
_cell_angle_gamma   60.10939479
_symmetry_Int_Tables_number   1
_chemical_formula_structural   Zr3H24C31N5ClO16
_chemical_formula_sum   'Zr6 H48 C62 N10 Cl2 O32'
_cell_volume   2326.48411110
_cell_formula_units_Z   2
loop_
 _symmetry_equiv_pos_site_id
 _symmetry_equiv_pos_as_xyz
  1  'x, y, z'
loop_
 _atom_site_type_symbol
 _atom_site_label
 _atom_site_symmetry_multiplicity
 _atom_site_fract_x
 _atom_site_fract_y
 _atom_site_fract_z
 _atom_site_occupancy
  Zr  Zr0  1  0.61760000  0.87983000  0.87777000  1.0
  Zr  Zr1  1  0.37991000  0.11744000  0.11499000  1.0
  Zr  Zr2  1  0.61945000  0.11757000  0.11748000  1.0
  Zr  Zr3  1  0.38004000  0.88212000  0.87847000  1.0
  Zr  Zr4  1  0.62063000  0.88178000  0.11655000  1.0
  Zr  Zr5  1  0.38571000  0.11853000  0.87974000  1.0
  H  H6  1  0.78199000  0.90650000  0.09406000  1.0
  H  H7  1  0.40616000  0.90787000  0.09260000  1.0
  H  H8  1  0.40886000  0.27925000  0.09190000  1.0
  H  H9  1  0.40622000  0.90772000  0.71750000  1.0
  H  H10  1  0.87813000  0.54178000  0.16684000  1.0
  H  H11  1  0.96629000  0.62339000  0.24581000  1.0
  H  H12  1  0.13188000  0.45171000  0.24032000  1.0
  H  H13  1  0.04412000  0.36973000  0.16203000  1.0
  H  H14  1  0.31151000  0.23887000  0.60844000  1.0
  H  H15  1  0.24339000  0.13956000  0.51809000  1.0
  H  H16  1  0.24913000  0.14894000  0.35638000  1.0
  H  H17  1  0.32247000  0.24444000  0.44807000  1.0
  H  H18  1  0.35347000  0.53368000  0.74874000  1.0
  H  H19  1  0.25849000  0.61401000  0.82309000  1.0
  H  H20  1  0.26568000  0.43938000  0.82055000  1.0
  H  H21  1  0.36058000  0.36103000  0.74648000  1.0
  H  H22  1  0.03540000  0.85272000  0.64124000  1.0
  H  H23  1  0.11606000  0.76223000  0.55253000  1.0
  H  H24  1  0.94256000  0.76506000  0.38803000  1.0
  H  H25  1  0.86150000  0.85662000  0.47598000  1.0
  H  H26  1  0.93313000  0.81615000  0.01511000  1.0
  H  H27  1  0.10708000  0.66325000  0.04312000  1.0
  H  H28  1  0.26655000  0.81516000  0.01016000  1.0
  H  H29  1  0.27503000  0.66252000  0.03995000  1.0
  H  H30  1  0.74482000  0.54850000  0.62094000  1.0
  H  H31  1  0.65535000  0.62636000  0.52951000  1.0
  H  H32  1  0.66211000  0.45047000  0.36853000  1.0
  H  H33  1  0.75110000  0.37258000  0.46030000  1.0
  H  H34  1  0.16028000  0.35007000  0.83401000  1.0
  H  H35  1  0.07593000  0.46920000  0.80259000  1.0
  H  H36  1  0.82687000  0.63901000  0.81339000  1.0
  H  H37  1  0.90954000  0.51861000  0.74569000  1.0
  H  H38  1  0.66695000  0.83031000  0.34126000  1.0
  H  H39  1  0.69772000  0.76272000  0.42401000  1.0
  H  H40  1  0.68722000  0.85444000  0.67431000  1.0
  H  H41  1  0.75418000  0.82891000  0.59291000  1.0
  H  H42  1  0.66867000  0.34956000  0.17516000  1.0
  H  H43  1  0.69249000  0.47333000  0.24632000  1.0
  H  H44  1  0.67878000  0.64835000  0.15767000  1.0
  H  H45  1  0.74656000  0.53098000  0.19234000  1.0
  H  H46  1  0.85329000  0.16108000  0.33490000  1.0
  H  H47  1  0.97448000  0.18993000  0.41879000  1.0
  H  H48  1  0.14514000  0.18025000  0.66535000  1.0
  H  H49  1  0.02419000  0.25122000  0.58814000  1.0
  H  H50  1  0.33135000  0.34183000  0.34268000  1.0
  H  H51  1  0.25818000  0.46385000  0.41805000  1.0
  H  H52  1  0.33701000  0.64918000  0.66003000  1.0
  H  H53  1  0.30722000  0.52865000  0.58106000  1.0
  C  C54  1  0.80058000  0.69212000  0.99349000  1.0
  C  C55  1  0.50338000  0.99994000  0.30199000  1.0
  C  C56  1  0.19541000  0.29922000  0.99175000  1.0
  C  C57  1  0.50367000  0.00237000  0.69697000  1.0
  C  C58  1  0.79863000  0.00081000  0.98973000  1.0
  C  C59  1  0.49959000  0.69393000  0.69578000  1.0
  C  C60  1  0.19033000  0.00277000  0.98859000  1.0
  C  C61  1  0.50154000  0.29802000  0.30508000  1.0
  C  C62  1  0.80086000  0.00526000  0.30574000  1.0
  C  C63  1  0.51041000  0.29915000  0.99955000  1.0
  C  C64  1  0.19361000  0.00773000  0.70001000  1.0
  C  C65  1  0.50496000  0.69487000  0.99769000  1.0
  C  C66  1  0.89883000  0.59237000  0.98928000  1.0
  C  C67  1  0.09426000  0.39615000  0.98701000  1.0
  C  C68  1  0.95296000  0.54167000  0.06977000  1.0
  C  C69  1  0.04389000  0.44644000  0.90575000  1.0
  C  C70  1  0.04426000  0.44729000  0.06735000  1.0
  C  C71  1  0.94469000  0.54066000  0.90417000  1.0
  C  C72  1  0.95150000  0.55031000  0.17499000  1.0
  C  C73  1  0.05553000  0.44203000  0.17170000  1.0
  C  C74  1  0.50558000  0.99848000  0.59715000  1.0
  C  C75  1  0.50687000  0.99795000  0.40170000  1.0
  C  C76  1  0.42150000  0.07222000  0.53999000  1.0
  C  C77  1  0.59026000  0.91849000  0.45375000  1.0
  C  C78  1  0.42370000  0.07376000  0.44899000  1.0
  C  C79  1  0.59250000  0.92188000  0.55328000  1.0
  C  C80  1  0.31123000  0.16379000  0.53630000  1.0
  C  C81  1  0.31562000  0.16794000  0.43441000  1.0
  C  C82  1  0.50866000  0.59660000  0.00300000  1.0
  C  C83  1  0.51342000  0.39820000  0.00265000  1.0
  C  C84  1  0.43144000  0.54281000  0.92269000  1.0
  C  C85  1  0.59128000  0.45175000  0.08721000  1.0
  C  C86  1  0.43489000  0.44777000  0.92168000  1.0
  C  C87  1  0.59073000  0.54813000  0.08555000  1.0
  C  C88  1  0.33462000  0.54387000  0.81657000  1.0
  C  C89  1  0.33922000  0.43465000  0.81509000  1.0
  C  C90  1  0.09304000  0.01218000  0.60264000  1.0
  C  C91  1  0.89665000  0.01171000  0.40740000  1.0
  C  C92  1  0.04004000  0.93458000  0.55381000  1.0
  C  C93  1  0.94864000  0.09098000  0.45372000  1.0
  C  C94  1  0.94565000  0.93563000  0.46247000  1.0
  C  C95  1  0.04323000  0.09356000  0.55257000  1.0
  C  C96  1  0.04424000  0.83648000  0.56489000  1.0
  C  C97  1  0.93533000  0.83857000  0.46127000  1.0
  C  C98  1  0.89863000  0.99907000  0.98514000  1.0
  C  C99  1  0.99890000  0.90899000  0.00126000  1.0
  C  C100  1  0.89307000  0.08343000  0.96483000  1.0
  C  C101  1  0.00647000  0.81862000  0.01759000  1.0
  C  C102  1  0.10387000  0.73209000  0.03191000  1.0
  C  C103  1  0.08826000  0.99996000  0.98450000  1.0
  C  C104  1  0.98880000  0.08404000  0.96480000  1.0
  C  C105  1  0.09519000  0.90910000  0.00036000  1.0
  C  C106  1  0.19416000  0.81829000  0.01504000  1.0
  C  C107  1  0.19844000  0.73183000  0.03042000  1.0
  C  C108  1  0.49520000  0.59611000  0.59604000  1.0
  C  C109  1  0.49875000  0.39629000  0.40460000  1.0
  C  C110  1  0.57403000  0.54484000  0.54380000  1.0
  C  C111  1  0.41559000  0.44727000  0.45278000  1.0
  C  C112  1  0.57671000  0.44923000  0.45436000  1.0
  C  C113  1  0.41482000  0.54504000  0.54835000  1.0
  C  C114  1  0.67245000  0.55417000  0.54633000  1.0
  C  C115  1  0.67672000  0.44366000  0.44536000  1.0
  N  N116  1  0.08368000  0.40808000  0.82166000  1.0
  N  N117  1  0.90176000  0.57848000  0.81806000  1.0
  N  N118  1  0.67625000  0.83575000  0.41624000  1.0
  N  N119  1  0.68227000  0.84406000  0.59912000  1.0
  N  N120  1  0.67421000  0.41388000  0.17273000  1.0
  N  N121  1  0.67340000  0.59008000  0.17048000  1.0
  N  N122  1  0.91259000  0.17149000  0.41040000  1.0
  N  N123  1  0.08375000  0.17705000  0.59114000  1.0
  N  N124  1  0.33294000  0.40591000  0.41478000  1.0
  N  N125  1  0.32941000  0.58647000  0.58689000  1.0
  Cl  Cl126  1  0.97909000  0.18856000  0.93674000  1.0
  Cl  Cl127  1  0.76937000  0.18667000  0.93609000  1.0
  O  O128  1  0.75710000  0.73498000  0.91760000  1.0
  O  O129  1  0.42449000  0.07469000  0.26102000  1.0
  O  O130  1  0.23351000  0.26010000  0.06812000  1.0
  O  O131  1  0.57856000  0.92624000  0.73941000  1.0
  O  O132  1  0.76496000  0.07453000  0.06961000  1.0
  O  O133  1  0.42461000  0.73704000  0.73970000  1.0
  O  O134  1  0.23109000  0.92656000  0.91374000  1.0
  O  O135  1  0.57778000  0.26083000  0.26602000  1.0
  O  O136  1  0.76352000  0.92695000  0.26528000  1.0
  O  O137  1  0.43363000  0.26071000  0.92229000  1.0
  O  O138  1  0.23808000  0.08191000  0.74204000  1.0
  O  O139  1  0.58120000  0.73731000  0.07174000  1.0
  O  O140  1  0.58455000  0.25713000  0.07625000  1.0
  O  O141  1  0.23325000  0.92936000  0.73707000  1.0
  O  O142  1  0.42641000  0.73371000  0.92151000  1.0
  O  O143  1  0.75947000  0.07890000  0.26037000  1.0
  O  O144  1  0.75892000  0.92480000  0.91418000  1.0
  O  O145  1  0.42505000  0.25557000  0.26078000  1.0
  O  O146  1  0.22950000  0.07755000  0.06742000  1.0
  O  O147  1  0.57705000  0.73211000  0.73444000  1.0
  O  O148  1  0.42756000  0.07974000  0.73666000  1.0
  O  O149  1  0.76421000  0.73244000  0.07231000  1.0
  O  O150  1  0.57962000  0.92505000  0.25964000  1.0
  O  O151  1  0.24096000  0.26012000  0.91931000  1.0
  O  O152  1  0.43349000  0.93326000  0.79719000  1.0
  O  O153  1  0.43499000  0.19957000  0.06516000  1.0
  O  O154  1  0.43128000  0.93317000  0.06311000  1.0
  O  O155  1  0.70215000  0.93202000  0.06427000  1.0
  O  O156  1  0.54913000  0.04892000  0.14588000  1.0
  O  O157  1  0.54887000  0.85244000  0.94869000  1.0
  O  O158  1  0.35289000  0.04949000  0.94815000  1.0
  O  O159  1  0.55214000  0.04820000  0.94927000  1.0
