# generated using pymatgen
data_CuH12C17IN3
_symmetry_space_group_name_H-M   'P 1'
_cell_length_a   9.94761000
_cell_length_b   9.94774000
_cell_length_c   16.34840000
_cell_angle_alpha   96.00030000
_cell_angle_beta   96.00050000
_cell_angle_gamma   91.27870000
_symmetry_Int_Tables_number   1
_chemical_formula_structural   CuH12C17IN3
_chemical_formula_sum   'Cu4 H48 C68 I4 N12'
_cell_volume   1599.19361717
_cell_formula_units_Z   4
loop_
 _symmetry_equiv_pos_site_id
 _symmetry_equiv_pos_as_xyz
  1  'x, y, z'
loop_
 _atom_site_type_symbol
 _atom_site_label
 _atom_site_symmetry_multiplicity
 _atom_site_fract_x
 _atom_site_fract_y
 _atom_site_fract_z
 _atom_site_occupancy
  Cu  Cu0  1  0.05934000  0.73932000  0.82919000  1.0
  Cu  Cu1  1  0.73932000  0.05935000  0.32918000  1.0
  Cu  Cu2  1  0.23514000  0.56263000  0.79009000  1.0
  Cu  Cu3  1  0.56263000  0.23515000  0.29009000  1.0
  H  H4  1  0.02996000  0.91255000  0.69965000  1.0
  H  H5  1  0.91255000  0.02997000  0.19965000  1.0
  H  H6  1  0.61321000  0.88172000  0.59176000  1.0
  H  H7  1  0.88171000  0.61322000  0.09177000  1.0
  H  H8  1  0.57402000  0.70946000  0.68911000  1.0
  H  H9  1  0.70946000  0.57403000  0.18912000  1.0
  H  H10  1  0.76960000  0.64385000  0.78505000  1.0
  H  H11  1  0.64385000  0.76962000  0.28505000  1.0
  H  H12  1  0.72237000  0.92198000  0.47565000  1.0
  H  H13  1  0.92198000  0.72237000  0.97565000  1.0
  H  H14  1  0.01515000  0.11786000  0.66740000  1.0
  H  H15  1  0.11786000  0.01515000  0.16740000  1.0
  H  H16  1  0.95865000  0.24015000  0.42044000  1.0
  H  H17  1  0.24015000  0.95865000  0.92044000  1.0
  H  H18  1  0.05425000  0.34610000  0.69613000  1.0
  H  H19  1  0.34610000  0.05424000  0.19613000  1.0
  H  H20  1  0.18889000  0.28292000  0.45248000  1.0
  H  H21  1  0.28292000  0.18888000  0.95247000  1.0
  H  H22  1  0.38437000  0.57124000  0.64703000  1.0
  H  H23  1  0.57124000  0.38436000  0.14703000  1.0
  H  H24  1  0.39700000  0.26308000  0.42450000  1.0
  H  H25  1  0.26308000  0.39700000  0.92450000  1.0
  H  H26  1  0.42978000  0.68025000  0.53116000  1.0
  H  H27  1  0.68026000  0.42977000  0.03116000  1.0
  H  H28  1  0.60398000  0.71728000  0.43444000  1.0
  H  H29  1  0.71728000  0.60396000  0.93444000  1.0
  H  H30  1  0.66492000  0.52133000  0.33704000  1.0
  H  H31  1  0.52133000  0.66492000  0.83704000  1.0
  H  H32  1  0.32437000  0.55673000  0.32176000  1.0
  H  H33  1  0.55672000  0.32436000  0.82177000  1.0
  H  H34  1  0.37411000  0.73767000  0.23397000  1.0
  H  H35  1  0.73766000  0.37411000  0.73397000  1.0
  H  H36  1  0.28396000  0.71522000  0.08565000  1.0
  H  H37  1  0.71523000  0.28396000  0.58566000  1.0
  H  H38  1  0.13074000  0.51882000  0.02632000  1.0
  H  H39  1  0.51882000  0.13075000  0.52632000  1.0
  H  H40  1  0.08395000  0.33584000  0.11376000  1.0
  H  H41  1  0.33583000  0.08396000  0.61376000  1.0
  H  H42  1  0.72271000  0.10102000  0.10054000  1.0
  H  H43  1  0.10103000  0.72273000  0.60054000  1.0
  H  H44  1  0.89223000  0.23602000  0.04110000  1.0
  H  H45  1  0.23602000  0.89225000  0.54110000  1.0
  H  H46  1  0.91448000  0.20308000  0.88958000  1.0
  H  H47  1  0.20309000  0.91449000  0.38958000  1.0
  H  H48  1  0.75927000  0.03901000  0.79738000  1.0
  H  H49  1  0.03901000  0.75927000  0.29738000  1.0
  H  H50  1  0.58749000  0.90323000  0.85650000  1.0
  H  H51  1  0.90325000  0.58749000  0.35650000  1.0
  C  C52  1  0.92656000  0.87114000  0.69516000  1.0
  C  C53  1  0.87114000  0.92656000  0.19516000  1.0
  C  C54  1  0.82611000  0.91013000  0.63669000  1.0
  C  C55  1  0.91013000  0.82611000  0.13670000  1.0
  C  C56  1  0.69600000  0.85138000  0.63429000  1.0
  C  C57  1  0.85139000  0.69600000  0.13430000  1.0
  C  C58  1  0.67412000  0.75586000  0.68844000  1.0
  C  C59  1  0.75586000  0.67413000  0.18845000  1.0
  C  C60  1  0.78102000  0.72098000  0.74322000  1.0
  C  C61  1  0.72098000  0.78103000  0.24323000  1.0
  C  C62  1  0.80220000  0.99767000  0.49843000  1.0
  C  C63  1  0.99766000  0.80220000  0.99843000  1.0
  C  C64  1  0.86313000  0.00667000  0.57985000  1.0
  C  C65  1  0.00667000  0.86313000  0.07985000  1.0
  C  C66  1  0.96504000  0.10649000  0.60434000  1.0
  C  C67  1  0.10649000  0.96504000  0.10433000  1.0
  C  C68  1  0.00301000  0.19157000  0.54735000  1.0
  C  C69  1  0.19157000  0.00300000  0.04735000  1.0
  C  C70  1  0.93567000  0.17479000  0.46714000  1.0
  C  C71  1  0.17479000  0.93567000  0.96713000  1.0
  C  C72  1  0.12372000  0.36587000  0.65101000  1.0
  C  C73  1  0.36586000  0.12371000  0.15101000  1.0
  C  C74  1  0.10975000  0.29739000  0.57120000  1.0
  C  C75  1  0.29740000  0.10974000  0.07120000  1.0
  C  C76  1  0.19836000  0.33301000  0.51556000  1.0
  C  C77  1  0.33302000  0.19835000  0.01556000  1.0
  C  C78  1  0.29976000  0.43289000  0.54168000  1.0
  C  C79  1  0.43289000  0.29975000  0.04168000  1.0
  C  C80  1  0.30684000  0.49391000  0.62300000  1.0
  C  C81  1  0.49391000  0.30683000  0.12300000  1.0
  C  C82  1  0.43929000  0.36599000  0.42881000  1.0
  C  C83  1  0.36599000  0.43928000  0.92881000  1.0
  C  C84  1  0.39985000  0.46755000  0.48643000  1.0
  C  C85  1  0.46755000  0.39984000  0.98643000  1.0
  C  C86  1  0.45998000  0.59703000  0.48890000  1.0
  C  C87  1  0.59704000  0.45997000  0.98889000  1.0
  C  C88  1  0.55623000  0.61777000  0.43500000  1.0
  C  C89  1  0.61778000  0.55622000  0.93500000  1.0
  C  C90  1  0.58933000  0.51051000  0.37991000  1.0
  C  C91  1  0.51052000  0.58933000  0.87991000  1.0
  C  C92  1  0.20358000  0.43390000  0.22249000  1.0
  C  C93  1  0.43389000  0.20358000  0.72249000  1.0
  C  C94  1  0.28377000  0.54831000  0.25694000  1.0
  C  C95  1  0.54831000  0.28377000  0.75694000  1.0
  C  C96  1  0.31100000  0.64936000  0.20750000  1.0
  C  C97  1  0.64935000  0.31100000  0.70751000  1.0
  C  C98  1  0.25775000  0.63796000  0.12437000  1.0
  C  C99  1  0.63796000  0.25775000  0.62437000  1.0
  C  C100  1  0.17390000  0.52672000  0.09097000  1.0
  C  C101  1  0.52673000  0.17390000  0.59097000  1.0
  C  C102  1  0.14685000  0.42439000  0.13946000  1.0
  C  C103  1  0.42439000  0.14686000  0.63946000  1.0
  C  C104  1  0.18412000  0.32464000  0.27029000  1.0
  C  C105  1  0.32463000  0.18412000  0.77029000  1.0
  C  C106  1  0.64803000  0.99000000  0.98246000  1.0
  C  C107  1  0.99001000  0.64803000  0.48246000  1.0
  C  C108  1  0.73211000  0.08608000  0.03437000  1.0
  C  C109  1  0.08609000  0.73211000  0.53437000  1.0
  C  C110  1  0.82710000  0.16205000  0.00043000  1.0
  C  C111  1  0.16205000  0.82711000  0.50042000  1.0
  C  C112  1  0.83894000  0.14382000  0.91552000  1.0
  C  C113  1  0.14382000  0.83895000  0.41552000  1.0
  C  C114  1  0.75242000  0.05113000  0.86381000  1.0
  C  C115  1  0.05114000  0.75242000  0.36381000  1.0
  C  C116  1  0.65671000  0.97414000  0.89662000  1.0
  C  C117  1  0.97415000  0.65672000  0.39662000  1.0
  C  C118  1  0.55601000  0.90669000  0.01768000  1.0
  C  C119  1  0.90670000  0.55601000  0.51768000  1.0
  I  I120  1  0.28669000  0.81288000  0.76013000  1.0
  I  I121  1  0.81288000  0.28669000  0.26013000  1.0
  I  I122  1  0.00559000  0.48398000  0.85260000  1.0
  I  I123  1  0.48398000  0.00560000  0.35260000  1.0
  N  N124  1  0.90612000  0.77868000  0.74727000  1.0
  N  N125  1  0.77868000  0.90613000  0.24727000  1.0
  N  N126  1  0.83649000  0.08039000  0.44319000  1.0
  N  N127  1  0.08039000  0.83649000  0.94318000  1.0
  N  N128  1  0.21992000  0.46254000  0.67658000  1.0
  N  N129  1  0.46254000  0.21992000  0.17658000  1.0
  N  N130  1  0.53083000  0.38586000  0.37608000  1.0
  N  N131  1  0.38586000  0.53083000  0.87608000  1.0
  N  N132  1  0.17066000  0.23282000  0.30825000  1.0
  N  N133  1  0.23281000  0.17065000  0.80825000  1.0
  N  N134  1  0.48303000  0.83689000  0.04732000  1.0
  N  N135  1  0.83691000  0.48303000  0.54732000  1.0
