# generated using pymatgen
data_ZnH8C14I3N5O4
_symmetry_space_group_name_H-M   'P 1'
_cell_length_a   8.26930000
_cell_length_b   14.22490000
_cell_length_c   16.40530000
_cell_angle_alpha   89.99990000
_cell_angle_beta   89.99990000
_cell_angle_gamma   89.99950000
_symmetry_Int_Tables_number   1
_chemical_formula_structural   ZnH8C14I3N5O4
_chemical_formula_sum   'Zn4 H32 C56 I12 N20 O16'
_cell_volume   1929.75487409
_cell_formula_units_Z   4
loop_
 _symmetry_equiv_pos_site_id
 _symmetry_equiv_pos_as_xyz
  1  'x, y, z'
loop_
 _atom_site_type_symbol
 _atom_site_label
 _atom_site_symmetry_multiplicity
 _atom_site_fract_x
 _atom_site_fract_y
 _atom_site_fract_z
 _atom_site_occupancy
  Zn  Zn0  1  0.35806000  0.79713000  0.90393000  1.0
  Zn  Zn1  1  0.64193000  0.29713000  0.09607000  1.0
  Zn  Zn2  1  0.14193000  0.79713000  0.40393000  1.0
  Zn  Zn3  1  0.85808000  0.29712000  0.59608000  1.0
  H  H4  1  0.13716000  0.34175000  0.08082000  1.0
  H  H5  1  0.86283000  0.84175000  0.91917000  1.0
  H  H6  1  0.36283000  0.34175000  0.58082000  1.0
  H  H7  1  0.63718000  0.84176000  0.41918000  1.0
  H  H8  1  0.99620000  0.27038000  0.03559000  1.0
  H  H9  1  0.00380000  0.77038000  0.96440000  1.0
  H  H10  1  0.50381000  0.27038000  0.53560000  1.0
  H  H11  1  0.49620000  0.77039000  0.46441000  1.0
  H  H12  1  0.45637000  0.89342000  0.18742000  1.0
  H  H13  1  0.54367000  0.39341000  0.81257000  1.0
  H  H14  1  0.04364000  0.89340000  0.68743000  1.0
  H  H15  1  0.95634000  0.39340000  0.31258000  1.0
  H  H16  1  0.31646000  0.04566000  0.11261000  1.0
  H  H17  1  0.68356000  0.54565000  0.88738000  1.0
  H  H18  1  0.18354000  0.04564000  0.61262000  1.0
  H  H19  1  0.81644000  0.54564000  0.38739000  1.0
  H  H20  1  0.64734000  0.67901000  0.03734000  1.0
  H  H21  1  0.35266000  0.17902000  0.96265000  1.0
  H  H22  1  0.85265000  0.67901000  0.53734000  1.0
  H  H23  1  0.14734000  0.17900000  0.46265000  1.0
  H  H24  1  0.67567000  0.76310000  0.18939000  1.0
  H  H25  1  0.32434000  0.26311000  0.81060000  1.0
  H  H26  1  0.82433000  0.76309000  0.68939000  1.0
  H  H27  1  0.17565000  0.26309000  0.31061000  1.0
  H  H28  1  0.11718000  0.12438000  0.01408000  1.0
  H  H29  1  0.88281000  0.62437000  0.98593000  1.0
  H  H30  1  0.38280000  0.12437000  0.51409000  1.0
  H  H31  1  0.61718000  0.62436000  0.48593000  1.0
  H  H32  1  0.10916000  0.00463000  0.87959000  1.0
  H  H33  1  0.89081000  0.50464000  0.12042000  1.0
  H  H34  1  0.39081000  0.00464000  0.37959000  1.0
  H  H35  1  0.60918000  0.50463000  0.62042000  1.0
  C  C36  1  0.27655000  0.61028000  0.89364000  1.0
  C  C37  1  0.72345000  0.11029000  0.10635000  1.0
  C  C38  1  0.22345000  0.61028000  0.39364000  1.0
  C  C39  1  0.77656000  0.11029000  0.60637000  1.0
  C  C40  1  0.17245000  0.52190000  0.89533000  1.0
  C  C41  1  0.82756000  0.02190000  0.10467000  1.0
  C  C42  1  0.32756000  0.52190000  0.39532000  1.0
  C  C43  1  0.67244000  0.02190000  0.60469000  1.0
  C  C44  1  0.07255000  0.49872000  0.82907000  1.0
  C  C45  1  0.92745000  0.99871000  0.17091000  1.0
  C  C46  1  0.42746000  0.49871000  0.32908000  1.0
  C  C47  1  0.57253000  0.99872000  0.67094000  1.0
  C  C48  1  0.99538000  0.41111000  0.82388000  1.0
  C  C49  1  0.00463000  0.91112000  0.17612000  1.0
  C  C50  1  0.50463000  0.41111000  0.32387000  1.0
  C  C51  1  0.49536000  0.91112000  0.67613000  1.0
  C  C52  1  0.01112000  0.34864000  0.88898000  1.0
  C  C53  1  0.98888000  0.84865000  0.11102000  1.0
  C  C54  1  0.48888000  0.34864000  0.38898000  1.0
  C  C55  1  0.51111000  0.84863000  0.61103000  1.0
  C  C56  1  0.09252000  0.37317000  0.96199000  1.0
  C  C57  1  0.90748000  0.87318000  0.03800000  1.0
  C  C58  1  0.40748000  0.37317000  0.46199000  1.0
  C  C59  1  0.59252000  0.87318000  0.53801000  1.0
  C  C60  1  0.17790000  0.45959000  0.96137000  1.0
  C  C61  1  0.82211000  0.95960000  0.03863000  1.0
  C  C62  1  0.32211000  0.45960000  0.46136000  1.0
  C  C63  1  0.67791000  0.95960000  0.53863000  1.0
  C  C64  1  0.89192000  0.38392000  0.75074000  1.0
  C  C65  1  0.10809000  0.88393000  0.24926000  1.0
  C  C66  1  0.60810000  0.38392000  0.25074000  1.0
  C  C67  1  0.39188000  0.88393000  0.74927000  1.0
  C  C68  1  0.58693000  0.74056000  0.06113000  1.0
  C  C69  1  0.41307000  0.24057000  0.93886000  1.0
  C  C70  1  0.91306000  0.74055000  0.56113000  1.0
  C  C71  1  0.08694000  0.24055000  0.43887000  1.0
  C  C72  1  0.59938000  0.78023000  0.13780000  1.0
  C  C73  1  0.40063000  0.28023000  0.86219000  1.0
  C  C74  1  0.90062000  0.78021000  0.63780000  1.0
  C  C75  1  0.09937000  0.28022000  0.36220000  1.0
  C  C76  1  0.43203000  0.86398000  0.06282000  1.0
  C  C77  1  0.56799000  0.36398000  0.93717000  1.0
  C  C78  1  0.06798000  0.86397000  0.56282000  1.0
  C  C79  1  0.93202000  0.36397000  0.43718000  1.0
  C  C80  1  0.32295000  0.93219000  0.03020000  1.0
  C  C81  1  0.67706000  0.43218000  0.96980000  1.0
  C  C82  1  0.17705000  0.93218000  0.53021000  1.0
  C  C83  1  0.82295000  0.43218000  0.46981000  1.0
  C  C84  1  0.17637000  0.05768000  0.00306000  1.0
  C  C85  1  0.82363000  0.55768000  0.99694000  1.0
  C  C86  1  0.32362000  0.05767000  0.50307000  1.0
  C  C87  1  0.67636000  0.55767000  0.49695000  1.0
  C  C88  1  0.17151000  0.99713000  0.93729000  1.0
  C  C89  1  0.82849000  0.49713000  0.06271000  1.0
  C  C90  1  0.32848000  0.99713000  0.43730000  1.0
  C  C91  1  0.67151000  0.49712000  0.56272000  1.0
  I  I92  1  0.30247000  0.50012000  0.06913000  1.0
  I  I93  1  0.69754000  0.00012000  0.93086000  1.0
  I  I94  1  0.19754000  0.50013000  0.56913000  1.0
  I  I95  1  0.80247000  0.00013000  0.43088000  1.0
  I  I96  1  0.02313000  0.60113000  0.73920000  1.0
  I  I97  1  0.97686000  0.10113000  0.26080000  1.0
  I  I98  1  0.47688000  0.60113000  0.23920000  1.0
  I  I99  1  0.52310000  0.10113000  0.76080000  1.0
  I  I100  1  0.90314000  0.21427000  0.88082000  1.0
  I  I101  1  0.09686000  0.71427000  0.11918000  1.0
  I  I102  1  0.59686000  0.21427000  0.38082000  1.0
  I  I103  1  0.40314000  0.71428000  0.61918000  1.0
  N  N104  1  0.09305000  0.31405000  0.02817000  1.0
  N  N105  1  0.90695000  0.81405000  0.97182000  1.0
  N  N106  1  0.40695000  0.31405000  0.52817000  1.0
  N  N107  1  0.59306000  0.81406000  0.47183000  1.0
  N  N108  1  0.48384000  0.79369000  0.01456000  1.0
  N  N109  1  0.51617000  0.29369000  0.98543000  1.0
  N  N110  1  0.01616000  0.79368000  0.51456000  1.0
  N  N111  1  0.98384000  0.29368000  0.48544000  1.0
  N  N112  1  0.49944000  0.85781000  0.13761000  1.0
  N  N113  1  0.50059000  0.35781000  0.86238000  1.0
  N  N114  1  0.00057000  0.85779000  0.63762000  1.0
  N  N115  1  0.99942000  0.35780000  0.36238000  1.0
  N  N116  1  0.27335000  0.01560000  0.06064000  1.0
  N  N117  1  0.72667000  0.51560000  0.93936000  1.0
  N  N118  1  0.22665000  0.01559000  0.56065000  1.0
  N  N119  1  0.77334000  0.51559000  0.43937000  1.0
  N  N120  1  0.26183000  0.91887000  0.95527000  1.0
  N  N121  1  0.73817000  0.41887000  0.04473000  1.0
  N  N122  1  0.23817000  0.91886000  0.45527000  1.0
  N  N123  1  0.76183000  0.41886000  0.54474000  1.0
  O  O124  1  0.20289000  0.68971000  0.90617000  1.0
  O  O125  1  0.79710000  0.18971000  0.09382000  1.0
  O  O126  1  0.29709000  0.68970000  0.40617000  1.0
  O  O127  1  0.70291000  0.18971000  0.59383000  1.0
  O  O128  1  0.42399000  0.60204000  0.87939000  1.0
  O  O129  1  0.57601000  0.10205000  0.12060000  1.0
  O  O130  1  0.07602000  0.60204000  0.37939000  1.0
  O  O131  1  0.92400000  0.10204000  0.62062000  1.0
  O  O132  1  0.96884000  0.33582000  0.69632000  1.0
  O  O133  1  0.03118000  0.83582000  0.30367000  1.0
  O  O134  1  0.53118000  0.33582000  0.19632000  1.0
  O  O135  1  0.46880000  0.83582000  0.80368000  1.0
  O  O136  1  0.74652000  0.40808000  0.74852000  1.0
  O  O137  1  0.25349000  0.90809000  0.25147000  1.0
  O  O138  1  0.75349000  0.40808000  0.24852000  1.0
  O  O139  1  0.24648000  0.90809000  0.75147000  1.0
