# generated using pymatgen
data_ZnH18C21N6O5
_symmetry_space_group_name_H-M   'P 1'
_cell_length_a   10.19700000
_cell_length_b   10.33700000
_cell_length_c   11.73510000
_cell_angle_alpha   72.79480000
_cell_angle_beta   82.17020000
_cell_angle_gamma   64.01420000
_symmetry_Int_Tables_number   1
_chemical_formula_structural   ZnH18C21N6O5
_chemical_formula_sum   'Zn2 H36 C42 N12 O10'
_cell_volume   1062.11414726
_cell_formula_units_Z   2
loop_
 _symmetry_equiv_pos_site_id
 _symmetry_equiv_pos_as_xyz
  1  'x, y, z'
loop_
 _atom_site_type_symbol
 _atom_site_label
 _atom_site_symmetry_multiplicity
 _atom_site_fract_x
 _atom_site_fract_y
 _atom_site_fract_z
 _atom_site_occupancy
  Zn  Zn0  1  0.55059000  0.73329000  0.64562000  1.0
  Zn  Zn1  1  0.44941000  0.26671000  0.35438000  1.0
  H  H2  1  0.07076000  0.69187000  0.65975000  1.0
  H  H3  1  0.92924000  0.30813000  0.34025000  1.0
  H  H4  1  0.10414000  0.09879000  0.63589000  1.0
  H  H5  1  0.89586000  0.90121000  0.36411000  1.0
  H  H6  1  0.67983000  0.09342000  0.65997000  1.0
  H  H7  1  0.32017000  0.90658000  0.34002000  1.0
  H  H8  1  0.97339000  0.29559000  0.70977000  1.0
  H  H9  1  0.02661000  0.70441000  0.29023000  1.0
  H  H10  1  0.82552000  0.45705000  0.63110000  1.0
  H  H11  1  0.17448000  0.54295000  0.36890000  1.0
  H  H12  1  0.96390000  0.33812000  0.54998000  1.0
  H  H13  1  0.03610000  0.66188000  0.45002000  1.0
  H  H14  1  0.41727000  0.48675000  0.78104000  1.0
  H  H15  1  0.58272000  0.51325000  0.21896000  1.0
  H  H16  1  0.78804000  0.52505000  0.85762000  1.0
  H  H17  1  0.21196000  0.47494000  0.14238000  1.0
  H  H18  1  0.70653000  0.24746000  0.12156000  1.0
  H  H19  1  0.29347000  0.75254000  0.87844000  1.0
  H  H20  1  0.82896000  0.33369000  0.07851000  1.0
  H  H21  1  0.17104000  0.66631000  0.92150000  1.0
  H  H22  1  0.74941000  0.10420000  0.92127000  1.0
  H  H23  1  0.25059000  0.89580000  0.07873000  1.0
  H  H24  1  0.06239000  0.13182000  0.11489000  1.0
  H  H25  1  0.93761000  0.86817000  0.88511000  1.0
  H  H26  1  0.62463000  0.50471000  0.46147000  1.0
  H  H27  1  0.37538000  0.49529000  0.53853000  1.0
  H  H28  1  0.35988000  0.07881000  0.59223000  1.0
  H  H29  1  0.64012000  0.92119000  0.40777000  1.0
  H  H30  1  0.17432000  0.22356000  0.84870000  1.0
  H  H31  1  0.82568000  0.77644000  0.15130000  1.0
  H  H32  1  0.25128000  0.05909000  0.79717000  1.0
  H  H33  1  0.74872000  0.94091000  0.20283000  1.0
  H  H34  1  0.28866000  0.23892000  0.00815000  1.0
  H  H35  1  0.71134000  0.76109000  0.99185000  1.0
  H  H36  1  0.52170000  0.88620000  0.83543000  1.0
  H  H37  1  0.47830000  0.11380000  0.16457000  1.0
  C  C38  1  0.77978000  0.79546000  0.67004000  1.0
  C  C39  1  0.22022000  0.20455000  0.32996000  1.0
  C  C40  1  0.86629000  0.88367000  0.66238000  1.0
  C  C41  1  0.13371000  0.11633000  0.33762000  1.0
  C  C42  1  0.01879000  0.80984000  0.65718000  1.0
  C  C43  1  0.98121000  0.19016000  0.34282000  1.0
  C  C44  1  0.10287000  0.88882000  0.64713000  1.0
  C  C45  1  0.89713000  0.11118000  0.35287000  1.0
  C  C46  1  0.03559000  0.04042000  0.64409000  1.0
  C  C47  1  0.96441000  0.95958000  0.35591000  1.0
  C  C48  1  0.88345000  0.11423000  0.64932000  1.0
  C  C49  1  0.11655000  0.88577000  0.35067000  1.0
  C  C50  1  0.79834000  0.03567000  0.65772000  1.0
  C  C51  1  0.20166000  0.96433000  0.34228000  1.0
  C  C52  1  0.26544000  0.81101000  0.63924000  1.0
  C  C53  1  0.73456000  0.18899000  0.36076000  1.0
  C  C54  1  0.89961000  0.34165000  0.63333000  1.0
  C  C55  1  0.10039000  0.65835000  0.36667000  1.0
  C  C56  1  0.51225000  0.46844000  0.82645000  1.0
  C  C57  1  0.48775000  0.53156000  0.17355000  1.0
  C  C58  1  0.70050000  0.49025000  0.86419000  1.0
  C  C59  1  0.29950000  0.50975000  0.13581000  1.0
  C  C60  1  0.77838000  0.27473000  0.04913000  1.0
  C  C61  1  0.22162000  0.72527000  0.95087000  1.0
  C  C62  1  0.85912000  0.05908000  0.95583000  1.0
  C  C63  1  0.14088000  0.94092000  0.04417000  1.0
  C  C64  1  0.89330000  0.13438000  0.02032000  1.0
  C  C65  1  0.10670000  0.86562000  0.97967000  1.0
  C  C66  1  0.03483000  0.07453000  0.06383000  1.0
  C  C67  1  0.96518000  0.92547000  0.93617000  1.0
  C  C68  1  0.36397000  0.39178000  0.57903000  1.0
  C  C69  1  0.63603000  0.60822000  0.42097000  1.0
  C  C70  1  0.35554000  0.18151000  0.60299000  1.0
  C  C71  1  0.64446000  0.81849000  0.39701000  1.0
  C  C72  1  0.27526000  0.14322000  0.81815000  1.0
  C  C73  1  0.72474000  0.85678000  0.18185000  1.0
  C  C74  1  0.38121000  0.13363000  0.00479000  1.0
  C  C75  1  0.61879000  0.86637000  0.99521000  1.0
  C  C76  1  0.39212000  0.07023000  0.91192000  1.0
  C  C77  1  0.60788000  0.92978000  0.08808000  1.0
  C  C78  1  0.48820000  0.06411000  0.09216000  1.0
  C  C79  1  0.51180000  0.93590000  0.90785000  1.0
  N  N80  1  0.59247000  0.55054000  0.78523000  1.0
  N  N81  1  0.40752000  0.44946000  0.21477000  1.0
  N  N82  1  0.68401000  0.37840000  0.94857000  1.0
  N  N83  1  0.31599000  0.62160000  0.05143000  1.0
  N  N84  1  0.38608000  0.28649000  0.52112000  1.0
  N  N85  1  0.61392000  0.71351000  0.47888000  1.0
  N  N86  1  0.31696000  0.22346000  0.70470000  1.0
  N  N87  1  0.68304000  0.77654000  0.29530000  1.0
  N  N88  1  0.56470000  0.36265000  0.92630000  1.0
  N  N89  1  0.43530000  0.63735000  0.07370000  1.0
  N  N90  1  0.32147000  0.35707000  0.69150000  1.0
  N  N91  1  0.67853000  0.64293000  0.30850000  1.0
  O  O92  1  0.64007000  0.87020000  0.65292000  1.0
  O  O93  1  0.35993000  0.12980000  0.34707000  1.0
  O  O94  1  0.84429000  0.65585000  0.69086000  1.0
  O  O95  1  0.15571000  0.34415000  0.30914000  1.0
  O  O96  1  0.32587000  0.68757000  0.61485000  1.0
  O  O97  1  0.67413000  0.31243000  0.38515000  1.0
  O  O98  1  0.34012000  0.87595000  0.66168000  1.0
  O  O99  1  0.65988000  0.12405000  0.33832000  1.0
  O  O100  1  0.81113000  0.26177000  0.64707000  1.0
  O  O101  1  0.18887000  0.73823000  0.35293000  1.0
