# generated using pymatgen
data_SnH12C6(SN)2
_symmetry_space_group_name_H-M   'P 1'
_cell_length_a   9.56709000
_cell_length_b   10.24080000
_cell_length_c   11.85560000
_cell_angle_alpha   107.29000000
_cell_angle_beta   96.30840000
_cell_angle_gamma   100.53300000
_symmetry_Int_Tables_number   1
_chemical_formula_structural   SnH12C6(SN)2
_chemical_formula_sum   'Sn4 H48 C24 S8 N8'
_cell_volume   1073.56070597
_cell_formula_units_Z   4
loop_
 _symmetry_equiv_pos_site_id
 _symmetry_equiv_pos_as_xyz
  1  'x, y, z'
loop_
 _atom_site_type_symbol
 _atom_site_label
 _atom_site_symmetry_multiplicity
 _atom_site_fract_x
 _atom_site_fract_y
 _atom_site_fract_z
 _atom_site_occupancy
  Sn  Sn0  1  0.30646000  0.23686000  0.66851000  1.0
  Sn  Sn1  1  0.69353000  0.76313000  0.33149000  1.0
  Sn  Sn2  1  0.19118000  0.27213000  0.17039000  1.0
  Sn  Sn3  1  0.80882000  0.72788000  0.82961000  1.0
  H  H4  1  0.67341000  0.19432000  0.26257000  1.0
  H  H5  1  0.32659000  0.80568000  0.73743000  1.0
  H  H6  1  0.50833000  0.06805000  0.23195000  1.0
  H  H7  1  0.49167000  0.93195000  0.76805000  1.0
  H  H8  1  0.51345000  0.24807000  0.30279000  1.0
  H  H9  1  0.48655000  0.75193000  0.69721000  1.0
  H  H10  1  0.41227000  0.09678000  0.47553000  1.0
  H  H11  1  0.58773000  0.90321000  0.52446000  1.0
  H  H12  1  0.50297000  0.27852000  0.52578000  1.0
  H  H13  1  0.49703000  0.72148000  0.47422000  1.0
  H  H14  1  0.32389000  0.22272000  0.43854000  1.0
  H  H15  1  0.67611000  0.77727000  0.56146000  1.0
  H  H16  1  0.42737000  0.51060000  0.78623000  1.0
  H  H17  1  0.57262000  0.48940000  0.21376000  1.0
  H  H18  1  0.33164000  0.43844000  0.88231000  1.0
  H  H19  1  0.66836000  0.56157000  0.11769000  1.0
  H  H20  1  0.23551000  0.48874000  0.76830000  1.0
  H  H21  1  0.76449000  0.51125000  0.23169000  1.0
  H  H22  1  0.23037000  0.96782000  0.66033000  1.0
  H  H23  1  0.76964000  0.03218000  0.33969000  1.0
  H  H24  1  0.06934000  0.02286000  0.62403000  1.0
  H  H25  1  0.93066000  0.97713000  0.37598000  1.0
  H  H26  1  0.15637000  0.07107000  0.77785000  1.0
  H  H27  1  0.84364000  0.92894000  0.22217000  1.0
  H  H28  1  0.81896000  0.29003000  0.71832000  1.0
  H  H29  1  0.18103000  0.70996000  0.28167000  1.0
  H  H30  1  0.99783000  0.38834000  0.78309000  1.0
  H  H31  1  0.00215000  0.61167000  0.21690000  1.0
  H  H32  1  0.95945000  0.20164000  0.73289000  1.0
  H  H33  1  0.04055000  0.79837000  0.26711000  1.0
  H  H34  1  0.35109000  0.53667000  0.27991000  1.0
  H  H35  1  0.64891000  0.46333000  0.72010000  1.0
  H  H36  1  0.43608000  0.42176000  0.33666000  1.0
  H  H37  1  0.56391000  0.57824000  0.66334000  1.0
  H  H38  1  0.27822000  0.46669000  0.38942000  1.0
  H  H39  1  0.72178000  0.53331000  0.61058000  1.0
  H  H40  1  0.06419000  0.99550000  0.10109000  1.0
  H  H41  1  0.93583000  0.00449000  0.89891000  1.0
  H  H42  1  0.11752000  0.06221000  0.26105000  1.0
  H  H43  1  0.88249000  0.93780000  0.73895000  1.0
  H  H44  1  0.24867000  0.01882000  0.16715000  1.0
  H  H45  1  0.75135000  0.98119000  0.83287000  1.0
  H  H46  1  0.99908000  0.24607000  0.97316000  1.0
  H  H47  1  0.00092000  0.75394000  0.02684000  1.0
  H  H48  1  0.17940000  0.30721000  0.95165000  1.0
  H  H49  1  0.82060000  0.69280000  0.04835000  1.0
  H  H50  1  0.08940000  0.42635000  0.04438000  1.0
  H  H51  1  0.91061000  0.57365000  0.95562000  1.0
  C  C52  1  0.51939000  0.20691000  0.91403000  1.0
  C  C53  1  0.48061000  0.79309000  0.08597000  1.0
  C  C54  1  0.52546000  0.19406000  0.11572000  1.0
  C  C55  1  0.47455000  0.80594000  0.88428000  1.0
  C  C56  1  0.55637000  0.17560000  0.23475000  1.0
  C  C57  1  0.44363000  0.82440000  0.76525000  1.0
  C  C58  1  0.39784000  0.20488000  0.50676000  1.0
  C  C59  1  0.60216000  0.79511000  0.49324000  1.0
  C  C60  1  0.32631000  0.44444000  0.79133000  1.0
  C  C61  1  0.67369000  0.55556000  0.20866000  1.0
  C  C62  1  0.17302000  0.05257000  0.68506000  1.0
  C  C63  1  0.82699000  0.94743000  0.31495000  1.0
  C  C64  1  0.97721000  0.30672000  0.39246000  1.0
  C  C65  1  0.02279000  0.69328000  0.60754000  1.0
  C  C66  1  0.96499000  0.29359000  0.59312000  1.0
  C  C67  1  0.03500000  0.70641000  0.40688000  1.0
  C  C68  1  0.93306000  0.29320000  0.71302000  1.0
  C  C69  1  0.06693000  0.70680000  0.28697000  1.0
  C  C70  1  0.33247000  0.44560000  0.31158000  1.0
  C  C71  1  0.66752000  0.55440000  0.68842000  1.0
  C  C72  1  0.15133000  0.06036000  0.17548000  1.0
  C  C73  1  0.84869000  0.93965000  0.82453000  1.0
  C  C74  1  0.10403000  0.31828000  0.01502000  1.0
  C  C75  1  0.89597000  0.68172000  0.98498000  1.0
  S  S76  1  0.64510000  0.17592000  0.01646000  1.0
  S  S77  1  0.35489000  0.82407000  0.98354000  1.0
  S  S78  1  0.55323000  0.20197000  0.77379000  1.0
  S  S79  1  0.44676000  0.79802000  0.22621000  1.0
  S  S80  1  0.84940000  0.32676000  0.48816000  1.0
  S  S81  1  0.15059000  0.67324000  0.51184000  1.0
  S  S82  1  0.94693000  0.32085000  0.25209000  1.0
  S  S83  1  0.05307000  0.67915000  0.74791000  1.0
  N  N84  1  0.40169000  0.23060000  0.95819000  1.0
  N  N85  1  0.59831000  0.76940000  0.04181000  1.0
  N  N86  1  0.40659000  0.22327000  0.07172000  1.0
  N  N87  1  0.59341000  0.77674000  0.92828000  1.0
  N  N88  1  0.09394000  0.27891000  0.44264000  1.0
  N  N89  1  0.90605000  0.72108000  0.55736000  1.0
  N  N90  1  0.08546000  0.27162000  0.55464000  1.0
  N  N91  1  0.91454000  0.72837000  0.44536000  1.0
