# generated using pymatgen
data_CaH20(C17O4)2
_symmetry_space_group_name_H-M   'P 1'
_cell_length_a   5.10436000
_cell_length_b   10.86860000
_cell_length_c   15.27410000
_cell_angle_alpha   83.06000000
_cell_angle_beta   85.67510000
_cell_angle_gamma   83.11120000
_symmetry_Int_Tables_number   1
_chemical_formula_structural   CaH20(C17O4)2
_chemical_formula_sum   'Ca1 H20 C34 O8'
_cell_volume   833.48708813
_cell_formula_units_Z   1
loop_
 _symmetry_equiv_pos_site_id
 _symmetry_equiv_pos_as_xyz
  1  'x, y, z'
loop_
 _atom_site_type_symbol
 _atom_site_label
 _atom_site_symmetry_multiplicity
 _atom_site_fract_x
 _atom_site_fract_y
 _atom_site_fract_z
 _atom_site_occupancy
  Ca  Ca0  1  0.00000000  0.00000000  0.00000000  1.0
  H  H1  1  0.97192000  0.72979000  0.48041000  1.0
  H  H2  1  0.02808000  0.27021000  0.51959000  1.0
  H  H3  1  0.51985000  0.25365000  0.59506000  1.0
  H  H4  1  0.48015000  0.74635000  0.40494000  1.0
  H  H5  1  0.68225000  0.13687000  0.73569000  1.0
  H  H6  1  0.31774000  0.86313000  0.26431000  1.0
  H  H7  1  0.02019000  0.31328000  0.88167000  1.0
  H  H8  1  0.97981000  0.68672000  0.11833000  1.0
  H  H9  1  0.86901000  0.43744000  0.74350000  1.0
  H  H10  1  0.13099000  0.56256000  0.25651000  1.0
  H  H11  1  0.52228000  0.51108000  0.66172000  1.0
  H  H12  1  0.47772000  0.48892000  0.33828000  1.0
  H  H13  1  0.63884000  0.62037000  0.78467000  1.0
  H  H14  1  0.36116000  0.37963000  0.21533000  1.0
  H  H15  1  0.95461000  0.88750000  0.74669000  1.0
  H  H16  1  0.04539000  0.11250000  0.25331000  1.0
  H  H17  1  0.83362000  0.77794000  0.62406000  1.0
  H  H18  1  0.16637000  0.22206000  0.37594000  1.0
  H  H19  1  0.60902000  0.81576000  0.94406000  1.0
  H  H20  1  0.39098000  0.18424000  0.05594000  1.0
  C  C21  1  0.97944000  0.62829000  0.49019000  1.0
  C  C22  1  0.02056000  0.37171000  0.50981000  1.0
  C  C23  1  0.08027000  0.56375000  0.56784000  1.0
  C  C24  1  0.91974000  0.43625000  0.43216000  1.0
  C  C25  1  0.09894000  0.43160000  0.57790000  1.0
  C  C26  1  0.90106000  0.56840000  0.42210000  1.0
  C  C27  1  0.18554000  0.35479000  0.65995000  1.0
  C  C28  1  0.81445000  0.64521000  0.34005000  1.0
  C  C29  1  0.40975000  0.26623000  0.65798000  1.0
  C  C30  1  0.59025000  0.73377000  0.34202000  1.0
  C  C31  1  0.50055000  0.20081000  0.73603000  1.0
  C  C32  1  0.49945000  0.79919000  0.26397000  1.0
  C  C33  1  0.36232000  0.21898000  0.81711000  1.0
  C  C34  1  0.63768000  0.78102000  0.18289000  1.0
  C  C35  1  0.13022000  0.30199000  0.81878000  1.0
  C  C36  1  0.86978000  0.69801000  0.18122000  1.0
  C  C37  1  0.04554000  0.37051000  0.74126000  1.0
  C  C38  1  0.95445000  0.62949000  0.25874000  1.0
  C  C39  1  0.46818000  0.15574000  0.90164000  1.0
  C  C40  1  0.53182000  0.84426000  0.09836000  1.0
  C  C41  1  0.16562000  0.63453000  0.63554000  1.0
  C  C42  1  0.83438000  0.36548000  0.36446000  1.0
  C  C43  1  0.39617000  0.59293000  0.68050000  1.0
  C  C44  1  0.60382000  0.40707000  0.31950000  1.0
  C  C45  1  0.46284000  0.65397000  0.74901000  1.0
  C  C46  1  0.53716000  0.34603000  0.25099000  1.0
  C  C47  1  0.30170000  0.75945000  0.77399000  1.0
  C  C48  1  0.69830000  0.24055000  0.22601000  1.0
  C  C49  1  0.07896000  0.80573000  0.72670000  1.0
  C  C50  1  0.92104000  0.19427000  0.27330000  1.0
  C  C51  1  0.01322000  0.74436000  0.65798000  1.0
  C  C52  1  0.98678000  0.25564000  0.34202000  1.0
  C  C53  1  0.35741000  0.81953000  0.85164000  1.0
  C  C54  1  0.64259000  0.18047000  0.14836000  1.0
  O  O55  1  0.30390000  0.14964000  0.97072000  1.0
  O  O56  1  0.69610000  0.85036000  0.02928000  1.0
  O  O57  1  0.70901000  0.11451000  0.90249000  1.0
  O  O58  1  0.29100000  0.88549000  0.09751000  1.0
  O  O59  1  0.19966000  0.90403000  0.88046000  1.0
  O  O60  1  0.80034000  0.09597000  0.11953000  1.0
  O  O61  1  0.58182000  0.77527000  0.88729000  1.0
  O  O62  1  0.41818000  0.22473000  0.11271000  1.0
