# generated using pymatgen
data_NiH22C34(NO)4
_symmetry_space_group_name_H-M   'P 1'
_cell_length_a   8.22937000
_cell_length_b   11.53980000
_cell_length_c   34.78380000
_cell_angle_alpha   90.00040000
_cell_angle_beta   90.00000000
_cell_angle_gamma   104.80200000
_symmetry_Int_Tables_number   1
_chemical_formula_structural   NiH22C34(NO)4
_chemical_formula_sum   'Ni4 H88 C136 N16 O16'
_cell_volume   3193.63323093
_cell_formula_units_Z   4
loop_
 _symmetry_equiv_pos_site_id
 _symmetry_equiv_pos_as_xyz
  1  'x, y, z'
loop_
 _atom_site_type_symbol
 _atom_site_label
 _atom_site_symmetry_multiplicity
 _atom_site_fract_x
 _atom_site_fract_y
 _atom_site_fract_z
 _atom_site_occupancy
  Ni  Ni0  1  0.48003000  0.50974000  0.85244000  1.0
  Ni  Ni1  1  0.51997000  0.99027000  0.35244000  1.0
  Ni  Ni2  1  0.51996000  0.49026000  0.14756000  1.0
  Ni  Ni3  1  0.48004000  0.00973000  0.64756000  1.0
  H  H4  1  0.87082000  0.77272000  0.77801000  1.0
  H  H5  1  0.12917000  0.72729000  0.27801000  1.0
  H  H6  1  0.12918000  0.22728000  0.22199000  1.0
  H  H7  1  0.87082000  0.27272000  0.72199000  1.0
  H  H8  1  0.17847000  0.86890000  0.77609000  1.0
  H  H9  1  0.82153000  0.63110000  0.27609000  1.0
  H  H10  1  0.82152000  0.13110000  0.22391000  1.0
  H  H11  1  0.17847000  0.36891000  0.72391000  1.0
  H  H12  1  0.40911000  0.89520000  0.72789000  1.0
  H  H13  1  0.59090000  0.60481000  0.22790000  1.0
  H  H14  1  0.59090000  0.10481000  0.27211000  1.0
  H  H15  1  0.40910000  0.39520000  0.77210000  1.0
  H  H16  1  0.19452000  0.10591000  0.65828000  1.0
  H  H17  1  0.80548000  0.39409000  0.15828000  1.0
  H  H18  1  0.80547000  0.89409000  0.34172000  1.0
  H  H19  1  0.19452000  0.60591000  0.84172000  1.0
  H  H20  1  0.95700000  0.09429000  0.70450000  1.0
  H  H21  1  0.04301000  0.40571000  0.20449000  1.0
  H  H22  1  0.04300000  0.90571000  0.29550000  1.0
  H  H23  1  0.95699000  0.59429000  0.79550000  1.0
  H  H24  1  0.90241000  0.15050000  0.76977000  1.0
  H  H25  1  0.09761000  0.34950000  0.26976000  1.0
  H  H26  1  0.09758000  0.84949000  0.23023000  1.0
  H  H27  1  0.90241000  0.65050000  0.73023000  1.0
  H  H28  1  0.51652000  0.91854000  0.83861000  1.0
  H  H29  1  0.48347000  0.58147000  0.33861000  1.0
  H  H30  1  0.48346000  0.08145000  0.16139000  1.0
  H  H31  1  0.51653000  0.41854000  0.66139000  1.0
  H  H32  1  0.89292000  0.27468000  0.81958000  1.0
  H  H33  1  0.10708000  0.22532000  0.31958000  1.0
  H  H34  1  0.10707000  0.72531000  0.18042000  1.0
  H  H35  1  0.89293000  0.77468000  0.68042000  1.0
  H  H36  1  0.78724000  0.44829000  0.83836000  1.0
  H  H37  1  0.21276000  0.05172000  0.33836000  1.0
  H  H38  1  0.21276000  0.55170000  0.16164000  1.0
  H  H39  1  0.78723000  0.94829000  0.66164000  1.0
  H  H40  1  0.29264000  0.24737000  0.83955000  1.0
  H  H41  1  0.70736000  0.25264000  0.33956000  1.0
  H  H42  1  0.70735000  0.75264000  0.16044000  1.0
  H  H43  1  0.29264000  0.74736000  0.66045000  1.0
  H  H44  1  0.37596000  0.06281000  0.81811000  1.0
  H  H45  1  0.62405000  0.43720000  0.31811000  1.0
  H  H46  1  0.62403000  0.93719000  0.18188000  1.0
  H  H47  1  0.37597000  0.56280000  0.68189000  1.0
  H  H48  1  0.84100000  0.24516000  0.90076000  1.0
  H  H49  1  0.15900000  0.25485000  0.40077000  1.0
  H  H50  1  0.15900000  0.75484000  0.09924000  1.0
  H  H51  1  0.84100000  0.74515000  0.59924000  1.0
  H  H52  1  0.83489000  0.25437000  0.02491000  1.0
  H  H53  1  0.16512000  0.24561000  0.52491000  1.0
  H  H54  1  0.16511000  0.74564000  0.97509000  1.0
  H  H55  1  0.83488000  0.75437000  0.47509000  1.0
  H  H56  1  0.27727000  0.43623000  0.96137000  1.0
  H  H57  1  0.72274000  0.06375000  0.46137000  1.0
  H  H58  1  0.72273000  0.56377000  0.03863000  1.0
  H  H59  1  0.27726000  0.93624000  0.53863000  1.0
  H  H60  1  0.32447000  0.55145000  0.01140000  1.0
  H  H61  1  0.67553000  0.94854000  0.51140000  1.0
  H  H62  1  0.67552000  0.44855000  0.98860000  1.0
  H  H63  1  0.32448000  0.05146000  0.48860000  1.0
  H  H64  1  0.48356000  0.60231000  0.07220000  1.0
  H  H65  1  0.51643000  0.89768000  0.57220000  1.0
  H  H66  1  0.51645000  0.39769000  0.92780000  1.0
  H  H67  1  0.48357000  0.10231000  0.42780000  1.0
  H  H68  1  0.18877000  0.30394000  0.12695000  1.0
  H  H69  1  0.81123000  0.19603000  0.62695000  1.0
  H  H70  1  0.81123000  0.69606000  0.87305000  1.0
  H  H71  1  0.18877000  0.80395000  0.37305000  1.0
  H  H72  1  0.02075000  0.23745000  0.06849000  1.0
  H  H73  1  0.97927000  0.26252000  0.56849000  1.0
  H  H74  1  0.97925000  0.76256000  0.93151000  1.0
  H  H75  1  0.02073000  0.73746000  0.43151000  1.0
  H  H76  1  0.64191000  0.08805000  0.90773000  1.0
  H  H77  1  0.35812000  0.41197000  0.40773000  1.0
  H  H78  1  0.35810000  0.91196000  0.09227000  1.0
  H  H79  1  0.64189000  0.58804000  0.59227000  1.0
  H  H80  1  0.33993000  0.98304000  0.90871000  1.0
  H  H81  1  0.66010000  0.51696000  0.40872000  1.0
  H  H82  1  0.66006000  0.01698000  0.09129000  1.0
  H  H83  1  0.33993000  0.48303000  0.59129000  1.0
  H  H84  1  0.27172000  0.12533000  0.01487000  1.0
  H  H85  1  0.72827000  0.37466000  0.51488000  1.0
  H  H86  1  0.72829000  0.87468000  0.98513000  1.0
  H  H87  1  0.27171000  0.62533000  0.48513000  1.0
  H  H88  1  0.56949000  0.23945000  0.01830000  1.0
  H  H89  1  0.43050000  0.26055000  0.51831000  1.0
  H  H90  1  0.43052000  0.76055000  0.98170000  1.0
  H  H91  1  0.56948000  0.73945000  0.48170000  1.0
  C  C92  1  0.60815000  0.71417000  0.82584000  1.0
  C  C93  1  0.39186000  0.78584000  0.32585000  1.0
  C  C94  1  0.39185000  0.28584000  0.17415000  1.0
  C  C95  1  0.60815000  0.21416000  0.67415000  1.0
  C  C96  1  0.68639000  0.83512000  0.80954000  1.0
  C  C97  1  0.31362000  0.66489000  0.30954000  1.0
  C  C98  1  0.31361000  0.16488000  0.19046000  1.0
  C  C99  1  0.68637000  0.33511000  0.69046000  1.0
  C  C100  1  0.82629000  0.85088000  0.78553000  1.0
  C  C101  1  0.17371000  0.64913000  0.28554000  1.0
  C  C102  1  0.17371000  0.14913000  0.21446000  1.0
  C  C103  1  0.82628000  0.35087000  0.71447000  1.0
  C  C104  1  0.90416000  0.96422000  0.77075000  1.0
  C  C105  1  0.09584000  0.53579000  0.27075000  1.0
  C  C106  1  0.09583000  0.03578000  0.22925000  1.0
  C  C107  1  0.90415000  0.46421000  0.72925000  1.0
  C  C108  1  0.04734000  0.97961000  0.74420000  1.0
  C  C109  1  0.95265000  0.52039000  0.24420000  1.0
  C  C110  1  0.95265000  0.02039000  0.25580000  1.0
  C  C111  1  0.04735000  0.47961000  0.75580000  1.0
  C  C112  1  0.17664000  0.92267000  0.75037000  1.0
  C  C113  1  0.82336000  0.57734000  0.25037000  1.0
  C  C114  1  0.82336000  0.07734000  0.24963000  1.0
  C  C115  1  0.17664000  0.42267000  0.74963000  1.0
  C  C116  1  0.30529000  0.93650000  0.72353000  1.0
  C  C117  1  0.69471000  0.56350000  0.22354000  1.0
  C  C118  1  0.69471000  0.06350000  0.27646000  1.0
  C  C119  1  0.30528000  0.43650000  0.77646000  1.0
  C  C120  1  0.18619000  0.05605000  0.68511000  1.0
  C  C121  1  0.81381000  0.44395000  0.18511000  1.0
  C  C122  1  0.81381000  0.94395000  0.31489000  1.0
  C  C123  1  0.18618000  0.55605000  0.81489000  1.0
  C  C124  1  0.05617000  0.05001000  0.71100000  1.0
  C  C125  1  0.94383000  0.44999000  0.21100000  1.0
  C  C126  1  0.94383000  0.94999000  0.28900000  1.0
  C  C127  1  0.05616000  0.55001000  0.78900000  1.0
  C  C128  1  0.84090000  0.06168000  0.78072000  1.0
  C  C129  1  0.15911000  0.43832000  0.28072000  1.0
  C  C130  1  0.15909000  0.93831000  0.21928000  1.0
  C  C131  1  0.84089000  0.56168000  0.71928000  1.0
  C  C132  1  0.70101000  0.04740000  0.80492000  1.0
  C  C133  1  0.29900000  0.45261000  0.30492000  1.0
  C  C134  1  0.29899000  0.95260000  0.19508000  1.0
  C  C135  1  0.70100000  0.54739000  0.69508000  1.0
  C  C136  1  0.62340000  0.93297000  0.81907000  1.0
  C  C137  1  0.37660000  0.56704000  0.31907000  1.0
  C  C138  1  0.37659000  0.06703000  0.18093000  1.0
  C  C139  1  0.62339000  0.43296000  0.68093000  1.0
  C  C140  1  0.64234000  0.15275000  0.81623000  1.0
  C  C141  1  0.35767000  0.34726000  0.31622000  1.0
  C  C142  1  0.35765000  0.84724000  0.18377000  1.0
  C  C143  1  0.64234000  0.65275000  0.68377000  1.0
  C  C144  1  0.75798000  0.26402000  0.82178000  1.0
  C  C145  1  0.24202000  0.23599000  0.32178000  1.0
  C  C146  1  0.24201000  0.73597000  0.17822000  1.0
  C  C147  1  0.75799000  0.76402000  0.67822000  1.0
  C  C148  1  0.70047000  0.36120000  0.83340000  1.0
  C  C149  1  0.29953000  0.13881000  0.33340000  1.0
  C  C150  1  0.29953000  0.63880000  0.16660000  1.0
  C  C151  1  0.70047000  0.86119000  0.66666667  1.0
  C  C152  1  0.42386000  0.24790000  0.83428000  1.0
  C  C153  1  0.57615000  0.25211000  0.33429000  1.0
  C  C154  1  0.57614000  0.75210000  0.16571000  1.0
  C  C155  1  0.42385000  0.74789000  0.66572000  1.0
  C  C156  1  0.47197000  0.14631000  0.82268000  1.0
  C  C157  1  0.52803000  0.35370000  0.32268000  1.0
  C  C158  1  0.52802000  0.85369000  0.17732000  1.0
  C  C159  1  0.47198000  0.64631000  0.67732000  1.0
  C  C160  1  0.16032000  0.37028000  0.89017000  1.0
  C  C161  1  0.83968000  0.12973000  0.39017000  1.0
  C  C162  1  0.83968000  0.62973000  0.10983000  1.0
  C  C163  1  0.16032000  0.87027000  0.60983000  1.0
  C  C164  1  0.06686000  0.34297000  0.92789000  1.0
  C  C165  1  0.93315000  0.15702000  0.42789000  1.0
  C  C166  1  0.93314000  0.65703000  0.07211000  1.0
  C  C167  1  0.06686000  0.84297000  0.57211000  1.0
  C  C168  1  0.90095000  0.27351000  0.92833000  1.0
  C  C169  1  0.09904000  0.22650000  0.42833000  1.0
  C  C170  1  0.09905000  0.72650000  0.07167000  1.0
  C  C171  1  0.90096000  0.77350000  0.57167000  1.0
  C  C172  1  0.81400000  0.24302000  0.96310000  1.0
  C  C173  1  0.18600000  0.25698000  0.46311000  1.0
  C  C174  1  0.18601000  0.75698000  0.03689000  1.0
  C  C175  1  0.81400000  0.74302000  0.53690000  1.0
  C  C176  1  0.89932000  0.28055000  0.99767000  1.0
  C  C177  1  0.10069000  0.21944000  0.49767000  1.0
  C  C178  1  0.10068000  0.71946000  0.00233000  1.0
  C  C179  1  0.89932000  0.78055000  0.50233000  1.0
  C  C180  1  0.06603000  0.35059000  0.99775000  1.0
  C  C181  1  0.93399000  0.14939000  0.49775000  1.0
  C  C182  1  0.93397000  0.64942000  0.00225000  1.0
  C  C183  1  0.06602000  0.85060000  0.50225000  1.0
  C  C184  1  0.14754000  0.38286000  0.96249000  1.0
  C  C185  1  0.85246000  0.11713000  0.46249000  1.0
  C  C186  1  0.85246000  0.61715000  0.03751000  1.0
  C  C187  1  0.14754000  0.88286000  0.53751000  1.0
  C  C188  1  0.15799000  0.38789000  0.03392000  1.0
  C  C189  1  0.84202000  0.11209000  0.53392000  1.0
  C  C190  1  0.84201000  0.61212000  0.96609000  1.0
  C  C191  1  0.15798000  0.88790000  0.46608000  1.0
  C  C192  1  0.29082000  0.49209000  0.03606000  1.0
  C  C193  1  0.70919000  0.00790000  0.53606000  1.0
  C  C194  1  0.70918000  0.50792000  0.96394000  1.0
  C  C195  1  0.29081000  0.99209000  0.46394000  1.0
  C  C196  1  0.37985000  0.52209000  0.07007000  1.0
  C  C197  1  0.62014000  0.97790000  0.57007000  1.0
  C  C198  1  0.62015000  0.47792000  0.92993000  1.0
  C  C199  1  0.37985000  0.02209000  0.42993000  1.0
  C  C200  1  0.21613000  0.35610000  0.10062000  1.0
  C  C201  1  0.78387000  0.14388000  0.60062000  1.0
  C  C202  1  0.78387000  0.64391000  0.89938000  1.0
  C  C203  1  0.21612000  0.85611000  0.39938000  1.0
  C  C204  1  0.12064000  0.32023000  0.06780000  1.0
  C  C205  1  0.87938000  0.17974000  0.56781000  1.0
  C  C206  1  0.87936000  0.67978000  0.93220000  1.0
  C  C207  1  0.12062000  0.82024000  0.43219000  1.0
  C  C208  1  0.63520000  0.17514000  0.96299000  1.0
  C  C209  1  0.36480000  0.32487000  0.46299000  1.0
  C  C210  1  0.36481000  0.82487000  0.03701000  1.0
  C  C211  1  0.63519000  0.67513000  0.53701000  1.0
  C  C212  1  0.56477000  0.10079000  0.93205000  1.0
  C  C213  1  0.43524000  0.39923000  0.43206000  1.0
  C  C214  1  0.43524000  0.89922000  0.06795000  1.0
  C  C215  1  0.56476000  0.60078000  0.56795000  1.0
  C  C216  1  0.39489000  0.04087000  0.93279000  1.0
  C  C217  1  0.60513000  0.45913000  0.43280000  1.0
  C  C218  1  0.60511000  0.95914000  0.06721000  1.0
  C  C219  1  0.39488000  0.54087000  0.56721000  1.0
  C  C220  1  0.35722000  0.11901000  0.99136000  1.0
  C  C221  1  0.64278000  0.38099000  0.49136000  1.0
  C  C222  1  0.64279000  0.88100000  0.00865000  1.0
  C  C223  1  0.35721000  0.61901000  0.50864000  1.0
  C  C224  1  0.52553000  0.18315000  0.99327000  1.0
  C  C225  1  0.47447000  0.31686000  0.49327000  1.0
  C  C226  1  0.47449000  0.81686000  0.00674000  1.0
  C  C227  1  0.52552000  0.68314000  0.50674000  1.0
  N  N228  1  0.30856000  0.99979000  0.69103000  1.0
  N  N229  1  0.69144000  0.50021000  0.19103000  1.0
  N  N230  1  0.69144000  0.00022000  0.30897000  1.0
  N  N231  1  0.30855000  0.49979000  0.80897000  1.0
  N  N232  1  0.53676000  0.35446000  0.83953000  1.0
  N  N233  1  0.46324000  0.14556000  0.33953000  1.0
  N  N234  1  0.46324000  0.64555000  0.16047000  1.0
  N  N235  1  0.53676000  0.85444000  0.66047000  1.0
  N  N236  1  0.34630000  0.45437000  0.10207000  1.0
  N  N237  1  0.65369000  0.04561000  0.60207000  1.0
  N  N238  1  0.65370000  0.54563000  0.89793000  1.0
  N  N239  1  0.34631000  0.95438000  0.39793000  1.0
  N  N240  1  0.29000000  0.04815000  0.96175000  1.0
  N  N241  1  0.71001000  0.45184000  0.46175000  1.0
  N  N242  1  0.71000000  0.95185000  0.03825000  1.0
  N  N243  1  0.28999000  0.54815000  0.53825000  1.0
  O  O244  1  0.66311000  0.62480000  0.81508000  1.0
  O  O245  1  0.33690000  0.87521000  0.31508000  1.0
  O  O246  1  0.33689000  0.37521000  0.18492000  1.0
  O  O247  1  0.66310000  0.12478000  0.68492000  1.0
  O  O248  1  0.49207000  0.70239000  0.85085000  1.0
  O  O249  1  0.50793000  0.79762000  0.35085000  1.0
  O  O250  1  0.50792000  0.29762000  0.14915000  1.0
  O  O251  1  0.49208000  0.20238000  0.64915000  1.0
  O  O252  1  0.09925000  0.31206000  0.86084000  1.0
  O  O253  1  0.90075000  0.18794000  0.36085000  1.0
  O  O254  1  0.90076000  0.68795000  0.13916000  1.0
  O  O255  1  0.09925000  0.81206000  0.63916000  1.0
  O  O256  1  0.30027000  0.45210000  0.89244000  1.0
  O  O257  1  0.69973000  0.04790000  0.39244000  1.0
  O  O258  1  0.69973000  0.54790000  0.10756000  1.0
  O  O259  1  0.30028000  0.95210000  0.60756000  1.0
