# generated using pymatgen
data_ZnH8C11N(ClO2)2
_symmetry_space_group_name_H-M   'P 1'
_cell_length_a   21.99140000
_cell_length_b   21.99140000
_cell_length_c   24.65391517
_cell_angle_alpha   116.48693800
_cell_angle_beta   116.48532354
_cell_angle_gamma   90.00280000
_symmetry_Int_Tables_number   1
_chemical_formula_structural   ZnH8C11N(ClO2)2
_chemical_formula_sum   'Zn16 H128 C176 N16 Cl32 O64'
_cell_volume   9252.42541146
_cell_formula_units_Z   16
loop_
 _symmetry_equiv_pos_site_id
 _symmetry_equiv_pos_as_xyz
  1  'x, y, z'
loop_
 _atom_site_type_symbol
 _atom_site_label
 _atom_site_symmetry_multiplicity
 _atom_site_fract_x
 _atom_site_fract_y
 _atom_site_fract_z
 _atom_site_occupancy
  Zn  Zn0  1  0.02322000  0.54727000  0.57442000  1.0
  Zn  Zn1  1  0.55118000  0.02713000  0.57439000  1.0
  Zn  Zn2  1  0.27718000  0.77323000  0.07438000  1.0
  Zn  Zn3  1  0.79725000  0.30119000  0.07439000  1.0
  Zn  Zn4  1  0.72680000  0.22286000  0.92561000  1.0
  Zn  Zn5  1  0.19885000  0.70279000  0.92562000  1.0
  Zn  Zn6  1  0.47285000  0.94880000  0.42558000  1.0
  Zn  Zn7  1  0.95273000  0.47679000  0.42561000  1.0
  Zn  Zn8  1  0.22677000  0.20279000  0.92561000  1.0
  Zn  Zn9  1  0.69887000  0.72286000  0.92560000  1.0
  Zn  Zn10  1  0.97284000  0.97681000  0.42560000  1.0
  Zn  Zn11  1  0.45274000  0.44879000  0.42560000  1.0
  Zn  Zn12  1  0.52319000  0.52713000  0.57440000  1.0
  Zn  Zn13  1  0.05121000  0.04724000  0.57440000  1.0
  Zn  Zn14  1  0.77718000  0.80116000  0.07439000  1.0
  Zn  Zn15  1  0.29726000  0.27327000  0.07440000  1.0
  H  H16  1  0.21738000  0.59675000  0.80725000  1.0
  H  H17  1  0.14755000  0.55412000  0.80524000  1.0
  H  H18  1  0.15165000  0.75033000  0.81843000  1.0
  H  H19  1  0.22099000  0.70971000  0.81660000  1.0
  H  H20  1  0.35336000  0.58061000  0.59870000  1.0
  H  H21  1  0.01646000  0.87625000  0.59737000  1.0
  H  H22  1  0.05295000  0.61004000  0.80840000  1.0
  H  H23  1  0.05594000  0.69358000  0.81493000  1.0
  H  H24  1  0.58989000  0.21047000  0.80723000  1.0
  H  H25  1  0.65768000  0.25106000  0.80518000  1.0
  H  H26  1  0.66680000  0.06807000  0.81842000  1.0
  H  H27  1  0.59562000  0.10685000  0.81657000  1.0
  H  H28  1  0.24531000  0.01810000  0.59870000  1.0
  H  H29  1  0.58083000  0.72110000  0.59735000  1.0
  H  H30  1  0.75547000  0.19833000  0.80841000  1.0
  H  H31  1  0.75899000  0.12131000  0.81491000  1.0
  H  H32  1  0.46044000  0.96738000  0.30719000  1.0
  H  H33  1  0.50104000  0.89755000  0.30516000  1.0
  H  H34  1  0.31804000  0.90158000  0.31837000  1.0
  H  H35  1  0.35677000  0.97093000  0.31652000  1.0
  H  H36  1  0.26821000  0.10350000  0.09881000  1.0
  H  H37  1  0.97116000  0.76645000  0.09737000  1.0
  H  H38  1  0.44836000  0.80299000  0.30843000  1.0
  H  H39  1  0.37135000  0.80599000  0.31496000  1.0
  H  H40  1  0.84670000  0.33986000  0.30720000  1.0
  H  H41  1  0.80410000  0.40768000  0.30517000  1.0
  H  H42  1  0.00033000  0.41677000  0.31842000  1.0
  H  H43  1  0.95968000  0.34557000  0.31654000  1.0
  H  H44  1  0.83061000  0.99541000  0.09882000  1.0
  H  H45  1  0.12626000  0.33092000  0.09743000  1.0
  H  H46  1  0.86011000  0.50548000  0.30845000  1.0
  H  H47  1  0.94364000  0.50898000  0.31496000  1.0
  H  H48  1  0.53266000  0.03950000  0.69280000  1.0
  H  H49  1  0.60251000  0.99892000  0.69482000  1.0
  H  H50  1  0.59835000  0.18190000  0.68158000  1.0
  H  H51  1  0.52903000  0.14314000  0.68346000  1.0
  H  H52  1  0.39659000  0.23179000  0.90118000  1.0
  H  H53  1  0.73348000  0.52883000  0.90257000  1.0
  H  H54  1  0.69702000  0.05166000  0.69155000  1.0
  H  H55  1  0.69402000  0.12868000  0.68504000  1.0
  H  H56  1  0.16019000  0.65326000  0.69282000  1.0
  H  H57  1  0.09239000  0.69588000  0.69484000  1.0
  H  H58  1  0.08321000  0.49967000  0.68163000  1.0
  H  H59  1  0.15441000  0.54025000  0.68348000  1.0
  H  H60  1  0.50469000  0.66939000  0.90119000  1.0
  H  H61  1  0.16908000  0.37379000  0.90263000  1.0
  H  H62  1  0.99456000  0.63993000  0.69157000  1.0
  H  H63  1  0.99103000  0.55639000  0.68504000  1.0
  H  H64  1  0.28950000  0.91013000  0.19275000  1.0
  H  H65  1  0.24889000  0.84231000  0.19476000  1.0
  H  H66  1  0.43190000  0.83323000  0.18158000  1.0
  H  H67  1  0.39311000  0.90439000  0.18340000  1.0
  H  H68  1  0.48191000  0.25466000  0.40130000  1.0
  H  H69  1  0.77888000  0.91910000  0.40264000  1.0
  H  H70  1  0.30164000  0.74456000  0.19160000  1.0
  H  H71  1  0.37865000  0.74101000  0.18507000  1.0
  H  H72  1  0.90324000  0.28266000  0.19277000  1.0
  H  H73  1  0.94588000  0.35250000  0.19481000  1.0
  H  H74  1  0.74965000  0.34836000  0.18157000  1.0
  H  H75  1  0.79028000  0.27904000  0.18343000  1.0
  H  H76  1  0.91940000  0.14661000  0.40130000  1.0
  H  H77  1  0.62375000  0.48348000  0.40265000  1.0
  H  H78  1  0.88991000  0.44706000  0.19158000  1.0
  H  H79  1  0.80639000  0.44408000  0.18509000  1.0
  H  H80  1  0.03264000  0.15327000  0.69280000  1.0
  H  H81  1  0.10249000  0.19586000  0.69481000  1.0
  H  H82  1  0.09838000  0.99967000  0.68163000  1.0
  H  H83  1  0.02904000  0.04027000  0.68347000  1.0
  H  H84  1  0.89662000  0.16939000  0.90122000  1.0
  H  H85  1  0.23353000  0.87382000  0.90268000  1.0
  H  H86  1  0.19701000  0.13987000  0.69154000  1.0
  H  H87  1  0.19401000  0.05635000  0.68506000  1.0
  H  H88  1  0.66016000  0.53955000  0.69278000  1.0
  H  H89  1  0.59235000  0.49893000  0.69479000  1.0
  H  H90  1  0.58318000  0.68195000  0.68162000  1.0
  H  H91  1  0.65437000  0.64322000  0.68345000  1.0
  H  H92  1  0.00467000  0.73181000  0.90121000  1.0
  H  H93  1  0.66911000  0.02885000  0.90262000  1.0
  H  H94  1  0.49457000  0.55159000  0.69157000  1.0
  H  H95  1  0.49100000  0.62862000  0.68507000  1.0
  H  H96  1  0.78952000  0.78262000  0.19275000  1.0
  H  H97  1  0.74892000  0.85246000  0.19478000  1.0
  H  H98  1  0.93192000  0.84837000  0.18158000  1.0
  H  H99  1  0.89315000  0.77904000  0.18342000  1.0
  H  H100  1  0.98189000  0.64658000  0.40127000  1.0
  H  H101  1  0.27885000  0.98353000  0.40257000  1.0
  H  H102  1  0.80165000  0.94704000  0.19157000  1.0
  H  H103  1  0.87869000  0.94406000  0.18509000  1.0
  H  H104  1  0.40327000  0.41014000  0.19279000  1.0
  H  H105  1  0.44586000  0.34230000  0.19478000  1.0
  H  H106  1  0.24968000  0.33322000  0.18162000  1.0
  H  H107  1  0.29026000  0.40440000  0.18343000  1.0
  H  H108  1  0.41936000  0.75462000  0.40121000  1.0
  H  H109  1  0.12372000  0.41901000  0.40261000  1.0
  H  H110  1  0.38989000  0.24454000  0.19159000  1.0
  H  H111  1  0.30635000  0.24102000  0.18505000  1.0
  H  H112  1  0.71735000  0.71048000  0.80721000  1.0
  H  H113  1  0.64752000  0.75108000  0.80522000  1.0
  H  H114  1  0.65161000  0.56807000  0.81839000  1.0
  H  H115  1  0.72098000  0.60684000  0.81657000  1.0
  H  H116  1  0.85341000  0.51815000  0.59879000  1.0
  H  H117  1  0.51640000  0.22112000  0.59740000  1.0
  H  H118  1  0.55295000  0.69830000  0.80841000  1.0
  H  H119  1  0.55597000  0.62131000  0.81496000  1.0
  H  H120  1  0.08987000  0.09677000  0.80725000  1.0
  H  H121  1  0.15768000  0.05414000  0.80522000  1.0
  H  H122  1  0.16679000  0.25034000  0.81842000  1.0
  H  H123  1  0.09561000  0.20973000  0.81658000  1.0
  H  H124  1  0.74531000  0.08061000  0.59872000  1.0
  H  H125  1  0.08096000  0.37628000  0.59743000  1.0
  H  H126  1  0.25547000  0.11010000  0.80844000  1.0
  H  H127  1  0.25897000  0.19360000  0.81491000  1.0
  H  H128  1  0.96047000  0.83984000  0.30720000  1.0
  H  H129  1  0.00105000  0.90768000  0.30518000  1.0
  H  H130  1  0.81804000  0.91675000  0.31837000  1.0
  H  H131  1  0.85680000  0.84556000  0.31652000  1.0
  H  H132  1  0.76818000  0.49540000  0.09878000  1.0
  H  H133  1  0.47114000  0.83085000  0.09732000  1.0
  H  H134  1  0.94833000  0.00547000  0.30846000  1.0
  H  H135  1  0.87129000  0.00895000  0.31494000  1.0
  H  H136  1  0.34677000  0.46737000  0.30721000  1.0
  H  H137  1  0.30414000  0.39756000  0.30521000  1.0
  H  H138  1  0.50033000  0.40156000  0.31838000  1.0
  H  H139  1  0.45977000  0.47093000  0.31656000  1.0
  H  H140  1  0.33060000  0.60346000  0.09879000  1.0
  H  H141  1  0.62623000  0.26649000  0.09738000  1.0
  H  H142  1  0.36003000  0.30300000  0.30843000  1.0
  H  H143  1  0.44355000  0.30593000  0.31493000  1.0
  C  C144  1  0.00372000  0.82301000  0.49450000  1.0
  C  C145  1  0.99496000  0.69987000  0.50418000  1.0
  C  C146  1  0.99122000  0.63171000  0.50440000  1.0
  C  C147  1  0.00779000  0.89106000  0.49418000  1.0
  C  C148  1  0.16045000  0.58594000  0.78620000  1.0
  C  C149  1  0.16391000  0.70005000  0.79452000  1.0
  C  C150  1  0.30267000  0.54507000  0.55566000  1.0
  C  C151  1  0.00913000  0.82562000  0.55431000  1.0
  C  C152  1  0.00469000  0.76551000  0.55961000  1.0
  C  C153  1  0.24260000  0.55468000  0.56099000  1.0
  C  C154  1  0.06662000  0.64250000  0.79030000  1.0
  C  C155  1  0.49073000  0.67148000  0.49450000  1.0
  C  C156  1  0.50917000  0.80428000  0.50415000  1.0
  C  C157  1  0.51316000  0.87263000  0.50433000  1.0
  C  C158  1  0.48640000  0.60311000  0.49421000  1.0
  C  C159  1  0.62576000  0.20021000  0.78617000  1.0
  C  C160  1  0.63061000  0.09443000  0.79450000  1.0
  C  C161  1  0.25297000  0.01057000  0.55565000  1.0
  C  C162  1  0.54512000  0.72868000  0.55431000  1.0
  C  C163  1  0.55486000  0.79408000  0.55958000  1.0
  C  C164  1  0.31837000  0.00627000  0.56097000  1.0
  C  C165  1  0.72369000  0.14777000  0.79029000  1.0
  C  C166  1  0.92155000  0.75372000  0.99452000  1.0
  C  C167  1  0.05431000  0.74487000  0.00411000  1.0
  C  C168  1  0.12264000  0.74114000  0.00430000  1.0
  C  C169  1  0.85320000  0.75779000  0.99424000  1.0
  C  C170  1  0.45018000  0.91044000  0.28613000  1.0
  C  C171  1  0.34440000  0.91387000  0.29446000  1.0
  C  C172  1  0.26069000  0.05279000  0.05578000  1.0
  C  C173  1  0.97873000  0.75908000  0.05430000  1.0
  C  C174  1  0.04413000  0.75459000  0.05955000  1.0
  C  C175  1  0.25633000  0.99271000  0.06108000  1.0
  C  C176  1  0.39779000  0.81664000  0.29031000  1.0
  C  C177  1  0.07304000  0.24080000  0.99456000  1.0
  C  C178  1  0.94986000  0.25923000  0.00412000  1.0
  C  C179  1  0.88168000  0.26316000  0.00426000  1.0
  C  C180  1  0.14109000  0.23644000  0.99424000  1.0
  C  C181  1  0.83594000  0.37574000  0.28616000  1.0
  C  C182  1  0.95005000  0.38058000  0.29450000  1.0
  C  C183  1  0.79508000  0.00302000  0.05574000  1.0
  C  C184  1  0.07565000  0.29518000  0.05437000  1.0
  C  C185  1  0.01547000  0.30492000  0.05956000  1.0
  C  C186  1  0.80470000  0.06842000  0.06106000  1.0
  C  C187  1  0.89255000  0.47370000  0.29031000  1.0
  C  C188  1  0.74624000  0.57849000  0.00545000  1.0
  C  C189  1  0.75512000  0.44574000  0.99588000  1.0
  C  C190  1  0.75890000  0.37743000  0.99575000  1.0
  C  C191  1  0.74219000  0.64686000  0.00576000  1.0
  C  C192  1  0.58958000  0.04978000  0.71384000  1.0
  C  C193  1  0.58608000  0.15555000  0.70550000  1.0
  C  C194  1  0.44728000  0.23934000  0.94426000  1.0
  C  C195  1  0.74081000  0.52128000  0.94563000  1.0
  C  C196  1  0.74536000  0.45591000  0.94044000  1.0
  C  C197  1  0.50735000  0.24363000  0.93893000  1.0
  C  C198  1  0.68339000  0.10224000  0.70969000  1.0
  C  C199  1  0.25920000  0.42703000  0.00548000  1.0
  C  C200  1  0.24076000  0.55020000  0.99589000  1.0
  C  C201  1  0.23685000  0.61834000  0.99570000  1.0
  C  C202  1  0.26355000  0.35896000  0.00576000  1.0
  C  C203  1  0.12431000  0.66405000  0.71387000  1.0
  C  C204  1  0.11941000  0.54994000  0.70554000  1.0
  C  C205  1  0.49701000  0.70491000  0.94422000  1.0
  C  C206  1  0.20478000  0.42443000  0.94570000  1.0
  C  C207  1  0.19505000  0.48458000  0.94045000  1.0
  C  C208  1  0.43163000  0.69525000  0.93892000  1.0
  C  C209  1  0.02633000  0.60747000  0.70969000  1.0
  C  C210  1  0.82851000  0.00922000  0.50550000  1.0
  C  C211  1  0.69569000  0.99079000  0.49582000  1.0
  C  C212  1  0.62731000  0.98683000  0.49560000  1.0
  C  C213  1  0.89689000  0.01362000  0.50583000  1.0
  C  C214  1  0.29975000  0.87425000  0.21380000  1.0
  C  C215  1  0.40553000  0.86940000  0.20549000  1.0
  C  C216  1  0.48941000  0.24701000  0.44434000  1.0
  C  C217  1  0.77131000  0.95482000  0.44569000  1.0
  C  C218  1  0.70590000  0.94508000  0.44039000  1.0
  C  C219  1  0.49369000  0.18161000  0.43901000  1.0
  C  C220  1  0.35220000  0.77632000  0.20970000  1.0
  C  C221  1  0.67698000  0.49623000  0.50550000  1.0
  C  C222  1  0.80013000  0.50502000  0.49585000  1.0
  C  C223  1  0.86829000  0.50882000  0.49567000  1.0
  C  C224  1  0.60890000  0.49219000  0.50579000  1.0
  C  C225  1  0.91404000  0.33959000  0.21383000  1.0
  C  C226  1  0.79993000  0.33611000  0.20550000  1.0
  C  C227  1  0.95492000  0.19732000  0.44435000  1.0
  C  C228  1  0.67437000  0.49082000  0.44570000  1.0
  C  C229  1  0.73450000  0.49528000  0.44042000  1.0
  C  C230  1  0.94530000  0.25740000  0.43903000  1.0
  C  C231  1  0.85747000  0.43340000  0.20971000  1.0
  C  C232  1  0.24627000  0.92707000  0.00553000  1.0
  C  C233  1  0.25520000  0.05022000  0.99594000  1.0
  C  C234  1  0.25894000  0.11838000  0.99575000  1.0
  C  C235  1  0.24220000  0.85899000  0.00581000  1.0
  C  C236  1  0.08956000  0.16405000  0.71385000  1.0
  C  C237  1  0.08611000  0.04994000  0.70553000  1.0
  C  C238  1  0.94730000  0.20491000  0.94428000  1.0
  C  C239  1  0.24089000  0.92446000  0.94573000  1.0
  C  C240  1  0.24542000  0.98459000  0.94048000  1.0
  C  C241  1  0.00740000  0.19527000  0.93900000  1.0
  C  C242  1  0.18337000  0.10746000  0.70970000  1.0
  C  C243  1  0.75920000  0.07851000  0.00550000  1.0
  C  C244  1  0.74077000  0.94572000  0.99588000  1.0
  C  C245  1  0.73690000  0.87739000  0.99573000  1.0
  C  C246  1  0.76358000  0.14688000  0.00581000  1.0
  C  C247  1  0.62428000  0.54980000  0.71383000  1.0
  C  C248  1  0.61938000  0.65560000  0.70552000  1.0
  C  C249  1  0.99701000  0.73933000  0.94425000  1.0
  C  C250  1  0.70481000  0.02130000  0.94569000  1.0
  C  C251  1  0.69508000  0.95591000  0.94044000  1.0
  C  C252  1  0.93162000  0.74365000  0.93894000  1.0
  C  C253  1  0.52632000  0.60219000  0.70970000  1.0
  C  C254  1  0.32847000  0.99623000  0.50542000  1.0
  C  C255  1  0.19569000  0.00508000  0.49581000  1.0
  C  C256  1  0.12736000  0.00888000  0.49564000  1.0
  C  C257  1  0.39684000  0.99218000  0.50576000  1.0
  C  C258  1  0.79978000  0.83955000  0.21381000  1.0
  C  C259  1  0.90555000  0.83611000  0.20550000  1.0
  C  C260  1  0.98941000  0.69729000  0.44432000  1.0
  C  C261  1  0.27128000  0.99088000  0.44563000  1.0
  C  C262  1  0.20589000  0.99537000  0.44038000  1.0
  C  C263  1  0.99368000  0.75736000  0.43898000  1.0
  C  C264  1  0.85221000  0.93337000  0.20969000  1.0
  C  C265  1  0.17697000  0.50913000  0.50547000  1.0
  C  C266  1  0.30011000  0.49075000  0.49581000  1.0
  C  C267  1  0.36826000  0.48681000  0.49562000  1.0
  C  C268  1  0.10890000  0.51353000  0.50576000  1.0
  C  C269  1  0.41404000  0.37425000  0.21382000  1.0
  C  C270  1  0.29993000  0.36942000  0.20551000  1.0
  C  C271  1  0.45486000  0.74700000  0.44429000  1.0
  C  C272  1  0.17434000  0.45473000  0.44566000  1.0
  C  C273  1  0.23449000  0.44500000  0.44041000  1.0
  C  C274  1  0.44523000  0.68159000  0.43895000  1.0
  C  C275  1  0.35744000  0.27631000  0.20970000  1.0
  C  C276  1  0.50366000  0.17149000  0.49453000  1.0
  C  C277  1  0.49494000  0.30430000  0.50419000  1.0
  C  C278  1  0.49120000  0.37264000  0.50438000  1.0
  C  C279  1  0.50777000  0.10314000  0.49424000  1.0
  C  C280  1  0.66043000  0.70023000  0.78618000  1.0
  C  C281  1  0.66391000  0.59442000  0.79449000  1.0
  C  C282  1  0.80271000  0.51057000  0.55571000  1.0
  C  C283  1  0.50908000  0.22868000  0.55434000  1.0
  C  C284  1  0.50459000  0.29408000  0.55959000  1.0
  C  C285  1  0.74264000  0.50629000  0.56106000  1.0
  C  C286  1  0.56661000  0.64773000  0.79030000  1.0
  C  C287  1  0.99081000  0.32305000  0.49458000  1.0
  C  C288  1  0.00927000  0.19988000  0.50419000  1.0
  C  C289  1  0.01324000  0.13173000  0.50437000  1.0
  C  C290  1  0.98642000  0.39109000  0.49424000  1.0
  C  C291  1  0.12574000  0.08597000  0.78619000  1.0
  C  C292  1  0.13061000  0.20005000  0.79450000  1.0
  C  C293  1  0.75297000  0.04510000  0.55568000  1.0
  C  C294  1  0.04525000  0.32565000  0.55437000  1.0
  C  C295  1  0.05499000  0.26551000  0.55962000  1.0
  C  C296  1  0.81838000  0.05471000  0.56102000  1.0
  C  C297  1  0.22368000  0.14253000  0.79031000  1.0
  C  C298  1  0.42154000  0.74074000  0.99447000  1.0
  C  C299  1  0.55428000  0.75926000  0.00406000  1.0
  C  C300  1  0.62263000  0.76318000  0.00424000  1.0
  C  C301  1  0.35318000  0.73640000  0.99420000  1.0
  C  C302  1  0.95020000  0.87572000  0.28615000  1.0
  C  C303  1  0.84441000  0.88057000  0.29446000  1.0
  C  C304  1  0.76063000  0.50302000  0.05572000  1.0
  C  C305  1  0.47872000  0.79515000  0.05426000  1.0
  C  C306  1  0.54411000  0.80493000  0.05951000  1.0
  C  C307  1  0.75628000  0.56840000  0.06100000  1.0
  C  C308  1  0.89776000  0.97367000  0.29030000  1.0
  C  C309  1  0.57301000  0.25370000  0.99450000  1.0
  C  C310  1  0.44984000  0.24489000  0.00411000  1.0
  C  C311  1  0.38166000  0.24117000  0.00427000  1.0
  C  C312  1  0.64107000  0.25776000  0.99418000  1.0
  C  C313  1  0.33597000  0.41045000  0.28617000  1.0
  C  C314  1  0.45008000  0.41386000  0.29448000  1.0
  C  C315  1  0.29508000  0.55276000  0.05575000  1.0
  C  C316  1  0.57561000  0.25912000  0.05431000  1.0
  C  C317  1  0.51546000  0.25463000  0.05955000  1.0
  C  C318  1  0.30472000  0.49268000  0.06106000  1.0
  C  C319  1  0.39249000  0.31662000  0.29030000  1.0
  N  N320  1  0.14353000  0.65458000  0.81700000  1.0
  N  N321  1  0.67346000  0.16239000  0.81697000  1.0
  N  N322  1  0.41238000  0.89355000  0.31696000  1.0
  N  N323  1  0.90457000  0.42345000  0.31698000  1.0
  N  N324  1  0.60647000  0.08760000  0.68303000  1.0
  N  N325  1  0.07659000  0.59543000  0.68305000  1.0
  N  N326  1  0.33758000  0.82654000  0.18301000  1.0
  N  N327  1  0.84541000  0.35649000  0.18303000  1.0
  N  N328  1  0.10646000  0.09541000  0.68304000  1.0
  N  N329  1  0.57656000  0.58761000  0.68303000  1.0
  N  N330  1  0.83760000  0.85647000  0.18302000  1.0
  N  N331  1  0.34540000  0.32655000  0.18302000  1.0
  N  N332  1  0.64353000  0.66239000  0.81698000  1.0
  N  N333  1  0.17345000  0.15458000  0.81698000  1.0
  N  N334  1  0.91237000  0.92342000  0.31696000  1.0
  N  N335  1  0.40458000  0.39353000  0.31697000  1.0
  Cl  Cl336  1  0.22456000  0.37350000  0.36511000  1.0
  Cl  Cl337  1  0.25240000  0.62566000  0.63653000  1.0
  Cl  Cl338  1  0.14053000  0.99160000  0.36509000  1.0
  Cl  Cl339  1  0.38410000  0.01089000  0.63654000  1.0
  Cl  Cl340  1  0.24158000  0.97464000  0.86515000  1.0
  Cl  Cl341  1  0.26088000  0.00251000  0.13663000  1.0
  Cl  Cl342  1  0.62358000  0.89053000  0.86515000  1.0
  Cl  Cl343  1  0.87569000  0.13417000  0.13659000  1.0
  Cl  Cl344  1  0.52538000  0.25844000  0.13485000  1.0
  Cl  Cl345  1  0.49758000  0.23909000  0.86340000  1.0
  Cl  Cl346  1  0.60949000  0.87643000  0.13485000  1.0
  Cl  Cl347  1  0.36588000  0.62425000  0.86337000  1.0
  Cl  Cl348  1  0.50839000  0.35946000  0.63490000  1.0
  Cl  Cl349  1  0.48913000  0.11586000  0.36347000  1.0
  Cl  Cl350  1  0.12651000  0.27544000  0.63491000  1.0
  Cl  Cl351  1  0.87435000  0.24757000  0.36346000  1.0
  Cl  Cl352  1  0.02538000  0.37645000  0.13487000  1.0
  Cl  Cl353  1  0.99762000  0.12430000  0.86346000  1.0
  Cl  Cl354  1  0.10950000  0.75843000  0.13488000  1.0
  Cl  Cl355  1  0.86587000  0.73910000  0.86341000  1.0
  Cl  Cl356  1  0.00847000  0.77545000  0.63491000  1.0
  Cl  Cl357  1  0.98908000  0.74751000  0.36340000  1.0
  Cl  Cl358  1  0.62636000  0.85943000  0.63489000  1.0
  Cl  Cl359  1  0.37428000  0.61581000  0.36336000  1.0
  Cl  Cl360  1  0.72454000  0.49147000  0.36511000  1.0
  Cl  Cl361  1  0.75245000  0.51092000  0.63664000  1.0
  Cl  Cl362  1  0.64054000  0.87356000  0.36509000  1.0
  Cl  Cl363  1  0.88412000  0.12568000  0.63660000  1.0
  Cl  Cl364  1  0.74158000  0.39052000  0.86513000  1.0
  Cl  Cl365  1  0.76085000  0.63416000  0.13654000  1.0
  Cl  Cl366  1  0.12356000  0.47463000  0.86513000  1.0
  Cl  Cl367  1  0.37569000  0.50246000  0.13659000  1.0
  O  O368  1  0.94971000  0.57784000  0.44582000  1.0
  O  O369  1  0.03060000  0.63277000  0.56136000  1.0
  O  O370  1  0.96547000  0.89061000  0.43823000  1.0
  O  O371  1  0.05567000  0.50087000  0.44843000  1.0
  O  O372  1  0.49610000  0.86793000  0.44575000  1.0
  O  O373  1  0.53077000  0.92853000  0.56129000  1.0
  O  O374  1  0.47279000  0.54762000  0.43828000  1.0
  O  O375  1  0.39273000  0.94756000  0.44839000  1.0
  O  O376  1  0.11792000  0.69971000  0.94570000  1.0
  O  O377  1  0.17855000  0.78051000  0.06126000  1.0
  O  O378  1  0.79771000  0.71546000  0.93831000  1.0
  O  O379  1  0.19762000  0.80574000  0.94841000  1.0
  O  O380  1  0.82781000  0.24604000  0.94567000  1.0
  O  O381  1  0.88268000  0.28072000  0.06119000  1.0
  O  O382  1  0.14061000  0.22281000  0.93828000  1.0
  O  O383  1  0.75084000  0.14280000  0.94847000  1.0
  O  O384  1  0.80038000  0.38214000  0.05433000  1.0
  O  O385  1  0.71953000  0.32149000  0.93881000  1.0
  O  O386  1  0.78454000  0.70233000  0.06172000  1.0
  O  O387  1  0.69433000  0.30237000  0.05153000  1.0
  O  O388  1  0.25401000  0.67222000  0.05430000  1.0
  O  O389  1  0.21925000  0.61729000  0.93874000  1.0
  O  O390  1  0.27715000  0.35941000  0.06170000  1.0
  O  O391  1  0.35733000  0.74921000  0.05159000  1.0
  O  O392  1  0.63201000  0.00388000  0.55417000  1.0
  O  O393  1  0.57140000  0.96925000  0.43864000  1.0
  O  O394  1  0.95238000  0.02723000  0.56176000  1.0
  O  O395  1  0.55244000  0.10724000  0.55157000  1.0
  O  O396  1  0.92218000  0.55035000  0.55425000  1.0
  O  O397  1  0.86724000  0.46949000  0.43871000  1.0
  O  O398  1  0.60934000  0.53451000  0.56172000  1.0
  O  O399  1  0.99918000  0.44435000  0.55161000  1.0
  O  O400  1  0.30042000  0.17226000  0.05433000  1.0
  O  O401  1  0.21952000  0.11733000  0.93880000  1.0
  O  O402  1  0.28451000  0.85942000  0.06174000  1.0
  O  O403  1  0.19437000  0.24921000  0.05159000  1.0
  O  O404  1  0.75405000  0.88209000  0.05432000  1.0
  O  O405  1  0.71933000  0.82149000  0.93878000  1.0
  O  O406  1  0.77721000  0.20237000  0.06178000  1.0
  O  O407  1  0.85734000  0.80238000  0.05162000  1.0
  O  O408  1  0.13209000  0.05035000  0.55423000  1.0
  O  O409  1  0.07143000  0.96953000  0.43869000  1.0
  O  O410  1  0.45233000  0.03449000  0.56169000  1.0
  O  O411  1  0.05243000  0.94431000  0.55153000  1.0
  O  O412  1  0.42213000  0.50391000  0.55420000  1.0
  O  O413  1  0.36723000  0.46921000  0.43867000  1.0
  O  O414  1  0.10933000  0.52711000  0.56169000  1.0
  O  O415  1  0.49917000  0.60724000  0.55158000  1.0
  O  O416  1  0.44971000  0.36792000  0.44579000  1.0
  O  O417  1  0.53054000  0.42856000  0.56133000  1.0
  O  O418  1  0.46542000  0.04764000  0.43831000  1.0
  O  O419  1  0.55565000  0.44758000  0.44842000  1.0
  O  O420  1  0.99611000  0.07786000  0.44576000  1.0
  O  O421  1  0.03084000  0.13274000  0.56131000  1.0
  O  O422  1  0.97280000  0.39065000  0.43831000  1.0
  O  O423  1  0.89277000  0.00091000  0.44847000  1.0
  O  O424  1  0.61793000  0.74608000  0.94567000  1.0
  O  O425  1  0.67853000  0.78072000  0.06120000  1.0
  O  O426  1  0.29768000  0.72277000  0.93826000  1.0
  O  O427  1  0.69762000  0.64278000  0.94841000  1.0
  O  O428  1  0.32777000  0.19973000  0.94568000  1.0
  O  O429  1  0.38271000  0.28055000  0.06122000  1.0
  O  O430  1  0.64059000  0.21543000  0.93822000  1.0
  O  O431  1  0.25077000  0.30572000  0.94838000  1.0
