# generated using pymatgen
data_CuH10C12BrN6
_symmetry_space_group_name_H-M   'P 1'
_cell_length_a   7.37803000
_cell_length_b   9.16832000
_cell_length_c   9.84519000
_cell_angle_alpha   98.73360000
_cell_angle_beta   104.45800000
_cell_angle_gamma   91.04260000
_symmetry_Int_Tables_number   1
_chemical_formula_structural   CuH10C12BrN6
_chemical_formula_sum   'Cu2 H20 C24 Br2 N12'
_cell_volume   636.30529694
_cell_formula_units_Z   2
loop_
 _symmetry_equiv_pos_site_id
 _symmetry_equiv_pos_as_xyz
  1  'x, y, z'
loop_
 _atom_site_type_symbol
 _atom_site_label
 _atom_site_symmetry_multiplicity
 _atom_site_fract_x
 _atom_site_fract_y
 _atom_site_fract_z
 _atom_site_occupancy
  Cu  Cu0  1  0.35034000  0.17615000  0.68723000  1.0
  Cu  Cu1  1  0.64966000  0.82384000  0.31277000  1.0
  H  H2  1  0.99811000  0.04003000  0.73927000  1.0
  H  H3  1  0.00189000  0.95997000  0.26073000  1.0
  H  H4  1  0.40039000  0.94189000  0.87276000  1.0
  H  H5  1  0.59961000  0.05812000  0.12725000  1.0
  H  H6  1  0.32685000  0.94922000  0.44275000  1.0
  H  H7  1  0.67317000  0.05078000  0.55725000  1.0
  H  H8  1  0.36556000  0.40314000  0.93287000  1.0
  H  H9  1  0.63444000  0.59686000  0.06713000  1.0
  H  H10  1  0.92560000  0.29769000  0.12663000  1.0
  H  H11  1  0.07439000  0.70230000  0.87337000  1.0
  H  H12  1  0.33729000  0.52614000  0.58731000  1.0
  H  H13  1  0.66270000  0.47386000  0.41269000  1.0
  H  H14  1  0.38241000  0.66544000  0.83490000  1.0
  H  H15  1  0.61758000  0.33455000  0.16510000  1.0
  H  H16  1  0.81793000  0.08707000  0.92366000  1.0
  H  H17  1  0.18206000  0.91293000  0.07633000  1.0
  H  H18  1  0.98286000  0.59756000  0.37148000  1.0
  H  H19  1  0.01714000  0.40244000  0.62852000  1.0
  H  H20  1  0.04605000  0.42018000  0.36962000  1.0
  H  H21  1  0.95396000  0.57982000  0.63038000  1.0
  C  C22  1  0.31740000  0.65595000  0.35166000  1.0
  C  C23  1  0.68260000  0.34405000  0.64834000  1.0
  C  C24  1  0.23636000  0.49403000  0.15437000  1.0
  C  C25  1  0.76363000  0.50597000  0.84563000  1.0
  C  C26  1  0.34224000  0.88270000  0.52736000  1.0
  C  C27  1  0.65777000  0.11731000  0.47264000  1.0
  C  C28  1  0.33228000  0.72870000  0.49679000  1.0
  C  C29  1  0.66772000  0.27131000  0.50321000  1.0
  C  C30  1  0.34529000  0.64687000  0.60788000  1.0
  C  C31  1  0.65471000  0.35313000  0.39212000  1.0
  C  C32  1  0.37046000  0.72418000  0.74512000  1.0
  C  C33  1  0.62954000  0.27582000  0.25488000  1.0
  C  C34  1  0.38127000  0.87790000  0.76667000  1.0
  C  C35  1  0.61874000  0.12211000  0.23333000  1.0
  C  C36  1  0.24378000  0.33521000  0.93489000  1.0
  C  C37  1  0.75622000  0.66479000  0.06511000  1.0
  C  C38  1  0.15413000  0.36816000  0.04512000  1.0
  C  C39  1  0.84587000  0.63184000  0.95488000  1.0
  C  C40  1  0.99833000  0.27672000  0.04291000  1.0
  C  C41  1  0.00167000  0.72328000  0.95709000  1.0
  C  C42  1  0.93987000  0.15945000  0.93071000  1.0
  C  C43  1  0.06014000  0.84055000  0.06929000  1.0
  C  C44  1  0.03856000  0.13297000  0.82681000  1.0
  C  C45  1  0.96144000  0.86703000  0.17319000  1.0
  Br  Br46  1  0.14654000  0.21362000  0.45173000  1.0
  Br  Br47  1  0.85345000  0.78638000  0.54828000  1.0
  N  N48  1  0.43570000  0.67671000  0.27234000  1.0
  N  N49  1  0.56430000  0.32329000  0.72766000  1.0
  N  N50  1  0.38705000  0.57414000  0.15071000  1.0
  N  N51  1  0.61295000  0.42586000  0.84929000  1.0
  N  N52  1  0.18663000  0.54480000  0.27815000  1.0
  N  N53  1  0.81337000  0.45520000  0.72186000  1.0
  N  N54  1  0.02033000  0.50655000  0.31132000  1.0
  N  N55  1  0.97967000  0.49345000  0.68869000  1.0
  N  N56  1  0.36626000  0.95759000  0.65980000  1.0
  N  N57  1  0.63374000  0.04241000  0.34020000  1.0
  N  N58  1  0.19039000  0.21971000  0.82941000  1.0
  N  N59  1  0.80962000  0.78029000  0.17059000  1.0
