# generated using pymatgen
data_CdCu2H44C46(NO2)4
_symmetry_space_group_name_H-M   'P 1'
_cell_length_a   10.87270000
_cell_length_b   10.87270000
_cell_length_c   11.80270000
_cell_angle_alpha   69.37250000
_cell_angle_beta   69.37250000
_cell_angle_gamma   80.99090000
_symmetry_Int_Tables_number   1
_chemical_formula_structural   CdCu2H44C46(NO2)4
_chemical_formula_sum   'Cd1 Cu2 H44 C46 N4 O8'
_cell_volume   1221.25810818
_cell_formula_units_Z   1
loop_
 _symmetry_equiv_pos_site_id
 _symmetry_equiv_pos_as_xyz
  1  'x, y, z'
loop_
 _atom_site_type_symbol
 _atom_site_label
 _atom_site_symmetry_multiplicity
 _atom_site_fract_x
 _atom_site_fract_y
 _atom_site_fract_z
 _atom_site_occupancy
  Cd  Cd0  1  0.00000000  0.00000000  0.00000000  1.0
  Cu  Cu1  1  0.21901000  0.21901000  0.93948000  1.0
  Cu  Cu2  1  0.78098000  0.78099000  0.06052000  1.0
  H  H3  1  0.11825000  0.11825000  0.57484000  1.0
  H  H4  1  0.88175000  0.88175000  0.42516000  1.0
  H  H5  1  0.20582000  0.87446000  0.82635000  1.0
  H  H6  1  0.12554000  0.79418000  0.17365000  1.0
  H  H7  1  0.79418000  0.12554000  0.17365000  1.0
  H  H8  1  0.87446000  0.20582000  0.82635000  1.0
  H  H9  1  0.38963000  0.38963000  0.10349000  1.0
  H  H10  1  0.61037000  0.61037000  0.89651000  1.0
  H  H11  1  0.27493000  0.27493000  0.13124000  1.0
  H  H12  1  0.72506000  0.72506000  0.86876000  1.0
  H  H13  1  0.16366000  0.16366000  0.33894000  1.0
  H  H14  1  0.83634000  0.83634000  0.66107000  1.0
  H  H15  1  0.52781000  0.34745000  0.90225000  1.0
  H  H16  1  0.65255000  0.47219000  0.09776000  1.0
  H  H17  1  0.47219000  0.65255000  0.09776000  1.0
  H  H18  1  0.34745000  0.52781000  0.90225000  1.0
  H  H19  1  0.50883000  0.20765000  0.04145000  1.0
  H  H20  1  0.79234000  0.49117000  0.95855000  1.0
  H  H21  1  0.49117000  0.79235000  0.95855000  1.0
  H  H22  1  0.20765000  0.50883000  0.04145000  1.0
  H  H23  1  0.65437000  0.04155000  0.66721000  1.0
  H  H24  1  0.95845000  0.34563000  0.33279000  1.0
  H  H25  1  0.34563000  0.95845000  0.33279000  1.0
  H  H26  1  0.04155000  0.65437000  0.66721000  1.0
  H  H27  1  0.60791000  0.89083000  0.57539000  1.0
  H  H28  1  0.10917000  0.39209000  0.42462000  1.0
  H  H29  1  0.39209000  0.10917000  0.42462000  1.0
  H  H30  1  0.89083000  0.60792000  0.57538000  1.0
  H  H31  1  0.68916000  0.20031000  0.74474000  1.0
  H  H32  1  0.79968000  0.31084000  0.25526000  1.0
  H  H33  1  0.31084000  0.79968000  0.25526000  1.0
  H  H34  1  0.20032000  0.68916000  0.74474000  1.0
  H  H35  1  0.68579000  0.03210000  0.83965000  1.0
  H  H36  1  0.96790000  0.31421000  0.16035000  1.0
  H  H37  1  0.31421000  0.96790000  0.16035000  1.0
  H  H38  1  0.03210000  0.68579000  0.83965000  1.0
  H  H39  1  0.65600000  0.15602000  0.91155000  1.0
  H  H40  1  0.84398000  0.34400000  0.08845000  1.0
  H  H41  1  0.34400000  0.84398000  0.08846000  1.0
  H  H42  1  0.15602000  0.65600000  0.91155000  1.0
  H  H43  1  0.38331000  0.80017000  0.66005000  1.0
  H  H44  1  0.19983000  0.61669000  0.33995000  1.0
  H  H45  1  0.61669000  0.19983000  0.33995000  1.0
  H  H46  1  0.80017000  0.38331000  0.66004000  1.0
  C  C47  1  0.05334000  0.05334000  0.22842000  1.0
  C  C48  1  0.94666000  0.94666000  0.77158000  1.0
  C  C49  1  0.02514000  0.02514000  0.36929000  1.0
  C  C50  1  0.97486000  0.97486000  0.63071000  1.0
  C  C51  1  0.32677000  0.00223000  0.84141000  1.0
  C  C52  1  0.99777000  0.67323000  0.15859000  1.0
  C  C53  1  0.67323000  0.99777000  0.15859000  1.0
  C  C54  1  0.00223000  0.32677000  0.84141000  1.0
  C  C55  1  0.06736000  0.06735000  0.54054000  1.0
  C  C56  1  0.93264000  0.93264000  0.45947000  1.0
  C  C57  1  0.30507000  0.90933000  0.79179000  1.0
  C  C58  1  0.09067000  0.69493000  0.20821000  1.0
  C  C59  1  0.69493000  0.09067000  0.20821000  1.0
  C  C60  1  0.90933000  0.30507000  0.79179000  1.0
  C  C61  1  0.49472000  0.13042000  0.85523000  1.0
  C  C62  1  0.86957000  0.50529000  0.14477000  1.0
  C  C63  1  0.50528000  0.86957000  0.14477000  1.0
  C  C64  1  0.13042000  0.49471000  0.85523000  1.0
  C  C65  1  0.45716000  0.04827000  0.79852000  1.0
  C  C66  1  0.95173000  0.54284000  0.20148000  1.0
  C  C67  1  0.54284000  0.95173000  0.20148000  1.0
  C  C68  1  0.04827000  0.45716000  0.79852000  1.0
  C  C69  1  0.34604000  0.34604000  0.05577000  1.0
  C  C70  1  0.65395000  0.65395000  0.94423000  1.0
  C  C71  1  0.09219000  0.09219000  0.41066000  1.0
  C  C72  1  0.90781000  0.90781000  0.58935000  1.0
  C  C73  1  0.45633000  0.27556000  0.97781000  1.0
  C  C74  1  0.72444000  0.54367000  0.02219000  1.0
  C  C75  1  0.54367000  0.72444000  0.02219000  1.0
  C  C76  1  0.27555000  0.45633000  0.97781000  1.0
  C  C77  1  0.55551000  0.00531000  0.70267000  1.0
  C  C78  1  0.99469000  0.44449000  0.29733000  1.0
  C  C79  1  0.44450000  0.99469000  0.29733000  1.0
  C  C80  1  0.00531000  0.55551000  0.70267000  1.0
  C  C81  1  0.53067000  0.91887000  0.65145000  1.0
  C  C82  1  0.08113000  0.46933000  0.34855000  1.0
  C  C83  1  0.46933000  0.08113000  0.34855000  1.0
  C  C84  1  0.91887000  0.53067000  0.65145000  1.0
  C  C85  1  0.63892000  0.12916000  0.83769000  1.0
  C  C86  1  0.87084000  0.36108000  0.16231000  1.0
  C  C87  1  0.36108000  0.87084000  0.16231000  1.0
  C  C88  1  0.12916000  0.63892000  0.83769000  1.0
  C  C89  1  0.40434000  0.86927000  0.69860000  1.0
  C  C90  1  0.13073000  0.59566000  0.30140000  1.0
  C  C91  1  0.59566000  0.13073000  0.30140000  1.0
  C  C92  1  0.86927000  0.40434000  0.69859000  1.0
  N  N93  1  0.40939000  0.20074000  0.91946000  1.0
  N  N94  1  0.79926000  0.59061000  0.08054000  1.0
  N  N95  1  0.59061000  0.79926000  0.08054000  1.0
  N  N96  1  0.20074000  0.40939000  0.91946000  1.0
  O  O97  1  0.98871000  0.98871000  0.19741000  1.0
  O  O98  1  0.01129000  0.01129000  0.80260000  1.0
  O  O99  1  0.22838000  0.03939000  0.92837000  1.0
  O  O100  1  0.96061000  0.77162000  0.07163000  1.0
  O  O101  1  0.77162000  0.96061000  0.07162000  1.0
  O  O102  1  0.03939000  0.22838000  0.92837000  1.0
  O  O103  1  0.13801000  0.13801000  0.15313000  1.0
  O  O104  1  0.86199000  0.86199000  0.84687000  1.0
