# generated using pymatgen
data_ZnH17C18N5O4
_symmetry_space_group_name_H-M   'P 1'
_cell_length_a   9.30939000
_cell_length_b   13.59670000
_cell_length_c   16.09400000
_cell_angle_alpha   89.99990000
_cell_angle_beta   92.51310000
_cell_angle_gamma   90.00000000
_symmetry_Int_Tables_number   1
_chemical_formula_structural   ZnH17C18N5O4
_chemical_formula_sum   'Zn4 H68 C72 N20 O16'
_cell_volume   2035.17069867
_cell_formula_units_Z   4
loop_
 _symmetry_equiv_pos_site_id
 _symmetry_equiv_pos_as_xyz
  1  'x, y, z'
loop_
 _atom_site_type_symbol
 _atom_site_label
 _atom_site_symmetry_multiplicity
 _atom_site_fract_x
 _atom_site_fract_y
 _atom_site_fract_z
 _atom_site_occupancy
  Zn  Zn0  1  0.73635000  0.85197000  0.82034000  1.0
  Zn  Zn1  1  0.76364000  0.35196000  0.67965000  1.0
  Zn  Zn2  1  0.26364000  0.14803000  0.17965000  1.0
  Zn  Zn3  1  0.23635000  0.64804000  0.32035000  1.0
  H  H4  1  0.98719000  0.79239000  0.04392000  1.0
  H  H5  1  0.51279000  0.29238000  0.45609000  1.0
  H  H6  1  0.01280000  0.20759000  0.95610000  1.0
  H  H7  1  0.48720000  0.70760000  0.54390000  1.0
  H  H8  1  0.26775000  0.98041000  0.90944000  1.0
  H  H9  1  0.23224000  0.48041000  0.59056000  1.0
  H  H10  1  0.73222000  0.01957000  0.09056000  1.0
  H  H11  1  0.76778000  0.51958000  0.40944000  1.0
  H  H12  1  0.40954000  0.85853000  0.14669000  1.0
  H  H13  1  0.09045000  0.35854000  0.35331000  1.0
  H  H14  1  0.59047000  0.14147000  0.85331000  1.0
  H  H15  1  0.90953000  0.64147000  0.64669000  1.0
  H  H16  1  0.27921000  0.66666667  0.91279000  1.0
  H  H17  1  0.22080000  0.16665000  0.58721000  1.0
  H  H18  1  0.72079000  0.33333333  0.08721000  1.0
  H  H19  1  0.77921000  0.83336000  0.41279000  1.0
  H  H20  1  0.68715000  0.76678000  0.00316000  1.0
  H  H21  1  0.81285000  0.26678000  0.49684000  1.0
  H  H22  1  0.31285000  0.23322000  0.99683000  1.0
  H  H23  1  0.18715000  0.73322000  0.50317000  1.0
  H  H24  1  0.40165000  0.78495000  0.79309000  1.0
  H  H25  1  0.09835000  0.28495000  0.70691000  1.0
  H  H26  1  0.59835000  0.21505000  0.20690000  1.0
  H  H27  1  0.90165000  0.71506000  0.29310000  1.0
  H  H28  1  0.35440000  0.62390000  0.06284000  1.0
  H  H29  1  0.14562000  0.12391000  0.43716000  1.0
  H  H30  1  0.64561000  0.37609000  0.93715000  1.0
  H  H31  1  0.85440000  0.87610000  0.56285000  1.0
  H  H32  1  0.52042000  0.66666667  0.10496000  1.0
  H  H33  1  0.97959000  0.16665000  0.39504000  1.0
  H  H34  1  0.47958000  0.33333333  0.89503000  1.0
  H  H35  1  0.02042000  0.83336000  0.60497000  1.0
  H  H36  1  0.65116000  0.53950000  0.02362000  1.0
  H  H37  1  0.84886000  0.03950000  0.47638000  1.0
  H  H38  1  0.34885000  0.46050000  0.97637000  1.0
  H  H39  1  0.15117000  0.96050000  0.52363000  1.0
  H  H40  1  0.53155000  0.48932000  0.09442000  1.0
  H  H41  1  0.96847000  0.98932000  0.40559000  1.0
  H  H42  1  0.46846000  0.51069000  0.90558000  1.0
  H  H43  1  0.03156000  0.01069000  0.59443000  1.0
  H  H44  1  0.78594000  0.12713000  0.60468000  1.0
  H  H45  1  0.71407000  0.62713000  0.89533000  1.0
  H  H46  1  0.21407000  0.87288000  0.39533000  1.0
  H  H47  1  0.28593000  0.37288000  0.10467000  1.0
  H  H48  1  0.49188000  0.17628000  0.59129000  1.0
  H  H49  1  0.00813000  0.67628000  0.90870000  1.0
  H  H50  1  0.50813000  0.82373000  0.40870000  1.0
  H  H51  1  0.99188000  0.32373000  0.09129000  1.0
  H  H52  1  0.38336000  0.07209000  0.61449000  1.0
  H  H53  1  0.11664000  0.57209000  0.88551000  1.0
  H  H54  1  0.61664000  0.92791000  0.38550000  1.0
  H  H55  1  0.88336000  0.42791000  0.11449000  1.0
  H  H56  1  0.47089000  0.96694000  0.72855000  1.0
  H  H57  1  0.02911000  0.46693000  0.77144000  1.0
  H  H58  1  0.52911000  0.03306000  0.27144000  1.0
  H  H59  1  0.97088000  0.53307000  0.22855000  1.0
  H  H60  1  0.91756000  0.01689000  0.73508000  1.0
  H  H61  1  0.58244000  0.51689000  0.76493000  1.0
  H  H62  1  0.08244000  0.98312000  0.26493000  1.0
  H  H63  1  0.41755000  0.48312000  0.23508000  1.0
  H  H64  1  0.42187000  0.09087000  0.46176000  1.0
  H  H65  1  0.07814000  0.59087000  0.03823000  1.0
  H  H66  1  0.57814000  0.90913000  0.53823000  1.0
  H  H67  1  0.92187000  0.40913000  0.96176000  1.0
  H  H68  1  0.60757000  0.08208000  0.47998000  1.0
  H  H69  1  0.89244000  0.58208000  0.02001000  1.0
  H  H70  1  0.39245000  0.91793000  0.52001000  1.0
  H  H71  1  0.10756000  0.41793000  0.97998000  1.0
  C  C72  1  0.09015000  0.82931000  0.03887000  1.0
  C  C73  1  0.40983000  0.32930000  0.46114000  1.0
  C  C74  1  0.90984000  0.17068000  0.96115000  1.0
  C  C75  1  0.59016000  0.67069000  0.53886000  1.0
  C  C76  1  0.11647000  0.88654000  0.96865000  1.0
  C  C77  1  0.38352000  0.38653000  0.53135000  1.0
  C  C78  1  0.88351000  0.11345000  0.03136000  1.0
  C  C79  1  0.61648000  0.61345000  0.46864000  1.0
  C  C80  1  0.16624000  0.75341000  0.17596000  1.0
  C  C81  1  0.33375000  0.25341000  0.32404000  1.0
  C  C82  1  0.83377000  0.24658000  0.82405000  1.0
  C  C83  1  0.66622000  0.74658000  0.67595000  1.0
  C  C84  1  0.00740000  0.89173000  0.89682000  1.0
  C  C85  1  0.49259000  0.39172000  0.60318000  1.0
  C  C86  1  0.99258000  0.10826000  0.10319000  1.0
  C  C87  1  0.50741000  0.60827000  0.39681000  1.0
  C  C88  1  0.19533000  0.81810000  0.10284000  1.0
  C  C89  1  0.30466000  0.31810000  0.39716000  1.0
  C  C90  1  0.80467000  0.18189000  0.89717000  1.0
  C  C91  1  0.69532000  0.68190000  0.60283000  1.0
  C  C92  1  0.24724000  0.93587000  0.96384000  1.0
  C  C93  1  0.25275000  0.43587000  0.53616000  1.0
  C  C94  1  0.75274000  0.06412000  0.03617000  1.0
  C  C95  1  0.74726000  0.56412000  0.46383000  1.0
  C  C96  1  0.32666000  0.86668000  0.09732000  1.0
  C  C97  1  0.17333000  0.36668000  0.40268000  1.0
  C  C98  1  0.67334000  0.13331000  0.90269000  1.0
  C  C99  1  0.82666000  0.63332000  0.59732000  1.0
  C  C100  1  0.35242000  0.92652000  0.02870000  1.0
  C  C101  1  0.14757000  0.42652000  0.47131000  1.0
  C  C102  1  0.64757000  0.07348000  0.97131000  1.0
  C  C103  1  0.85243000  0.57348000  0.52869000  1.0
  C  C104  1  0.38193000  0.70347000  0.91228000  1.0
  C  C105  1  0.11808000  0.20347000  0.58772000  1.0
  C  C106  1  0.61807000  0.29653000  0.08772000  1.0
  C  C107  1  0.88193000  0.79654000  0.41228000  1.0
  C  C108  1  0.59370000  0.75523000  0.96167000  1.0
  C  C109  1  0.90630000  0.25523000  0.53833000  1.0
  C  C110  1  0.40629000  0.24477000  0.03833000  1.0
  C  C111  1  0.09371000  0.74478000  0.46167000  1.0
  C  C112  1  0.44103000  0.76430000  0.85496000  1.0
  C  C113  1  0.05897000  0.26430000  0.64505000  1.0
  C  C114  1  0.55897000  0.23570000  0.14504000  1.0
  C  C115  1  0.94103000  0.73571000  0.35496000  1.0
  C  C116  1  0.46887000  0.63108000  0.05017000  1.0
  C  C117  1  0.03114000  0.13108000  0.44983000  1.0
  C  C118  1  0.53113000  0.36892000  0.94982000  1.0
  C  C119  1  0.96888000  0.86893000  0.55018000  1.0
  C  C120  1  0.53628000  0.52979000  0.03544000  1.0
  C  C121  1  0.96375000  0.02979000  0.46456000  1.0
  C  C122  1  0.46374000  0.47022000  0.96456000  1.0
  C  C123  1  0.03628000  0.97022000  0.53545000  1.0
  C  C124  1  0.74285000  0.07593000  0.64847000  1.0
  C  C125  1  0.75716000  0.57592000  0.85153000  1.0
  C  C126  1  0.25716000  0.92408000  0.35153000  1.0
  C  C127  1  0.24284000  0.42408000  0.14847000  1.0
  C  C128  1  0.48711000  0.09544000  0.59095000  1.0
  C  C129  1  0.01290000  0.59544000  0.90904000  1.0
  C  C130  1  0.51290000  0.90456000  0.40904000  1.0
  C  C131  1  0.98710000  0.40456000  0.09095000  1.0
  C  C132  1  0.57515000  0.99615000  0.71430000  1.0
  C  C133  1  0.92484000  0.49615000  0.78570000  1.0
  C  C134  1  0.42485000  0.00385000  0.28569000  1.0
  C  C135  1  0.07514000  0.50386000  0.21430000  1.0
  C  C136  1  0.80627000  0.02331000  0.71278000  1.0
  C  C137  1  0.69373000  0.52331000  0.78722000  1.0
  C  C138  1  0.19373000  0.97670000  0.28722000  1.0
  C  C139  1  0.30626000  0.47670000  0.21278000  1.0
  C  C140  1  0.50450000  0.05597000  0.50297000  1.0
  C  C141  1  0.99551000  0.55597000  0.99703000  1.0
  C  C142  1  0.49552000  0.94403000  0.49702000  1.0
  C  C143  1  0.00449000  0.44403000  0.00297000  1.0
  N  N144  1  0.47975000  0.69759000  0.97914000  1.0
  N  N145  1  0.02026000  0.19759000  0.52086000  1.0
  N  N146  1  0.52025000  0.30241000  0.02085000  1.0
  N  N147  1  0.97975000  0.80242000  0.47915000  1.0
  N  N148  1  0.57346000  0.79578000  0.88642000  1.0
  N  N149  1  0.92655000  0.29578000  0.61358000  1.0
  N  N150  1  0.42654000  0.20422000  0.11358000  1.0
  N  N151  1  0.07346000  0.70423000  0.38642000  1.0
  N  N152  1  0.48933000  0.97178000  0.03039000  1.0
  N  N153  1  0.01067000  0.47178000  0.46961000  1.0
  N  N154  1  0.51066000  0.02822000  0.96960000  1.0
  N  N155  1  0.98933000  0.52822000  0.53040000  1.0
  N  N156  1  0.70007000  0.97375000  0.75324000  1.0
  N  N157  1  0.79992000  0.47374000  0.74676000  1.0
  N  N158  1  0.29992000  0.02626000  0.24676000  1.0
  N  N159  1  0.20006000  0.52626000  0.25324000  1.0
  N  N160  1  0.59679000  0.05826000  0.65041000  1.0
  N  N161  1  0.90321000  0.55826000  0.84958000  1.0
  N  N162  1  0.40321000  0.94174000  0.34958000  1.0
  N  N163  1  0.09679000  0.44174000  0.15041000  1.0
  O  O164  1  0.88762000  0.84449000  0.90873000  1.0
  O  O165  1  0.61236000  0.34447000  0.59127000  1.0
  O  O166  1  0.11236000  0.15550000  0.09128000  1.0
  O  O167  1  0.38763000  0.65551000  0.40873000  1.0
  O  O168  1  0.27361000  0.74280000  0.22952000  1.0
  O  O169  1  0.22639000  0.24280000  0.27047000  1.0
  O  O170  1  0.72642000  0.25719000  0.77048000  1.0
  O  O171  1  0.77358000  0.75720000  0.72952000  1.0
  O  O172  1  0.04541000  0.71359000  0.18066000  1.0
  O  O173  1  0.45458000  0.21358000  0.31935000  1.0
  O  O174  1  0.95462000  0.28642000  0.81936000  1.0
  O  O175  1  0.54538000  0.78642000  0.68064000  1.0
  O  O176  1  0.03574000  0.93633000  0.83194000  1.0
  O  O177  1  0.46426000  0.43634000  0.66805000  1.0
  O  O178  1  0.96424000  0.06366000  0.16807000  1.0
  O  O179  1  0.53575000  0.56367000  0.33193000  1.0
