# generated using pymatgen
data_Zn2H20C30N2O9
_symmetry_space_group_name_H-M   'P 1'
_cell_length_a   11.28910000
_cell_length_b   11.64620000
_cell_length_c   12.13320000
_cell_angle_alpha   93.10010000
_cell_angle_beta   107.55800000
_cell_angle_gamma   94.14680000
_symmetry_Int_Tables_number   1
_chemical_formula_structural   Zn2H20C30N2O9
_chemical_formula_sum   'Zn4 H40 C60 N4 O18'
_cell_volume   1512.07540016
_cell_formula_units_Z   2
loop_
 _symmetry_equiv_pos_site_id
 _symmetry_equiv_pos_as_xyz
  1  'x, y, z'
loop_
 _atom_site_type_symbol
 _atom_site_label
 _atom_site_symmetry_multiplicity
 _atom_site_fract_x
 _atom_site_fract_y
 _atom_site_fract_z
 _atom_site_occupancy
  Zn  Zn0  1  0.22638000  0.05158000  0.55393000  1.0
  Zn  Zn1  1  0.77362000  0.94842000  0.44607000  1.0
  Zn  Zn2  1  0.96743000  0.32810000  0.43562000  1.0
  Zn  Zn3  1  0.03257000  0.67190000  0.56438000  1.0
  H  H4  1  0.79493000  0.68897000  0.08354000  1.0
  H  H5  1  0.20507000  0.31102000  0.91646000  1.0
  H  H6  1  0.94214000  0.56223000  0.02724000  1.0
  H  H7  1  0.05786000  0.43776000  0.97277000  1.0
  H  H8  1  0.15788000  0.56042000  0.16325000  1.0
  H  H9  1  0.84213000  0.43958000  0.83677000  1.0
  H  H10  1  0.44726000  0.27562000  0.41586000  1.0
  H  H11  1  0.55273000  0.72438000  0.58413000  1.0
  H  H12  1  0.55537000  0.42630000  0.33374000  1.0
  H  H13  1  0.44463000  0.57371000  0.66626000  1.0
  H  H14  1  0.47275000  0.62016000  0.30643000  1.0
  H  H15  1  0.52725000  0.37985000  0.69357000  1.0
  H  H16  1  0.85683000  0.39140000  0.18942000  1.0
  H  H17  1  0.14316000  0.60860000  0.81058000  1.0
  H  H18  1  0.78642000  0.28581000  0.99159000  1.0
  H  H19  1  0.21359000  0.71419000  0.00841000  1.0
  H  H20  1  0.94237000  0.98623000  0.15336000  1.0
  H  H21  1  0.05763000  0.01377000  0.84664000  1.0
  H  H22  1  0.99834000  0.09918000  0.34128000  1.0
  H  H23  1  0.00167000  0.90083000  0.65872000  1.0
  H  H24  1  0.88331000  0.07680000  0.89096000  1.0
  H  H25  1  0.11669000  0.92319000  0.10904000  1.0
  H  H26  1  0.72899000  0.09264000  0.88569000  1.0
  H  H27  1  0.27101000  0.90735000  0.11432000  1.0
  H  H28  1  0.73166000  0.91065000  0.99771000  1.0
  H  H29  1  0.26834000  0.08935000  0.00229000  1.0
  H  H30  1  0.88067000  0.89172000  0.98521000  1.0
  H  H31  1  0.11934000  0.10828000  0.01479000  1.0
  H  H32  1  0.72366000  0.76833000  0.83531000  1.0
  H  H33  1  0.27634000  0.23166000  0.16469000  1.0
  H  H34  1  0.79805000  0.87275000  0.77099000  1.0
  H  H35  1  0.20195000  0.12725000  0.22901000  1.0
  H  H36  1  0.68895000  0.02798000  0.66956000  1.0
  H  H37  1  0.31105000  0.97202000  0.33044000  1.0
  H  H38  1  0.48474000  0.10058000  0.57405000  1.0
  H  H39  1  0.51526000  0.89942000  0.42595000  1.0
  H  H40  1  0.29674000  0.86114000  0.71680000  1.0
  H  H41  1  0.70326000  0.13886000  0.28320000  1.0
  H  H42  1  0.49600000  0.78480000  0.82800000  1.0
  H  H43  1  0.50401000  0.21520000  0.17199000  1.0
  C  C44  1  0.13810000  0.69710000  0.28096000  1.0
  C  C45  1  0.86190000  0.30291000  0.71905000  1.0
  C  C46  1  0.05738000  0.77421000  0.30739000  1.0
  C  C47  1  0.94261000  0.22579000  0.69262000  1.0
  C  C48  1  0.93261000  0.76742000  0.23592000  1.0
  C  C49  1  0.06738000  0.23257000  0.76408000  1.0
  C  C50  1  0.89262000  0.69136000  0.13560000  1.0
  C  C51  1  0.10738000  0.30863000  0.86440000  1.0
  C  C52  1  0.97387000  0.62004000  0.10621000  1.0
  C  C53  1  0.02613000  0.37995000  0.89380000  1.0
  C  C54  1  0.09481000  0.62047000  0.18095000  1.0
  C  C55  1  0.90519000  0.37953000  0.81906000  1.0
  C  C56  1  0.26915000  0.69106000  0.35705000  1.0
  C  C57  1  0.73085000  0.30895000  0.64295000  1.0
  C  C58  1  0.31596000  0.57312000  0.36647000  1.0
  C  C59  1  0.68404000  0.42689000  0.63353000  1.0
  C  C60  1  0.25363000  0.48677000  0.41114000  1.0
  C  C61  1  0.74637000  0.51323000  0.58886000  1.0
  C  C62  1  0.30072000  0.37843000  0.42786000  1.0
  C  C63  1  0.69928000  0.62158000  0.57214000  1.0
  C  C64  1  0.40906000  0.35825000  0.39853000  1.0
  C  C65  1  0.59094000  0.64175000  0.60146000  1.0
  C  C66  1  0.46969000  0.44317000  0.35311000  1.0
  C  C67  1  0.53030000  0.55684000  0.64689000  1.0
  C  C68  1  0.42394000  0.55134000  0.33812000  1.0
  C  C69  1  0.57605000  0.44867000  0.66188000  1.0
  C  C70  1  0.10369000  0.85743000  0.41468000  1.0
  C  C71  1  0.89630000  0.14257000  0.58532000  1.0
  C  C72  1  0.83577000  0.83360000  0.26814000  1.0
  C  C73  1  0.16422000  0.16640000  0.73185000  1.0
  C  C74  1  0.14437000  0.52248000  0.44725000  1.0
  C  C75  1  0.85563000  0.47753000  0.55274000  1.0
  C  C76  1  0.24159000  0.28560000  0.48108000  1.0
  C  C77  1  0.75841000  0.71440000  0.51891000  1.0
  C  C78  1  0.87255000  0.30106000  0.17610000  1.0
  C  C79  1  0.12745000  0.69894000  0.82390000  1.0
  C  C80  1  0.83518000  0.24197000  0.06702000  1.0
  C  C81  1  0.16482000  0.75803000  0.93298000  1.0
  C  C82  1  0.85846000  0.12579000  0.05438000  1.0
  C  C83  1  0.14155000  0.87420000  0.94562000  1.0
  C  C84  1  0.92133000  0.07579000  0.15527000  1.0
  C  C85  1  0.07867000  0.92421000  0.84473000  1.0
  C  C86  1  0.95421000  0.13910000  0.26200000  1.0
  C  C87  1  0.04579000  0.86090000  0.73801000  1.0
  C  C88  1  0.81479000  0.05838000  0.93776000  1.0
  C  C89  1  0.18521000  0.94162000  0.06224000  1.0
  C  C90  1  0.79221000  0.92774000  0.94307000  1.0
  C  C91  1  0.20779000  0.07226000  0.05693000  1.0
  C  C92  1  0.73432000  0.86101000  0.82332000  1.0
  C  C93  1  0.26568000  0.13899000  0.17668000  1.0
  C  C94  1  0.61049000  0.90057000  0.75869000  1.0
  C  C95  1  0.38951000  0.09943000  0.24131000  1.0
  C  C96  1  0.60508000  0.98969000  0.68504000  1.0
  C  C97  1  0.39493000  0.01031000  0.31496000  1.0
  C  C98  1  0.49108000  0.02948000  0.62952000  1.0
  C  C99  1  0.50892000  0.97052000  0.37048000  1.0
  C  C100  1  0.38648000  0.89662000  0.71116000  1.0
  C  C101  1  0.61352000  0.10338000  0.28884000  1.0
  C  C102  1  0.49771000  0.85447000  0.77183000  1.0
  C  C103  1  0.50229000  0.14553000  0.22817000  1.0
  N  N104  1  0.92954000  0.24970000  0.27261000  1.0
  N  N105  1  0.07046000  0.75030000  0.72740000  1.0
  N  N106  1  0.38326000  0.98313000  0.64128000  1.0
  N  N107  1  0.61674000  0.01687000  0.35872000  1.0
  O  O108  1  0.10505000  0.82419000  0.51251000  1.0
  O  O109  1  0.89494000  0.17582000  0.48749000  1.0
  O  O110  1  0.14775000  0.95833000  0.40151000  1.0
  O  O111  1  0.85225000  0.04167000  0.59849000  1.0
  O  O112  1  0.88269000  0.90985000  0.35612000  1.0
  O  O113  1  0.11730000  0.09015000  0.64388000  1.0
  O  O114  1  0.72337000  0.81159000  0.21329000  1.0
  O  O115  1  0.27663000  0.18841000  0.78670000  1.0
  O  O116  1  0.33686000  0.77690000  0.40935000  1.0
  O  O117  1  0.66313000  0.22310000  0.59065000  1.0
  O  O118  1  0.03358000  0.48856000  0.38704000  1.0
  O  O119  1  0.96642000  0.51144000  0.61296000  1.0
  O  O120  1  0.17494000  0.59642000  0.53517000  1.0
  O  O121  1  0.82506000  0.40358000  0.46483000  1.0
  O  O122  1  0.14793000  0.30439000  0.51478000  1.0
  O  O123  1  0.85206000  0.69561000  0.48521000  1.0
  O  O124  1  0.29232000  0.19044000  0.49132000  1.0
  O  O125  1  0.70767000  0.80955000  0.50866000  1.0
