# generated using pymatgen
data_Zn2H22C17N12
_symmetry_space_group_name_H-M   'P 1'
_cell_length_a   10.79270000
_cell_length_b   12.23960000
_cell_length_c   16.86130000
_cell_angle_alpha   89.99990000
_cell_angle_beta   95.23820000
_cell_angle_gamma   90.00000000
_symmetry_Int_Tables_number   1
_chemical_formula_structural   Zn2H22C17N12
_chemical_formula_sum   'Zn8 H88 C68 N48'
_cell_volume   2218.04762090
_cell_formula_units_Z   4
loop_
 _symmetry_equiv_pos_site_id
 _symmetry_equiv_pos_as_xyz
  1  'x, y, z'
loop_
 _atom_site_type_symbol
 _atom_site_label
 _atom_site_symmetry_multiplicity
 _atom_site_fract_x
 _atom_site_fract_y
 _atom_site_fract_z
 _atom_site_occupancy
  Zn  Zn0  1  0.72666000  0.73671000  0.59885000  1.0
  Zn  Zn1  1  0.77334000  0.23671000  0.90115000  1.0
  Zn  Zn2  1  0.27334000  0.26329000  0.40115000  1.0
  Zn  Zn3  1  0.22666000  0.76329000  0.09885000  1.0
  Zn  Zn4  1  0.20855000  0.74749000  0.46030000  1.0
  Zn  Zn5  1  0.29145000  0.24749000  0.03970000  1.0
  Zn  Zn6  1  0.79145000  0.25251000  0.53970000  1.0
  Zn  Zn7  1  0.70855000  0.75251000  0.96030000  1.0
  H  H8  1  0.00058000  0.68198000  0.29059000  1.0
  H  H9  1  0.49942000  0.18198000  0.20941000  1.0
  H  H10  1  0.99942000  0.31802000  0.70941000  1.0
  H  H11  1  0.50058000  0.81802000  0.79059000  1.0
  H  H12  1  0.11866000  0.58051000  0.30072000  1.0
  H  H13  1  0.38134000  0.08051000  0.19928000  1.0
  H  H14  1  0.88134000  0.41949000  0.69928000  1.0
  H  H15  1  0.61866000  0.91949000  0.80072000  1.0
  H  H16  1  0.06769000  0.63276000  0.20530000  1.0
  H  H17  1  0.43231000  0.13276000  0.29470000  1.0
  H  H18  1  0.93231000  0.36724000  0.79470000  1.0
  H  H19  1  0.56769000  0.86724000  0.70530000  1.0
  H  H20  1  0.47967000  0.95796000  0.35372000  1.0
  H  H21  1  0.02033000  0.45796000  0.14628000  1.0
  H  H22  1  0.52033000  0.04204000  0.64628000  1.0
  H  H23  1  0.97967000  0.54204000  0.85372000  1.0
  H  H24  1  0.34745000  0.99775000  0.40188000  1.0
  H  H25  1  0.15256000  0.49776000  0.09812000  1.0
  H  H26  1  0.65256000  0.00224000  0.59812000  1.0
  H  H27  1  0.84744000  0.50224000  0.90188000  1.0
  H  H28  1  0.48737000  0.67275000  0.66877000  1.0
  H  H29  1  0.01263000  0.17275000  0.83124000  1.0
  H  H30  1  0.51263000  0.32725000  0.33123000  1.0
  H  H31  1  0.98736000  0.82725000  0.16877000  1.0
  H  H32  1  0.35579000  0.62909000  0.60498000  1.0
  H  H33  1  0.14421000  0.12908000  0.89502000  1.0
  H  H34  1  0.64421000  0.37091000  0.39502000  1.0
  H  H35  1  0.85579000  0.87091000  0.10498000  1.0
  H  H36  1  0.34493000  0.74728000  0.66355000  1.0
  H  H37  1  0.15507000  0.24728000  0.83645000  1.0
  H  H38  1  0.65507000  0.25272000  0.33645000  1.0
  H  H39  1  0.84493000  0.75272000  0.16355000  1.0
  H  H40  1  0.88788000  0.90623000  0.70922000  1.0
  H  H41  1  0.61212000  0.40623000  0.79077000  1.0
  H  H42  1  0.11212000  0.09377000  0.29078000  1.0
  H  H43  1  0.38788000  0.59377000  0.20922000  1.0
  H  H44  1  0.87850000  0.01891000  0.64240000  1.0
  H  H45  1  0.62150000  0.51891000  0.85760000  1.0
  H  H46  1  0.12150000  0.98109000  0.35760000  1.0
  H  H47  1  0.37850000  0.48109000  0.14240000  1.0
  H  H48  1  0.02394000  0.98436000  0.69418000  1.0
  H  H49  1  0.47606000  0.48436000  0.80582000  1.0
  H  H50  1  0.97606000  0.01564000  0.30582000  1.0
  H  H51  1  0.52394000  0.51564000  0.19418000  1.0
  H  H52  1  0.82787000  0.70344000  0.40705000  1.0
  H  H53  1  0.67213000  0.20344000  0.09295000  1.0
  H  H54  1  0.17213000  0.29656000  0.59295000  1.0
  H  H55  1  0.32787000  0.79656000  0.90705000  1.0
  H  H56  1  0.97049000  0.63034000  0.42139000  1.0
  H  H57  1  0.52951000  0.13034000  0.07862000  1.0
  H  H58  1  0.02951000  0.36966000  0.57862000  1.0
  H  H59  1  0.47049000  0.86966000  0.92138000  1.0
  H  H60  1  0.63828000  0.50390000  0.67811000  1.0
  H  H61  1  0.86172000  0.00390000  0.82189000  1.0
  H  H62  1  0.36172000  0.49610000  0.32189000  1.0
  H  H63  1  0.13828000  0.99610000  0.17811000  1.0
  H  H64  1  0.61250000  0.37422000  0.63125000  1.0
  H  H65  1  0.88750000  0.87422000  0.86875000  1.0
  H  H66  1  0.38750000  0.62578000  0.36875000  1.0
  H  H67  1  0.11250000  0.12578000  0.13125000  1.0
  H  H68  1  0.52427000  0.48956000  0.59597000  1.0
  H  H69  1  0.97573000  0.98957000  0.90403000  1.0
  H  H70  1  0.47573000  0.51044000  0.40403000  1.0
  H  H71  1  0.02427000  0.01043000  0.09597000  1.0
  H  H72  1  0.60407000  0.79963000  0.21217000  1.0
  H  H73  1  0.89593000  0.29963000  0.28783000  1.0
  H  H74  1  0.39593000  0.20037000  0.78783000  1.0
  H  H75  1  0.10407000  0.70037000  0.71217000  1.0
  H  H76  1  0.58184000  0.76467000  0.31257000  1.0
  H  H77  1  0.91816000  0.26467000  0.18743000  1.0
  H  H78  1  0.41816000  0.23534000  0.68742000  1.0
  H  H79  1  0.08184000  0.73534000  0.81258000  1.0
  H  H80  1  0.72223000  0.72977000  0.27344000  1.0
  H  H81  1  0.77777000  0.22978000  0.22656000  1.0
  H  H82  1  0.27777000  0.27023000  0.72656000  1.0
  H  H83  1  0.22223000  0.77023000  0.77344000  1.0
  H  H84  1  0.74580000  0.90326000  0.36344000  1.0
  H  H85  1  0.75420000  0.40326000  0.13657000  1.0
  H  H86  1  0.25420000  0.09674000  0.63656000  1.0
  H  H87  1  0.24580000  0.59674000  0.86344000  1.0
  H  H88  1  0.66636000  0.99355000  0.19582000  1.0
  H  H89  1  0.83364000  0.49356000  0.30418000  1.0
  H  H90  1  0.33364000  0.00645000  0.80418000  1.0
  H  H91  1  0.16636000  0.50645000  0.69582000  1.0
  H  H92  1  0.74871000  0.06603000  0.28337000  1.0
  H  H93  1  0.75129000  0.56603000  0.21664000  1.0
  H  H94  1  0.25129000  0.93397000  0.71664000  1.0
  H  H95  1  0.24871000  0.43397000  0.78337000  1.0
  C  C96  1  0.08780000  0.65483000  0.26804000  1.0
  C  C97  1  0.41219000  0.15483000  0.23196000  1.0
  C  C98  1  0.91219000  0.34517000  0.73196000  1.0
  C  C99  1  0.58781000  0.84517000  0.76804000  1.0
  C  C100  1  0.18395000  0.74201000  0.27647000  1.0
  C  C101  1  0.31605000  0.24202000  0.22353000  1.0
  C  C102  1  0.81605000  0.25799000  0.72353000  1.0
  C  C103  1  0.68395000  0.75799000  0.77647000  1.0
  C  C104  1  0.32033000  0.85869000  0.32510000  1.0
  C  C105  1  0.17967000  0.35869000  0.17490000  1.0
  C  C106  1  0.67967000  0.14131000  0.67490000  1.0
  C  C107  1  0.82033000  0.64131000  0.82510000  1.0
  C  C108  1  0.40052000  0.92661000  0.38326000  1.0
  C  C109  1  0.09949000  0.42662000  0.11674000  1.0
  C  C110  1  0.59949000  0.07338000  0.61674000  1.0
  C  C111  1  0.90051000  0.57338000  0.88326000  1.0
  C  C112  1  0.44830000  0.86603000  0.45675000  1.0
  C  C113  1  0.05171000  0.36604000  0.04325000  1.0
  C  C114  1  0.55171000  0.13396000  0.54325000  1.0
  C  C115  1  0.94829000  0.63396000  0.95675000  1.0
  C  C116  1  0.44959000  0.76898000  0.56327000  1.0
  C  C117  1  0.05042000  0.26898000  0.93672000  1.0
  C  C118  1  0.55041000  0.23102000  0.43672000  1.0
  C  C119  1  0.94959000  0.73102000  0.06328000  1.0
  C  C120  1  0.40810000  0.70066000  0.62879000  1.0
  C  C121  1  0.09190000  0.20066000  0.87121000  1.0
  C  C122  1  0.59190000  0.29933000  0.37121000  1.0
  C  C123  1  0.90810000  0.79933000  0.12879000  1.0
  C  C124  1  0.93737000  0.95045000  0.66510000  1.0
  C  C125  1  0.56264000  0.45045000  0.83491000  1.0
  C  C126  1  0.06264000  0.04955000  0.33490000  1.0
  C  C127  1  0.43736000  0.54955000  0.16509000  1.0
  C  C128  1  0.96579000  0.87642000  0.59943000  1.0
  C  C129  1  0.53421000  0.37642000  0.90057000  1.0
  C  C130  1  0.03421000  0.12358000  0.40057000  1.0
  C  C131  1  0.46579000  0.62358000  0.09943000  1.0
  C  C132  1  0.94632000  0.75313000  0.50817000  1.0
  C  C133  1  0.55368000  0.25313000  0.99183000  1.0
  C  C134  1  0.05368000  0.24687000  0.49184000  1.0
  C  C135  1  0.44632000  0.74687000  0.00817000  1.0
  C  C136  1  0.89510000  0.66579000  0.45231000  1.0
  C  C137  1  0.60490000  0.16578000  0.04769000  1.0
  C  C138  1  0.10490000  0.33421000  0.54769000  1.0
  C  C139  1  0.39510000  0.83421000  0.95231000  1.0
  C  C140  1  0.83242000  0.57453000  0.49211000  1.0
  C  C141  1  0.66758000  0.07453000  0.00789000  1.0
  C  C142  1  0.16758000  0.42547000  0.50789000  1.0
  C  C143  1  0.33242000  0.92547000  0.99211000  1.0
  C  C144  1  0.71254000  0.48848000  0.56565000  1.0
  C  C145  1  0.78746000  0.98848000  0.93435000  1.0
  C  C146  1  0.28746000  0.51152000  0.43435000  1.0
  C  C147  1  0.21254000  0.01152000  0.06565000  1.0
  C  C148  1  0.61686000  0.46237000  0.62081000  1.0
  C  C149  1  0.88314000  0.96237000  0.87919000  1.0
  C  C150  1  0.38314000  0.53763000  0.37919000  1.0
  C  C151  1  0.11686000  0.03763000  0.12081000  1.0
  C  C152  1  0.65026000  0.79379000  0.27280000  1.0
  C  C153  1  0.84974000  0.29379000  0.22721000  1.0
  C  C154  1  0.34974000  0.20621000  0.72720000  1.0
  C  C155  1  0.15026000  0.70621000  0.77280000  1.0
  C  C156  1  0.70533000  0.90044000  0.30147000  1.0
  C  C157  1  0.79467000  0.40044000  0.19853000  1.0
  C  C158  1  0.29467000  0.09956000  0.69853000  1.0
  C  C159  1  0.20533000  0.59956000  0.80147000  1.0
  C  C160  1  0.70660000  0.99153000  0.25771000  1.0
  C  C161  1  0.79340000  0.49154000  0.24230000  1.0
  C  C162  1  0.29340000  0.00847000  0.74229000  1.0
  C  C163  1  0.20660000  0.50847000  0.75771000  1.0
  N  N164  1  0.88331000  0.80140000  0.56448000  1.0
  N  N165  1  0.61669000  0.30140000  0.93552000  1.0
  N  N166  1  0.11669000  0.19860000  0.43552000  1.0
  N  N167  1  0.38330000  0.69860000  0.06448000  1.0
  N  N168  1  0.07336000  0.87564000  0.56714000  1.0
  N  N169  1  0.42664000  0.37564000  0.93286000  1.0
  N  N170  1  0.92664000  0.12436000  0.43286000  1.0
  N  N171  1  0.57336000  0.62436000  0.06714000  1.0
  N  N172  1  0.06003000  0.79668000  0.50869000  1.0
  N  N173  1  0.43997000  0.29668000  0.99131000  1.0
  N  N174  1  0.93997000  0.20332000  0.49131000  1.0
  N  N175  1  0.56003000  0.70332000  0.00869000  1.0
  N  N176  1  0.74581000  0.59062000  0.54541000  1.0
  N  N177  1  0.75419000  0.09062000  0.95459000  1.0
  N  N178  1  0.25419000  0.40938000  0.45459000  1.0
  N  N179  1  0.24581000  0.90938000  0.04541000  1.0
  N  N180  1  0.85305000  0.46957000  0.47905000  1.0
  N  N181  1  0.64695000  0.96957000  0.02095000  1.0
  N  N182  1  0.14695000  0.53043000  0.52095000  1.0
  N  N183  1  0.35304000  0.03043000  0.97905000  1.0
  N  N184  1  0.77646000  0.41483000  0.52678000  1.0
  N  N185  1  0.72353000  0.91483000  0.97322000  1.0
  N  N186  1  0.22353000  0.58518000  0.47322000  1.0
  N  N187  1  0.27646000  0.08517000  0.02678000  1.0
  N  N188  1  0.56671000  0.80046000  0.55440000  1.0
  N  N189  1  0.93330000  0.30046000  0.94560000  1.0
  N  N190  1  0.43330000  0.19953000  0.44560000  1.0
  N  N191  1  0.06670000  0.69953000  0.05440000  1.0
  N  N192  1  0.56661000  0.86242000  0.48586000  1.0
  N  N193  1  0.93339000  0.36243000  0.01413000  1.0
  N  N194  1  0.43339000  0.13757000  0.51413000  1.0
  N  N195  1  0.06661000  0.63757000  0.98587000  1.0
  N  N196  1  0.37226000  0.80925000  0.50278000  1.0
  N  N197  1  0.12775000  0.30926000  0.99722000  1.0
  N  N198  1  0.62775000  0.19074000  0.49722000  1.0
  N  N199  1  0.87225000  0.69074000  0.00278000  1.0
  N  N200  1  0.23175000  0.78634000  0.34631000  1.0
  N  N201  1  0.26825000  0.28634000  0.15369000  1.0
  N  N202  1  0.76825000  0.21366000  0.65369000  1.0
  N  N203  1  0.73175000  0.71366000  0.84631000  1.0
  N  N204  1  0.32680000  0.86142000  0.24692000  1.0
  N  N205  1  0.17320000  0.36142000  0.25308000  1.0
  N  N206  1  0.67320000  0.13858000  0.75307000  1.0
  N  N207  1  0.82680000  0.63858000  0.74693000  1.0
  N  N208  1  0.23938000  0.78674000  0.21622000  1.0
  N  N209  1  0.26062000  0.28674000  0.28378000  1.0
  N  N210  1  0.76062000  0.21326000  0.78378000  1.0
  N  N211  1  0.73938000  0.71326000  0.71622000  1.0
