# generated using pymatgen
data_CuH4C6(N2Cl)2
_symmetry_space_group_name_H-M   'P 1'
_cell_length_a   7.68612000
_cell_length_b   8.82881663
_cell_length_c   8.82881663
_cell_angle_alpha   62.19631542
_cell_angle_beta   64.20763158
_cell_angle_gamma   64.20763158
_symmetry_Int_Tables_number   1
_chemical_formula_structural   CuH4C6(N2Cl)2
_chemical_formula_sum   'Cu2 H8 C12 N8 Cl4'
_cell_volume   456.43284528
_cell_formula_units_Z   2
loop_
 _symmetry_equiv_pos_site_id
 _symmetry_equiv_pos_as_xyz
  1  'x, y, z'
loop_
 _atom_site_type_symbol
 _atom_site_label
 _atom_site_symmetry_multiplicity
 _atom_site_fract_x
 _atom_site_fract_y
 _atom_site_fract_z
 _atom_site_occupancy
  Cu  Cu0  1  0.25000000  0.49998000  0.50002000  1.0
  Cu  Cu1  1  0.75000000  0.50002000  0.49998000  1.0
  H  H2  1  0.40244000  0.66358000  0.09597000  1.0
  H  H3  1  0.16215000  0.33621000  0.90406000  1.0
  H  H4  1  0.09755000  0.90403000  0.33642000  1.0
  H  H5  1  0.33785000  0.09594000  0.66379000  1.0
  H  H6  1  0.59755000  0.33642000  0.90404000  1.0
  H  H7  1  0.83785000  0.66379000  0.09594000  1.0
  H  H8  1  0.90244000  0.09597000  0.66358000  1.0
  H  H9  1  0.66215000  0.90406000  0.33620000  1.0
  C  C10  1  0.25400000  0.65320000  0.12861000  1.0
  C  C11  1  0.03592000  0.34668000  0.87144000  1.0
  C  C12  1  0.24600000  0.87139000  0.34680000  1.0
  C  C13  1  0.46408000  0.12856000  0.65332000  1.0
  C  C14  1  0.74601000  0.34680000  0.87139000  1.0
  C  C15  1  0.96408000  0.65332000  0.12856000  1.0
  C  C16  1  0.75400000  0.12861000  0.65320000  1.0
  C  C17  1  0.53592000  0.87144000  0.34668000  1.0
  C  C18  1  0.14799000  0.68814000  0.01582000  1.0
  C  C19  1  0.85202000  0.31186000  0.98418000  1.0
  C  C20  1  0.35201000  0.98418000  0.31186000  1.0
  C  C21  1  0.64798000  0.01582000  0.68814000  1.0
  N  N22  1  0.13816000  0.59872000  0.30000000  1.0
  N  N23  1  0.03695000  0.40121000  0.70001000  1.0
  N  N24  1  0.36184000  0.70000000  0.40128000  1.0
  N  N25  1  0.46305000  0.29999000  0.59879000  1.0
  N  N26  1  0.86184000  0.40128000  0.70000000  1.0
  N  N27  1  0.96306000  0.59879000  0.29999000  1.0
  N  N28  1  0.63816000  0.30000000  0.59872000  1.0
  N  N29  1  0.53694000  0.70001000  0.40121000  1.0
  Cl  Cl30  1  0.22773000  0.75741000  0.78707000  1.0
  Cl  Cl31  1  0.77227000  0.24259000  0.21293000  1.0
  Cl  Cl32  1  0.27227000  0.21293000  0.24259000  1.0
  Cl  Cl33  1  0.72773000  0.78707000  0.75741000  1.0
