# generated using pymatgen
data_ZnH13C18N3O7
_symmetry_space_group_name_H-M   'P 1'
_cell_length_a   8.56865000
_cell_length_b   9.06459000
_cell_length_c   11.98860000
_cell_angle_alpha   84.25890000
_cell_angle_beta   77.33690000
_cell_angle_gamma   74.79730000
_symmetry_Int_Tables_number   1
_chemical_formula_structural   ZnH13C18N3O7
_chemical_formula_sum   'Zn2 H26 C36 N6 O14'
_cell_volume   875.83021706
_cell_formula_units_Z   2
loop_
 _symmetry_equiv_pos_site_id
 _symmetry_equiv_pos_as_xyz
  1  'x, y, z'
loop_
 _atom_site_type_symbol
 _atom_site_label
 _atom_site_symmetry_multiplicity
 _atom_site_fract_x
 _atom_site_fract_y
 _atom_site_fract_z
 _atom_site_occupancy
  Zn  Zn0  1  0.10141000  0.50737000  0.27841000  1.0
  Zn  Zn1  1  0.89859000  0.49264000  0.72159000  1.0
  H  H2  1  0.84452000  0.48257000  0.43988000  1.0
  H  H3  1  0.15548000  0.51744000  0.56012000  1.0
  H  H4  1  0.97805000  0.33076000  0.46304000  1.0
  H  H5  1  0.02195000  0.66924000  0.53696000  1.0
  H  H6  1  0.63353000  0.84532000  0.28582000  1.0
  H  H7  1  0.36646000  0.15468000  0.71418000  1.0
  H  H8  1  0.90001000  0.06826000  0.45252000  1.0
  H  H9  1  0.09999000  0.93173000  0.54748000  1.0
  H  H10  1  0.66246000  0.29667000  0.47669000  1.0
  H  H11  1  0.33754000  0.70333000  0.52331000  1.0
  H  H12  1  0.26751000  0.78509000  0.20433000  1.0
  H  H13  1  0.73250000  0.21491000  0.79567000  1.0
  H  H14  1  0.41588000  0.89183000  0.02284000  1.0
  H  H15  1  0.58413000  0.10816000  0.97717000  1.0
  H  H16  1  0.46240000  0.75374000  0.84087000  1.0
  H  H17  1  0.53760000  0.24626000  0.15914000  1.0
  H  H18  1  0.35342000  0.52718000  0.84575000  1.0
  H  H19  1  0.64658000  0.47283000  0.15424000  1.0
  H  H20  1  0.26186000  0.33370000  0.86438000  1.0
  H  H21  1  0.73814000  0.66630000  0.13562000  1.0
  H  H22  1  0.14786000  0.10791000  0.89918000  1.0
  H  H23  1  0.85215000  0.89208000  0.10082000  1.0
  H  H24  1  0.99830000  0.04879000  0.09964000  1.0
  H  H25  1  0.00171000  0.95120000  0.90036000  1.0
  H  H26  1  0.96925000  0.22929000  0.25307000  1.0
  H  H27  1  0.03076000  0.77071000  0.74693000  1.0
  C  C28  1  0.51232000  0.20182000  0.39618000  1.0
  C  C29  1  0.48767000  0.79818000  0.60382000  1.0
  C  C30  1  0.51003000  0.07328000  0.34074000  1.0
  C  C31  1  0.48996000  0.92673000  0.65926000  1.0
  C  C32  1  0.64256000  0.94500000  0.32506000  1.0
  C  C33  1  0.35743000  0.05500000  0.67494000  1.0
  C  C34  1  0.78406000  0.94203000  0.36560000  1.0
  C  C35  1  0.21593000  0.05797000  0.63440000  1.0
  C  C36  1  0.79039000  0.06967000  0.42011000  1.0
  C  C37  1  0.20961000  0.93033000  0.57988000  1.0
  C  C38  1  0.65631000  0.19741000  0.43498000  1.0
  C  C39  1  0.34369000  0.80258000  0.56502000  1.0
  C  C40  1  0.37183000  0.34438000  0.40992000  1.0
  C  C41  1  0.62817000  0.65562000  0.59008000  1.0
  C  C42  1  0.92367000  0.80009000  0.35395000  1.0
  C  C43  1  0.07632000  0.19991000  0.64604000  1.0
  C  C44  1  0.28939000  0.73123000  0.12297000  1.0
  C  C45  1  0.71062000  0.26876000  0.87703000  1.0
  C  C46  1  0.37164000  0.79004000  0.02184000  1.0
  C  C47  1  0.62837000  0.20996000  0.97817000  1.0
  C  C48  1  0.39560000  0.71467000  0.92135000  1.0
  C  C49  1  0.60441000  0.28533000  0.07866000  1.0
  C  C50  1  0.33518000  0.58580000  0.92418000  1.0
  C  C51  1  0.66482000  0.41420000  0.07582000  1.0
  C  C52  1  0.25310000  0.53385000  0.02877000  1.0
  C  C53  1  0.74690000  0.46615000  0.97123000  1.0
  C  C54  1  0.18297000  0.39860000  0.04121000  1.0
  C  C55  1  0.81704000  0.60140000  0.95879000  1.0
  C  C56  1  0.19973000  0.30676000  0.95031000  1.0
  C  C57  1  0.80027000  0.69324000  0.04969000  1.0
  C  C58  1  0.13342000  0.17959000  0.97019000  1.0
  C  C59  1  0.86659000  0.82040000  0.02981000  1.0
  C  C60  1  0.05022000  0.14795000  0.07977000  1.0
  C  C61  1  0.94978000  0.85204000  0.92023000  1.0
  C  C62  1  0.03442000  0.24639000  0.16589000  1.0
  C  C63  1  0.96558000  0.75361000  0.83411000  1.0
  N  N64  1  0.23317000  0.60616000  0.12578000  1.0
  N  N65  1  0.76684000  0.39383000  0.87422000  1.0
  N  N66  1  0.09981000  0.36779000  0.14701000  1.0
  N  N67  1  0.90020000  0.63221000  0.85299000  1.0
  N  N68  1  0.36423000  0.06628000  0.29875000  1.0
  N  N69  1  0.63576000  0.93372000  0.70125000  1.0
  O  O70  1  0.32173000  0.39899000  0.31744000  1.0
  O  O71  1  0.67827000  0.60101000  0.68256000  1.0
  O  O72  1  0.94679000  0.40721000  0.40140000  1.0
  O  O73  1  0.05321000  0.59279000  0.59860000  1.0
  O  O74  1  0.32293000  0.39627000  0.50787000  1.0
  O  O75  1  0.67707000  0.60373000  0.49213000  1.0
  O  O76  1  0.03473000  0.78273000  0.41119000  1.0
  O  O77  1  0.96525000  0.21725000  0.58881000  1.0
  O  O78  1  0.91927000  0.70336000  0.28384000  1.0
  O  O79  1  0.08073000  0.29664000  0.71615000  1.0
  O  O80  1  0.22612000  0.11714000  0.35779000  1.0
  O  O81  1  0.77387000  0.88287000  0.64221000  1.0
  O  O82  1  0.38929000  0.00642000  0.20498000  1.0
  O  O83  1  0.61070000  0.99359000  0.79502000  1.0
