# generated using pymatgen
data_MnH16C12(N2O3)2
_symmetry_space_group_name_H-M   'P 1'
_cell_length_a   5.21606000
_cell_length_b   8.81488000
_cell_length_c   15.51930000
_cell_angle_alpha   87.65560000
_cell_angle_beta   89.99990000
_cell_angle_gamma   89.99960000
_symmetry_Int_Tables_number   1
_chemical_formula_structural   MnH16C12(N2O3)2
_chemical_formula_sum   'Mn2 H32 C24 N8 O12'
_cell_volume   712.96375619
_cell_formula_units_Z   2
loop_
 _symmetry_equiv_pos_site_id
 _symmetry_equiv_pos_as_xyz
  1  'x, y, z'
loop_
 _atom_site_type_symbol
 _atom_site_label
 _atom_site_symmetry_multiplicity
 _atom_site_fract_x
 _atom_site_fract_y
 _atom_site_fract_z
 _atom_site_occupancy
  Mn  Mn0  1  0.98810000  0.01977000  0.79102000  1.0
  Mn  Mn1  1  0.01191000  0.51976000  0.29102000  1.0
  H  H2  1  0.54947000  0.92218000  0.87775000  1.0
  H  H3  1  0.45054000  0.42218000  0.37775000  1.0
  H  H4  1  0.80634000  0.90087000  0.93037000  1.0
  H  H5  1  0.19367000  0.40088000  0.43037000  1.0
  H  H6  1  0.42405000  0.19472000  0.78619000  1.0
  H  H7  1  0.57595000  0.69470000  0.28619000  1.0
  H  H8  1  0.16640000  0.28673000  0.79670000  1.0
  H  H9  1  0.83360000  0.78671000  0.29671000  1.0
  H  H10  1  0.03171000  0.66038000  0.81023000  1.0
  H  H11  1  0.96829000  0.16037000  0.31023000  1.0
  H  H12  1  0.37683000  0.47259000  0.72936000  1.0
  H  H13  1  0.62316000  0.97259000  0.22936000  1.0
  H  H14  1  0.84271000  0.73087000  0.60479000  1.0
  H  H15  1  0.15728000  0.23087000  0.10480000  1.0
  H  H16  1  0.83563000  0.55123000  0.65897000  1.0
  H  H17  1  0.16438000  0.05123000  0.15897000  1.0
  H  H18  1  0.49436000  0.64291000  0.50266000  1.0
  H  H19  1  0.50561000  0.14291000  0.00265000  1.0
  H  H20  1  0.48222000  0.46848000  0.55987000  1.0
  H  H21  1  0.51779000  0.96848000  0.05987000  1.0
  H  H22  1  0.95806000  0.24055000  0.62019000  1.0
  H  H23  1  0.04193000  0.74055000  0.12019000  1.0
  H  H24  1  0.62054000  0.21350000  0.48236000  1.0
  H  H25  1  0.37945000  0.71350000  0.98236000  1.0
  H  H26  1  0.13433000  0.04721000  0.49599000  1.0
  H  H27  1  0.86567000  0.54722000  0.99600000  1.0
  H  H28  1  0.20639000  0.86432000  0.54080000  1.0
  H  H29  1  0.79362000  0.36433000  0.04080000  1.0
  H  H30  1  0.57723000  0.85246000  0.42925000  1.0
  H  H31  1  0.42279000  0.35247000  0.92925000  1.0
  H  H32  1  0.45709000  0.02356000  0.38222000  1.0
  H  H33  1  0.54292000  0.52357000  0.88222000  1.0
  C  C34  1  0.43329000  0.83376000  0.68404000  1.0
  C  C35  1  0.56671000  0.33375000  0.18404000  1.0
  C  C36  1  0.18379000  0.68961000  0.76496000  1.0
  C  C37  1  0.81621000  0.18960000  0.26495000  1.0
  C  C38  1  0.35648000  0.59508000  0.72696000  1.0
  C  C39  1  0.64352000  0.09508000  0.22696000  1.0
  C  C40  1  0.71891000  0.63334000  0.62136000  1.0
  C  C41  1  0.28109000  0.13334000  0.12136000  1.0
  C  C42  1  0.61223000  0.56244000  0.54107000  1.0
  C  C43  1  0.38776000  0.06244000  0.04107000  1.0
  C  C44  1  0.81950000  0.50010000  0.48362000  1.0
  C  C45  1  0.18050000  0.00009000  0.98363000  1.0
  C  C46  1  0.55825000  0.96446000  0.64085000  1.0
  C  C47  1  0.44175000  0.46446000  0.14086000  1.0
  C  C48  1  0.80576000  0.15887000  0.61107000  1.0
  C  C49  1  0.19424000  0.65887000  0.11108000  1.0
  C  C50  1  0.63959000  0.14789000  0.54263000  1.0
  C  C51  1  0.36041000  0.64789000  0.04263000  1.0
  C  C52  1  0.28835000  0.96373000  0.50587000  1.0
  C  C53  1  0.71165000  0.46374000  0.00587000  1.0
  C  C54  1  0.40248000  0.91993000  0.41971000  1.0
  C  C55  1  0.59753000  0.41994000  0.91971000  1.0
  C  C56  1  0.20596000  0.83477000  0.36767000  1.0
  C  C57  1  0.79405000  0.33478000  0.86767000  1.0
  N  N58  1  0.23115000  0.83747000  0.73745000  1.0
  N  N59  1  0.76885000  0.33746000  0.23745000  1.0
  N  N60  1  0.51354000  0.68696000  0.67654000  1.0
  N  N61  1  0.48646000  0.18696000  0.17654000  1.0
  N  N62  1  0.75488000  0.04397000  0.67155000  1.0
  N  N63  1  0.24512000  0.54396000  0.17155000  1.0
  N  N64  1  0.48451000  0.02498000  0.56209000  1.0
  N  N65  1  0.51549000  0.52498000  0.06209000  1.0
  O  O66  1  0.75725000  0.48188000  0.40442000  1.0
  O  O67  1  0.24274000  0.98188000  0.90442000  1.0
  O  O68  1  0.03659000  0.46697000  0.51501000  1.0
  O  O69  1  0.96342000  0.96693000  0.01502000  1.0
  O  O70  1  0.27294000  0.70910000  0.33551000  1.0
  O  O71  1  0.72707000  0.20911000  0.83552000  1.0
  O  O72  1  0.98500000  0.89310000  0.35969000  1.0
  O  O73  1  0.01501000  0.39311000  0.85968000  1.0
  O  O74  1  0.72522000  0.87838000  0.87310000  1.0
  O  O75  1  0.27479000  0.37837000  0.37310000  1.0
  O  O76  1  0.25185000  0.20883000  0.75926000  1.0
  O  O77  1  0.74815000  0.70882000  0.25927000  1.0
