# generated using pymatgen
data_CoH11C13N2O5
_symmetry_space_group_name_H-M   'P 1'
_cell_length_a   7.73096000
_cell_length_b   11.08910000
_cell_length_c   15.89860000
_cell_angle_alpha   106.07900000
_cell_angle_beta   89.99960000
_cell_angle_gamma   89.99940000
_symmetry_Int_Tables_number   1
_chemical_formula_structural   CoH11C13N2O5
_chemical_formula_sum   'Co4 H44 C52 N8 O20'
_cell_volume   1309.65858216
_cell_formula_units_Z   4
loop_
 _symmetry_equiv_pos_site_id
 _symmetry_equiv_pos_as_xyz
  1  'x, y, z'
loop_
 _atom_site_type_symbol
 _atom_site_label
 _atom_site_symmetry_multiplicity
 _atom_site_fract_x
 _atom_site_fract_y
 _atom_site_fract_z
 _atom_site_occupancy
  Co  Co0  1  0.49860000  0.30714000  0.18401000  1.0
  Co  Co1  1  0.99858000  0.69283000  0.31599000  1.0
  Co  Co2  1  0.50140000  0.69287000  0.81599000  1.0
  Co  Co3  1  0.00143000  0.30719000  0.68402000  1.0
  H  H4  1  0.79176000  0.19331000  0.23239000  1.0
  H  H5  1  0.29171000  0.80667000  0.26761000  1.0
  H  H6  1  0.20822000  0.80670000  0.76762000  1.0
  H  H7  1  0.70828000  0.19333000  0.73238000  1.0
  H  H8  1  0.65735000  0.14655000  0.28621000  1.0
  H  H9  1  0.15730000  0.85342000  0.21379000  1.0
  H  H10  1  0.34265000  0.85344000  0.71380000  1.0
  H  H11  1  0.84270000  0.14658000  0.78620000  1.0
  H  H12  1  0.33652000  0.52251000  0.21911000  1.0
  H  H13  1  0.83652000  0.47746000  0.28090000  1.0
  H  H14  1  0.66348000  0.47750000  0.78088000  1.0
  H  H15  1  0.16349000  0.52255000  0.71911000  1.0
  H  H16  1  0.48122000  0.51241000  0.13989000  1.0
  H  H17  1  0.98120000  0.48756000  0.36012000  1.0
  H  H18  1  0.51877000  0.48759000  0.86011000  1.0
  H  H19  1  0.01880000  0.51245000  0.63989000  1.0
  H  H20  1  0.86875000  0.30503000  0.93596000  1.0
  H  H21  1  0.36871000  0.69497000  0.56405000  1.0
  H  H22  1  0.13124000  0.69496000  0.06404000  1.0
  H  H23  1  0.63128000  0.30504000  0.43595000  1.0
  H  H24  1  0.39678000  0.42767000  0.98501000  1.0
  H  H25  1  0.89676000  0.57232000  0.51500000  1.0
  H  H26  1  0.60322000  0.57231000  0.01499000  1.0
  H  H27  1  0.10325000  0.42769000  0.48501000  1.0
  H  H28  1  0.07051000  0.40464000  0.19893000  1.0
  H  H29  1  0.57049000  0.59532000  0.30108000  1.0
  H  H30  1  0.92948000  0.59537000  0.80107000  1.0
  H  H31  1  0.42951000  0.40468000  0.69892000  1.0
  H  H32  1  0.23848000  0.15150000  0.22908000  1.0
  H  H33  1  0.73843000  0.84846000  0.27092000  1.0
  H  H34  1  0.76147000  0.84856000  0.77092000  1.0
  H  H35  1  0.26153000  0.15153000  0.72910000  1.0
  H  H36  1  0.98529000  0.03678000  0.15507000  1.0
  H  H37  1  0.48524000  0.96319000  0.34493000  1.0
  H  H38  1  0.01469000  0.96327000  0.84493000  1.0
  H  H39  1  0.51474000  0.03678000  0.65508000  1.0
  H  H40  1  0.22971000  0.03290000  0.90810000  1.0
  H  H41  1  0.72971000  0.96709000  0.59190000  1.0
  H  H42  1  0.77036000  0.96700000  0.09190000  1.0
  H  H43  1  0.27030000  0.03294000  0.40811000  1.0
  H  H44  1  0.46935000  0.15423000  0.99424000  1.0
  H  H45  1  0.96933000  0.84575000  0.50574000  1.0
  H  H46  1  0.53071000  0.84570000  0.00575000  1.0
  H  H47  1  0.03070000  0.15427000  0.49426000  1.0
  C  C48  1  0.95076000  0.35315000  0.07069000  1.0
  C  C49  1  0.45074000  0.64682000  0.42930000  1.0
  C  C50  1  0.04924000  0.64684000  0.92931000  1.0
  C  C51  1  0.54926000  0.35319000  0.57070000  1.0
  C  C52  1  0.97578000  0.33664000  0.98104000  1.0
  C  C53  1  0.47574000  0.66335000  0.51896000  1.0
  C  C54  1  0.02422000  0.66335000  0.01896000  1.0
  C  C55  1  0.52426000  0.33665000  0.48104000  1.0
  C  C56  1  0.13632000  0.36381000  0.95058000  1.0
  C  C57  1  0.63629000  0.63618000  0.54941000  1.0
  C  C58  1  0.86369000  0.63618000  0.04942000  1.0
  C  C59  1  0.36370000  0.36382000  0.45058000  1.0
  C  C60  1  0.27169000  0.40815000  0.00970000  1.0
  C  C61  1  0.77167000  0.59185000  0.49029000  1.0
  C  C62  1  0.72831000  0.59185000  0.99029000  1.0
  C  C63  1  0.22833000  0.40817000  0.50971000  1.0
  C  C64  1  0.24634000  0.42536000  0.09918000  1.0
  C  C65  1  0.74632000  0.57462000  0.40081000  1.0
  C  C66  1  0.75366000  0.57464000  0.90081000  1.0
  C  C67  1  0.25367000  0.42538000  0.59919000  1.0
  C  C68  1  0.08613000  0.39614000  0.12950000  1.0
  C  C69  1  0.58610000  0.60383000  0.37050000  1.0
  C  C70  1  0.91388000  0.60386000  0.87050000  1.0
  C  C71  1  0.41391000  0.39617000  0.62950000  1.0
  C  C72  1  0.77717000  0.32933000  0.10233000  1.0
  C  C73  1  0.27713000  0.67064000  0.39767000  1.0
  C  C74  1  0.22283000  0.67066000  0.89767000  1.0
  C  C75  1  0.72287000  0.32937000  0.60234000  1.0
  C  C76  1  0.16304000  0.35102000  0.85519000  1.0
  C  C77  1  0.66302000  0.64901000  0.64482000  1.0
  C  C78  1  0.83695000  0.64897000  0.14481000  1.0
  C  C79  1  0.33698000  0.35100000  0.35518000  1.0
  C  C80  1  0.23060000  0.12411000  0.15800000  1.0
  C  C81  1  0.73055000  0.87585000  0.34199000  1.0
  C  C82  1  0.76938000  0.87590000  0.84201000  1.0
  C  C83  1  0.26941000  0.12416000  0.65801000  1.0
  C  C84  1  0.08841000  0.05926000  0.11527000  1.0
  C  C85  1  0.58837000  0.94071000  0.38473000  1.0
  C  C86  1  0.91158000  0.94076000  0.88474000  1.0
  C  C87  1  0.41161000  0.05928000  0.61526000  1.0
  C  C88  1  0.07781000  0.02932000  0.02362000  1.0
  C  C89  1  0.57779000  0.97066000  0.47638000  1.0
  C  C90  1  0.92220000  0.97065000  0.97639000  1.0
  C  C91  1  0.42219000  0.02934000  0.52361000  1.0
  C  C92  1  0.22246000  0.05866000  0.97929000  1.0
  C  C93  1  0.72245000  0.94132000  0.52071000  1.0
  C  C94  1  0.77758000  0.94128000  0.02072000  1.0
  C  C95  1  0.27755000  0.05869000  0.47929000  1.0
  C  C96  1  0.35944000  0.12472000  0.02640000  1.0
  C  C97  1  0.85942000  0.87526000  0.47358000  1.0
  C  C98  1  0.64060000  0.87524000  0.97360000  1.0
  C  C99  1  0.14059000  0.12476000  0.52640000  1.0
  N  N100  1  0.38316000  0.46478000  0.16094000  1.0
  N  N101  1  0.88314000  0.53519000  0.33906000  1.0
  N  N102  1  0.61683000  0.53522000  0.83906000  1.0
  N  N103  1  0.11686000  0.46482000  0.66094000  1.0
  N  N104  1  0.36201000  0.16141000  0.11495000  1.0
  N  N105  1  0.86197000  0.83856000  0.38503000  1.0
  N  N106  1  0.63799000  0.83859000  0.88506000  1.0
  N  N107  1  0.13800000  0.16145000  0.61495000  1.0
  O  O108  1  0.75650000  0.33415000  0.18504000  1.0
  O  O109  1  0.25647000  0.66582000  0.31496000  1.0
  O  O110  1  0.24351000  0.66585000  0.81496000  1.0
  O  O111  1  0.74353000  0.33419000  0.68504000  1.0
  O  O112  1  0.64860000  0.30675000  0.05200000  1.0
  O  O113  1  0.14856000  0.69321000  0.44800000  1.0
  O  O114  1  0.35141000  0.69324000  0.94799000  1.0
  O  O115  1  0.85144000  0.30680000  0.55200000  1.0
  O  O116  1  0.03234000  0.30372000  0.80496000  1.0
  O  O117  1  0.53231000  0.69632000  0.69505000  1.0
  O  O118  1  0.96765000  0.69627000  0.19503000  1.0
  O  O119  1  0.46768000  0.30369000  0.30496000  1.0
  O  O120  1  0.30152000  0.38556000  0.82809000  1.0
  O  O121  1  0.80153000  0.61447000  0.67191000  1.0
  O  O122  1  0.69847000  0.61444000  0.17190000  1.0
  O  O123  1  0.19848000  0.38554000  0.32810000  1.0
  O  O124  1  0.76028000  0.11848000  0.25054000  1.0
  O  O125  1  0.26023000  0.88150000  0.24946000  1.0
  O  O126  1  0.23973000  0.88152000  0.74946000  1.0
  O  O127  1  0.73979000  0.11849000  0.75052000  1.0
