# generated using pymatgen
data_ZnH14C20(NO)4
_symmetry_space_group_name_H-M   'P 1'
_cell_length_a   9.15205000
_cell_length_b   14.97400000
_cell_length_c   17.23930000
_cell_angle_alpha   89.99960000
_cell_angle_beta   90.00000000
_cell_angle_gamma   92.34380000
_symmetry_Int_Tables_number   1
_chemical_formula_structural   ZnH14C20(NO)4
_chemical_formula_sum   'Zn4 H56 C80 N16 O16'
_cell_volume   2360.54545655
_cell_formula_units_Z   4
loop_
 _symmetry_equiv_pos_site_id
 _symmetry_equiv_pos_as_xyz
  1  'x, y, z'
loop_
 _atom_site_type_symbol
 _atom_site_label
 _atom_site_symmetry_multiplicity
 _atom_site_fract_x
 _atom_site_fract_y
 _atom_site_fract_z
 _atom_site_occupancy
  Zn  Zn0  1  0.75980000  0.67696000  0.24853000  1.0
  Zn  Zn1  1  0.74021000  0.82303000  0.74853000  1.0
  Zn  Zn2  1  0.24016000  0.32303000  0.75146000  1.0
  Zn  Zn3  1  0.25985000  0.17697000  0.25146000  1.0
  H  H4  1  0.51904000  0.80734000  0.19568000  1.0
  H  H5  1  0.98100000  0.69267000  0.69567000  1.0
  H  H6  1  0.48094000  0.19267000  0.80434000  1.0
  H  H7  1  0.01907000  0.30734000  0.30434000  1.0
  H  H8  1  0.42915000  0.93318000  0.27756000  1.0
  H  H9  1  0.07090000  0.56683000  0.77755000  1.0
  H  H10  1  0.57088000  0.06684000  0.72247000  1.0
  H  H11  1  0.92913000  0.43316000  0.22246000  1.0
  H  H12  1  0.71379000  0.78049000  0.41502000  1.0
  H  H13  1  0.78621000  0.71949000  0.91500000  1.0
  H  H14  1  0.28623000  0.21949000  0.58499000  1.0
  H  H15  1  0.21377000  0.28049000  0.08499000  1.0
  H  H16  1  0.37727000  0.02430000  0.37360000  1.0
  H  H17  1  0.12276000  0.47569000  0.87359000  1.0
  H  H18  1  0.62277000  0.97570000  0.62642000  1.0
  H  H19  1  0.87720000  0.52428000  0.12640000  1.0
  H  H20  1  0.66526000  0.87505000  0.51901000  1.0
  H  H21  1  0.83473000  0.62493000  0.01899000  1.0
  H  H22  1  0.33479000  0.12495000  0.48101000  1.0
  H  H23  1  0.16523000  0.37504000  0.98100000  1.0
  H  H24  1  0.51285000  0.66267000  0.97043000  1.0
  H  H25  1  0.98716000  0.83733000  0.47044000  1.0
  H  H26  1  0.48713000  0.33730000  0.02957000  1.0
  H  H27  1  0.01288000  0.16269000  0.52958000  1.0
  H  H28  1  0.56255000  0.44916000  0.13281000  1.0
  H  H29  1  0.93746000  0.05084000  0.63281000  1.0
  H  H30  1  0.43743000  0.55082000  0.86720000  1.0
  H  H31  1  0.06261000  0.94918000  0.36720000  1.0
  H  H32  1  0.96302000  0.65783000  0.46301000  1.0
  H  H33  1  0.53696000  0.84217000  0.96301000  1.0
  H  H34  1  0.03705000  0.34221000  0.53696000  1.0
  H  H35  1  0.46297000  0.15779000  0.03697000  1.0
  H  H36  1  0.92666000  0.37682000  0.40952000  1.0
  H  H37  1  0.57335000  0.12317000  0.90953000  1.0
  H  H38  1  0.07339000  0.62321000  0.59046000  1.0
  H  H39  1  0.42660000  0.87678000  0.09047000  1.0
  H  H40  1  0.78974000  0.78245000  0.09742000  1.0
  H  H41  1  0.71025000  0.71755000  0.59742000  1.0
  H  H42  1  0.21020000  0.21755000  0.90258000  1.0
  H  H43  1  0.28978000  0.28246000  0.40258000  1.0
  H  H44  1  0.17833000  0.90437000  0.19003000  1.0
  H  H45  1  0.32165000  0.59564000  0.69003000  1.0
  H  H46  1  0.82163000  0.09562000  0.80997000  1.0
  H  H47  1  0.67836000  0.40440000  0.30997000  1.0
  H  H48  1  0.09275000  0.77469000  0.28094000  1.0
  H  H49  1  0.40724000  0.72533000  0.78094000  1.0
  H  H50  1  0.90721000  0.22530000  0.71905000  1.0
  H  H51  1  0.59280000  0.27472000  0.21906000  1.0
  H  H52  1  0.90937000  0.84491000  0.97177000  1.0
  H  H53  1  0.59058000  0.65511000  0.47176000  1.0
  H  H54  1  0.09056000  0.15510000  0.02824000  1.0
  H  H55  1  0.40943000  0.34491000  0.52824000  1.0
  H  H56  1  0.08666000  0.04185000  0.13223000  1.0
  H  H57  1  0.41335000  0.45816000  0.63223000  1.0
  H  H58  1  0.91327000  0.95816000  0.86778000  1.0
  H  H59  1  0.58667000  0.54186000  0.36777000  1.0
  C  C60  1  0.54538000  0.81919000  0.25628000  1.0
  C  C61  1  0.95466000  0.68082000  0.75627000  1.0
  C  C62  1  0.45462000  0.18082000  0.74374000  1.0
  C  C63  1  0.04539000  0.31918000  0.24374000  1.0
  C  C64  1  0.55614000  0.88044000  0.37406000  1.0
  C  C65  1  0.94389000  0.61955000  0.87404000  1.0
  C  C66  1  0.44390000  0.11956000  0.62596000  1.0
  C  C67  1  0.05609000  0.38043000  0.12595000  1.0
  C  C68  1  0.64422000  0.80730000  0.37063000  1.0
  C  C69  1  0.85580000  0.69269000  0.87061000  1.0
  C  C70  1  0.35580000  0.19269000  0.62938000  1.0
  C  C71  1  0.14419000  0.30730000  0.12938000  1.0
  C  C72  1  0.52657000  0.94142000  0.43735000  1.0
  C  C73  1  0.97345000  0.55857000  0.93734000  1.0
  C  C74  1  0.47348000  0.05859000  0.56267000  1.0
  C  C75  1  0.02652000  0.44140000  0.06265000  1.0
  C  C76  1  0.43316000  0.01297000  0.42838000  1.0
  C  C77  1  0.06685000  0.48701000  0.92837000  1.0
  C  C78  1  0.56688000  0.98702000  0.57164000  1.0
  C  C79  1  0.93310000  0.51296000  0.07161000  1.0
  C  C80  1  0.59232000  0.92976000  0.51023000  1.0
  C  C81  1  0.90768000  0.57022000  0.01021000  1.0
  C  C82  1  0.40773000  0.07024000  0.48978000  1.0
  C  C83  1  0.09227000  0.42974000  0.98977000  1.0
  C  C84  1  0.59413000  0.62941000  0.11670000  1.0
  C  C85  1  0.90587000  0.87059000  0.61671000  1.0
  C  C86  1  0.40583000  0.37057000  0.88330000  1.0
  C  C87  1  0.09418000  0.12943000  0.38330000  1.0
  C  C88  1  0.54151000  0.56216000  0.05744000  1.0
  C  C89  1  0.95850000  0.93784000  0.55744000  1.0
  C  C90  1  0.45846000  0.43782000  0.94256000  1.0
  C  C91  1  0.04156000  0.06218000  0.44257000  1.0
  C  C92  1  0.50648000  0.59116000  0.98261000  1.0
  C  C93  1  0.99354000  0.90884000  0.48262000  1.0
  C  C94  1  0.49349000  0.40882000  0.01739000  1.0
  C  C95  1  0.00652000  0.09118000  0.51739000  1.0
  C  C96  1  0.53452000  0.47052000  0.07444000  1.0
  C  C97  1  0.96549000  0.02948000  0.57444000  1.0
  C  C98  1  0.46544000  0.52946000  0.92557000  1.0
  C  C99  1  0.03458000  0.97054000  0.42557000  1.0
  C  C100  1  0.87250000  0.54139000  0.35113000  1.0
  C  C101  1  0.62749000  0.95860000  0.85114000  1.0
  C  C102  1  0.12754000  0.45864000  0.64885000  1.0
  C  C103  1  0.37247000  0.04136000  0.14886000  1.0
  C  C104  1  0.93891000  0.51976000  0.42782000  1.0
  C  C105  1  0.56108000  0.98023000  0.92782000  1.0
  C  C106  1  0.06115000  0.48027000  0.57215000  1.0
  C  C107  1  0.43886000  0.01972000  0.07216000  1.0
  C  C108  1  0.98009000  0.58884000  0.47940000  1.0
  C  C109  1  0.51989000  0.91116000  0.97940000  1.0
  C  C110  1  0.01997000  0.41120000  0.52057000  1.0
  C  C111  1  0.48004000  0.08879000  0.02058000  1.0
  C  C112  1  0.95905000  0.43075000  0.44906000  1.0
  C  C113  1  0.54095000  0.06924000  0.94907000  1.0
  C  C114  1  0.04100000  0.56928000  0.55091000  1.0
  C  C115  1  0.45899000  0.93072000  0.05092000  1.0
  C  C116  1  0.88801000  0.79921000  0.13035000  1.0
  C  C117  1  0.61198000  0.70080000  0.63035000  1.0
  C  C118  1  0.11193000  0.20079000  0.86965000  1.0
  C  C119  1  0.38805000  0.29922000  0.36965000  1.0
  C  C120  1  0.99111000  0.86777000  0.11965000  1.0
  C  C121  1  0.50888000  0.63224000  0.61965000  1.0
  C  C122  1  0.00883000  0.13224000  0.88035000  1.0
  C  C123  1  0.49114000  0.36778000  0.38035000  1.0
  C  C124  1  0.03907000  0.79426000  0.22789000  1.0
  C  C125  1  0.46091000  0.70575000  0.72789000  1.0
  C  C126  1  0.96088000  0.20573000  0.77210000  1.0
  C  C127  1  0.53912000  0.29428000  0.27211000  1.0
  C  C128  1  0.99914000  0.93514000  0.05906000  1.0
  C  C129  1  0.50084000  0.56487000  0.55905000  1.0
  C  C130  1  0.00079000  0.06486000  0.94095000  1.0
  C  C131  1  0.49918000  0.43515000  0.44095000  1.0
  C  C132  1  0.94792000  0.91318000  0.98431000  1.0
  C  C133  1  0.55204000  0.58684000  0.48431000  1.0
  C  C134  1  0.05201000  0.08683000  0.01569000  1.0
  C  C135  1  0.44797000  0.41318000  0.51569000  1.0
  C  C136  1  0.05080000  0.02302000  0.07402000  1.0
  C  C137  1  0.44920000  0.47699000  0.57402000  1.0
  C  C138  1  0.94914000  0.97699000  0.92599000  1.0
  C  C139  1  0.55082000  0.52303000  0.42599000  1.0
  N  N140  1  0.63564000  0.76999000  0.29756000  1.0
  N  N141  1  0.86438000  0.73000000  0.79755000  1.0
  N  N142  1  0.36435000  0.23000000  0.70245000  1.0
  N  N143  1  0.13565000  0.27000000  0.20245000  1.0
  N  N144  1  0.49551000  0.88577000  0.30045000  1.0
  N  N145  1  0.00453000  0.61424000  0.80044000  1.0
  N  N146  1  0.50451000  0.11425000  0.69957000  1.0
  N  N147  1  0.99549000  0.38575000  0.19956000  1.0
  N  N148  1  0.91866000  0.75428000  0.19777000  1.0
  N  N149  1  0.58134000  0.74573000  0.69777000  1.0
  N  N150  1  0.08130000  0.24571000  0.80222000  1.0
  N  N151  1  0.41870000  0.25430000  0.30222000  1.0
  N  N152  1  0.08547000  0.86325000  0.18224000  1.0
  N  N153  1  0.41451000  0.63676000  0.68224000  1.0
  N  N154  1  0.91448000  0.13675000  0.81776000  1.0
  N  N155  1  0.58551000  0.36327000  0.31776000  1.0
  O  O156  1  0.58238000  0.71127000  0.10433000  1.0
  O  O157  1  0.91760000  0.78874000  0.60433000  1.0
  O  O158  1  0.41757000  0.28872000  0.89568000  1.0
  O  O159  1  0.08242000  0.21128000  0.39568000  1.0
  O  O160  1  0.65542000  0.59548000  0.17770000  1.0
  O  O161  1  0.84459000  0.90452000  0.67771000  1.0
  O  O162  1  0.34455000  0.40450000  0.82230000  1.0
  O  O163  1  0.15548000  0.09550000  0.32231000  1.0
  O  O164  1  0.85735000  0.62505000  0.33820000  1.0
  O  O165  1  0.64264000  0.87494000  0.83820000  1.0
  O  O166  1  0.14266000  0.37497000  0.66179000  1.0
  O  O167  1  0.35735000  0.12503000  0.16179000  1.0
  O  O168  1  0.83389000  0.47939000  0.30434000  1.0
  O  O169  1  0.66611000  0.02060000  0.80434000  1.0
  O  O170  1  0.16614000  0.52063000  0.69564000  1.0
  O  O171  1  0.33387000  0.97937000  0.19566000  1.0
