# generated using pymatgen
data_AlH24C24(N2O)6
_symmetry_space_group_name_H-M   'P 1'
_cell_length_a   3.91849000
_cell_length_b   29.09660906
_cell_length_c   29.09490000
_cell_angle_alpha   59.99782947
_cell_angle_beta   89.99870000
_cell_angle_gamma   89.99890006
_symmetry_Int_Tables_number   1
_chemical_formula_structural   AlH24C24(N2O)6
_chemical_formula_sum   'Al2 H48 C48 N24 O12'
_cell_volume   2872.75853033
_cell_formula_units_Z   2
loop_
 _symmetry_equiv_pos_site_id
 _symmetry_equiv_pos_as_xyz
  1  'x, y, z'
loop_
 _atom_site_type_symbol
 _atom_site_label
 _atom_site_symmetry_multiplicity
 _atom_site_fract_x
 _atom_site_fract_y
 _atom_site_fract_z
 _atom_site_occupancy
  Al  Al0  1  0.99996000  0.50000000  0.99999000  1.0
  Al  Al1  1  0.00032000  0.16665000  0.66669000  1.0
  H  H2  1  0.80183000  0.29332000  0.56184000  1.0
  H  H3  1  0.76302000  0.35301000  0.50385000  1.0
  H  H4  1  0.19916000  0.14482000  0.56183000  1.0
  H  H5  1  0.23758000  0.14315000  0.50384000  1.0
  H  H6  1  0.17545000  0.24506000  0.37496000  1.0
  H  H7  1  0.96996000  0.20138000  0.43007000  1.0
  H  H8  1  0.82463000  0.38001000  0.37496000  1.0
  H  H9  1  0.03027000  0.36859000  0.43004000  1.0
  H  H10  1  0.17564000  0.42167000  0.29170000  1.0
  H  H11  1  0.97010000  0.46535000  0.23660000  1.0
  H  H12  1  0.82443000  0.28667000  0.29173000  1.0
  H  H13  1  0.03000000  0.29808000  0.23663000  1.0
  H  H14  1  0.80123000  0.37332000  0.10485000  1.0
  H  H15  1  0.76252000  0.31365000  0.16284000  1.0
  H  H16  1  0.19880000  0.52185000  0.10483000  1.0
  H  H17  1  0.23761000  0.52354000  0.16282000  1.0
  H  H18  1  0.80181000  0.14484000  0.79336000  1.0
  H  H19  1  0.76292000  0.14315000  0.85304000  1.0
  H  H20  1  0.19924000  0.29334000  0.64483000  1.0
  H  H21  1  0.23777000  0.35302000  0.64313000  1.0
  H  H22  1  0.17547000  0.37999000  0.74504000  1.0
  H  H23  1  0.97009000  0.36857000  0.70136000  1.0
  H  H24  1  0.82454000  0.24504000  0.88003000  1.0
  H  H25  1  0.03020000  0.20136000  0.86863000  1.0
  H  H26  1  0.17573000  0.28664000  0.92166000  1.0
  H  H27  1  0.97019000  0.29805000  0.96534000  1.0
  H  H28  1  0.82445000  0.42163000  0.78665000  1.0
  H  H29  1  0.02998000  0.46532000  0.79805000  1.0
  H  H30  1  0.80122000  0.52184000  0.87331000  1.0
  H  H31  1  0.76245000  0.52353000  0.81363000  1.0
  H  H32  1  0.19883000  0.37332000  0.02185000  1.0
  H  H33  1  0.23769000  0.31364000  0.02355000  1.0
  H  H34  1  0.80177000  0.06183000  0.64485000  1.0
  H  H35  1  0.76284000  0.00385000  0.64314000  1.0
  H  H36  1  0.19921000  0.06180000  0.79338000  1.0
  H  H37  1  0.23771000  0.00380000  0.85305000  1.0
  H  H38  1  0.17551000  0.87493000  0.88000000  1.0
  H  H39  1  0.97005000  0.93003000  0.86859000  1.0
  H  H40  1  0.82456000  0.87495000  0.74502000  1.0
  H  H41  1  0.03016000  0.93005000  0.70134000  1.0
  H  H42  1  0.17573000  0.79170000  0.78662000  1.0
  H  H43  1  0.97020000  0.73661000  0.79803000  1.0
  H  H44  1  0.82439000  0.79171000  0.92161000  1.0
  H  H45  1  0.02993000  0.73661000  0.96531000  1.0
  H  H46  1  0.80118000  0.60484000  0.02184000  1.0
  H  H47  1  0.76241000  0.66283000  0.02351000  1.0
  H  H48  1  0.19880000  0.60484000  0.87330000  1.0
  H  H49  1  0.23770000  0.66282000  0.81362000  1.0
  C  C50  1  0.49997000  0.58301000  0.95848000  1.0
  C  C51  1  0.49998000  0.45850000  0.08300000  1.0
  C  C52  1  0.50000000  0.45850000  0.95849000  1.0
  C  C53  1  0.50040000  0.20815000  0.58367000  1.0
  C  C54  1  0.50041000  0.20817000  0.70818000  1.0
  C  C55  1  0.50041000  0.08364000  0.70821000  1.0
  C  C56  1  0.50021000  0.23717000  0.52567000  1.0
  C  C57  1  0.65719000  0.28819000  0.49737000  1.0
  C  C58  1  0.65705000  0.31574000  0.44162000  1.0
  C  C59  1  0.50004000  0.29310000  0.41383000  1.0
  C  C60  1  0.34319000  0.24267000  0.44162000  1.0
  C  C61  1  0.34326000  0.21444000  0.49738000  1.0
  C  C62  1  0.50001000  0.32117000  0.35770000  1.0
  C  C63  1  0.50003000  0.34554000  0.30897000  1.0
  C  C64  1  0.50003000  0.37359000  0.25285000  1.0
  C  C65  1  0.34315000  0.42403000  0.22505000  1.0
  C  C66  1  0.34304000  0.45224000  0.16929000  1.0
  C  C67  1  0.50000000  0.42950000  0.14101000  1.0
  C  C68  1  0.65696000  0.37848000  0.16930000  1.0
  C  C69  1  0.65689000  0.35094000  0.22506000  1.0
  C  C70  1  0.50026000  0.23717000  0.73719000  1.0
  C  C71  1  0.65723000  0.21445000  0.78820000  1.0
  C  C72  1  0.65708000  0.24265000  0.81575000  1.0
  C  C73  1  0.50008000  0.29308000  0.79310000  1.0
  C  C74  1  0.34330000  0.31573000  0.74265000  1.0
  C  C75  1  0.34330000  0.28818000  0.71445000  1.0
  C  C76  1  0.50007000  0.32115000  0.82115000  1.0
  C  C77  1  0.50005000  0.34551000  0.84553000  1.0
  C  C78  1  0.50007000  0.37358000  0.87358000  1.0
  C  C79  1  0.34322000  0.35092000  0.92403000  1.0
  C  C80  1  0.34311000  0.37847000  0.95224000  1.0
  C  C81  1  0.50003000  0.42949000  0.92949000  1.0
  C  C82  1  0.65698000  0.45223000  0.87847000  1.0
  C  C83  1  0.65690000  0.42402000  0.85092000  1.0
  C  C84  1  0.50027000  0.02564000  0.73719000  1.0
  C  C85  1  0.65721000  0.99736000  0.71445000  1.0
  C  C86  1  0.65703000  0.94161000  0.74264000  1.0
  C  C87  1  0.50008000  0.91381000  0.79308000  1.0
  C  C88  1  0.34326000  0.94160000  0.81573000  1.0
  C  C89  1  0.34329000  0.99735000  0.78820000  1.0
  C  C90  1  0.50005000  0.85769000  0.82113000  1.0
  C  C91  1  0.50003000  0.80896000  0.84549000  1.0
  C  C92  1  0.50004000  0.75283000  0.87357000  1.0
  C  C93  1  0.34318000  0.72505000  0.85091000  1.0
  C  C94  1  0.34304000  0.66929000  0.87846000  1.0
  C  C95  1  0.50000000  0.64101000  0.92948000  1.0
  C  C96  1  0.65694000  0.66929000  0.95221000  1.0
  C  C97  1  0.65689000  0.72505000  0.92400000  1.0
  N  N98  1  0.81439000  0.31351000  0.52156000  1.0
  N  N99  1  0.18624000  0.16492000  0.52157000  1.0
  N  N100  1  0.20034000  0.21864000  0.41450000  1.0
  N  N101  1  0.79984000  0.36688000  0.41450000  1.0
  N  N102  1  0.20047000  0.44807000  0.25216000  1.0
  N  N103  1  0.79962000  0.29979000  0.25219000  1.0
  N  N104  1  0.81400000  0.35314000  0.14512000  1.0
  N  N105  1  0.18604000  0.50177000  0.14510000  1.0
  N  N106  1  0.81440000  0.16493000  0.81354000  1.0
  N  N107  1  0.18633000  0.31352000  0.66492000  1.0
  N  N108  1  0.20044000  0.36687000  0.71862000  1.0
  N  N109  1  0.79979000  0.21863000  0.86690000  1.0
  N  N110  1  0.20055000  0.29977000  0.94807000  1.0
  N  N111  1  0.79961000  0.44804000  0.79978000  1.0
  N  N112  1  0.81398000  0.50175000  0.85313000  1.0
  N  N113  1  0.18611000  0.35313000  0.00176000  1.0
  N  N114  1  0.81436000  0.02155000  0.66493000  1.0
  N  N115  1  0.18630000  0.02153000  0.81355000  1.0
  N  N116  1  0.20043000  0.91447000  0.86688000  1.0
  N  N117  1  0.79976000  0.91450000  0.71860000  1.0
  N  N118  1  0.20054000  0.75216000  0.79976000  1.0
  N  N119  1  0.79958000  0.75217000  0.94803000  1.0
  N  N120  1  0.81393000  0.64511000  0.00174000  1.0
  N  N121  1  0.18608000  0.64511000  0.85312000  1.0
  O  O122  1  0.26761000  0.44824000  0.99376000  1.0
  O  O123  1  0.26759000  0.55799000  0.94823000  1.0
  O  O124  1  0.26760000  0.49377000  0.05799000  1.0
  O  O125  1  0.73233000  0.49378000  0.94822000  1.0
  O  O126  1  0.73232000  0.44823000  0.05799000  1.0
  O  O127  1  0.73231000  0.55799000  0.99378000  1.0
  O  O128  1  0.26810000  0.10866000  0.71848000  1.0
  O  O129  1  0.26813000  0.17286000  0.60869000  1.0
  O  O130  1  0.26811000  0.21844000  0.67289000  1.0
  O  O131  1  0.73280000  0.10866000  0.67293000  1.0
  O  O132  1  0.73281000  0.17289000  0.71844000  1.0
  O  O133  1  0.73283000  0.21841000  0.60869000  1.0
