# generated using pymatgen
data_Zn4H19C50S2Br(O8F3)2
_symmetry_space_group_name_H-M   'P 1'
_cell_length_a   7.29112000
_cell_length_b   27.73580000
_cell_length_c   30.29860000
_cell_angle_alpha   90.13870000
_cell_angle_beta   90.08260000
_cell_angle_gamma   89.95390000
_symmetry_Int_Tables_number   1
_chemical_formula_structural   Zn4H19C50S2Br(O8F3)2
_chemical_formula_sum   'Zn8 H38 C100 S4 Br2 O32 F12'
_cell_volume   6127.10949552
_cell_formula_units_Z   2
loop_
 _symmetry_equiv_pos_site_id
 _symmetry_equiv_pos_as_xyz
  1  'x, y, z'
loop_
 _atom_site_type_symbol
 _atom_site_label
 _atom_site_symmetry_multiplicity
 _atom_site_fract_x
 _atom_site_fract_y
 _atom_site_fract_z
 _atom_site_occupancy
  Zn  Zn0  1  0.29446000  0.49562000  0.49980000  1.0
  Zn  Zn1  1  0.66568000  0.49878000  0.49993000  1.0
  Zn  Zn2  1  0.70284000  0.49746000  0.99994000  1.0
  Zn  Zn3  1  0.33148000  0.50066000  0.99979000  1.0
  Zn  Zn4  1  0.71336000  0.04673000  0.49972000  1.0
  Zn  Zn5  1  0.34205000  0.04570000  0.49975000  1.0
  Zn  Zn6  1  0.28922000  0.04873000  0.99958000  1.0
  Zn  Zn7  1  0.65979000  0.04739000  0.99992000  1.0
  H  H8  1  0.18545000  0.50489000  0.72815000  1.0
  H  H9  1  0.81254000  0.50465000  0.77161000  1.0
  H  H10  1  0.27872000  0.49404000  0.87148000  1.0
  H  H11  1  0.22527000  0.49362000  0.79190000  1.0
  H  H12  1  0.71904000  0.49285000  0.62825000  1.0
  H  H13  1  0.77262000  0.49321000  0.70783000  1.0
  H  H14  1  0.18479000  0.50393000  0.27138000  1.0
  H  H15  1  0.81300000  0.50338000  0.22841000  1.0
  H  H16  1  0.27850000  0.49682000  0.12807000  1.0
  H  H17  1  0.22476000  0.49691000  0.20753000  1.0
  H  H18  1  0.71882000  0.49471000  0.37167000  1.0
  H  H19  1  0.77272000  0.49561000  0.29221000  1.0
  H  H20  1  0.18931000  0.21608000  0.49926000  1.0
  H  H21  1  0.20976000  0.73258000  0.49993000  1.0
  H  H22  1  0.78786000  0.81102000  0.49985000  1.0
  H  H23  1  0.18161000  0.89155000  0.50000000  1.0
  H  H24  1  0.19417000  0.80306000  0.50003000  1.0
  H  H25  1  0.81692000  0.65251000  0.49994000  1.0
  H  H26  1  0.80335000  0.74095000  0.49990000  1.0
  H  H27  1  0.81012000  0.21829000  0.99957000  1.0
  H  H28  1  0.78599000  0.73423000  0.00671000  1.0
  H  H29  1  0.21165000  0.81307000  0.00775000  1.0
  H  H30  1  0.81608000  0.89285000  0.99361000  1.0
  H  H31  1  0.80164000  0.80423000  0.99264000  1.0
  H  H32  1  0.17991000  0.65465000  0.99510000  1.0
  H  H33  1  0.19497000  0.74320000  0.99390000  1.0
  H  H34  1  0.82075000  0.04479000  0.72852000  1.0
  H  H35  1  0.19033000  0.04496000  0.77051000  1.0
  H  H36  1  0.72129000  0.04841000  0.87198000  1.0
  H  H37  1  0.77827000  0.04722000  0.79268000  1.0
  H  H38  1  0.28765000  0.04683000  0.62760000  1.0
  H  H39  1  0.23235000  0.04667000  0.70694000  1.0
  H  H40  1  0.81589000  0.03823000  0.27091000  1.0
  H  H41  1  0.18626000  0.03797000  0.22849000  1.0
  H  H42  1  0.71702000  0.04860000  0.12773000  1.0
  H  H43  1  0.77333000  0.04719000  0.20710000  1.0
  H  H44  1  0.28452000  0.04769000  0.37169000  1.0
  H  H45  1  0.22861000  0.04689000  0.29228000  1.0
  C  C46  1  0.53897000  0.58855000  0.49999000  1.0
  C  C47  1  0.41119000  0.49715000  0.58305000  1.0
  C  C48  1  0.55795000  0.40668000  0.49978000  1.0
  C  C49  1  0.41076000  0.49724000  0.41664000  1.0
  C  C50  1  0.45687000  0.59041000  0.00004000  1.0
  C  C51  1  0.58635000  0.49851000  0.91670000  1.0
  C  C52  1  0.43871000  0.40855000  0.99980000  1.0
  C  C53  1  0.58651000  0.49890000  0.08310000  1.0
  C  C54  1  0.46115000  0.95528000  0.49994000  1.0
  C  C55  1  0.59685000  0.04642000  0.58296000  1.0
  C  C56  1  0.45905000  0.13714000  0.49975000  1.0
  C  C57  1  0.59378000  0.04539000  0.41643000  1.0
  C  C58  1  0.53915000  0.95697000  0.99947000  1.0
  C  C59  1  0.41075000  0.04835000  0.91630000  1.0
  C  C60  1  0.54163000  0.13906000  0.00039000  1.0
  C  C61  1  0.40733000  0.04656000  0.08301000  1.0
  C  C62  1  0.42622000  0.49775000  0.63217000  1.0
  C  C63  1  0.57156000  0.49859000  0.86757000  1.0
  C  C64  1  0.28029000  0.50090000  0.66210000  1.0
  C  C65  1  0.30685000  0.50172000  0.70751000  1.0
  C  C66  1  0.71757000  0.50126000  0.83765000  1.0
  C  C67  1  0.69106000  0.50177000  0.79224000  1.0
  C  C68  1  0.39465000  0.49614000  0.84897000  1.0
  C  C69  1  0.36578000  0.49619000  0.80380000  1.0
  C  C70  1  0.60316000  0.49529000  0.65076000  1.0
  C  C71  1  0.63209000  0.49574000  0.69592000  1.0
  C  C72  1  0.48422000  0.49895000  0.72566000  1.0
  C  C73  1  0.51368000  0.49907000  0.77407000  1.0
  C  C74  1  0.42573000  0.49816000  0.36753000  1.0
  C  C75  1  0.57168000  0.49938000  0.13222000  1.0
  C  C76  1  0.27973000  0.50064000  0.33749000  1.0
  C  C77  1  0.30641000  0.50159000  0.29211000  1.0
  C  C78  1  0.71781000  0.50112000  0.16228000  1.0
  C  C79  1  0.69126000  0.50163000  0.20767000  1.0
  C  C80  1  0.39457000  0.49815000  0.15067000  1.0
  C  C81  1  0.36558000  0.49838000  0.19581000  1.0
  C  C82  1  0.60284000  0.49664000  0.34908000  1.0
  C  C83  1  0.63194000  0.49733000  0.30394000  1.0
  C  C84  1  0.48401000  0.49980000  0.27408000  1.0
  C  C85  1  0.51364000  0.50008000  0.22570000  1.0
  C  C86  1  0.68245000  0.31801000  0.50003000  1.0
  C  C87  1  0.33482000  0.22474000  0.49950000  1.0
  C  C88  1  0.54998000  0.35375000  0.49972000  1.0
  C  C89  1  0.47118000  0.19006000  0.49977000  1.0
  C  C90  1  0.41257000  0.27148000  0.49954000  1.0
  C  C91  1  0.60591000  0.27121000  0.49991000  1.0
  C  C92  1  0.52576000  0.64213000  0.49999000  1.0
  C  C93  1  0.47289000  0.90169000  0.49994000  1.0
  C  C94  1  0.35733000  0.66693000  0.49999000  1.0
  C  C95  1  0.34638000  0.71681000  0.49997000  1.0
  C  C96  1  0.64107000  0.87674000  0.49989000  1.0
  C  C97  1  0.65139000  0.82688000  0.49988000  1.0
  C  C98  1  0.31376000  0.87311000  0.49998000  1.0
  C  C99  1  0.32243000  0.82309000  0.49999000  1.0
  C  C100  1  0.68456000  0.67083000  0.49996000  1.0
  C  C101  1  0.67529000  0.72083000  0.49993000  1.0
  C  C102  1  0.50538000  0.74524000  0.49995000  1.0
  C  C103  1  0.49215000  0.79857000  0.49994000  1.0
  C  C104  1  0.31518000  0.31979000  0.00036000  1.0
  C  C105  1  0.66444000  0.22679000  0.99976000  1.0
  C  C106  1  0.44707000  0.35562000  0.99986000  1.0
  C  C107  1  0.52872000  0.19200000  0.00020000  1.0
  C  C108  1  0.58585000  0.27346000  0.99969000  1.0
  C  C109  1  0.39254000  0.27305000  0.00021000  1.0
  C  C110  1  0.47020000  0.64399000  0.00036000  1.0
  C  C111  1  0.52634000  0.90339000  1.00000000  1.0
  C  C112  1  0.63852000  0.66862000  0.00332000  1.0
  C  C113  1  0.64996000  0.71850000  0.00348000  1.0
  C  C114  1  0.35837000  0.87873000  0.00365000  1.0
  C  C115  1  0.34727000  0.82885000  0.00394000  1.0
  C  C116  1  0.68430000  0.87458000  0.99644000  1.0
  C  C117  1  0.67478000  0.82457000  0.99622000  1.0
  C  C118  1  0.31212000  0.67284000  0.99737000  1.0
  C  C119  1  0.32197000  0.72285000  0.99703000  1.0
  C  C120  1  0.49174000  0.74704000  0.00014000  1.0
  C  C121  1  0.50536000  0.80033000  0.00005000  1.0
  C  C122  1  0.58099000  0.04601000  0.63206000  1.0
  C  C123  1  0.42802000  0.04752000  0.86721000  1.0
  C  C124  1  0.72656000  0.04542000  0.66231000  1.0
  C  C125  1  0.69915000  0.04524000  0.70768000  1.0
  C  C126  1  0.28313000  0.04650000  0.83679000  1.0
  C  C127  1  0.31152000  0.04575000  0.79148000  1.0
  C  C128  1  0.60596000  0.04765000  0.84914000  1.0
  C  C129  1  0.63682000  0.04693000  0.80407000  1.0
  C  C130  1  0.40344000  0.04634000  0.65031000  1.0
  C  C131  1  0.37358000  0.04622000  0.69541000  1.0
  C  C132  1  0.52104000  0.04572000  0.72549000  1.0
  C  C133  1  0.48991000  0.04604000  0.77383000  1.0
  C  C134  1  0.57754000  0.04426000  0.36731000  1.0
  C  C135  1  0.42400000  0.04498000  0.13212000  1.0
  C  C136  1  0.72268000  0.04166000  0.33712000  1.0
  C  C137  1  0.69479000  0.04070000  0.29175000  1.0
  C  C138  1  0.27910000  0.04198000  0.16232000  1.0
  C  C139  1  0.30722000  0.04071000  0.20767000  1.0
  C  C140  1  0.60168000  0.04645000  0.15040000  1.0
  C  C141  1  0.63224000  0.04544000  0.19549000  1.0
  C  C142  1  0.39996000  0.04579000  0.34901000  1.0
  C  C143  1  0.36965000  0.04512000  0.30389000  1.0
  C  C144  1  0.51667000  0.04264000  0.27388000  1.0
  C  C145  1  0.48533000  0.04272000  0.22553000  1.0
  S  S146  1  0.33066000  0.32960000  0.49918000  1.0
  S  S147  1  0.69306000  0.21369000  0.50010000  1.0
  S  S148  1  0.66679000  0.33163000  0.99912000  1.0
  S  S149  1  0.30643000  0.21547000  0.00057000  1.0
  Br  Br150  1  0.93440000  0.32956000  0.50054000  1.0
  Br  Br151  1  0.06303000  0.33113000  0.00125000  1.0
  O  O152  1  0.38961000  0.56520000  0.49997000  1.0
  O  O153  1  0.70028000  0.56927000  0.49999000  1.0
  O  O154  1  0.56369000  0.49769000  0.56268000  1.0
  O  O155  1  0.25298000  0.49603000  0.56419000  1.0
  O  O156  1  0.71326000  0.42867000  0.49990000  1.0
  O  O157  1  0.40071000  0.42704000  0.49969000  1.0
  O  O158  1  0.25257000  0.49608000  0.43539000  1.0
  O  O159  1  0.56326000  0.49759000  0.43712000  1.0
  O  O160  1  0.60621000  0.56701000  0.99972000  1.0
  O  O161  1  0.29563000  0.57114000  0.99996000  1.0
  O  O162  1  0.43376000  0.49931000  0.93704000  1.0
  O  O163  1  0.74451000  0.49755000  0.93560000  1.0
  O  O164  1  0.28333000  0.43058000  0.99981000  1.0
  O  O165  1  0.59582000  0.42890000  0.99972000  1.0
  O  O166  1  0.74466000  0.49778000  0.06430000  1.0
  O  O167  1  0.43398000  0.49957000  0.06263000  1.0
  O  O168  1  0.61166000  0.97813000  0.49984000  1.0
  O  O169  1  0.30104000  0.97518000  0.50001000  1.0
  O  O170  1  0.44445000  0.04681000  0.56242000  1.0
  O  O171  1  0.75520000  0.04643000  0.56427000  1.0
  O  O172  1  0.30117000  0.11636000  0.49984000  1.0
  O  O173  1  0.61401000  0.11566000  0.49962000  1.0
  O  O174  1  0.75234000  0.04572000  0.43510000  1.0
  O  O175  1  0.44152000  0.04608000  0.43694000  1.0
  O  O176  1  0.38894000  0.98003000  0.99852000  1.0
  O  O177  1  0.69954000  0.97662000  0.99980000  1.0
  O  O178  1  0.56277000  0.04865000  0.93704000  1.0
  O  O179  1  0.25193000  0.04872000  0.93471000  1.0
  O  O180  1  0.69955000  0.11828000  0.00051000  1.0
  O  O181  1  0.38674000  0.11759000  0.00042000  1.0
  O  O182  1  0.24889000  0.04721000  0.06429000  1.0
  O  O183  1  0.55962000  0.04726000  0.06251000  1.0
  F  F184  1  0.10411000  0.50374000  0.64753000  1.0
  F  F185  1  0.89378000  0.50396000  0.85222000  1.0
  F  F186  1  0.10329000  0.50251000  0.35191000  1.0
  F  F187  1  0.89429000  0.50264000  0.14787000  1.0
  F  F188  1  0.19448000  0.64329000  0.50000000  1.0
  F  F189  1  0.80438000  0.90020000  0.49984000  1.0
  F  F190  1  0.80054000  0.64476000  0.00667000  1.0
  F  F191  1  0.19649000  0.90251000  0.00768000  1.0
  F  F192  1  0.90342000  0.04505000  0.64809000  1.0
  F  F193  1  0.10591000  0.04617000  0.85075000  1.0
  F  F194  1  0.89951000  0.03974000  0.35137000  1.0
  F  F195  1  0.10228000  0.03995000  0.14807000  1.0
