# generated using pymatgen
data_CuH2C2IN
_symmetry_space_group_name_H-M   'P 1'
_cell_length_a   4.05645000
_cell_length_b   6.93808000
_cell_length_c   14.90700000
_cell_angle_alpha   89.99940000
_cell_angle_beta   89.99940000
_cell_angle_gamma   98.40280000
_symmetry_Int_Tables_number   1
_chemical_formula_structural   CuH2C2IN
_chemical_formula_sum   'Cu4 H8 C8 I4 N4'
_cell_volume   415.03852461
_cell_formula_units_Z   4
loop_
 _symmetry_equiv_pos_site_id
 _symmetry_equiv_pos_as_xyz
  1  'x, y, z'
loop_
 _atom_site_type_symbol
 _atom_site_label
 _atom_site_symmetry_multiplicity
 _atom_site_fract_x
 _atom_site_fract_y
 _atom_site_fract_z
 _atom_site_occupancy
  Cu  Cu0  1  0.75270000  0.00006000  0.55622000  1.0
  Cu  Cu1  1  0.75271000  0.00007000  0.94378000  1.0
  Cu  Cu2  1  0.24731000  0.99993000  0.44378000  1.0
  Cu  Cu3  1  0.24734000  0.99995000  0.05622000  1.0
  H  H4  1  0.88923000  0.94292000  0.75000000  1.0
  H  H5  1  0.11078000  0.05709000  0.25000000  1.0
  H  H6  1  0.57632000  0.39456000  0.60467000  1.0
  H  H7  1  0.57632000  0.39457000  0.89533000  1.0
  H  H8  1  0.42363000  0.60543000  0.39533000  1.0
  H  H9  1  0.42370000  0.60544000  0.10467000  1.0
  H  H10  1  0.47069000  0.56575000  0.75000000  1.0
  H  H11  1  0.52926000  0.43424000  0.25000000  1.0
  C  C12  1  0.79120000  0.08153000  0.75000000  1.0
  C  C13  1  0.20881000  0.91847000  0.25000000  1.0
  C  C14  1  0.62026000  0.33281000  0.67015000  1.0
  C  C15  1  0.62026000  0.33282000  0.82984000  1.0
  C  C16  1  0.37973000  0.66717000  0.32984000  1.0
  C  C17  1  0.37976000  0.66717000  0.17017000  1.0
  C  C18  1  0.56146000  0.42555000  0.74999000  1.0
  C  C19  1  0.43852000  0.57444000  0.25000000  1.0
  I  I20  1  0.81676000  0.24568000  0.42268000  1.0
  I  I21  1  0.81678000  0.24569000  0.07732000  1.0
  I  I22  1  0.18324000  0.75431000  0.57732000  1.0
  I  I23  1  0.18322000  0.75431000  0.92268000  1.0
  N  N24  1  0.73579000  0.15976000  0.67018000  1.0
  N  N25  1  0.73580000  0.15974000  0.82982000  1.0
  N  N26  1  0.26419000  0.84025000  0.32982000  1.0
  N  N27  1  0.26421000  0.84028000  0.17018000  1.0
