# generated using pymatgen
data_TbH6C7O9
_symmetry_space_group_name_H-M   'P 1'
_cell_length_a   7.39381000
_cell_length_b   9.41925000
_cell_length_c   14.58400000
_cell_angle_alpha   89.99950000
_cell_angle_beta   102.72800000
_cell_angle_gamma   90.00000000
_symmetry_Int_Tables_number   1
_chemical_formula_structural   TbH6C7O9
_chemical_formula_sum   'Tb4 H24 C28 O36'
_cell_volume   990.73164304
_cell_formula_units_Z   4
loop_
 _symmetry_equiv_pos_site_id
 _symmetry_equiv_pos_as_xyz
  1  'x, y, z'
loop_
 _atom_site_type_symbol
 _atom_site_label
 _atom_site_symmetry_multiplicity
 _atom_site_fract_x
 _atom_site_fract_y
 _atom_site_fract_z
 _atom_site_occupancy
  Tb  Tb0  1  0.37865000  0.44687000  0.64626000  1.0
  Tb  Tb1  1  0.12135000  0.94687000  0.85374000  1.0
  Tb  Tb2  1  0.62135000  0.55313000  0.35375000  1.0
  Tb  Tb3  1  0.87864000  0.05313000  0.14626000  1.0
  H  H4  1  0.27831000  0.96110000  0.36434000  1.0
  H  H5  1  0.22168000  0.46108000  0.13565000  1.0
  H  H6  1  0.72169000  0.03890000  0.63566000  1.0
  H  H7  1  0.77833000  0.53891000  0.86435000  1.0
  H  H8  1  0.16856000  0.19329000  0.45027000  1.0
  H  H9  1  0.33143000  0.69328000  0.04973000  1.0
  H  H10  1  0.83143000  0.80671000  0.54973000  1.0
  H  H11  1  0.66857000  0.30672000  0.95027000  1.0
  H  H12  1  0.79987000  0.44580000  0.71176000  1.0
  H  H13  1  0.70013000  0.94579000  0.78824000  1.0
  H  H14  1  0.20014000  0.55420000  0.28824000  1.0
  H  H15  1  0.29987000  0.05420000  0.21176000  1.0
  H  H16  1  0.73170000  0.55749000  0.63327000  1.0
  H  H17  1  0.76830000  0.05748000  0.86673000  1.0
  H  H18  1  0.26830000  0.44251000  0.36673000  1.0
  H  H19  1  0.23169000  0.94251000  0.13327000  1.0
  H  H20  1  0.47041000  0.21907000  0.80671000  1.0
  H  H21  1  0.02960000  0.71907000  0.69329000  1.0
  H  H22  1  0.52959000  0.78093000  0.19329000  1.0
  H  H23  1  0.97040000  0.28094000  0.30671000  1.0
  H  H24  1  0.62415000  0.20379000  0.75106000  1.0
  H  H25  1  0.87585000  0.70378000  0.74894000  1.0
  H  H26  1  0.37586000  0.79621000  0.24895000  1.0
  H  H27  1  0.12413000  0.29622000  0.25105000  1.0
  C  C28  1  0.39920000  0.72786000  0.50223000  1.0
  C  C29  1  0.10079000  0.22785000  0.99777000  1.0
  C  C30  1  0.60081000  0.27215000  0.49778000  1.0
  C  C31  1  0.89921000  0.77214000  0.00223000  1.0
  C  C32  1  0.31232000  0.86740000  0.50482000  1.0
  C  C33  1  0.18768000  0.36739000  0.99517000  1.0
  C  C34  1  0.68769000  0.13261000  0.49518000  1.0
  C  C35  1  0.81233000  0.63261000  0.00482000  1.0
  C  C36  1  0.26872000  0.97132000  0.43703000  1.0
  C  C37  1  0.23127000  0.47130000  0.06296000  1.0
  C  C38  1  0.73128000  0.02869000  0.56296000  1.0
  C  C39  1  0.76873000  0.52869000  0.93704000  1.0
  C  C40  1  0.21020000  0.09091000  0.48126000  1.0
  C  C41  1  0.28979000  0.59090000  0.01873000  1.0
  C  C42  1  0.78980000  0.90910000  0.51874000  1.0
  C  C43  1  0.71020000  0.40910000  0.98126000  1.0
  C  C44  1  0.21824000  0.05283000  0.57332000  1.0
  C  C45  1  0.28176000  0.55283000  0.92667000  1.0
  C  C46  1  0.78176000  0.94717000  0.42668000  1.0
  C  C47  1  0.71823000  0.44717000  0.07332000  1.0
  C  C48  1  0.17031000  0.13112000  0.65221000  1.0
  C  C49  1  0.32969000  0.63113000  0.84778000  1.0
  C  C50  1  0.82969000  0.86888000  0.34779000  1.0
  C  C51  1  0.67030000  0.36887000  0.15221000  1.0
  C  C52  1  0.03653000  0.46151000  0.46097000  1.0
  C  C53  1  0.46348000  0.96150000  0.03903000  1.0
  C  C54  1  0.96350000  0.53850000  0.53904000  1.0
  C  C55  1  0.53650000  0.03849000  0.96097000  1.0
  O  O56  1  0.20721000  0.42979000  0.47888000  1.0
  O  O57  1  0.29278000  0.92978000  0.02112000  1.0
  O  O58  1  0.79280000  0.57022000  0.52112000  1.0
  O  O59  1  0.70720000  0.07020000  0.97888000  1.0
  O  O60  1  0.43567000  0.65365000  0.57656000  1.0
  O  O61  1  0.06432000  0.15365000  0.92343000  1.0
  O  O62  1  0.56433000  0.34635000  0.42344000  1.0
  O  O63  1  0.93567000  0.84635000  0.07657000  1.0
  O  O64  1  0.71774000  0.52778000  0.69724000  1.0
  O  O65  1  0.78225000  0.02777000  0.80276000  1.0
  O  O66  1  0.28226000  0.47223000  0.30276000  1.0
  O  O67  1  0.21774000  0.97223000  0.19724000  1.0
  O  O68  1  0.43465000  0.69298000  0.42351000  1.0
  O  O69  1  0.06534000  0.19298000  0.07648000  1.0
  O  O70  1  0.56537000  0.30702000  0.57649000  1.0
  O  O71  1  0.93465000  0.80702000  0.92352000  1.0
  O  O72  1  0.53460000  0.27279000  0.76514000  1.0
  O  O73  1  0.96541000  0.77279000  0.73487000  1.0
  O  O74  1  0.46541000  0.72720000  0.23486000  1.0
  O  O75  1  0.03458000  0.22722000  0.26513000  1.0
  O  O76  1  0.27897000  0.91532000  0.58841000  1.0
  O  O77  1  0.22103000  0.41532000  0.91158000  1.0
  O  O78  1  0.72103000  0.08468000  0.41159000  1.0
  O  O79  1  0.77897000  0.58468000  0.08842000  1.0
  O  O80  1  0.16447000  0.26622000  0.64652000  1.0
  O  O81  1  0.33554000  0.76622000  0.85348000  1.0
  O  O82  1  0.83553000  0.73378000  0.35348000  1.0
  O  O83  1  0.66444000  0.23378000  0.14651000  1.0
  O  O84  1  0.13654000  0.05999000  0.72021000  1.0
  O  O85  1  0.36347000  0.56000000  0.77979000  1.0
  O  O86  1  0.86346000  0.94001000  0.27979000  1.0
  O  O87  1  0.63653000  0.44000000  0.22021000  1.0
  O  O88  1  0.92139000  0.43607000  0.38462000  1.0
  O  O89  1  0.57860000  0.93605000  0.11538000  1.0
  O  O90  1  0.07862000  0.56394000  0.61539000  1.0
  O  O91  1  0.42138000  0.06395000  0.88462000  1.0
