# generated using pymatgen
data_ZnH7C10N3O4
_symmetry_space_group_name_H-M   'P 1'
_cell_length_a   8.94445000
_cell_length_b   10.47530000
_cell_length_c   13.05280000
_cell_angle_alpha   108.38990000
_cell_angle_beta   94.17110000
_cell_angle_gamma   91.02690000
_symmetry_Int_Tables_number   1
_chemical_formula_structural   ZnH7C10N3O4
_chemical_formula_sum   'Zn4 H28 C40 N12 O16'
_cell_volume   1156.38268968
_cell_formula_units_Z   4
loop_
 _symmetry_equiv_pos_site_id
 _symmetry_equiv_pos_as_xyz
  1  'x, y, z'
loop_
 _atom_site_type_symbol
 _atom_site_label
 _atom_site_symmetry_multiplicity
 _atom_site_fract_x
 _atom_site_fract_y
 _atom_site_fract_z
 _atom_site_occupancy
  Zn  Zn0  1  0.77699000  0.42601000  0.51455000  1.0
  Zn  Zn1  1  0.22301000  0.57399000  0.48544000  1.0
  Zn  Zn2  1  0.68539000  0.95361000  0.69654000  1.0
  Zn  Zn3  1  0.31462000  0.04639000  0.30346000  1.0
  H  H4  1  0.78276000  0.78886000  0.80240000  1.0
  H  H5  1  0.21724000  0.21114000  0.19760000  1.0
  H  H6  1  0.77982000  0.71940000  0.67240000  1.0
  H  H7  1  0.22018000  0.28059000  0.32760000  1.0
  H  H8  1  0.95150000  0.07398000  0.68296000  1.0
  H  H9  1  0.04850000  0.92603000  0.31704000  1.0
  H  H10  1  0.80582000  0.16980000  0.68283000  1.0
  H  H11  1  0.19418000  0.83020000  0.31718000  1.0
  H  H12  1  0.47080000  0.60687000  0.13741000  1.0
  H  H13  1  0.52920000  0.39313000  0.86259000  1.0
  H  H14  1  0.71599000  0.54160000  0.05822000  1.0
  H  H15  1  0.28401000  0.45840000  0.94178000  1.0
  H  H16  1  0.94546000  0.54915000  0.18280000  1.0
  H  H17  1  0.05454000  0.45085000  0.81720000  1.0
  H  H18  1  0.51600000  0.40113000  0.36712000  1.0
  H  H19  1  0.48400000  0.59886000  0.63288000  1.0
  H  H20  1  0.44451000  0.30001000  0.16738000  1.0
  H  H21  1  0.55549000  0.69999000  0.83262000  1.0
  H  H22  1  0.88830000  0.14729000  0.13257000  1.0
  H  H23  1  0.11170000  0.85270000  0.86743000  1.0
  H  H24  1  0.94396000  0.25564000  0.33256000  1.0
  H  H25  1  0.05604000  0.74436000  0.66744000  1.0
  H  H26  1  0.19282000  0.13714000  0.85753000  1.0
  H  H27  1  0.80719000  0.86286000  0.14247000  1.0
  H  H28  1  0.12244000  0.97029000  0.52170000  1.0
  H  H29  1  0.87756000  0.02971000  0.47830000  1.0
  H  H30  1  0.39380000  0.91246000  0.51247000  1.0
  H  H31  1  0.60620000  0.08754000  0.48753000  1.0
  C  C32  1  0.83025000  0.62418000  0.32734000  1.0
  C  C33  1  0.16976000  0.37582000  0.67266000  1.0
  C  C34  1  0.69263000  0.65950000  0.37156000  1.0
  C  C35  1  0.30737000  0.34050000  0.62844000  1.0
  C  C36  1  0.56306000  0.64996000  0.30133000  1.0
  C  C37  1  0.43694000  0.35004000  0.69867000  1.0
  C  C38  1  0.57310000  0.61105000  0.18930000  1.0
  C  C39  1  0.42690000  0.38895000  0.81070000  1.0
  C  C40  1  0.70979000  0.57465000  0.14578000  1.0
  C  C41  1  0.29021000  0.42535000  0.85422000  1.0
  C  C42  1  0.83760000  0.57894000  0.21477000  1.0
  C  C43  1  0.16240000  0.42106000  0.78523000  1.0
  C  C44  1  0.96954000  0.63478000  0.40095000  1.0
  C  C45  1  0.03046000  0.36523000  0.59905000  1.0
  C  C46  1  0.68853000  0.70754000  0.49304000  1.0
  C  C47  1  0.31147000  0.29247000  0.50696000  1.0
  C  C48  1  0.41008000  0.66380000  0.34281000  1.0
  C  C49  1  0.58991000  0.33620000  0.65719000  1.0
  C  C50  1  0.59469000  0.34410000  0.31199000  1.0
  C  C51  1  0.40531000  0.65590000  0.68801000  1.0
  C  C52  1  0.55528000  0.28735000  0.20228000  1.0
  C  C53  1  0.44472000  0.71265000  0.79772000  1.0
  C  C54  1  0.66058000  0.21505000  0.13421000  1.0
  C  C55  1  0.33942000  0.78495000  0.86579000  1.0
  C  C56  1  0.80333000  0.20317000  0.18196000  1.0
  C  C57  1  0.19667000  0.79682000  0.81804000  1.0
  C  C58  1  0.83524000  0.26315000  0.29250000  1.0
  C  C59  1  0.16475000  0.73685000  0.70750000  1.0
  C  C60  1  0.62056000  0.15467000  0.01888000  1.0
  C  C61  1  0.37944000  0.84532000  0.98112000  1.0
  C  C62  1  0.49836000  0.09182000  0.86746000  1.0
  C  C63  1  0.50164000  0.90817000  0.13254000  1.0
  C  C64  1  0.38959000  0.06110000  0.77443000  1.0
  C  C65  1  0.61041000  0.93889000  0.22557000  1.0
  C  C66  1  0.23720000  0.08936000  0.77961000  1.0
  C  C67  1  0.76281000  0.91064000  0.22039000  1.0
  C  C68  1  0.19798000  0.99639000  0.59494000  1.0
  C  C69  1  0.80202000  0.00360000  0.40506000  1.0
  C  C70  1  0.34900000  0.96512000  0.58912000  1.0
  C  C71  1  0.65100000  0.03488000  0.41088000  1.0
  N  N72  1  0.73305000  0.33313000  0.35661000  1.0
  N  N73  1  0.26695000  0.66686000  0.64339000  1.0
  N  N74  1  0.48152000  0.16140000  0.97108000  1.0
  N  N75  1  0.51848000  0.83859000  0.02892000  1.0
  N  N76  1  0.63871000  0.04546000  0.85256000  1.0
  N  N77  1  0.36130000  0.95454000  0.14745000  1.0
  N  N78  1  0.71843000  0.08511000  0.94916000  1.0
  N  N79  1  0.28157000  0.91489000  0.05085000  1.0
  N  N80  1  0.14257000  0.05741000  0.69023000  1.0
  N  N81  1  0.85744000  0.94259000  0.30977000  1.0
  N  N82  1  0.44427000  0.99755000  0.67794000  1.0
  N  N83  1  0.55574000  0.00244000  0.32206000  1.0
  O  O84  1  0.04825000  0.52792000  0.37944000  1.0
  O  O85  1  0.95175000  0.47209000  0.62056000  1.0
  O  O86  1  0.00286000  0.74031000  0.47793000  1.0
  O  O87  1  0.99715000  0.25970000  0.52207000  1.0
  O  O88  1  0.72532000  0.62748000  0.54700000  1.0
  O  O89  1  0.27468000  0.37252000  0.45300000  1.0
  O  O90  1  0.65522000  0.82824000  0.53700000  1.0
  O  O91  1  0.34479000  0.17176000  0.46300000  1.0
  O  O92  1  0.40262000  0.62867000  0.42876000  1.0
  O  O93  1  0.59738000  0.37133000  0.57124000  1.0
  O  O94  1  0.30409000  0.70031000  0.29185000  1.0
  O  O95  1  0.69591000  0.29969000  0.70815000  1.0
  O  O96  1  0.80922000  0.80279000  0.73565000  1.0
  O  O97  1  0.19078000  0.19721000  0.26435000  1.0
  O  O98  1  0.83918000  0.07548000  0.66597000  1.0
  O  O99  1  0.16082000  0.92452000  0.33403000  1.0
