# generated using pymatgen
data_ZnH16C24NO5
_symmetry_space_group_name_H-M   'P 1'
_cell_length_a   13.94790000
_cell_length_b   16.35330000
_cell_length_c   24.52030000
_cell_angle_alpha   90.00000000
_cell_angle_beta   90.00010000
_cell_angle_gamma   114.06800000
_symmetry_Int_Tables_number   1
_chemical_formula_structural   ZnH16C24NO5
_chemical_formula_sum   'Zn8 H128 C192 N8 O40'
_cell_volume   5106.69969594
_cell_formula_units_Z   8
loop_
 _symmetry_equiv_pos_site_id
 _symmetry_equiv_pos_as_xyz
  1  'x, y, z'
loop_
 _atom_site_type_symbol
 _atom_site_label
 _atom_site_symmetry_multiplicity
 _atom_site_fract_x
 _atom_site_fract_y
 _atom_site_fract_z
 _atom_site_occupancy
  Zn  Zn0  1  0.01781000  0.70398000  0.33865000  1.0
  Zn  Zn1  1  0.48219000  0.79602000  0.83865000  1.0
  Zn  Zn2  1  0.98219000  0.29602000  0.66135000  1.0
  Zn  Zn3  1  0.51781000  0.20399000  0.16135000  1.0
  Zn  Zn4  1  0.88909000  0.48263000  0.33771000  1.0
  Zn  Zn5  1  0.61091000  0.01737000  0.83771000  1.0
  Zn  Zn6  1  0.11091000  0.51737000  0.66229000  1.0
  Zn  Zn7  1  0.38910000  0.98263000  0.16229000  1.0
  H  H8  1  0.13968000  0.83076000  0.25699000  1.0
  H  H9  1  0.36032000  0.66923000  0.75699000  1.0
  H  H10  1  0.86032000  0.16923000  0.74301000  1.0
  H  H11  1  0.63968000  0.33077000  0.24301000  1.0
  H  H12  1  0.16365000  0.97658000  0.21494000  1.0
  H  H13  1  0.33635000  0.52342000  0.71494000  1.0
  H  H14  1  0.83635000  0.02342000  0.78506000  1.0
  H  H15  1  0.66365000  0.47658000  0.28506000  1.0
  H  H16  1  0.91351000  0.97550000  0.32023000  1.0
  H  H17  1  0.58649000  0.52451000  0.82023000  1.0
  H  H18  1  0.08649000  0.02450000  0.67977000  1.0
  H  H19  1  0.41351000  0.47549000  0.17977000  1.0
  H  H20  1  0.90190000  0.83000000  0.35735000  1.0
  H  H21  1  0.59809000  0.67000000  0.85735000  1.0
  H  H22  1  0.09809000  0.17000000  0.64265000  1.0
  H  H23  1  0.40191000  0.33000000  0.14265000  1.0
  H  H24  1  0.11653000  0.10010000  0.20855000  1.0
  H  H25  1  0.38347000  0.39990000  0.70855000  1.0
  H  H26  1  0.88347000  0.89990000  0.79145000  1.0
  H  H27  1  0.61653000  0.60010000  0.29145000  1.0
  H  H28  1  0.97821000  0.11815000  0.30183000  1.0
  H  H29  1  0.52179000  0.38185000  0.80183000  1.0
  H  H30  1  0.02179000  0.88185000  0.69817000  1.0
  H  H31  1  0.47821000  0.61815000  0.19817000  1.0
  H  H32  1  0.13652000  0.22651000  0.17308000  1.0
  H  H33  1  0.36348000  0.27348000  0.67309000  1.0
  H  H34  1  0.86348000  0.77348000  0.82691000  1.0
  H  H35  1  0.63652000  0.72652000  0.32692000  1.0
  H  H36  1  0.19817000  0.38648000  0.15418000  1.0
  H  H37  1  0.30183000  0.11352000  0.65418000  1.0
  H  H38  1  0.80182000  0.61352000  0.84581000  1.0
  H  H39  1  0.69817000  0.88648000  0.34582000  1.0
  H  H40  1  0.05278000  0.42268000  0.30210000  1.0
  H  H41  1  0.44722000  0.07732000  0.80210000  1.0
  H  H42  1  0.94721000  0.57732000  0.69790000  1.0
  H  H43  1  0.55278000  0.92268000  0.19790000  1.0
  H  H44  1  0.99074000  0.26041000  0.32201000  1.0
  H  H45  1  0.50925000  0.23958000  0.82201000  1.0
  H  H46  1  0.00925000  0.73959000  0.67799000  1.0
  H  H47  1  0.49074000  0.76041000  0.17799000  1.0
  H  H48  1  0.14528000  0.54652000  0.25305000  1.0
  H  H49  1  0.35472000  0.95348000  0.75305000  1.0
  H  H50  1  0.85471000  0.45348000  0.74695000  1.0
  H  H51  1  0.64528000  0.04652000  0.24695000  1.0
  H  H52  1  0.22794000  0.52878000  0.13876000  1.0
  H  H53  1  0.27206000  0.97122000  0.63876000  1.0
  H  H54  1  0.77206000  0.47122000  0.86124000  1.0
  H  H55  1  0.72794000  0.02878000  0.36124000  1.0
  H  H56  1  0.35789000  0.83380000  0.08259000  1.0
  H  H57  1  0.14211000  0.66620000  0.58259000  1.0
  H  H58  1  0.64211000  0.16620000  0.91741000  1.0
  H  H59  1  0.85789000  0.33380000  0.41741000  1.0
  H  H60  1  0.29084000  0.66666667  0.08586000  1.0
  H  H61  1  0.20916000  0.83329000  0.58586000  1.0
  H  H62  1  0.70916000  0.33329000  0.91414000  1.0
  H  H63  1  0.79084000  0.16671000  0.41414000  1.0
  H  H64  1  0.22780000  0.68395000  0.25802000  1.0
  H  H65  1  0.27221000  0.81606000  0.75802000  1.0
  H  H66  1  0.77220000  0.31605000  0.74198000  1.0
  H  H67  1  0.72779000  0.18395000  0.24198000  1.0
  H  H68  1  0.30122000  0.84576000  0.24802000  1.0
  H  H69  1  0.19878000  0.65424000  0.74802000  1.0
  H  H70  1  0.69878000  0.15424000  0.75198000  1.0
  H  H71  1  0.80123000  0.34576000  0.25198000  1.0
  H  H72  1  0.21541000  0.78573000  0.49009000  1.0
  H  H73  1  0.28459000  0.71426000  0.99009000  1.0
  H  H74  1  0.78459000  0.21426000  0.50991000  1.0
  H  H75  1  0.71541000  0.28573000  0.00991000  1.0
  H  H76  1  0.37712000  0.84043000  0.54788000  1.0
  H  H77  1  0.12288000  0.65957000  0.04788000  1.0
  H  H78  1  0.62288000  0.15957000  0.45212000  1.0
  H  H79  1  0.87712000  0.34043000  0.95212000  1.0
  H  H80  1  0.56457000  0.86731000  0.40404000  1.0
  H  H81  1  0.93543000  0.63269000  0.90404000  1.0
  H  H82  1  0.43543000  0.13269000  0.59596000  1.0
  H  H83  1  0.06457000  0.36731000  0.09596000  1.0
  H  H84  1  0.40257000  0.81665000  0.34660000  1.0
  H  H85  1  0.09743000  0.68335000  0.84660000  1.0
  H  H86  1  0.59743000  0.18336000  0.65340000  1.0
  H  H87  1  0.90257000  0.31665000  0.15340000  1.0
  H  H88  1  0.66317000  0.04471000  0.66386000  1.0
  H  H89  1  0.83683000  0.45528000  0.16386000  1.0
  H  H90  1  0.33683000  0.95528000  0.33614000  1.0
  H  H91  1  0.16317000  0.54471000  0.83614000  1.0
  H  H92  1  0.66173000  0.03066000  0.56203000  1.0
  H  H93  1  0.83827000  0.46934000  0.06203000  1.0
  H  H94  1  0.33827000  0.96934000  0.43797000  1.0
  H  H95  1  0.16173000  0.53066000  0.93797000  1.0
  H  H96  1  0.48446000  0.74609000  0.57520000  1.0
  H  H97  1  0.01554000  0.75390000  0.07520000  1.0
  H  H98  1  0.51554000  0.25391000  0.42480000  1.0
  H  H99  1  0.98446000  0.24609000  0.92480000  1.0
  H  H100  1  0.48146000  0.76082000  0.67720000  1.0
  H  H101  1  0.01854000  0.73918000  0.17720000  1.0
  H  H102  1  0.51854000  0.23918000  0.32280000  1.0
  H  H103  1  0.98146000  0.26082000  0.82280000  1.0
  H  H104  1  0.80019000  0.74177000  0.43675000  1.0
  H  H105  1  0.69981000  0.75823000  0.93675000  1.0
  H  H106  1  0.19981000  0.25823000  0.56325000  1.0
  H  H107  1  0.30019000  0.24177000  0.06325000  1.0
  H  H108  1  0.65023000  0.76345000  0.48217000  1.0
  H  H109  1  0.84977000  0.73655000  0.98217000  1.0
  H  H110  1  0.34977000  0.23655000  0.51784000  1.0
  H  H111  1  0.15023000  0.26345000  0.01783000  1.0
  H  H112  1  0.44411000  0.49341000  0.43930000  1.0
  H  H113  1  0.05589000  0.00659000  0.93931000  1.0
  H  H114  1  0.55589000  0.50659000  0.56069000  1.0
  H  H115  1  0.94411000  0.99341000  0.06070000  1.0
  H  H116  1  0.59333000  0.47216000  0.39488000  1.0
  H  H117  1  0.90667000  0.02784000  0.89488000  1.0
  H  H118  1  0.40667000  0.52784000  0.60511000  1.0
  H  H119  1  0.09333000  0.97216000  0.10512000  1.0
  H  H120  1  0.10504000  0.52631000  0.50227000  1.0
  H  H121  1  0.39496000  0.97369000  0.00227000  1.0
  H  H122  1  0.89496000  0.47369000  0.49773000  1.0
  H  H123  1  0.60504000  0.02631000  0.99773000  1.0
  H  H124  1  0.28410000  0.57819000  0.54291000  1.0
  H  H125  1  0.21590000  0.92181000  0.04291000  1.0
  H  H126  1  0.71590000  0.42181000  0.45709000  1.0
  H  H127  1  0.78410000  0.07819000  0.95709000  1.0
  H  H128  1  0.41962000  0.63637000  0.38181000  1.0
  H  H129  1  0.08038000  0.86363000  0.88181000  1.0
  H  H130  1  0.58038000  0.36363000  0.61819000  1.0
  H  H131  1  0.91962000  0.13637000  0.11819000  1.0
  H  H132  1  0.24079000  0.58682000  0.34173000  1.0
  H  H133  1  0.25921000  0.91318000  0.84173000  1.0
  H  H134  1  0.75921000  0.41317000  0.65827000  1.0
  H  H135  1  0.74079000  0.08682000  0.15827000  1.0
  C  C136  1  0.09173000  0.86580000  0.26945000  1.0
  C  C137  1  0.40827000  0.63419000  0.76945000  1.0
  C  C138  1  0.90827000  0.13419000  0.73055000  1.0
  C  C139  1  0.59173000  0.36581000  0.23055000  1.0
  C  C140  1  0.10411000  0.94679000  0.24632000  1.0
  C  C141  1  0.39588000  0.55321000  0.74632000  1.0
  C  C142  1  0.89589000  0.05321000  0.75368000  1.0
  C  C143  1  0.60412000  0.44679000  0.25368000  1.0
  C  C144  1  0.04228000  0.99106000  0.26478000  1.0
  C  C145  1  0.45772000  0.50894000  0.76478000  1.0
  C  C146  1  0.95772000  0.00894000  0.73522000  1.0
  C  C147  1  0.54228000  0.49105000  0.23522000  1.0
  C  C148  1  0.96669000  0.94696000  0.30517000  1.0
  C  C149  1  0.53331000  0.55304000  0.80517000  1.0
  C  C150  1  0.03331000  0.05304000  0.69483000  1.0
  C  C151  1  0.46669000  0.44696000  0.19484000  1.0
  C  C152  1  0.95930000  0.86581000  0.32606000  1.0
  C  C153  1  0.54070000  0.63419000  0.82606000  1.0
  C  C154  1  0.04069000  0.13419000  0.67394000  1.0
  C  C155  1  0.45930000  0.36581000  0.17394000  1.0
  C  C156  1  0.06282000  0.07945000  0.24331000  1.0
  C  C157  1  0.43718000  0.42055000  0.74331000  1.0
  C  C158  1  0.93718000  0.92055000  0.75669000  1.0
  C  C159  1  0.56282000  0.57945000  0.25669000  1.0
  C  C160  1  0.02869000  0.13842000  0.26575000  1.0
  C  C161  1  0.47131000  0.36158000  0.76575000  1.0
  C  C162  1  0.97131000  0.86158000  0.73425000  1.0
  C  C163  1  0.52869000  0.63841000  0.23426000  1.0
  C  C164  1  0.05935000  0.23103000  0.24958000  1.0
  C  C165  1  0.44065000  0.26897000  0.74958000  1.0
  C  C166  1  0.94065000  0.76897000  0.75042000  1.0
  C  C167  1  0.55935000  0.73103000  0.25042000  1.0
  C  C168  1  0.11742000  0.26870000  0.20175000  1.0
  C  C169  1  0.38259000  0.23130000  0.70175000  1.0
  C  C170  1  0.88258000  0.73130000  0.79825000  1.0
  C  C171  1  0.61741000  0.76870000  0.29825000  1.0
  C  C172  1  0.15160000  0.35925000  0.19082000  1.0
  C  C173  1  0.34840000  0.14075000  0.69082000  1.0
  C  C174  1  0.84840000  0.64075000  0.80918000  1.0
  C  C175  1  0.65160000  0.85925000  0.30918000  1.0
  C  C176  1  0.12864000  0.41662000  0.22668000  1.0
  C  C177  1  0.37136000  0.08338000  0.72668000  1.0
  C  C178  1  0.87136000  0.58337000  0.77331000  1.0
  C  C179  1  0.62864000  0.91663000  0.27332000  1.0
  C  C180  1  0.06988000  0.37874000  0.27396000  1.0
  C  C181  1  0.43011000  0.12126000  0.77396000  1.0
  C  C182  1  0.93011000  0.62126000  0.72604000  1.0
  C  C183  1  0.56989000  0.87874000  0.22604000  1.0
  C  C184  1  0.03547000  0.28807000  0.28490000  1.0
  C  C185  1  0.46452000  0.21193000  0.78491000  1.0
  C  C186  1  0.96452000  0.71193000  0.71509000  1.0
  C  C187  1  0.53547000  0.78807000  0.21510000  1.0
  C  C188  1  0.16361000  0.51229000  0.21886000  1.0
  C  C189  1  0.33640000  0.98771000  0.71886000  1.0
  C  C190  1  0.83639000  0.48771000  0.78114000  1.0
  C  C191  1  0.66361000  0.01229000  0.28114000  1.0
  C  C192  1  0.21396000  0.56153000  0.17497000  1.0
  C  C193  1  0.28605000  0.93847000  0.67497000  1.0
  C  C194  1  0.78605000  0.43847000  0.82503000  1.0
  C  C195  1  0.71395000  0.06153000  0.32503000  1.0
  C  C196  1  0.32726000  0.79665000  0.12014000  1.0
  C  C197  1  0.17274000  0.70335000  0.62014000  1.0
  C  C198  1  0.67274000  0.20335000  0.87986000  1.0
  C  C199  1  0.82726000  0.29665000  0.37986000  1.0
  C  C200  1  0.28999000  0.70401000  0.12261000  1.0
  C  C201  1  0.21001000  0.79599000  0.62261000  1.0
  C  C202  1  0.71001000  0.29599000  0.87739000  1.0
  C  C203  1  0.78999000  0.20401000  0.37739000  1.0
  C  C204  1  0.25139000  0.65836000  0.17206000  1.0
  C  C205  1  0.24861000  0.84164000  0.67206000  1.0
  C  C206  1  0.74861000  0.34164000  0.82794000  1.0
  C  C207  1  0.75139000  0.15836000  0.32794000  1.0
  C  C208  1  0.25459000  0.71167000  0.21773000  1.0
  C  C209  1  0.24541000  0.78833000  0.71773000  1.0
  C  C210  1  0.74541000  0.28833000  0.78227000  1.0
  C  C211  1  0.75459000  0.21167000  0.28227000  1.0
  C  C212  1  0.29493000  0.80380000  0.21251000  1.0
  C  C213  1  0.20508000  0.69620000  0.71250000  1.0
  C  C214  1  0.70508000  0.19620000  0.78749000  1.0
  C  C215  1  0.79492000  0.30380000  0.28749000  1.0
  C  C216  1  0.20300000  0.76563000  0.38025000  1.0
  C  C217  1  0.29700000  0.73437000  0.88025000  1.0
  C  C218  1  0.79700000  0.23437000  0.61975000  1.0
  C  C219  1  0.70300000  0.26563000  0.11975000  1.0
  C  C220  1  0.29878000  0.79793000  0.41494000  1.0
  C  C221  1  0.20122000  0.70207000  0.91494000  1.0
  C  C222  1  0.70122000  0.20208000  0.58506000  1.0
  C  C223  1  0.79878000  0.29793000  0.08506000  1.0
  C  C224  1  0.29261000  0.80465000  0.47164000  1.0
  C  C225  1  0.20739000  0.69535000  0.97164000  1.0
  C  C226  1  0.70739000  0.19535000  0.52836000  1.0
  C  C227  1  0.79261000  0.30465000  0.02836000  1.0
  C  C228  1  0.38264000  0.83477000  0.50391000  1.0
  C  C229  1  0.11736000  0.66523000  0.00391000  1.0
  C  C230  1  0.61736000  0.16523000  0.49609000  1.0
  C  C231  1  0.88264000  0.33477000  0.99609000  1.0
  C  C232  1  0.48022000  0.85586000  0.47906000  1.0
  C  C233  1  0.01978000  0.64415000  0.97906000  1.0
  C  C234  1  0.51979000  0.14415000  0.52094000  1.0
  C  C235  1  0.98022000  0.35585000  0.02094000  1.0
  C  C236  1  0.48779000  0.85011000  0.42241000  1.0
  C  C237  1  0.01221000  0.64990000  0.92241000  1.0
  C  C238  1  0.51221000  0.14990000  0.57759000  1.0
  C  C239  1  0.98779000  0.35010000  0.07759000  1.0
  C  C240  1  0.39777000  0.82186000  0.39074000  1.0
  C  C241  1  0.10223000  0.67814000  0.89074000  1.0
  C  C242  1  0.60223000  0.17814000  0.60926000  1.0
  C  C243  1  0.89777000  0.32186000  0.10926000  1.0
  C  C244  1  0.56544000  0.91262000  0.73706000  1.0
  C  C245  1  0.93456000  0.58738000  0.23706000  1.0
  C  C246  1  0.43456000  0.08738000  0.26294000  1.0
  C  C247  1  0.06544000  0.41262000  0.76294000  1.0
  C  C248  1  0.57089000  0.90372000  0.67664000  1.0
  C  C249  1  0.92911000  0.59628000  0.17664000  1.0
  C  C250  1  0.42911000  0.09627000  0.32336000  1.0
  C  C251  1  0.07089000  0.40372000  0.82336000  1.0
  C  C252  1  0.62395000  0.97958000  0.64441000  1.0
  C  C253  1  0.87605000  0.52042000  0.14441000  1.0
  C  C254  1  0.37605000  0.02042000  0.35559000  1.0
  C  C255  1  0.12395000  0.47958000  0.85559000  1.0
  C  C256  1  0.62402000  0.97209000  0.58787000  1.0
  C  C257  1  0.87599000  0.52791000  0.08787000  1.0
  C  C258  1  0.37598000  0.02791000  0.41213000  1.0
  C  C259  1  0.12402000  0.47209000  0.91213000  1.0
  C  C260  1  0.57210000  0.88831000  0.56385000  1.0
  C  C261  1  0.92791000  0.61169000  0.06385000  1.0
  C  C262  1  0.42791000  0.11169000  0.43615000  1.0
  C  C263  1  0.07210000  0.38831000  0.93615000  1.0
  C  C264  1  0.52251000  0.81097000  0.59524000  1.0
  C  C265  1  0.97749000  0.68903000  0.09524000  1.0
  C  C266  1  0.47749000  0.18903000  0.40476000  1.0
  C  C267  1  0.02251000  0.31097000  0.90476000  1.0
  C  C268  1  0.52130000  0.81949000  0.65166000  1.0
  C  C269  1  0.97870000  0.68051000  0.15166000  1.0
  C  C270  1  0.47870000  0.18051000  0.34834000  1.0
  C  C271  1  0.02130000  0.31948000  0.84834000  1.0
  C  C272  1  0.79427000  0.59468000  0.38431000  1.0
  C  C273  1  0.70573000  0.90533000  0.88431000  1.0
  C  C274  1  0.20573000  0.40533000  0.61569000  1.0
  C  C275  1  0.29428000  0.09468000  0.11570000  1.0
  C  C276  1  0.70563000  0.60649000  0.41197000  1.0
  C  C277  1  0.79437000  0.89351000  0.91198000  1.0
  C  C278  1  0.29437000  0.39351000  0.58803000  1.0
  C  C279  1  0.20563000  0.10649000  0.08803000  1.0
  C  C280  1  0.72165000  0.68808000  0.43721000  1.0
  C  C281  1  0.77835000  0.81192000  0.93721000  1.0
  C  C282  1  0.27835000  0.31192000  0.56279000  1.0
  C  C283  1  0.22165000  0.18808000  0.06279000  1.0
  C  C284  1  0.63926000  0.70032000  0.46269000  1.0
  C  C285  1  0.86073000  0.79968000  0.96269000  1.0
  C  C286  1  0.36074000  0.29968000  0.53731000  1.0
  C  C287  1  0.13926000  0.20032000  0.03731000  1.0
  C  C288  1  0.53948000  0.62997000  0.46250000  1.0
  C  C289  1  0.96052000  0.87003000  0.96250000  1.0
  C  C290  1  0.46052000  0.37003000  0.53750000  1.0
  C  C291  1  0.03948000  0.12997000  0.03750000  1.0
  C  C292  1  0.52223000  0.54758000  0.43823000  1.0
  C  C293  1  0.97777000  0.95242000  0.93823000  1.0
  C  C294  1  0.47777000  0.45242000  0.56177000  1.0
  C  C295  1  0.02223000  0.04758000  0.06177000  1.0
  C  C296  1  0.60531000  0.53616000  0.41337000  1.0
  C  C297  1  0.89469000  0.96384000  0.91337000  1.0
  C  C298  1  0.39469000  0.46384000  0.58663000  1.0
  C  C299  1  0.10531000  0.03616000  0.08663000  1.0
  C  C300  1  0.05530000  0.52469000  0.39598000  1.0
  C  C301  1  0.44470000  0.97531000  0.89598000  1.0
  C  C302  1  0.94470000  0.47531000  0.60402000  1.0
  C  C303  1  0.55530000  0.02469000  0.10401000  1.0
  C  C304  1  0.16186000  0.55274000  0.41941000  1.0
  C  C305  1  0.33814000  0.94726000  0.91941000  1.0
  C  C306  1  0.83814000  0.44726000  0.58059000  1.0
  C  C307  1  0.66186000  0.05274000  0.08059000  1.0
  C  C308  1  0.17407000  0.55006000  0.47605000  1.0
  C  C309  1  0.32593000  0.94994000  0.97605000  1.0
  C  C310  1  0.82593000  0.44993000  0.52395000  1.0
  C  C311  1  0.67407000  0.05006000  0.02395000  1.0
  C  C312  1  0.27384000  0.57940000  0.49889000  1.0
  C  C313  1  0.22616000  0.92060000  0.99889000  1.0
  C  C314  1  0.72616000  0.42059000  0.50111000  1.0
  C  C315  1  0.77384000  0.07940000  0.00111000  1.0
  C  C316  1  0.36121000  0.60977000  0.46455000  1.0
  C  C317  1  0.13879000  0.89023000  0.96455000  1.0
  C  C318  1  0.63879000  0.39023000  0.53545000  1.0
  C  C319  1  0.86121000  0.10976000  0.03545000  1.0
  C  C320  1  0.35046000  0.61137000  0.40790000  1.0
  C  C321  1  0.14954000  0.88862000  0.90790000  1.0
  C  C322  1  0.64954000  0.38862000  0.59210000  1.0
  C  C323  1  0.85046000  0.11138000  0.09210000  1.0
  C  C324  1  0.25059000  0.58339000  0.38561000  1.0
  C  C325  1  0.24941000  0.91661000  0.88561000  1.0
  C  C326  1  0.74941000  0.41660000  0.61439000  1.0
  C  C327  1  0.75059000  0.08339000  0.11439000  1.0
  N  N328  1  0.02155000  0.82578000  0.30918000  1.0
  N  N329  1  0.47845000  0.67422000  0.80918000  1.0
  N  N330  1  0.97845000  0.17422000  0.69082000  1.0
  N  N331  1  0.52155000  0.32578000  0.19082000  1.0
  N  N332  1  0.33018000  0.84654000  0.16457000  1.0
  N  N333  1  0.16982000  0.65346000  0.66457000  1.0
  N  N334  1  0.66982000  0.15346000  0.83543000  1.0
  N  N335  1  0.83018000  0.34654000  0.33543000  1.0
  O  O336  1  0.21142000  0.76783000  0.32884000  1.0
  O  O337  1  0.28858000  0.73217000  0.82885000  1.0
  O  O338  1  0.78858000  0.23217000  0.67115000  1.0
  O  O339  1  0.71141000  0.26783000  0.17116000  1.0
  O  O340  1  0.11229000  0.73563000  0.40405000  1.0
  O  O341  1  0.38771000  0.76437000  0.90405000  1.0
  O  O342  1  0.88771000  0.26436000  0.59595000  1.0
  O  O343  1  0.61229000  0.23564000  0.09595000  1.0
  O  O344  1  0.57402000  0.88432000  0.50712000  1.0
  O  O345  1  0.92598000  0.61568000  0.00712000  1.0
  O  O346  1  0.42599000  0.11568000  0.49288000  1.0
  O  O347  1  0.07402000  0.38431000  0.99288000  1.0
  O  O348  1  0.62084000  0.98881000  0.75825000  1.0
  O  O349  1  0.87916000  0.51119000  0.25825000  1.0
  O  O350  1  0.37915000  0.01119000  0.24175000  1.0
  O  O351  1  0.12085000  0.48881000  0.74175000  1.0
  O  O352  1  0.50465000  0.84304000  0.76271000  1.0
  O  O353  1  0.99535000  0.65696000  0.26271000  1.0
  O  O354  1  0.49534000  0.15695000  0.23729000  1.0
  O  O355  1  0.00466000  0.34305000  0.73729000  1.0
  O  O356  1  0.87818000  0.66433000  0.37690000  1.0
  O  O357  1  0.62182000  0.83567000  0.87690000  1.0
  O  O358  1  0.12182000  0.33568000  0.62310000  1.0
  O  O359  1  0.37818000  0.16433000  0.12310000  1.0
  O  O360  1  0.77859000  0.51493000  0.36969000  1.0
  O  O361  1  0.72142000  0.98507000  0.86969000  1.0
  O  O362  1  0.22142000  0.48507000  0.63031000  1.0
  O  O363  1  0.27859000  0.01493000  0.13031000  1.0
  O  O364  1  0.45976000  0.64316000  0.48905000  1.0
  O  O365  1  0.04024000  0.85684000  0.98905000  1.0
  O  O366  1  0.54024000  0.35684000  0.51095000  1.0
  O  O367  1  0.95976000  0.14316000  0.01095000  1.0
  O  O368  1  0.97421000  0.47926000  0.42307000  1.0
  O  O369  1  0.52579000  0.02075000  0.92307000  1.0
  O  O370  1  0.02579000  0.52075000  0.57694000  1.0
  O  O371  1  0.47421000  0.97926000  0.07693000  1.0
  O  O372  1  0.04717000  0.54753000  0.34563000  1.0
  O  O373  1  0.45282000  0.95248000  0.84563000  1.0
  O  O374  1  0.95282000  0.45247000  0.65437000  1.0
  O  O375  1  0.54718000  0.04753000  0.15437000  1.0
