# generated using pymatgen
data_ZnH8(C5N2)2
_symmetry_space_group_name_H-M   'P 1'
_cell_length_a   14.49190000
_cell_length_b   15.02120000
_cell_length_c   21.34460000
_cell_angle_alpha   89.94670000
_cell_angle_beta   90.14840000
_cell_angle_gamma   89.92760000
_symmetry_Int_Tables_number   1
_chemical_formula_structural   ZnH8(C5N2)2
_chemical_formula_sum   'Zn8 H64 C80 N32'
_cell_volume   4646.39347655
_cell_formula_units_Z   8
loop_
 _symmetry_equiv_pos_site_id
 _symmetry_equiv_pos_as_xyz
  1  'x, y, z'
loop_
 _atom_site_type_symbol
 _atom_site_label
 _atom_site_symmetry_multiplicity
 _atom_site_fract_x
 _atom_site_fract_y
 _atom_site_fract_z
 _atom_site_occupancy
  Zn  Zn0  1  0.66345000  0.52354000  0.98432000  1.0
  Zn  Zn1  1  0.50449000  0.37022000  0.99677000  1.0
  Zn  Zn2  1  0.34261000  0.52040000  0.99770000  1.0
  Zn  Zn3  1  0.49995000  0.67782000  0.99056000  1.0
  Zn  Zn4  1  0.14910000  0.99917000  0.50089000  1.0
  Zn  Zn5  1  0.98672000  0.84686000  0.49115000  1.0
  Zn  Zn6  1  0.82702000  0.00471000  0.48564000  1.0
  Zn  Zn7  1  0.99107000  0.15340000  0.49696000  1.0
  H  H8  1  0.29246000  0.52359000  0.84821000  1.0
  H  H9  1  0.89257000  0.32209000  0.42545000  1.0
  H  H10  1  0.20657000  0.99969000  0.35260000  1.0
  H  H11  1  0.10704000  0.69035000  0.41688000  1.0
  H  H12  1  0.17127000  0.01008000  0.65009000  1.0
  H  H13  1  0.09958000  0.31291000  0.57425000  1.0
  H  H14  1  0.76996000  0.99402000  0.63512000  1.0
  H  H15  1  0.86417000  0.68818000  0.55754000  1.0
  H  H16  1  0.31630000  0.13241000  0.15798000  1.0
  H  H17  1  0.28095000  0.55580000  0.25131000  1.0
  H  H18  1  0.72191000  0.91873000  0.13085000  1.0
  H  H19  1  0.37258000  0.83440000  0.91938000  1.0
  H  H20  1  0.76927000  0.47499000  0.24401000  1.0
  H  H21  1  0.68421000  0.11653000  0.84497000  1.0
  H  H22  1  0.70115000  0.54657000  0.72221000  1.0
  H  H23  1  0.25848000  0.91539000  0.85155000  1.0
  H  H24  1  0.25072000  0.46532000  0.74182000  1.0
  H  H25  1  0.75981000  0.60642000  0.62801000  1.0
  H  H26  1  0.72804000  0.05197000  0.74605000  1.0
  H  H27  1  0.19450000  0.39881000  0.64757000  1.0
  H  H28  1  0.19239000  0.97217000  0.75829000  1.0
  H  H29  1  0.21218000  0.61333000  0.34279000  1.0
  H  H30  1  0.68214000  0.50634000  0.83362000  1.0
  H  H31  1  0.25822000  0.06693000  0.25163000  1.0
  H  H32  1  0.81523000  0.41006000  0.34253000  1.0
  H  H33  1  0.78133000  0.97876000  0.22470000  1.0
  H  H34  1  0.81279000  0.40684000  0.89566000  1.0
  H  H35  1  0.51224000  0.32722000  0.84681000  1.0
  H  H36  1  0.16990000  0.62354000  0.92722000  1.0
  H  H37  1  0.46955000  0.70947000  0.84014000  1.0
  H  H38  1  0.18443000  0.40958000  0.08211000  1.0
  H  H39  1  0.49456000  0.34994000  0.14753000  1.0
  H  H40  1  0.83394000  0.63719000  0.05055000  1.0
  H  H41  1  0.60806000  0.20277000  0.92829000  1.0
  H  H42  1  0.52072000  0.71942000  0.14218000  1.0
  H  H43  1  0.31937000  0.89143000  0.43146000  1.0
  H  H44  1  0.01781000  0.81823000  0.34076000  1.0
  H  H45  1  0.67837000  0.12538000  0.39844000  1.0
  H  H46  1  0.98539000  0.19446000  0.34722000  1.0
  H  H47  1  0.65542000  0.89414000  0.55301000  1.0
  H  H48  1  0.96004000  0.80608000  0.64262000  1.0
  H  H49  1  0.30908000  0.10805000  0.58615000  1.0
  H  H50  1  0.00107000  0.17638000  0.64752000  1.0
  H  H51  1  0.16358000  0.27372000  0.16942000  1.0
  H  H52  1  0.72257000  0.53562000  0.13374000  1.0
  H  H53  1  0.42010000  0.71014000  0.25396000  1.0
  H  H54  1  0.86458000  0.76768000  0.13991000  1.0
  H  H55  1  0.59532000  0.35894000  0.25316000  1.0
  H  H56  1  0.82669000  0.26222000  0.81590000  1.0
  H  H57  1  0.56117000  0.70033000  0.72694000  1.0
  H  H58  1  0.13187000  0.75238000  0.83904000  1.0
  H  H59  1  0.40891000  0.32879000  0.73944000  1.0
  H  H60  1  0.62328000  0.76206000  0.64064000  1.0
  H  H61  1  0.90080000  0.16999000  0.75336000  1.0
  H  H62  1  0.33227000  0.24649000  0.67101000  1.0
  H  H63  1  0.61902000  0.83674000  0.06007000  1.0
  H  H64  1  0.05922000  0.81296000  0.75616000  1.0
  H  H65  1  0.35460000  0.76472000  0.34206000  1.0
  H  H66  1  0.09103000  0.19226000  0.24075000  1.0
  H  H67  1  0.66722000  0.26810000  0.31705000  1.0
  H  H68  1  0.92542000  0.82847000  0.22766000  1.0
  H  H69  1  0.31449000  0.51057000  0.14623000  1.0
  H  H70  1  0.40211000  0.21225000  0.07820000  1.0
  H  H71  1  0.80491000  0.02121000  0.33518000  1.0
  C  C72  1  0.75506000  0.36617000  0.91092000  1.0
  C  C73  1  0.96694000  0.86968000  0.35009000  1.0
  C  C74  1  0.73828000  0.16416000  0.41236000  1.0
  C  C75  1  0.03620000  0.14382000  0.35886000  1.0
  C  C76  1  0.71587000  0.85203000  0.54731000  1.0
  C  C77  1  0.01029000  0.85821000  0.63391000  1.0
  C  C78  1  0.24940000  0.14958000  0.57603000  1.0
  C  C79  1  0.94742000  0.12979000  0.63389000  1.0
  C  C80  1  0.34887000  0.47803000  0.85808000  1.0
  C  C81  1  0.33195000  0.77507000  0.92840000  1.0
  C  C82  1  0.62896000  0.55425000  0.84566000  1.0
  C  C83  1  0.46135000  0.37806000  0.85760000  1.0
  C  C84  1  0.65148000  0.26164000  0.92763000  1.0
  C  C85  1  0.66421000  0.49148000  0.12675000  1.0
  C  C86  1  0.66308000  0.77974000  0.05075000  1.0
  C  C87  1  0.36698000  0.55945000  0.13496000  1.0
  C  C88  1  0.35626000  0.26877000  0.07172000  1.0
  C  C89  1  0.85828000  0.97326000  0.34699000  1.0
  C  C90  1  0.84676000  0.26492000  0.42616000  1.0
  C  C91  1  0.14958000  0.04487000  0.36149000  1.0
  C  C92  1  0.15028000  0.74740000  0.42754000  1.0
  C  C93  1  0.11791000  0.96246000  0.63795000  1.0
  C  C94  1  0.22917000  0.66727000  0.93215000  1.0
  C  C95  1  0.14327000  0.25448000  0.56977000  1.0
  C  C96  1  0.82899000  0.03718000  0.62780000  1.0
  C  C97  1  0.82167000  0.74670000  0.54940000  1.0
  C  C98  1  0.73029000  0.27983000  0.89132000  1.0
  C  C99  1  0.39217000  0.41489000  0.81892000  1.0
  C  C100  1  0.24446000  0.75113000  0.90463000  1.0
  C  C101  1  0.58142000  0.61575000  0.80722000  1.0
  C  C102  1  0.27150000  0.28788000  0.10105000  1.0
  C  C103  1  0.61911000  0.43452000  0.16954000  1.0
  C  C104  1  0.75181000  0.76007000  0.07438000  1.0
  C  C105  1  0.52050000  0.65793000  0.84925000  1.0
  C  C106  1  0.40907000  0.62428000  0.17335000  1.0
  C  C107  1  0.23876000  0.76903000  0.40466000  1.0
  C  C108  1  0.90521000  0.91189000  0.30835000  1.0
  C  C109  1  0.76579000  0.24900000  0.39127000  1.0
  C  C110  1  0.10762000  0.10842000  0.32175000  1.0
  C  C111  1  0.73421000  0.76809000  0.57408000  1.0
  C  C112  1  0.07233000  0.89938000  0.67589000  1.0
  C  C113  1  0.22722000  0.23420000  0.60013000  1.0
  C  C114  1  0.87554000  0.09372000  0.67022000  1.0
  C  C115  1  0.25392000  0.16325000  0.17699000  1.0
  C  C116  1  0.24580000  0.36969000  0.07374000  1.0
  C  C117  1  0.31455000  0.61521000  0.27020000  1.0
  C  C118  1  0.78104000  0.88266000  0.15036000  1.0
  C  C119  1  0.72259000  0.42506000  0.26363000  1.0
  C  C120  1  0.74200000  0.14799000  0.82060000  1.0
  C  C121  1  0.66564000  0.60647000  0.70564000  1.0
  C  C122  1  0.20317000  0.87474000  0.83151000  1.0
  C  C123  1  0.29070000  0.40870000  0.72445000  1.0
  C  C124  1  0.70265000  0.64398000  0.64855000  1.0
  C  C125  1  0.77443000  0.10271000  0.76503000  1.0
  C  C126  1  0.25223000  0.36445000  0.67027000  1.0
  C  C127  1  0.54725000  0.39728000  0.13356000  1.0
  C  C128  1  0.16093000  0.91068000  0.77548000  1.0
  C  C129  1  0.27235000  0.65045000  0.32626000  1.0
  C  C130  1  0.21538000  0.11963000  0.23131000  1.0
  C  C131  1  0.75564000  0.37983000  0.31925000  1.0
  C  C132  1  0.81821000  0.92012000  0.20749000  1.0
  C  C133  1  0.22471000  0.24062000  0.15048000  1.0
  C  C134  1  0.38417000  0.65140000  0.23600000  1.0
  C  C135  1  0.80485000  0.80475000  0.12231000  1.0
  C  C136  1  0.64355000  0.40623000  0.23204000  1.0
  C  C137  1  0.77124000  0.22873000  0.84134000  1.0
  C  C138  1  0.77208000  0.67773000  0.04602000  1.0
  C  C139  1  0.59946000  0.64183000  0.74325000  1.0
  C  C140  1  0.18773000  0.79363000  0.85765000  1.0
  C  C141  1  0.36633000  0.38312000  0.75763000  1.0
  C  C142  1  0.68102000  0.72353000  0.62183000  1.0
  C  C143  1  0.85246000  0.12224000  0.73277000  1.0
  C  C144  1  0.27562000  0.28257000  0.64841000  1.0
  C  C145  1  0.09423000  0.87286000  0.73931000  1.0
  C  C146  1  0.29388000  0.72698000  0.35683000  1.0
  C  C147  1  0.13578000  0.14111000  0.26120000  1.0
  C  C148  1  0.72471000  0.30039000  0.34129000  1.0
  C  C149  1  0.47230000  0.66596000  0.13264000  1.0
  C  C150  1  0.88615000  0.88593000  0.24446000  1.0
  C  C151  1  0.25800000  0.85020000  0.43487000  1.0
  N  N152  1  0.69584000  0.39668000  0.95451000  1.0
  N  N153  1  0.95555000  0.90211000  0.40838000  1.0
  N  N154  1  0.79791000  0.13236000  0.45546000  1.0
  N  N155  1  0.03770000  0.10584000  0.41597000  1.0
  N  N156  1  0.78620000  0.87840000  0.51060000  1.0
  N  N157  1  0.02027000  0.89313000  0.57611000  1.0
  N  N158  1  0.18442000  0.12215000  0.53517000  1.0
  N  N159  1  0.94215000  0.09881000  0.57495000  1.0
  N  N160  1  0.38852000  0.47654000  0.91506000  1.0
  N  N161  1  0.36540000  0.71074000  0.96612000  1.0
  N  N162  1  0.59961000  0.56157000  0.90512000  1.0
  N  N163  1  0.45750000  0.41505000  0.91488000  1.0
  N  N164  1  0.63110000  0.33123000  0.96470000  1.0
  N  N165  1  0.62297000  0.48602000  0.07031000  1.0
  N  N166  1  0.63344000  0.71449000  0.01257000  1.0
  N  N167  1  0.40126000  0.56437000  0.07672000  1.0
  N  N168  1  0.37867000  0.33371000  0.03118000  1.0
  N  N169  1  0.88867000  0.96576000  0.40629000  1.0
  N  N170  1  0.86572000  0.19544000  0.46384000  1.0
  N  N171  1  0.10718000  0.04489000  0.41741000  1.0
  N  N172  1  0.11989000  0.81062000  0.46713000  1.0
  N  N173  1  0.08656000  0.95711000  0.57887000  1.0
  N  N174  1  0.30097000  0.64350000  0.96862000  1.0
  N  N175  1  0.11812000  0.18764000  0.53154000  1.0
  N  N176  1  0.86958000  0.04166000  0.57126000  1.0
  N  N177  1  0.85244000  0.81247000  0.51210000  1.0
  N  N178  1  0.53280000  0.62527000  0.90746000  1.0
  N  N179  1  0.30976000  0.39683000  0.03222000  1.0
  N  N180  1  0.55134000  0.42786000  0.07444000  1.0
  N  N181  1  0.70166000  0.65061000  0.00941000  1.0
  N  N182  1  0.46612000  0.62977000  0.07499000  1.0
  N  N183  1  0.18733000  0.87486000  0.47183000  1.0
