# generated using pymatgen
data_NdH10C9S3N3O8
_symmetry_space_group_name_H-M   'P 1'
_cell_length_a   8.70599000
_cell_length_b   13.19520000
_cell_length_c   14.40310000
_cell_angle_alpha   89.99990000
_cell_angle_beta   89.99990000
_cell_angle_gamma   85.89710000
_symmetry_Int_Tables_number   1
_chemical_formula_structural   NdH10C9S3N3O8
_chemical_formula_sum   'Nd4 H40 C36 S12 N12 O32'
_cell_volume   1650.34849871
_cell_formula_units_Z   4
loop_
 _symmetry_equiv_pos_site_id
 _symmetry_equiv_pos_as_xyz
  1  'x, y, z'
loop_
 _atom_site_type_symbol
 _atom_site_label
 _atom_site_symmetry_multiplicity
 _atom_site_fract_x
 _atom_site_fract_y
 _atom_site_fract_z
 _atom_site_occupancy
  Nd  Nd0  1  0.75061000  0.49839000  0.49906000  1.0
  Nd  Nd1  1  0.74939000  0.00161000  0.99906000  1.0
  Nd  Nd2  1  0.24939000  0.50161000  0.50094000  1.0
  Nd  Nd3  1  0.25062000  0.99839000  0.00094000  1.0
  H  H4  1  0.75478000  0.37925000  0.16922000  1.0
  H  H5  1  0.74522000  0.12075000  0.66922000  1.0
  H  H6  1  0.24522000  0.62075000  0.83078000  1.0
  H  H7  1  0.25478000  0.87925000  0.33078000  1.0
  H  H8  1  0.90741000  0.46174000  0.17573000  1.0
  H  H9  1  0.59259000  0.03826000  0.67573000  1.0
  H  H10  1  0.09259000  0.53826000  0.82427000  1.0
  H  H11  1  0.40741000  0.96174000  0.32427000  1.0
  H  H12  1  0.37365000  0.79394000  0.83111000  1.0
  H  H13  1  0.12635000  0.70606000  0.33111000  1.0
  H  H14  1  0.62635000  0.20606000  0.16889000  1.0
  H  H15  1  0.87365000  0.29394000  0.66889000  1.0
  H  H16  1  0.41988000  0.71795000  0.92989000  1.0
  H  H17  1  0.08012000  0.78205000  0.42989000  1.0
  H  H18  1  0.58012000  0.28205000  0.07011000  1.0
  H  H19  1  0.91988000  0.21795000  0.57011000  1.0
  H  H20  1  0.14184000  0.26115000  0.95049000  1.0
  H  H21  1  0.35816000  0.23885000  0.45049000  1.0
  H  H22  1  0.85816000  0.73885000  0.04951000  1.0
  H  H23  1  0.64184000  0.76115000  0.54951000  1.0
  H  H24  1  0.00126000  0.33194000  0.02036000  1.0
  H  H25  1  0.49873000  0.16806000  0.52036000  1.0
  H  H26  1  0.99873000  0.66806000  0.97964000  1.0
  H  H27  1  0.50126000  0.83194000  0.47964000  1.0
  H  H28  1  0.76917000  0.64473000  0.67456000  1.0
  H  H29  1  0.73083000  0.85527000  0.17456000  1.0
  H  H30  1  0.23083000  0.35527000  0.32544000  1.0
  H  H31  1  0.26917000  0.14473000  0.82544000  1.0
  H  H32  1  0.93902000  0.61436000  0.64012000  1.0
  H  H33  1  0.56098000  0.88564000  0.14012000  1.0
  H  H34  1  0.06098000  0.38564000  0.35988000  1.0
  H  H35  1  0.43902000  0.11436000  0.85988000  1.0
  H  H36  1  0.70985000  0.46509000  0.71838000  1.0
  H  H37  1  0.79015000  0.03491000  0.21839000  1.0
  H  H38  1  0.29015000  0.53491000  0.28161000  1.0
  H  H39  1  0.20985000  0.96509000  0.78161000  1.0
  H  H40  1  0.55140000  0.45538000  0.66831000  1.0
  H  H41  1  0.94860000  0.04462000  0.16831000  1.0
  H  H42  1  0.44860000  0.54462000  0.33169000  1.0
  H  H43  1  0.05140000  0.95538000  0.83169000  1.0
  C  C44  1  0.70538000  0.53155000  0.02493000  1.0
  C  C45  1  0.79462000  0.96845000  0.52493000  1.0
  C  C46  1  0.29462000  0.46845000  0.97507000  1.0
  C  C47  1  0.20538000  0.03155000  0.47507000  1.0
  C  C48  1  0.65856000  0.58342000  0.87785000  1.0
  C  C49  1  0.84144000  0.91658000  0.37785000  1.0
  C  C50  1  0.34144000  0.41658000  0.12215000  1.0
  C  C51  1  0.15856000  0.08342000  0.62215000  1.0
  C  C52  1  0.82170000  0.44536000  0.90620000  1.0
  C  C53  1  0.67830000  0.05464000  0.40620000  1.0
  C  C54  1  0.17830000  0.55464000  0.09380000  1.0
  C  C55  1  0.32170000  0.94536000  0.59380000  1.0
  C  C56  1  0.78678000  0.45357000  0.19409000  1.0
  C  C57  1  0.71322000  0.04643000  0.69409000  1.0
  C  C58  1  0.21322000  0.54643000  0.80591000  1.0
  C  C59  1  0.28678000  0.95357000  0.30591000  1.0
  C  C60  1  0.76689000  0.45947000  0.29824000  1.0
  C  C61  1  0.73311000  0.04052000  0.79824000  1.0
  C  C62  1  0.23311000  0.54052000  0.70176000  1.0
  C  C63  1  0.26689000  0.95947000  0.20176000  1.0
  C  C64  1  0.46967000  0.75779000  0.87130000  1.0
  C  C65  1  0.03034000  0.74221000  0.37130000  1.0
  C  C66  1  0.53034000  0.24221000  0.12870000  1.0
  C  C67  1  0.96966000  0.25779000  0.62870000  1.0
  C  C68  1  0.56699000  0.83835000  0.91115000  1.0
  C  C69  1  0.93302000  0.66166000  0.41115000  1.0
  C  C70  1  0.43302000  0.16165000  0.08885000  1.0
  C  C71  1  0.06698000  0.33834000  0.58885000  1.0
  C  C72  1  0.01855000  0.28079000  0.96045000  1.0
  C  C73  1  0.48145000  0.21921000  0.46045000  1.0
  C  C74  1  0.98144000  0.71921000  0.03955000  1.0
  C  C75  1  0.51855000  0.78079000  0.53955000  1.0
  C  C76  1  0.93123000  0.18667000  0.97678000  1.0
  C  C77  1  0.56877000  0.31333000  0.47678000  1.0
  C  C78  1  0.06877000  0.81333000  0.02322000  1.0
  C  C79  1  0.43123000  0.68667000  0.52322000  1.0
  S  S80  1  0.66432000  0.55364000  0.14117000  1.0
  S  S81  1  0.83568000  0.94636000  0.64117000  1.0
  S  S82  1  0.33568000  0.44636000  0.85883000  1.0
  S  S83  1  0.16432000  0.05364000  0.35883000  1.0
  S  S84  1  0.56900000  0.66584000  0.79652000  1.0
  S  S85  1  0.93100000  0.83416000  0.29652000  1.0
  S  S86  1  0.43100000  0.33416000  0.20348000  1.0
  S  S87  1  0.06900000  0.16584000  0.70348000  1.0
  S  S88  1  0.94946000  0.35120000  0.85961000  1.0
  S  S89  1  0.55054000  0.14880000  0.35961000  1.0
  S  S90  1  0.05054000  0.64880000  0.14039000  1.0
  S  S91  1  0.44946000  0.85120000  0.64039000  1.0
  N  N92  1  0.63017000  0.59888000  0.96776000  1.0
  N  N93  1  0.86983000  0.90112000  0.46777000  1.0
  N  N94  1  0.36984000  0.40112000  0.03223000  1.0
  N  N95  1  0.13017000  0.09888000  0.53224000  1.0
  N  N96  1  0.75174000  0.50698000  0.84167000  1.0
  N  N97  1  0.74826000  0.99302000  0.34167000  1.0
  N  N98  1  0.24826000  0.49302000  0.15833000  1.0
  N  N99  1  0.25174000  0.00698000  0.65833000  1.0
  N  N100  1  0.80421000  0.45423000  0.99828000  1.0
  N  N101  1  0.69579000  0.04577000  0.49828000  1.0
  N  N102  1  0.19579000  0.54577000  0.00172000  1.0
  N  N103  1  0.30421000  0.95423000  0.50172000  1.0
  O  O104  1  0.64248000  0.49867000  0.33353000  1.0
  O  O105  1  0.85752000  0.00133000  0.83353000  1.0
  O  O106  1  0.35752000  0.50133000  0.66647000  1.0
  O  O107  1  0.14248000  0.99867000  0.16647000  1.0
  O  O108  1  0.87750000  0.42521000  0.34946000  1.0
  O  O109  1  0.62250000  0.07479000  0.84946000  1.0
  O  O110  1  0.12250000  0.57478000  0.65054000  1.0
  O  O111  1  0.37750000  0.92521000  0.15054000  1.0
  O  O112  1  0.49156000  0.91514000  0.94899000  1.0
  O  O113  1  0.00844000  0.58486000  0.44899000  1.0
  O  O114  1  0.50844000  0.08485000  0.05101000  1.0
  O  O115  1  0.99156000  0.41514000  0.55101000  1.0
  O  O116  1  0.71123000  0.83109000  0.90890000  1.0
  O  O117  1  0.78877000  0.66891000  0.40890000  1.0
  O  O118  1  0.28877000  0.16892000  0.09110000  1.0
  O  O119  1  0.21123000  0.33109000  0.59110000  1.0
  O  O120  1  0.78659000  0.19312000  0.98078000  1.0
  O  O121  1  0.71341000  0.30688000  0.48078000  1.0
  O  O122  1  0.21341000  0.80688000  0.01922000  1.0
  O  O123  1  0.28659000  0.69312000  0.51922000  1.0
  O  O124  1  0.00926000  0.10090000  0.98641000  1.0
  O  O125  1  0.49074000  0.39910000  0.48641000  1.0
  O  O126  1  0.99074000  0.89910000  0.01359000  1.0
  O  O127  1  0.50926000  0.60090000  0.51359000  1.0
  O  O128  1  0.82989000  0.62720000  0.61915000  1.0
  O  O129  1  0.67011000  0.87280000  0.11915000  1.0
  O  O130  1  0.17011000  0.37280000  0.38085000  1.0
  O  O131  1  0.32989000  0.12720000  0.88085000  1.0
  O  O132  1  0.66405000  0.44318000  0.65916000  1.0
  O  O133  1  0.83595000  0.05682000  0.15916000  1.0
  O  O134  1  0.33595000  0.55682000  0.34084000  1.0
  O  O135  1  0.16405000  0.94318000  0.84084000  1.0
