# generated using pymatgen
data_MgH12(C7O3)2
_symmetry_space_group_name_H-M   'P 1'
_cell_length_a   6.66684000
_cell_length_b   7.14606000
_cell_length_c   26.79830000
_cell_angle_alpha   89.99950000
_cell_angle_beta   89.99820000
_cell_angle_gamma   90.00000000
_symmetry_Int_Tables_number   1
_chemical_formula_structural   MgH12(C7O3)2
_chemical_formula_sum   'Mg4 H48 C56 O24'
_cell_volume   1276.71492437
_cell_formula_units_Z   4
loop_
 _symmetry_equiv_pos_site_id
 _symmetry_equiv_pos_as_xyz
  1  'x, y, z'
loop_
 _atom_site_type_symbol
 _atom_site_label
 _atom_site_symmetry_multiplicity
 _atom_site_fract_x
 _atom_site_fract_y
 _atom_site_fract_z
 _atom_site_occupancy
  Mg  Mg0  1  0.00000000  0.50000000  0.00000000  1.0
  Mg  Mg1  1  0.50000000  0.99999000  0.50000000  1.0
  Mg  Mg2  1  0.00000000  0.50000000  0.50000000  1.0
  Mg  Mg3  1  0.50000000  0.00000000  0.00000000  1.0
  H  H4  1  0.56392000  0.85076000  0.14960000  1.0
  H  H5  1  0.93608000  0.64926000  0.64960000  1.0
  H  H6  1  0.43609000  0.85075000  0.35040000  1.0
  H  H7  1  0.06392000  0.64927000  0.85040000  1.0
  H  H8  1  0.43609000  0.14925000  0.85040000  1.0
  H  H9  1  0.06392000  0.35073000  0.35041000  1.0
  H  H10  1  0.56391000  0.14924000  0.64960000  1.0
  H  H11  1  0.93608000  0.35074000  0.14960000  1.0
  H  H12  1  0.66521000  0.84120000  0.23886000  1.0
  H  H13  1  0.83479000  0.65879000  0.73885000  1.0
  H  H14  1  0.33480000  0.84121000  0.26114000  1.0
  H  H15  1  0.16522000  0.65880000  0.76115000  1.0
  H  H16  1  0.33479000  0.15880000  0.76114000  1.0
  H  H17  1  0.16521000  0.34122000  0.26115000  1.0
  H  H18  1  0.66521000  0.15880000  0.73886000  1.0
  H  H19  1  0.83479000  0.34121000  0.23885000  1.0
  H  H20  1  0.25867000  0.66579000  0.19506000  1.0
  H  H21  1  0.24135000  0.83422000  0.69507000  1.0
  H  H22  1  0.74135000  0.66578000  0.30493000  1.0
  H  H23  1  0.75867000  0.83421000  0.80493000  1.0
  H  H24  1  0.74135000  0.33423000  0.80493000  1.0
  H  H25  1  0.75866000  0.16578000  0.30493000  1.0
  H  H26  1  0.25866000  0.33421000  0.69506000  1.0
  H  H27  1  0.24134000  0.16580000  0.19507000  1.0
  H  H28  1  0.15761000  0.67899000  0.10641000  1.0
  H  H29  1  0.34237000  0.82102000  0.60642000  1.0
  H  H30  1  0.84238000  0.67898000  0.39358000  1.0
  H  H31  1  0.65763000  0.82103000  0.89358000  1.0
  H  H32  1  0.84239000  0.32103000  0.89358000  1.0
  H  H33  1  0.65763000  0.17897000  0.39358000  1.0
  H  H34  1  0.15760000  0.32101000  0.60641000  1.0
  H  H35  1  0.34238000  0.17898000  0.10642000  1.0
  H  H36  1  0.63295000  0.59314000  0.96050000  1.0
  H  H37  1  0.86704000  0.90687000  0.46050000  1.0
  H  H38  1  0.36704000  0.59313000  0.53951000  1.0
  H  H39  1  0.13296000  0.90688000  0.03951000  1.0
  H  H40  1  0.36705000  0.40686000  0.03951000  1.0
  H  H41  1  0.13296000  0.09312000  0.53951000  1.0
  H  H42  1  0.63296000  0.40687000  0.46050000  1.0
  H  H43  1  0.86704000  0.09313000  0.96049000  1.0
  H  H44  1  0.64862000  0.39142000  0.98436000  1.0
  H  H45  1  0.85138000  0.10858000  0.48437000  1.0
  H  H46  1  0.35138000  0.39142000  0.51564000  1.0
  H  H47  1  0.14861000  0.10859000  0.01564000  1.0
  H  H48  1  0.35138000  0.60857000  0.01563000  1.0
  H  H49  1  0.14861000  0.89141000  0.51564000  1.0
  H  H50  1  0.64862000  0.60858000  0.48437000  1.0
  H  H51  1  0.85138000  0.89142000  0.98436000  1.0
  C  C52  1  0.79347000  0.79146000  0.06927000  1.0
  C  C53  1  0.70655000  0.70853000  0.56927000  1.0
  C  C54  1  0.20652000  0.79146000  0.43073000  1.0
  C  C55  1  0.29345000  0.70855000  0.93073000  1.0
  C  C56  1  0.20653000  0.20854000  0.93072000  1.0
  C  C57  1  0.29345000  0.29145000  0.43073000  1.0
  C  C58  1  0.79346000  0.20853000  0.56928000  1.0
  C  C59  1  0.70656000  0.29145000  0.06927000  1.0
  C  C60  1  0.85448000  0.76958000  0.12240000  1.0
  C  C61  1  0.64551000  0.73043000  0.62240000  1.0
  C  C62  1  0.14552000  0.76957000  0.37760000  1.0
  C  C63  1  0.35449000  0.73044000  0.87760000  1.0
  C  C64  1  0.14552000  0.23042000  0.87760000  1.0
  C  C65  1  0.35449000  0.26956000  0.37760000  1.0
  C  C66  1  0.85447000  0.23042000  0.62240000  1.0
  C  C67  1  0.64551000  0.26957000  0.12240000  1.0
  C  C68  1  0.71520000  0.80949000  0.16015000  1.0
  C  C69  1  0.78480000  0.69053000  0.66015000  1.0
  C  C70  1  0.28481000  0.80947000  0.33985000  1.0
  C  C71  1  0.21520000  0.69055000  0.83985000  1.0
  C  C72  1  0.28480000  0.19052000  0.83985000  1.0
  C  C73  1  0.21520000  0.30946000  0.33985000  1.0
  C  C74  1  0.71519000  0.19052000  0.66015000  1.0
  C  C75  1  0.78480000  0.30947000  0.16015000  1.0
  C  C76  1  0.77228000  0.80265000  0.20990000  1.0
  C  C77  1  0.72772000  0.69735000  0.70990000  1.0
  C  C78  1  0.22773000  0.80265000  0.29010000  1.0
  C  C79  1  0.27228000  0.69736000  0.79010000  1.0
  C  C80  1  0.22772000  0.19735000  0.79009000  1.0
  C  C81  1  0.27228000  0.30265000  0.29010000  1.0
  C  C82  1  0.77227000  0.19735000  0.70990000  1.0
  C  C83  1  0.72772000  0.30265000  0.20990000  1.0
  C  C84  1  0.96955000  0.75467000  0.22355000  1.0
  C  C85  1  0.53045000  0.74535000  0.72355000  1.0
  C  C86  1  0.03046000  0.75466000  0.27645000  1.0
  C  C87  1  0.46956000  0.74534000  0.77645000  1.0
  C  C88  1  0.03045000  0.24534000  0.77645000  1.0
  C  C89  1  0.46955000  0.25465000  0.27645000  1.0
  C  C90  1  0.96955000  0.24534000  0.72355000  1.0
  C  C91  1  0.53044000  0.25466000  0.22355000  1.0
  C  C92  1  0.10695000  0.71022000  0.18541000  1.0
  C  C93  1  0.39305000  0.78980000  0.68541000  1.0
  C  C94  1  0.89305000  0.71021000  0.31459000  1.0
  C  C95  1  0.60695000  0.78980000  0.81459000  1.0
  C  C96  1  0.89305000  0.28979000  0.81459000  1.0
  C  C97  1  0.60695000  0.21020000  0.31459000  1.0
  C  C98  1  0.10695000  0.28978000  0.68541000  1.0
  C  C99  1  0.39305000  0.21021000  0.18541000  1.0
  C  C100  1  0.05061000  0.71713000  0.13545000  1.0
  C  C101  1  0.44938000  0.78289000  0.63546000  1.0
  C  C102  1  0.94939000  0.71712000  0.36455000  1.0
  C  C103  1  0.55062000  0.78289000  0.86454000  1.0
  C  C104  1  0.94939000  0.28288000  0.86454000  1.0
  C  C105  1  0.55062000  0.21711000  0.36455000  1.0
  C  C106  1  0.05061000  0.28287000  0.63545000  1.0
  C  C107  1  0.44938000  0.21712000  0.13545000  1.0
  O  O108  1  0.92505000  0.75488000  0.03473000  1.0
  O  O109  1  0.57495000  0.74511000  0.53473000  1.0
  O  O110  1  0.07495000  0.75488000  0.46527000  1.0
  O  O111  1  0.42504000  0.74512000  0.96527000  1.0
  O  O112  1  0.07495000  0.24512000  0.96527000  1.0
  O  O113  1  0.42504000  0.25489000  0.46528000  1.0
  O  O114  1  0.92504000  0.24511000  0.53473000  1.0
  O  O115  1  0.57497000  0.25488000  0.03473000  1.0
  O  O116  1  0.72450000  0.48502000  0.96425000  1.0
  O  O117  1  0.77549000  0.01499000  0.46425000  1.0
  O  O118  1  0.27549000  0.48502000  0.53575000  1.0
  O  O119  1  0.22451000  0.01500000  0.03575000  1.0
  O  O120  1  0.27550000  0.51497000  0.03575000  1.0
  O  O121  1  0.22451000  0.98500000  0.53575000  1.0
  O  O122  1  0.72451000  0.51498000  0.46425000  1.0
  O  O123  1  0.77549000  0.98501000  0.96425000  1.0
  O  O124  1  0.62002000  0.85153000  0.05944000  1.0
  O  O125  1  0.87997000  0.64848000  0.55945000  1.0
  O  O126  1  0.37998000  0.85153000  0.44056000  1.0
  O  O127  1  0.12002000  0.64849000  0.94055000  1.0
  O  O128  1  0.37998000  0.14847000  0.94055000  1.0
  O  O129  1  0.12002000  0.35151000  0.44056000  1.0
  O  O130  1  0.62001000  0.14846000  0.55945000  1.0
  O  O131  1  0.87998000  0.35151000  0.05945000  1.0
