# generated using pymatgen
data_AgH3C6SNClO5
_symmetry_space_group_name_H-M   'P 1'
_cell_length_a   5.13474000
_cell_length_b   15.19220000
_cell_length_c   24.05850000
_cell_angle_alpha   106.86700000
_cell_angle_beta   90.00000000
_cell_angle_gamma   90.00000000
_symmetry_Int_Tables_number   1
_chemical_formula_structural   AgH3C6SNClO5
_chemical_formula_sum   'Ag8 H24 C48 S8 N8 Cl8 O40'
_cell_volume   1796.01898920
_cell_formula_units_Z   8
loop_
 _symmetry_equiv_pos_site_id
 _symmetry_equiv_pos_as_xyz
  1  'x, y, z'
loop_
 _atom_site_type_symbol
 _atom_site_label
 _atom_site_symmetry_multiplicity
 _atom_site_fract_x
 _atom_site_fract_y
 _atom_site_fract_z
 _atom_site_occupancy
  Ag  Ag0  1  0.03076000  0.03359000  0.44914000  1.0
  Ag  Ag1  1  0.53076000  0.96641000  0.05086000  1.0
  Ag  Ag2  1  0.96924000  0.96641000  0.55086000  1.0
  Ag  Ag3  1  0.46923000  0.03359000  0.94914000  1.0
  Ag  Ag4  1  0.06323000  0.02041000  0.17920000  1.0
  Ag  Ag5  1  0.56323000  0.97959000  0.32080000  1.0
  Ag  Ag6  1  0.93677000  0.97959000  0.82080000  1.0
  Ag  Ag7  1  0.43677000  0.02041000  0.67920000  1.0
  H  H8  1  0.50169000  0.35578000  0.75737000  1.0
  H  H9  1  0.00169000  0.64422000  0.74263000  1.0
  H  H10  1  0.49831000  0.64422000  0.24263000  1.0
  H  H11  1  0.99831000  0.35578000  0.25737000  1.0
  H  H12  1  0.14613000  0.44954000  0.73306000  1.0
  H  H13  1  0.64613000  0.55046000  0.76694000  1.0
  H  H14  1  0.85387000  0.55046000  0.26694000  1.0
  H  H15  1  0.35387000  0.44954000  0.23306000  1.0
  H  H16  1  0.08361000  0.25586000  0.56244000  1.0
  H  H17  1  0.58361000  0.74414000  0.93756000  1.0
  H  H18  1  0.91639000  0.74414000  0.43756000  1.0
  H  H19  1  0.41639000  0.25586000  0.06244000  1.0
  H  H20  1  0.99175000  0.37804000  0.50202000  1.0
  H  H21  1  0.49175000  0.62196000  0.99798000  1.0
  H  H22  1  0.00825000  0.62196000  0.49798000  1.0
  H  H23  1  0.50825000  0.37804000  0.00202000  1.0
  H  H24  1  0.33542000  0.47083000  0.47149000  1.0
  H  H25  1  0.83541000  0.52917000  0.02852000  1.0
  H  H26  1  0.66459000  0.52917000  0.52852000  1.0
  H  H27  1  0.16459000  0.47083000  0.97148000  1.0
  H  H28  1  0.43837000  0.25373000  0.31154000  1.0
  H  H29  1  0.93837000  0.74627000  0.18846000  1.0
  H  H30  1  0.56163000  0.74627000  0.68846000  1.0
  H  H31  1  0.06163000  0.25373000  0.81154000  1.0
  C  C32  1  0.37710000  0.22548000  0.61813000  1.0
  C  C33  1  0.87711000  0.77452000  0.88187000  1.0
  C  C34  1  0.62290000  0.77452000  0.38187000  1.0
  C  C35  1  0.12290000  0.22548000  0.11813000  1.0
  C  C36  1  0.49260000  0.25364000  0.67366000  1.0
  C  C37  1  0.99260000  0.74636000  0.82634000  1.0
  C  C38  1  0.50740000  0.74636000  0.32634000  1.0
  C  C39  1  0.00740000  0.25364000  0.17366000  1.0
  C  C40  1  0.40935000  0.33426000  0.71485000  1.0
  C  C41  1  0.90936000  0.66574000  0.78515000  1.0
  C  C42  1  0.59065000  0.66574000  0.28515000  1.0
  C  C43  1  0.09065000  0.33426000  0.21485000  1.0
  C  C44  1  0.21136000  0.38687000  0.70131000  1.0
  C  C45  1  0.71136000  0.61313000  0.79869000  1.0
  C  C46  1  0.78864000  0.61313000  0.29869000  1.0
  C  C47  1  0.28864000  0.38687000  0.20131000  1.0
  C  C48  1  0.09788000  0.35767000  0.64637000  1.0
  C  C49  1  0.59788000  0.64233000  0.85363000  1.0
  C  C50  1  0.90212000  0.64233000  0.35363000  1.0
  C  C51  1  0.40212000  0.35767000  0.14637000  1.0
  C  C52  1  0.17803000  0.27801000  0.60461000  1.0
  C  C53  1  0.67803000  0.72199000  0.89539000  1.0
  C  C54  1  0.82197000  0.72199000  0.39539000  1.0
  C  C55  1  0.32197000  0.27801000  0.10461000  1.0
  C  C56  1  0.14555000  0.22956000  0.36966000  1.0
  C  C57  1  0.64555000  0.77044000  0.13035000  1.0
  C  C58  1  0.85445000  0.77044000  0.63035000  1.0
  C  C59  1  0.35445000  0.22956000  0.86966000  1.0
  C  C60  1  0.02113000  0.26528000  0.42372000  1.0
  C  C61  1  0.52113000  0.73471000  0.07628000  1.0
  C  C62  1  0.97887000  0.73472000  0.57628000  1.0
  C  C63  1  0.47887000  0.26528000  0.92372000  1.0
  C  C64  1  0.08998000  0.35183000  0.46038000  1.0
  C  C65  1  0.58998000  0.64817000  0.03962000  1.0
  C  C66  1  0.91002000  0.64817000  0.53962000  1.0
  C  C67  1  0.41002000  0.35183000  0.96038000  1.0
  C  C68  1  0.28231000  0.40315000  0.44366000  1.0
  C  C69  1  0.78231000  0.59685000  0.05634000  1.0
  C  C70  1  0.71770000  0.59685000  0.55634000  1.0
  C  C71  1  0.21770000  0.40315000  0.94366000  1.0
  C  C72  1  0.40366000  0.36690000  0.39005000  1.0
  C  C73  1  0.90366000  0.63310000  0.10995000  1.0
  C  C74  1  0.59634000  0.63310000  0.60995000  1.0
  C  C75  1  0.09634000  0.36690000  0.89005000  1.0
  C  C76  1  0.33782000  0.28114000  0.35272000  1.0
  C  C77  1  0.83782000  0.71886000  0.14728000  1.0
  C  C78  1  0.66217000  0.71886000  0.64728000  1.0
  C  C79  1  0.16217000  0.28114000  0.85272000  1.0
  S  S80  1  0.46367000  0.12155000  0.56399000  1.0
  S  S81  1  0.96367000  0.87845000  0.93601000  1.0
  S  S82  1  0.53633000  0.87845000  0.43601000  1.0
  S  S83  1  0.03633000  0.12155000  0.06399000  1.0
  S  S84  1  0.06968000  0.11861000  0.32181000  1.0
  S  S85  1  0.56968000  0.88139000  0.17819000  1.0
  S  S86  1  0.93032000  0.88139000  0.67819000  1.0
  S  S87  1  0.43032000  0.11861000  0.82181000  1.0
  N  N88  1  0.88391000  0.41098000  0.63234000  1.0
  N  N89  1  0.38391000  0.58902000  0.86766000  1.0
  N  N90  1  0.11609000  0.58902000  0.36766000  1.0
  N  N91  1  0.61609000  0.41098000  0.13234000  1.0
  N  N92  1  0.61104000  0.41932000  0.37273000  1.0
  N  N93  1  0.11104000  0.58068000  0.12727000  1.0
  N  N94  1  0.38896000  0.58068000  0.62727000  1.0
  N  N95  1  0.88896000  0.41932000  0.87273000  1.0
  Cl  Cl96  1  0.73508000  0.19071000  0.69385000  1.0
  Cl  Cl97  1  0.23508000  0.80929000  0.80615000  1.0
  Cl  Cl98  1  0.26492000  0.80929000  0.30615000  1.0
  Cl  Cl99  1  0.76492000  0.19071000  0.19385000  1.0
  Cl  Cl100  1  0.78087000  0.20574000  0.44760000  1.0
  Cl  Cl101  1  0.28087000  0.79426000  0.05240000  1.0
  Cl  Cl102  1  0.21913000  0.79426000  0.55240000  1.0
  Cl  Cl103  1  0.71913000  0.20574000  0.94760000  1.0
  O  O104  1  0.33661000  0.12717000  0.51049000  1.0
  O  O105  1  0.83661000  0.87283000  0.98951000  1.0
  O  O106  1  0.66339000  0.87283000  0.48951000  1.0
  O  O107  1  0.16339000  0.12717000  0.01049000  1.0
  O  O108  1  0.35527000  0.04617000  0.58538000  1.0
  O  O109  1  0.85528000  0.95382000  0.91462000  1.0
  O  O110  1  0.64473000  0.95383000  0.41462000  1.0
  O  O111  1  0.14472000  0.04617000  0.08538000  1.0
  O  O112  1  0.74835000  0.11843000  0.56044000  1.0
  O  O113  1  0.24834000  0.88157000  0.93956000  1.0
  O  O114  1  0.25165000  0.88157000  0.43956000  1.0
  O  O115  1  0.75165000  0.11843000  0.06044000  1.0
  O  O116  1  0.80672000  0.47960000  0.67077000  1.0
  O  O117  1  0.30672000  0.52040000  0.82923000  1.0
  O  O118  1  0.19328000  0.52040000  0.32923000  1.0
  O  O119  1  0.69328000  0.47960000  0.17077000  1.0
  O  O120  1  0.78783000  0.38437000  0.58283000  1.0
  O  O121  1  0.28783000  0.61563000  0.91717000  1.0
  O  O122  1  0.21217000  0.61563000  0.41717000  1.0
  O  O123  1  0.71217000  0.38437000  0.08283000  1.0
  O  O124  1  0.22791000  0.11053000  0.26969000  1.0
  O  O125  1  0.72791000  0.88947000  0.23031000  1.0
  O  O126  1  0.77209000  0.88947000  0.73031000  1.0
  O  O127  1  0.27209000  0.11053000  0.76969000  1.0
  O  O128  1  0.78798000  0.11725000  0.31216000  1.0
  O  O129  1  0.28798000  0.88276000  0.18784000  1.0
  O  O130  1  0.21202000  0.88276000  0.68784000  1.0
  O  O131  1  0.71202000  0.11725000  0.81216000  1.0
  O  O132  1  0.15152000  0.05139000  0.35287000  1.0
  O  O133  1  0.65152000  0.94861000  0.14713000  1.0
  O  O134  1  0.84847000  0.94861000  0.64713000  1.0
  O  O135  1  0.34847000  0.05139000  0.85287000  1.0
  O  O136  1  0.70537000  0.48548000  0.41054000  1.0
  O  O137  1  0.20537000  0.51452000  0.08946000  1.0
  O  O138  1  0.29464000  0.51452000  0.58946000  1.0
  O  O139  1  0.79464000  0.48548000  0.91054000  1.0
  O  O140  1  0.68248000  0.39418000  0.32121000  1.0
  O  O141  1  0.18248000  0.60582000  0.17879000  1.0
  O  O142  1  0.31752000  0.60582000  0.67879000  1.0
  O  O143  1  0.81752000  0.39418000  0.82121000  1.0
