# generated using pymatgen
data_Na2H20C14S2N2Cl2O7
_symmetry_space_group_name_H-M   'P 1'
_cell_length_a   6.26405000
_cell_length_b   6.26400000
_cell_length_c   14.92680000
_cell_angle_alpha   80.70750000
_cell_angle_beta   80.70650000
_cell_angle_gamma   62.04120000
_symmetry_Int_Tables_number   1
_chemical_formula_structural   Na2H20C14S2N2Cl2O7
_chemical_formula_sum   'Na2 H20 C14 S2 N2 Cl2 O7'
_cell_volume   508.07063511
_cell_formula_units_Z   1
loop_
 _symmetry_equiv_pos_site_id
 _symmetry_equiv_pos_as_xyz
  1  'x, y, z'
loop_
 _atom_site_type_symbol
 _atom_site_label
 _atom_site_symmetry_multiplicity
 _atom_site_fract_x
 _atom_site_fract_y
 _atom_site_fract_z
 _atom_site_occupancy
  Na  Na0  1  0.07649000  0.63799000  0.47370000  1.0
  Na  Na1  1  0.36200000  0.92349000  0.52630000  1.0
  H  H2  1  0.17007000  0.33131000  0.63440000  1.0
  H  H3  1  0.66871000  0.82991000  0.36560000  1.0
  H  H4  1  0.94606000  0.30026000  0.61707000  1.0
  H  H5  1  0.69973000  0.05392000  0.38293000  1.0
  H  H6  1  0.60764000  0.42797000  0.44661000  1.0
  H  H7  1  0.57202000  0.39235000  0.55338000  1.0
  H  H8  1  0.24135000  0.89425000  0.03699000  1.0
  H  H9  1  0.10574000  0.75867000  0.96300000  1.0
  H  H10  1  0.49043000  0.10269000  0.97100000  1.0
  H  H11  1  0.89731000  0.50959000  0.02899000  1.0
  H  H12  1  0.56595000  0.34681000  0.06938000  1.0
  H  H13  1  0.65311000  0.43414000  0.93064000  1.0
  H  H14  1  0.37916000  0.38358000  0.22881000  1.0
  H  H15  1  0.61632000  0.62095000  0.77120000  1.0
  H  H16  1  0.81944000  0.02788000  0.22190000  1.0
  H  H17  1  0.97208000  0.18060000  0.77810000  1.0
  H  H18  1  0.07217000  0.77263000  0.26546000  1.0
  H  H19  1  0.22735000  0.92786000  0.73454000  1.0
  H  H20  1  0.00798000  0.78980000  0.15219000  1.0
  H  H21  1  0.21017000  0.99205000  0.84781000  1.0
  C  C22  1  0.20462000  0.16295000  0.22193000  1.0
  C  C23  1  0.83700000  0.79544000  0.77807000  1.0
  C  C24  1  0.16191000  0.02156000  0.16901000  1.0
  C  C25  1  0.97841000  0.83813000  0.83099000  1.0
  C  C26  1  0.27086000  0.00329000  0.07897000  1.0
  C  C27  1  0.99670000  0.72917000  0.92102000  1.0
  C  C28  1  0.41268000  0.11974000  0.04184000  1.0
  C  C29  1  0.88022000  0.58737000  0.95815000  1.0
  C  C30  1  0.45326000  0.25651000  0.09586000  1.0
  C  C31  1  0.74341000  0.54683000  0.90415000  1.0
  C  C32  1  0.34913000  0.27757000  0.18584000  1.0
  C  C33  1  0.72235000  0.65095000  0.81417000  1.0
  C  C34  1  0.00779000  0.89585000  0.20383000  1.0
  C  C35  1  0.10412000  0.99225000  0.79617000  1.0
  S  S36  1  0.07053000  0.21158000  0.33680000  1.0
  S  S37  1  0.78835000  0.92950000  0.66320000  1.0
  N  N38  1  0.78308000  0.30466000  0.33926000  1.0
  N  N39  1  0.69531000  0.21695000  0.66074000  1.0
  Cl  Cl40  1  0.65244000  0.57357000  0.26692000  1.0
  Cl  Cl41  1  0.42640000  0.34762000  0.73308000  1.0
  O  O42  1  0.13929000  0.38340000  0.36352000  1.0
  O  O43  1  0.61656000  0.86074000  0.63648000  1.0
  O  O44  1  0.15151000  0.97842000  0.39336000  1.0
  O  O45  1  0.02155000  0.84850000  0.60664000  1.0
  O  O46  1  0.09248000  0.31392000  0.58601000  1.0
  O  O47  1  0.68609000  0.90750000  0.41399000  1.0
  O  O48  1  0.49526000  0.50474000  0.50000000  1.0
