# generated using pymatgen
data_Cu2H12C16S4N8Cl3
_symmetry_space_group_name_H-M   'P 1'
_cell_length_a   9.85612000
_cell_length_b   11.14920000
_cell_length_c   12.68860000
_cell_angle_alpha   64.33960000
_cell_angle_beta   69.76970000
_cell_angle_gamma   86.26250000
_symmetry_Int_Tables_number   1
_chemical_formula_structural   Cu2H12C16S4N8Cl3
_chemical_formula_sum   'Cu4 H24 C32 S8 N16 Cl6'
_cell_volume   1173.36952459
_cell_formula_units_Z   2
loop_
 _symmetry_equiv_pos_site_id
 _symmetry_equiv_pos_as_xyz
  1  'x, y, z'
loop_
 _atom_site_type_symbol
 _atom_site_label
 _atom_site_symmetry_multiplicity
 _atom_site_fract_x
 _atom_site_fract_y
 _atom_site_fract_z
 _atom_site_occupancy
  Cu  Cu0  1  0.13549000  0.11006000  0.12126000  1.0
  Cu  Cu1  1  0.86453000  0.88995000  0.87874000  1.0
  Cu  Cu2  1  0.54776000  0.45267000  0.61003000  1.0
  Cu  Cu3  1  0.45226000  0.54733000  0.38997000  1.0
  H  H4  1  0.69211000  0.98459000  0.60870000  1.0
  H  H5  1  0.30790000  0.01544000  0.39128000  1.0
  H  H6  1  0.85812000  0.19960000  0.49944000  1.0
  H  H7  1  0.14188000  0.80044000  0.50054000  1.0
  H  H8  1  0.05088000  0.24522000  0.28983000  1.0
  H  H9  1  0.94913000  0.75479000  0.71015000  1.0
  H  H10  1  0.51528000  0.18148000  0.62491000  1.0
  H  H11  1  0.48472000  0.81853000  0.37509000  1.0
  H  H12  1  0.36760000  0.95726000  0.78659000  1.0
  H  H13  1  0.63239000  0.04273000  0.21338000  1.0
  H  H14  1  0.21450000  0.94197000  0.99832000  1.0
  H  H15  1  0.78551000  0.05803000  0.00166000  1.0
  H  H16  1  0.67352000  0.31832000  0.80949000  1.0
  H  H17  1  0.32649000  0.68165000  0.19051000  1.0
  H  H18  1  0.90859000  0.35528000  0.83724000  1.0
  H  H19  1  0.09140000  0.64471000  0.16278000  1.0
  H  H20  1  0.08485000  0.55302000  0.66359000  1.0
  H  H21  1  0.91513000  0.44697000  0.33645000  1.0
  H  H22  1  0.40994000  0.25619000  0.37998000  1.0
  H  H23  1  0.59002000  0.74381000  0.62003000  1.0
  H  H24  1  0.67555000  0.26189000  0.25249000  1.0
  H  H25  1  0.32442000  0.73812000  0.74753000  1.0
  H  H26  1  0.73613000  0.31353000  0.02686000  1.0
  H  H27  1  0.26386000  0.68643000  0.97318000  1.0
  C  C28  1  0.90517000  0.95049000  0.36375000  1.0
  C  C29  1  0.09485000  0.04950000  0.63624000  1.0
  C  C30  1  0.77886000  0.01081000  0.51854000  1.0
  C  C31  1  0.22114000  0.98921000  0.48145000  1.0
  C  C32  1  0.86891000  0.12992000  0.45859000  1.0
  C  C33  1  0.13109000  0.87010000  0.54139000  1.0
  C  C34  1  0.97567000  0.15455000  0.34407000  1.0
  C  C35  1  0.02433000  0.84546000  0.65591000  1.0
  C  C36  1  0.34634000  0.25615000  0.85693000  1.0
  C  C37  1  0.65368000  0.74386000  0.14305000  1.0
  C  C38  1  0.44342000  0.16432000  0.71856000  1.0
  C  C39  1  0.55659000  0.83568000  0.28143000  1.0
  C  C40  1  0.36307000  0.04299000  0.80672000  1.0
  C  C41  1  0.63693000  0.95701000  0.19327000  1.0
  C  C42  1  0.27858000  0.03418000  0.92318000  1.0
  C  C43  1  0.72143000  0.96582000  0.07681000  1.0
  C  C44  1  0.75553000  0.40131000  0.73963000  1.0
  C  C45  1  0.24447000  0.59867000  0.26038000  1.0
  C  C46  1  0.88362000  0.42214000  0.75481000  1.0
  C  C47  1  0.11638000  0.57784000  0.24521000  1.0
  C  C48  1  0.98072000  0.53152000  0.65921000  1.0
  C  C49  1  0.01926000  0.46848000  0.34081000  1.0
  C  C50  1  0.82849000  0.58711000  0.54954000  1.0
  C  C51  1  0.17152000  0.41289000  0.45047000  1.0
  C  C52  1  0.38765000  0.32829000  0.10990000  1.0
  C  C53  1  0.61235000  0.67170000  0.89010000  1.0
  C  C54  1  0.44579000  0.27826000  0.28133000  1.0
  C  C55  1  0.55419000  0.72175000  0.71867000  1.0
  C  C56  1  0.59121000  0.28034000  0.21163000  1.0
  C  C57  1  0.40876000  0.71966000  0.78838000  1.0
  C  C58  1  0.62429000  0.30986000  0.08631000  1.0
  C  C59  1  0.37571000  0.69012000  0.91371000  1.0
  S  S60  1  0.23900000  0.35635000  0.05475000  1.0
  S  S61  1  0.76100000  0.64364000  0.94525000  1.0
  S  S62  1  0.33670000  0.40886000  0.86810000  1.0
  S  S63  1  0.66332000  0.59114000  0.13189000  1.0
  S  S64  1  0.77679000  0.68528000  0.41882000  1.0
  S  S65  1  0.22323000  0.31472000  0.58119000  1.0
  S  S66  1  0.94695000  0.83138000  0.30282000  1.0
  S  S67  1  0.05306000  0.16862000  0.69719000  1.0
  N  N68  1  0.99315000  0.06654000  0.29501000  1.0
  N  N69  1  0.00686000  0.93345000  0.70498000  1.0
  N  N70  1  0.79725000  0.92139000  0.47180000  1.0
  N  N71  1  0.20275000  0.07862000  0.52819000  1.0
  N  N72  1  0.27002000  0.14097000  0.94793000  1.0
  N  N73  1  0.72999000  0.85905000  0.05205000  1.0
  N  N74  1  0.43560000  0.27103000  0.74322000  1.0
  N  N75  1  0.56443000  0.72898000  0.25677000  1.0
  N  N76  1  0.52195000  0.33320000  0.03398000  1.0
  N  N77  1  0.47805000  0.66678000  0.96604000  1.0
  N  N78  1  0.34196000  0.30265000  0.23049000  1.0
  N  N79  1  0.65802000  0.69735000  0.76951000  1.0
  N  N80  1  0.72625000  0.48400000  0.63660000  1.0
  N  N81  1  0.27376000  0.51599000  0.36341000  1.0
  N  N82  1  0.95336000  0.61461000  0.55608000  1.0
  N  N83  1  0.04664000  0.38539000  0.44395000  1.0
  Cl  Cl84  1  0.29149000  0.97180000  0.20053000  1.0
  Cl  Cl85  1  0.70854000  0.02821000  0.79946000  1.0
  Cl  Cl86  1  0.95849000  0.20211000  0.03997000  1.0
  Cl  Cl87  1  0.04151000  0.79787000  0.96002000  1.0
  Cl  Cl88  1  0.37802000  0.60164000  0.56732000  1.0
  Cl  Cl89  1  0.62199000  0.39837000  0.43267000  1.0
