# generated using pymatgen
data_MnH26C25S2(NO)4
_symmetry_space_group_name_H-M   'P 1'
_cell_length_a   12.23890000
_cell_length_b   12.23900000
_cell_length_c   25.08840000
_cell_angle_alpha   89.99780000
_cell_angle_beta   89.99990000
_cell_angle_gamma   89.99940000
_symmetry_Int_Tables_number   1
_chemical_formula_structural   MnH26C25S2(NO)4
_chemical_formula_sum   'Mn4 H104 C100 S8 N16 O16'
_cell_volume   3758.03902822
_cell_formula_units_Z   4
loop_
 _symmetry_equiv_pos_site_id
 _symmetry_equiv_pos_as_xyz
  1  'x, y, z'
loop_
 _atom_site_type_symbol
 _atom_site_label
 _atom_site_symmetry_multiplicity
 _atom_site_fract_x
 _atom_site_fract_y
 _atom_site_fract_z
 _atom_site_occupancy
  Mn  Mn0  1  0.24993000  0.24986000  0.08038000  1.0
  Mn  Mn1  1  0.74999000  0.74998000  0.58034000  1.0
  Mn  Mn2  1  0.74995000  0.75001000  0.91964000  1.0
  Mn  Mn3  1  0.25001000  0.24998000  0.41962000  1.0
  H  H4  1  0.09514000  0.05110000  0.11012000  1.0
  H  H5  1  0.07313000  0.89828000  0.17597000  1.0
  H  H6  1  0.35636000  0.02839000  0.25831000  1.0
  H  H7  1  0.36702000  0.17046000  0.18761000  1.0
  H  H8  1  0.36171000  0.83339000  0.27624000  1.0
  H  H9  1  0.28961000  0.92161000  0.32183000  1.0
  H  H10  1  0.40881000  0.67253000  0.34047000  1.0
  H  H11  1  0.31795000  0.65572000  0.39506000  1.0
  H  H12  1  0.51170000  0.96174000  0.43228000  1.0
  H  H13  1  0.45107000  0.61262000  0.43798000  1.0
  H  H14  1  0.64774000  0.93477000  0.50556000  1.0
  H  H15  1  0.58755000  0.60314000  0.51131000  1.0
  H  H16  1  0.50470000  0.30537000  0.08134000  1.0
  H  H17  1  0.40485000  0.44884000  0.11015000  1.0
  H  H18  1  0.42697000  0.60159000  0.17603000  1.0
  H  H19  1  0.14365000  0.47171000  0.25833000  1.0
  H  H20  1  0.13280000  0.32973000  0.18762000  1.0
  H  H21  1  0.13839000  0.66666667  0.27623000  1.0
  H  H22  1  0.21039000  0.57839000  0.32184000  1.0
  H  H23  1  0.09127000  0.82745000  0.34041000  1.0
  H  H24  1  0.18210000  0.84428000  0.39505000  1.0
  H  H25  1  0.98844000  0.53827000  0.43226000  1.0
  H  H26  1  0.04897000  0.88741000  0.43797000  1.0
  H  H27  1  0.85239000  0.56517000  0.50557000  1.0
  H  H28  1  0.91250000  0.89684000  0.51132000  1.0
  H  H29  1  0.99518000  0.19464000  0.08141000  1.0
  H  H30  1  0.55121000  0.90485000  0.61014000  1.0
  H  H31  1  0.39843000  0.92695000  0.67600000  1.0
  H  H32  1  0.52837000  0.64366000  0.75832000  1.0
  H  H33  1  0.67039000  0.63286000  0.68762000  1.0
  H  H34  1  0.33344000  0.63839000  0.77626000  1.0
  H  H35  1  0.42166000  0.71045000  0.82186000  1.0
  H  H36  1  0.17256000  0.59130000  0.84046000  1.0
  H  H37  1  0.15575000  0.68213000  0.89506000  1.0
  H  H38  1  0.46172000  0.48842000  0.93231000  1.0
  H  H39  1  0.11259000  0.54901000  0.93795000  1.0
  H  H40  1  0.43473000  0.35239000  0.00561000  1.0
  H  H41  1  0.10305000  0.41254000  0.01129000  1.0
  H  H42  1  0.80540000  0.49522000  0.58135000  1.0
  H  H43  1  0.94886000  0.59504000  0.61020000  1.0
  H  H44  1  0.10166000  0.57303000  0.67607000  1.0
  H  H45  1  0.97172000  0.85640000  0.75832000  1.0
  H  H46  1  0.82969000  0.86713000  0.68761000  1.0
  H  H47  1  0.16671000  0.86170000  0.77622000  1.0
  H  H48  1  0.07845000  0.78969000  0.82184000  1.0
  H  H49  1  0.32751000  0.90882000  0.84045000  1.0
  H  H50  1  0.34431000  0.81797000  0.89508000  1.0
  H  H51  1  0.03824000  0.01161000  0.93229000  1.0
  H  H52  1  0.38741000  0.95111000  0.93802000  1.0
  H  H53  1  0.06515000  0.14771000  0.00557000  1.0
  H  H54  1  0.39683000  0.08762000  0.01134000  1.0
  H  H55  1  0.69471000  0.00473000  0.58135000  1.0
  H  H56  1  0.90487000  0.94881000  0.88984000  1.0
  H  H57  1  0.92694000  0.10160000  0.82398000  1.0
  H  H58  1  0.64365000  0.97166000  0.74167000  1.0
  H  H59  1  0.63288000  0.82965000  0.81238000  1.0
  H  H60  1  0.63834000  0.16662000  0.72376000  1.0
  H  H61  1  0.71038000  0.07839000  0.67816000  1.0
  H  H62  1  0.59123000  0.32746000  0.65956000  1.0
  H  H63  1  0.68206000  0.34428000  0.60494000  1.0
  H  H64  1  0.48846000  0.03822000  0.56772000  1.0
  H  H65  1  0.54893000  0.38738000  0.56202000  1.0
  H  H66  1  0.35237000  0.06513000  0.49443000  1.0
  H  H67  1  0.41243000  0.39682000  0.48869000  1.0
  H  H68  1  0.49524000  0.69468000  0.91862000  1.0
  H  H69  1  0.59504000  0.55117000  0.88983000  1.0
  H  H70  1  0.57302000  0.39838000  0.82398000  1.0
  H  H71  1  0.85636000  0.52834000  0.74169000  1.0
  H  H72  1  0.86709000  0.67037000  0.81238000  1.0
  H  H73  1  0.86164000  0.33333333  0.72377000  1.0
  H  H74  1  0.78961000  0.42160000  0.67816000  1.0
  H  H75  1  0.90876000  0.17255000  0.65956000  1.0
  H  H76  1  0.81793000  0.15573000  0.60494000  1.0
  H  H77  1  0.01162000  0.46173000  0.56770000  1.0
  H  H78  1  0.95105000  0.11259000  0.56204000  1.0
  H  H79  1  0.14767000  0.43476000  0.49441000  1.0
  H  H80  1  0.08753000  0.10309000  0.48871000  1.0
  H  H81  1  0.00474000  0.80533000  0.91865000  1.0
  H  H82  1  0.44881000  0.09499000  0.38983000  1.0
  H  H83  1  0.60163000  0.07301000  0.32396000  1.0
  H  H84  1  0.47164000  0.35633000  0.24168000  1.0
  H  H85  1  0.32961000  0.36702000  0.31238000  1.0
  H  H86  1  0.66661000  0.36163000  0.22377000  1.0
  H  H87  1  0.57837000  0.28962000  0.17817000  1.0
  H  H88  1  0.82743000  0.40877000  0.15957000  1.0
  H  H89  1  0.84423000  0.31795000  0.10494000  1.0
  H  H90  1  0.53822000  0.51162000  0.06772000  1.0
  H  H91  1  0.88735000  0.45103000  0.06201000  1.0
  H  H92  1  0.56517000  0.64767000  0.99443000  1.0
  H  H93  1  0.89682000  0.58751000  0.98868000  1.0
  H  H94  1  0.19467000  0.50470000  0.41864000  1.0
  H  H95  1  0.05116000  0.40481000  0.38985000  1.0
  H  H96  1  0.89840000  0.42692000  0.32398000  1.0
  H  H97  1  0.02832000  0.14363000  0.24168000  1.0
  H  H98  1  0.17032000  0.13282000  0.31238000  1.0
  H  H99  1  0.83336000  0.13834000  0.22376000  1.0
  H  H100  1  0.92159000  0.21038000  0.17815000  1.0
  H  H101  1  0.67249000  0.09125000  0.15956000  1.0
  H  H102  1  0.65567000  0.18209000  0.10494000  1.0
  H  H103  1  0.96170000  0.98844000  0.06771000  1.0
  H  H104  1  0.61256000  0.04892000  0.06204000  1.0
  H  H105  1  0.93478000  0.85236000  0.99443000  1.0
  H  H106  1  0.60310000  0.91245000  0.98871000  1.0
  H  H107  1  0.30534000  0.99518000  0.41863000  1.0
  C  C108  1  0.15143000  0.04189000  0.14350000  1.0
  C  C109  1  0.13860000  0.95808000  0.18003000  1.0
  C  C110  1  0.21362000  0.95003000  0.22231000  1.0
  C  C111  1  0.29668000  0.02863000  0.22615000  1.0
  C  C112  1  0.30219000  0.10929000  0.18707000  1.0
  C  C113  1  0.28316000  0.84871000  0.29626000  1.0
  C  C114  1  0.34675000  0.71421000  0.36492000  1.0
  C  C115  1  0.46939000  0.78984000  0.42906000  1.0
  C  C116  1  0.52604000  0.88090000  0.44894000  1.0
  C  C117  1  0.49189000  0.68708000  0.45127000  1.0
  C  C118  1  0.60057000  0.86619000  0.48986000  1.0
  C  C119  1  0.56738000  0.68139000  0.49271000  1.0
  C  C120  1  0.34851000  0.45812000  0.14350000  1.0
  C  C121  1  0.36141000  0.54191000  0.18004000  1.0
  C  C122  1  0.28639000  0.54999000  0.22232000  1.0
  C  C123  1  0.20325000  0.47147000  0.22615000  1.0
  C  C124  1  0.19768000  0.39085000  0.18705000  1.0
  C  C125  1  0.21692000  0.65132000  0.29627000  1.0
  C  C126  1  0.15330000  0.78579000  0.36490000  1.0
  C  C127  1  0.03065000  0.71018000  0.42905000  1.0
  C  C128  1  0.97405000  0.61909000  0.44893000  1.0
  C  C129  1  0.00816000  0.81294000  0.45126000  1.0
  C  C130  1  0.89952000  0.63377000  0.48986000  1.0
  C  C131  1  0.93269000  0.81859000  0.49271000  1.0
  C  C132  1  0.54195000  0.84854000  0.64350000  1.0
  C  C133  1  0.45815000  0.86143000  0.68004000  1.0
  C  C134  1  0.45008000  0.78641000  0.72232000  1.0
  C  C135  1  0.52862000  0.70330000  0.72615000  1.0
  C  C136  1  0.60926000  0.69774000  0.68707000  1.0
  C  C137  1  0.34875000  0.71693000  0.79628000  1.0
  C  C138  1  0.21425000  0.65334000  0.86491000  1.0
  C  C139  1  0.28982000  0.53065000  0.92906000  1.0
  C  C140  1  0.38088000  0.47404000  0.94896000  1.0
  C  C141  1  0.18703000  0.50817000  0.95125000  1.0
  C  C142  1  0.36615000  0.39950000  0.98988000  1.0
  C  C143  1  0.18132000  0.43270000  0.99270000  1.0
  C  C144  1  0.95815000  0.65142000  0.64354000  1.0
  C  C145  1  0.04195000  0.63857000  0.68008000  1.0
  C  C146  1  0.05001000  0.71362000  0.72235000  1.0
  C  C147  1  0.97147000  0.79675000  0.72615000  1.0
  C  C148  1  0.89083000  0.80225000  0.68706000  1.0
  C  C149  1  0.15137000  0.78319000  0.79627000  1.0
  C  C150  1  0.28583000  0.84679000  0.86493000  1.0
  C  C151  1  0.21018000  0.96940000  0.92907000  1.0
  C  C152  1  0.11908000  0.02600000  0.94895000  1.0
  C  C153  1  0.31293000  0.99191000  0.95129000  1.0
  C  C154  1  0.13374000  0.10055000  0.98987000  1.0
  C  C155  1  0.31858000  0.06740000  0.99273000  1.0
  C  C156  1  0.25005000  0.75000000  0.33032000  1.0
  C  C157  1  0.25005000  0.75007000  0.83034000  1.0
  C  C158  1  0.84853000  0.95809000  0.85649000  1.0
  C  C159  1  0.86142000  0.04189000  0.81995000  1.0
  C  C160  1  0.78640000  0.04995000  0.77768000  1.0
  C  C161  1  0.70328000  0.97141000  0.77385000  1.0
  C  C162  1  0.69773000  0.89078000  0.81293000  1.0
  C  C163  1  0.71688000  0.15130000  0.70373000  1.0
  C  C164  1  0.65326000  0.28579000  0.63509000  1.0
  C  C165  1  0.53063000  0.21015000  0.57094000  1.0
  C  C166  1  0.47406000  0.11905000  0.55106000  1.0
  C  C167  1  0.50812000  0.31291000  0.54873000  1.0
  C  C168  1  0.39951000  0.13373000  0.51013000  1.0
  C  C169  1  0.43265000  0.31857000  0.50729000  1.0
  C  C170  1  0.65140000  0.54192000  0.85648000  1.0
  C  C171  1  0.63854000  0.45812000  0.81995000  1.0
  C  C172  1  0.71358000  0.45004000  0.77768000  1.0
  C  C173  1  0.79671000  0.52859000  0.77386000  1.0
  C  C174  1  0.80221000  0.60924000  0.81293000  1.0
  C  C175  1  0.78311000  0.34870000  0.70373000  1.0
  C  C176  1  0.84672000  0.21422000  0.63509000  1.0
  C  C177  1  0.96937000  0.28982000  0.57094000  1.0
  C  C178  1  0.02601000  0.38089000  0.55105000  1.0
  C  C179  1  0.99189000  0.18704000  0.54875000  1.0
  C  C180  1  0.10053000  0.36617000  0.51013000  1.0
  C  C181  1  0.06736000  0.18135000  0.50730000  1.0
  C  C182  1  0.45808000  0.15135000  0.35647000  1.0
  C  C183  1  0.54188000  0.13852000  0.31994000  1.0
  C  C184  1  0.54995000  0.21357000  0.27767000  1.0
  C  C185  1  0.47141000  0.29668000  0.27385000  1.0
  C  C186  1  0.39075000  0.30218000  0.31293000  1.0
  C  C187  1  0.65128000  0.28311000  0.20374000  1.0
  C  C188  1  0.78576000  0.34674000  0.13509000  1.0
  C  C189  1  0.71013000  0.46938000  0.07094000  1.0
  C  C190  1  0.61905000  0.52599000  0.05106000  1.0
  C  C191  1  0.81290000  0.49186000  0.04873000  1.0
  C  C192  1  0.63375000  0.60054000  0.01014000  1.0
  C  C193  1  0.81857000  0.56734000  0.00729000  1.0
  C  C194  1  0.04190000  0.34850000  0.35649000  1.0
  C  C195  1  0.95810000  0.36138000  0.31996000  1.0
  C  C196  1  0.95002000  0.28637000  0.27768000  1.0
  C  C197  1  0.02856000  0.20324000  0.27385000  1.0
  C  C198  1  0.10919000  0.19768000  0.31294000  1.0
  C  C199  1  0.84868000  0.21687000  0.20372000  1.0
  C  C200  1  0.71418000  0.15328000  0.13509000  1.0
  C  C201  1  0.78981000  0.03066000  0.07094000  1.0
  C  C202  1  0.88088000  0.97404000  0.05106000  1.0
  C  C203  1  0.68703000  0.00814000  0.04875000  1.0
  C  C204  1  0.86618000  0.89950000  0.01013000  1.0
  C  C205  1  0.68136000  0.93266000  0.00730000  1.0
  C  C206  1  0.74999000  0.25001000  0.66967000  1.0
  C  C207  1  0.74997000  0.25001000  0.16967000  1.0
  S  S208  1  0.45281000  0.20978000  0.08923000  1.0
  S  S209  1  0.04723000  0.29017000  0.08921000  1.0
  S  S210  1  0.70983000  0.54718000  0.58921000  1.0
  S  S211  1  0.79026000  0.95273000  0.58921000  1.0
  S  S212  1  0.54720000  0.79025000  0.91079000  1.0
  S  S213  1  0.95275000  0.70979000  0.91077000  1.0
  S  S214  1  0.29025000  0.45278000  0.41077000  1.0
  S  S215  1  0.20979000  0.04721000  0.41080000  1.0
  N  N216  1  0.23213000  0.11655000  0.14604000  1.0
  N  N217  1  0.62132000  0.76830000  0.51249000  1.0
  N  N218  1  0.26775000  0.38354000  0.14603000  1.0
  N  N219  1  0.87877000  0.73165000  0.51249000  1.0
  N  N220  1  0.61655000  0.76779000  0.64603000  1.0
  N  N221  1  0.26823000  0.37875000  0.01249000  1.0
  N  N222  1  0.88352000  0.73214000  0.64605000  1.0
  N  N223  1  0.23163000  0.12134000  0.01250000  1.0
  N  N224  1  0.76780000  0.88348000  0.85396000  1.0
  N  N225  1  0.37872000  0.23162000  0.48751000  1.0
  N  N226  1  0.73213000  0.61653000  0.85395000  1.0
  N  N227  1  0.12128000  0.26827000  0.48751000  1.0
  N  N228  1  0.38345000  0.23208000  0.35394000  1.0
  N  N229  1  0.73164000  0.62130000  0.98751000  1.0
  N  N230  1  0.11649000  0.26775000  0.35396000  1.0
  N  N231  1  0.76829000  0.87874000  0.98751000  1.0
  O  O232  1  0.19971000  0.86564000  0.25645000  1.0
  O  O233  1  0.39634000  0.80872000  0.38947000  1.0
  O  O234  1  0.30038000  0.63435000  0.25648000  1.0
  O  O235  1  0.10369000  0.69130000  0.38946000  1.0
  O  O236  1  0.36571000  0.80039000  0.75648000  1.0
  O  O237  1  0.30874000  0.60372000  0.88948000  1.0
  O  O238  1  0.13439000  0.69971000  0.75649000  1.0
  O  O239  1  0.19134000  0.89638000  0.88948000  1.0
  O  O240  1  0.80034000  0.13435000  0.74353000  1.0
  O  O241  1  0.60365000  0.19130000  0.61053000  1.0
  O  O242  1  0.69965000  0.36566000  0.74352000  1.0
  O  O243  1  0.89633000  0.30871000  0.61054000  1.0
  O  O244  1  0.63434000  0.19965000  0.24353000  1.0
  O  O245  1  0.69126000  0.39635000  0.11054000  1.0
  O  O246  1  0.86563000  0.30033000  0.24352000  1.0
  O  O247  1  0.80868000  0.10369000  0.11053000  1.0
