# generated using pymatgen
data_ZnH2C2IN3
_symmetry_space_group_name_H-M   'P 1'
_cell_length_a   6.74149000
_cell_length_b   9.39432000
_cell_length_c   9.75806000
_cell_angle_alpha   90.00040000
_cell_angle_beta   90.00060000
_cell_angle_gamma   71.44500000
_symmetry_Int_Tables_number   1
_chemical_formula_structural   ZnH2C2IN3
_chemical_formula_sum   'Zn4 H8 C8 I4 N12'
_cell_volume   585.87045744
_cell_formula_units_Z   4
loop_
 _symmetry_equiv_pos_site_id
 _symmetry_equiv_pos_as_xyz
  1  'x, y, z'
loop_
 _atom_site_type_symbol
 _atom_site_label
 _atom_site_symmetry_multiplicity
 _atom_site_fract_x
 _atom_site_fract_y
 _atom_site_fract_z
 _atom_site_occupancy
  Zn  Zn0  1  0.53787000  0.67606000  0.56898000  1.0
  Zn  Zn1  1  0.96214000  0.82394000  0.06898000  1.0
  Zn  Zn2  1  0.46214000  0.32394000  0.43102000  1.0
  Zn  Zn3  1  0.03787000  0.17606000  0.93102000  1.0
  H  H4  1  0.34937000  0.00635000  0.69649000  1.0
  H  H5  1  0.15063000  0.49365000  0.19648000  1.0
  H  H6  1  0.65063000  0.99365000  0.30351000  1.0
  H  H7  1  0.84937000  0.50635000  0.80352000  1.0
  H  H8  1  0.22610000  0.61259000  0.81771000  1.0
  H  H9  1  0.27391000  0.88740000  0.31771000  1.0
  H  H10  1  0.77390000  0.38741000  0.18229000  1.0
  H  H11  1  0.72610000  0.11259000  0.68229000  1.0
  C  C12  1  0.22603000  0.72820000  0.81130000  1.0
  C  C13  1  0.27397000  0.77180000  0.31131000  1.0
  C  C14  1  0.77397000  0.27180000  0.18870000  1.0
  C  C15  1  0.72603000  0.22820000  0.68869000  1.0
  C  C16  1  0.29049000  0.92760000  0.75125000  1.0
  C  C17  1  0.20950000  0.57240000  0.25125000  1.0
  C  C18  1  0.70951000  0.07240000  0.24875000  1.0
  C  C19  1  0.79049000  0.42760000  0.74875000  1.0
  I  I20  1  0.81330000  0.80712000  0.54765000  1.0
  I  I21  1  0.68669000  0.69289000  0.04765000  1.0
  I  I22  1  0.18670000  0.19288000  0.45235000  1.0
  I  I23  1  0.31330000  0.30712000  0.95235000  1.0
  N  N24  1  0.12134000  0.83592000  0.89732000  1.0
  N  N25  1  0.37866000  0.66408000  0.39732000  1.0
  N  N26  1  0.87866000  0.16409000  0.10268000  1.0
  N  N27  1  0.62135000  0.33592000  0.60268000  1.0
  N  N28  1  0.16215000  0.96437000  0.85821000  1.0
  N  N29  1  0.33785000  0.53563000  0.35821000  1.0
  N  N30  1  0.83786000  0.03563000  0.14179000  1.0
  N  N31  1  0.66215000  0.46437000  0.64179000  1.0
  N  N32  1  0.33373000  0.78125000  0.71817000  1.0
  N  N33  1  0.16627000  0.71875000  0.21817000  1.0
  N  N34  1  0.66627000  0.21875000  0.28183000  1.0
  N  N35  1  0.83373000  0.28125000  0.78183000  1.0
