# generated using pymatgen
data_CdH2C2N3Cl
_symmetry_space_group_name_H-M   'P 1'
_cell_length_a   11.13380000
_cell_length_b   11.60210000
_cell_length_c   11.60210000
_cell_angle_alpha   120.00000000
_cell_angle_beta   90.00000000
_cell_angle_gamma   90.00000000
_symmetry_Int_Tables_number   1
_chemical_formula_structural   CdH2C2N3Cl
_chemical_formula_sum   'Cd6 H12 C12 N18 Cl6'
_cell_volume   1297.91800213
_cell_formula_units_Z   6
loop_
 _symmetry_equiv_pos_site_id
 _symmetry_equiv_pos_as_xyz
  1  'x, y, z'
loop_
 _atom_site_type_symbol
 _atom_site_label
 _atom_site_symmetry_multiplicity
 _atom_site_fract_x
 _atom_site_fract_y
 _atom_site_fract_z
 _atom_site_occupancy
  Cd  Cd0  1  0.75001000  0.22805000  0.61403000  1.0
  Cd  Cd1  1  0.41667000  0.38597000  0.61402000  1.0
  Cd  Cd2  1  0.08334000  0.38597000  0.77195000  1.0
  Cd  Cd3  1  0.25001000  0.77195000  0.38597000  1.0
  Cd  Cd4  1  0.91667000  0.61403000  0.38598000  1.0
  Cd  Cd5  1  0.58334000  0.61403000  0.22805000  1.0
  H  H6  1  0.76496000  0.36839000  0.41615000  1.0
  H  H7  1  0.43162000  0.58385000  0.95224000  1.0
  H  H8  1  0.09829000  0.04776000  0.63161000  1.0
  H  H9  1  0.26496000  0.63161000  0.58385000  1.0
  H  H10  1  0.93162000  0.41615000  0.04776000  1.0
  H  H11  1  0.59829000  0.95224000  0.36840000  1.0
  H  H12  1  0.90172000  0.95224000  0.58385000  1.0
  H  H13  1  0.23505000  0.63161000  0.04776000  1.0
  H  H14  1  0.56839000  0.41615000  0.36839000  1.0
  H  H15  1  0.40172000  0.04776000  0.41615000  1.0
  H  H16  1  0.73505000  0.36839000  0.95224000  1.0
  H  H17  1  0.06839000  0.58385000  0.63161000  1.0
  C  C18  1  0.83953000  0.40590000  0.48549000  1.0
  C  C19  1  0.50619000  0.51450000  0.92040000  1.0
  C  C20  1  0.17286000  0.07960000  0.59410000  1.0
  C  C21  1  0.33953000  0.59410000  0.51450000  1.0
  C  C22  1  0.00619000  0.48550000  0.07960000  1.0
  C  C23  1  0.67286000  0.92040000  0.40590000  1.0
  C  C24  1  0.82716000  0.92040000  0.51451000  1.0
  C  C25  1  0.16049000  0.59410000  0.07959000  1.0
  C  C26  1  0.49383000  0.48549000  0.40589000  1.0
  C  C27  1  0.32716000  0.07960000  0.48549000  1.0
  C  C28  1  0.66049000  0.40590000  0.92041000  1.0
  C  C29  1  0.99383000  0.51451000  0.59411000  1.0
  N  N30  1  0.91668000  0.50175000  0.49825000  1.0
  N  N31  1  0.58334000  0.50175000  0.00350000  1.0
  N  N32  1  0.25001000  0.99650000  0.49825000  1.0
  N  N33  1  0.41668000  0.49825000  0.50175000  1.0
  N  N34  1  0.08334000  0.49825000  0.99651000  1.0
  N  N35  1  0.75000000  0.00350000  0.50175000  1.0
  N  N36  1  0.86689000  0.36178000  0.56841000  1.0
  N  N37  1  0.53355000  0.43160000  0.79337000  1.0
  N  N38  1  0.20022000  0.20662000  0.63822000  1.0
  N  N39  1  0.36689000  0.63822000  0.43160000  1.0
  N  N40  1  0.03355000  0.56840000  0.20663000  1.0
  N  N41  1  0.70022000  0.79338000  0.36178000  1.0
  N  N42  1  0.79979000  0.79338000  0.43161000  1.0
  N  N43  1  0.13312000  0.63823000  0.20662000  1.0
  N  N44  1  0.46646000  0.56839000  0.36177000  1.0
  N  N45  1  0.29979000  0.20662000  0.56839000  1.0
  N  N46  1  0.63312000  0.36177000  0.79338000  1.0
  N  N47  1  0.96646000  0.43161000  0.63823000  1.0
  Cl  Cl48  1  0.91668000  0.22415000  0.77586000  1.0
  Cl  Cl49  1  0.58334000  0.22415000  0.44830000  1.0
  Cl  Cl50  1  0.25001000  0.55170000  0.77585000  1.0
  Cl  Cl51  1  0.41668000  0.77585000  0.22415000  1.0
  Cl  Cl52  1  0.08334000  0.77585000  0.55170000  1.0
  Cl  Cl53  1  0.75001000  0.44830000  0.22415000  1.0
