# generated using pymatgen
data_CuMoH10C7(N3O2)2
_symmetry_space_group_name_H-M   'P 1'
_cell_length_a   8.24516000
_cell_length_b   8.45609000
_cell_length_c   10.04790000
_cell_angle_alpha   103.48100000
_cell_angle_beta   94.67850000
_cell_angle_gamma   116.42700000
_symmetry_Int_Tables_number   1
_chemical_formula_structural   CuMoH10C7(N3O2)2
_chemical_formula_sum   'Cu2 Mo2 H20 C14 N12 O8'
_cell_volume   596.09191974
_cell_formula_units_Z   2
loop_
 _symmetry_equiv_pos_site_id
 _symmetry_equiv_pos_as_xyz
  1  'x, y, z'
loop_
 _atom_site_type_symbol
 _atom_site_label
 _atom_site_symmetry_multiplicity
 _atom_site_fract_x
 _atom_site_fract_y
 _atom_site_fract_z
 _atom_site_occupancy
  Cu  Cu0  1  0.00000000  0.00000000  0.00000000  1.0
  Cu  Cu1  1  0.00000000  0.50000000  0.00000000  1.0
  Mo  Mo2  1  0.20024000  0.28537000  0.78777000  1.0
  Mo  Mo3  1  0.79976000  0.71463000  0.21223000  1.0
  H  H4  1  0.20871000  0.24457000  0.34935000  1.0
  H  H5  1  0.79129000  0.75543000  0.65065000  1.0
  H  H6  1  0.16233000  0.71712000  0.32912000  1.0
  H  H7  1  0.83767000  0.28288000  0.67088000  1.0
  H  H8  1  0.55761000  0.71479000  0.86524000  1.0
  H  H9  1  0.44239000  0.28522000  0.13477000  1.0
  H  H10  1  0.54551000  0.19849000  0.82456000  1.0
  H  H11  1  0.45449000  0.80151000  0.17544000  1.0
  H  H12  1  0.44096000  0.63770000  0.56063000  1.0
  H  H13  1  0.55903000  0.36230000  0.43937000  1.0
  H  H14  1  0.22285000  0.47992000  0.58523000  1.0
  H  H15  1  0.77715000  0.52008000  0.41477000  1.0
  H  H16  1  0.10666000  0.71075000  0.56140000  1.0
  H  H17  1  0.89334000  0.28926000  0.43860000  1.0
  H  H18  1  0.33300000  0.87257000  0.56428000  1.0
  H  H19  1  0.66700000  0.12743000  0.43572000  1.0
  H  H20  1  0.22789000  0.90192000  0.79638000  1.0
  H  H21  1  0.77211000  0.09808000  0.20362000  1.0
  H  H22  1  0.23267000  0.69415000  0.80106000  1.0
  H  H23  1  0.76734000  0.30585000  0.19894000  1.0
  C  C24  1  0.19035000  0.34413000  0.30744000  1.0
  C  C25  1  0.80964000  0.65587000  0.69256000  1.0
  C  C26  1  0.16975000  0.58889000  0.29853000  1.0
  C  C27  1  0.83025000  0.41111000  0.70147000  1.0
  C  C28  1  0.60203000  0.85740000  0.86738000  1.0
  C  C29  1  0.39798000  0.14260000  0.13262000  1.0
  C  C30  1  0.59723000  0.10643000  0.84636000  1.0
  C  C31  1  0.40278000  0.89357000  0.15364000  1.0
  C  C32  1  0.29169000  0.59325000  0.53979000  1.0
  C  C33  1  0.70830000  0.40675000  0.46021000  1.0
  C  C34  1  0.25262000  0.75245000  0.60025000  1.0
  C  C35  1  0.74738000  0.24755000  0.39976000  1.0
  C  C36  1  0.28992000  0.81297000  0.76000000  1.0
  C  C37  1  0.71009000  0.18703000  0.24000000  1.0
  N  N38  1  0.12637000  0.31750000  0.17494000  1.0
  N  N39  1  0.87362000  0.68251000  0.82506000  1.0
  N  N40  1  0.11293000  0.47175000  0.17025000  1.0
  N  N41  1  0.88707000  0.52825000  0.82975000  1.0
  N  N42  1  0.22028000  0.51293000  0.38809000  1.0
  N  N43  1  0.77972000  0.48707000  0.61191000  1.0
  N  N44  1  0.77277000  0.99837000  0.91218000  1.0
  N  N45  1  0.22723000  0.00163000  0.08782000  1.0
  N  N46  1  0.77081000  0.15527000  0.89920000  1.0
  N  N47  1  0.22920000  0.84473000  0.10080000  1.0
  N  N48  1  0.48793000  0.92070000  0.82399000  1.0
  N  N49  1  0.51208000  0.07930000  0.17601000  1.0
  O  O50  1  0.13648000  0.09486000  0.86043000  1.0
  O  O51  1  0.86353000  0.90515000  0.13957000  1.0
  O  O52  1  0.19539000  0.48060000  0.90496000  1.0
  O  O53  1  0.80461000  0.51940000  0.09504000  1.0
  O  O54  1  0.42457000  0.35740000  0.75530000  1.0
  O  O55  1  0.57543000  0.64261000  0.24470000  1.0
  O  O56  1  0.04459000  0.21481000  0.62893000  1.0
  O  O57  1  0.95541000  0.78518000  0.37107000  1.0
