# generated using pymatgen
data_TbH10C13N2O9
_symmetry_space_group_name_H-M   'P 1'
_cell_length_a   8.27940000
_cell_length_b   9.74792000
_cell_length_c   9.92965000
_cell_angle_alpha   101.47900000
_cell_angle_beta   108.66200000
_cell_angle_gamma   100.52300000
_symmetry_Int_Tables_number   1
_chemical_formula_structural   TbH10C13N2O9
_chemical_formula_sum   'Tb2 H20 C26 N4 O18'
_cell_volume   717.40964622
_cell_formula_units_Z   2
loop_
 _symmetry_equiv_pos_site_id
 _symmetry_equiv_pos_as_xyz
  1  'x, y, z'
loop_
 _atom_site_type_symbol
 _atom_site_label
 _atom_site_symmetry_multiplicity
 _atom_site_fract_x
 _atom_site_fract_y
 _atom_site_fract_z
 _atom_site_occupancy
  Tb  Tb0  1  0.40268000  0.65324000  0.16949000  1.0
  Tb  Tb1  1  0.59732000  0.34676000  0.83051000  1.0
  H  H2  1  0.28076000  0.35588000  0.28355000  1.0
  H  H3  1  0.71923000  0.64412000  0.71645000  1.0
  H  H4  1  0.14482000  0.17970000  0.40106000  1.0
  H  H5  1  0.85518000  0.82030000  0.59894000  1.0
  H  H6  1  0.11104000  0.91442000  0.30417000  1.0
  H  H7  1  0.88896000  0.08558000  0.69583000  1.0
  H  H8  1  0.35392000  0.98544000  0.00974000  1.0
  H  H9  1  0.64608000  0.01456000  0.99026000  1.0
  H  H10  1  0.12442000  0.80014000  0.74793000  1.0
  H  H11  1  0.87559000  0.19986000  0.25207000  1.0
  H  H12  1  0.12437000  0.53861000  0.67708000  1.0
  H  H13  1  0.87563000  0.46139000  0.32292000  1.0
  H  H14  1  0.29278000  0.46232000  0.51627000  1.0
  H  H15  1  0.70722000  0.53768000  0.48373000  1.0
  H  H16  1  0.44444000  0.87993000  0.48667000  1.0
  H  H17  1  0.55556000  0.12007000  0.51333000  1.0
  H  H18  1  0.75431000  0.59557000  0.18917000  1.0
  H  H19  1  0.24569000  0.40443000  0.81083000  1.0
  H  H20  1  0.77718000  0.76262000  0.27452000  1.0
  H  H21  1  0.22281000  0.23738000  0.72548000  1.0
  C  C22  1  0.41884000  0.28594000  0.07350000  1.0
  C  C23  1  0.58116000  0.71406000  0.92650000  1.0
  C  C24  1  0.32702000  0.18485000  0.13887000  1.0
  C  C25  1  0.67298000  0.81515000  0.86113000  1.0
  C  C26  1  0.26548000  0.23954000  0.24865000  1.0
  C  C27  1  0.73452000  0.76046000  0.75135000  1.0
  C  C28  1  0.19044000  0.14332000  0.31231000  1.0
  C  C29  1  0.80956000  0.85668000  0.68768000  1.0
  C  C30  1  0.17277000  0.99633000  0.26333000  1.0
  C  C31  1  0.82723000  0.00367000  0.73667000  1.0
  C  C32  1  0.30839000  0.03645000  0.09312000  1.0
  C  C33  1  0.69161000  0.96355000  0.90689000  1.0
  C  C34  1  0.29507000  0.02138000  0.66532000  1.0
  C  C35  1  0.70494000  0.97862000  0.33468000  1.0
  C  C36  1  0.28136000  0.86119000  0.62157000  1.0
  C  C37  1  0.71864000  0.13881000  0.37843000  1.0
  C  C38  1  0.18965000  0.76267000  0.67402000  1.0
  C  C39  1  0.81035000  0.23733000  0.32598000  1.0
  C  C40  1  0.19009000  0.61748000  0.63506000  1.0
  C  C41  1  0.80991000  0.38252000  0.36494000  1.0
  C  C42  1  0.27875000  0.57178000  0.54502000  1.0
  C  C43  1  0.72125000  0.42822000  0.45497000  1.0
  C  C44  1  0.36792000  0.81136000  0.53098000  1.0
  C  C45  1  0.63208000  0.18864000  0.46902000  1.0
  C  C46  1  0.98729000  0.50727000  0.07518000  1.0
  C  C47  1  0.01271000  0.49273000  0.92482000  1.0
  N  N48  1  0.23011000  0.94443000  0.15418000  1.0
  N  N49  1  0.76989000  0.05557000  0.84582000  1.0
  N  N50  1  0.36482000  0.66881000  0.49317000  1.0
  N  N51  1  0.63518000  0.33119000  0.50683000  1.0
  O  O52  1  0.20777000  0.80372000  0.10809000  1.0
  O  O53  1  0.79223000  0.19628000  0.89191000  1.0
  O  O54  1  0.48972000  0.23278000  0.98702000  1.0
  O  O55  1  0.51028000  0.76722000  0.01298000  1.0
  O  O56  1  0.42051000  0.41840000  0.11027000  1.0
  O  O57  1  0.57949000  0.58160000  0.88973000  1.0
  O  O58  1  0.45221000  0.62525000  0.40967000  1.0
  O  O59  1  0.54778000  0.37475000  0.59033000  1.0
  O  O60  1  0.43989000  0.10657000  0.67797000  1.0
  O  O61  1  0.56011000  0.89344000  0.32202000  1.0
  O  O62  1  0.16590000  0.05916000  0.68702000  1.0
  O  O63  1  0.83410000  0.94084000  0.31298000  1.0
  O  O64  1  0.82855000  0.47460000  0.06906000  1.0
  O  O65  1  0.17145000  0.52540000  0.93094000  1.0
  O  O66  1  0.12449000  0.54984000  0.19105000  1.0
  O  O67  1  0.87551000  0.45016000  0.80895000  1.0
  O  O68  1  0.71224000  0.65803000  0.25451000  1.0
  O  O69  1  0.28776000  0.34197000  0.74549000  1.0
