# generated using pymatgen
data_Zn3H12C14(N4O5)2
_symmetry_space_group_name_H-M   'P 1'
_cell_length_a   8.01712000
_cell_length_b   9.40744000
_cell_length_c   15.52690000
_cell_angle_alpha   85.23990000
_cell_angle_beta   78.76500000
_cell_angle_gamma   64.77380000
_symmetry_Int_Tables_number   1
_chemical_formula_structural   Zn3H12C14(N4O5)2
_chemical_formula_sum   'Zn6 H24 C28 N16 O20'
_cell_volume   1039.06617383
_cell_formula_units_Z   2
loop_
 _symmetry_equiv_pos_site_id
 _symmetry_equiv_pos_as_xyz
  1  'x, y, z'
loop_
 _atom_site_type_symbol
 _atom_site_label
 _atom_site_symmetry_multiplicity
 _atom_site_fract_x
 _atom_site_fract_y
 _atom_site_fract_z
 _atom_site_occupancy
  Zn  Zn0  1  0.06086000  0.87842000  0.24997000  1.0
  Zn  Zn1  1  0.93914000  0.12158000  0.75003000  1.0
  Zn  Zn2  1  0.60668000  0.64291000  0.50321000  1.0
  Zn  Zn3  1  0.75044000  0.64291000  0.99685000  1.0
  Zn  Zn4  1  0.39332000  0.35709000  0.49679000  1.0
  Zn  Zn5  1  0.24955000  0.35709000  0.00315000  1.0
  H  H6  1  0.03598000  0.78046000  0.60341000  1.0
  H  H7  1  0.18326000  0.78024000  0.89660000  1.0
  H  H8  1  0.96402000  0.21954000  0.39659000  1.0
  H  H9  1  0.81674000  0.21976000  0.10340000  1.0
  H  H10  1  0.50612000  0.90305000  0.36898000  1.0
  H  H11  1  0.59085000  0.90306000  0.13106000  1.0
  H  H12  1  0.49388000  0.09695000  0.63102000  1.0
  H  H13  1  0.40915000  0.09694000  0.86894000  1.0
  H  H14  1  0.34995000  0.96608000  0.29266000  1.0
  H  H15  1  0.68403000  0.96611000  0.20733000  1.0
  H  H16  1  0.65005000  0.03392000  0.70734000  1.0
  H  H17  1  0.31596000  0.03390000  0.79267000  1.0
  H  H18  1  0.13982000  0.55880000  0.35576000  1.0
  H  H19  1  0.30127000  0.55822000  0.14456000  1.0
  H  H20  1  0.86018000  0.44120000  0.64424000  1.0
  H  H21  1  0.69873000  0.44178000  0.85545000  1.0
  H  H22  1  0.96856000  0.43139000  0.41619000  1.0
  H  H23  1  0.60037000  0.43137000  0.08387000  1.0
  H  H24  1  0.03144000  0.56861000  0.58381000  1.0
  H  H25  1  0.39963000  0.56863000  0.91613000  1.0
  H  H26  1  0.81951000  0.47491000  0.35273000  1.0
  H  H27  1  0.70610000  0.47481000  0.14730000  1.0
  H  H28  1  0.18049000  0.52509000  0.64727000  1.0
  H  H29  1  0.29390000  0.52518000  0.85270000  1.0
  C  C30  1  0.79334000  0.81062000  0.50179000  1.0
  C  C31  1  0.39593000  0.81022000  0.99812000  1.0
  C  C32  1  0.20666000  0.18938000  0.49821000  1.0
  C  C33  1  0.60408000  0.18977000  0.00188000  1.0
  C  C34  1  0.02336000  0.87599000  0.55695000  1.0
  C  C35  1  0.10049000  0.87582000  0.94306000  1.0
  C  C36  1  0.97664000  0.12401000  0.44305000  1.0
  C  C37  1  0.89951000  0.12417000  0.05694000  1.0
  C  C38  1  0.87150000  0.03874000  0.44129000  1.0
  C  C39  1  0.08997000  0.03864000  0.05860000  1.0
  C  C40  1  0.12850000  0.96126000  0.55871000  1.0
  C  C41  1  0.91004000  0.96135000  0.94140000  1.0
  C  C42  1  0.89662000  0.91100000  0.49942000  1.0
  C  C43  1  0.19232000  0.91075000  0.00055000  1.0
  C  C44  1  0.10338000  0.08901000  0.50058000  1.0
  C  C45  1  0.80768000  0.08925000  0.99945000  1.0
  C  C46  1  0.36453000  0.76865000  0.36149000  1.0
  C  C47  1  0.86686000  0.76854000  0.13860000  1.0
  C  C48  1  0.63547000  0.23135000  0.63851000  1.0
  C  C49  1  0.13313000  0.23147000  0.86141000  1.0
  C  C50  1  0.23023000  0.61140000  0.36748000  1.0
  C  C51  1  0.15831000  0.61101000  0.13276000  1.0
  C  C52  1  0.76977000  0.38860000  0.63252000  1.0
  C  C53  1  0.84169000  0.38899000  0.86724000  1.0
  C  C54  1  0.74024000  0.09117000  0.37536000  1.0
  C  C55  1  0.16907000  0.09085000  0.12446000  1.0
  C  C56  1  0.25976000  0.90883000  0.62464000  1.0
  C  C57  1  0.83093000  0.90915000  0.87554000  1.0
  N  N58  1  0.43674000  0.65496000  0.41997000  1.0
  N  N59  1  0.90834000  0.65486000  0.08010000  1.0
  N  N60  1  0.56326000  0.34504000  0.58003000  1.0
  N  N61  1  0.09166000  0.34514000  0.91990000  1.0
  N  N62  1  0.41093000  0.88972000  0.33942000  1.0
  N  N63  1  0.69939000  0.88970000  0.16061000  1.0
  N  N64  1  0.58907000  0.11028000  0.66058000  1.0
  N  N65  1  0.30062000  0.11030000  0.83939000  1.0
  N  N66  1  0.23403000  0.74401000  0.32737000  1.0
  N  N67  1  0.02193000  0.74375000  0.17281000  1.0
  N  N68  1  0.76597000  0.25599000  0.67263000  1.0
  N  N69  1  0.97807000  0.25626000  0.82719000  1.0
  N  N70  1  0.34831000  0.55520000  0.42314000  1.0
  N  N71  1  0.09645000  0.55491000  0.07705000  1.0
  N  N72  1  0.65169000  0.44480000  0.57686000  1.0
  N  N73  1  0.90355000  0.44510000  0.92295000  1.0
  O  O74  1  0.66650000  0.84748000  0.45555000  1.0
  O  O75  1  0.48611000  0.84705000  0.04428000  1.0
  O  O76  1  0.33350000  0.15252000  0.54445000  1.0
  O  O77  1  0.51390000  0.15294000  0.95572000  1.0
  O  O78  1  0.83375000  0.68785000  0.55062000  1.0
  O  O79  1  0.47810000  0.68744000  0.94932000  1.0
  O  O80  1  0.16625000  0.31215000  0.44938000  1.0
  O  O81  1  0.52190000  0.31256000  0.05068000  1.0
  O  O82  1  0.85878000  0.51917000  0.39508000  1.0
  O  O83  1  0.62250000  0.51910000  0.10498000  1.0
  O  O84  1  0.14122000  0.48083000  0.60493000  1.0
  O  O85  1  0.37750000  0.48090000  0.89502000  1.0
  O  O86  1  0.58451000  0.20677000  0.39145000  1.0
  O  O87  1  0.20918000  0.20644000  0.10840000  1.0
  O  O88  1  0.41549000  0.79324000  0.60855000  1.0
  O  O89  1  0.79082000  0.79356000  0.89159000  1.0
  O  O90  1  0.80099000  0.02231000  0.29986000  1.0
  O  O91  1  0.17737000  0.02183000  0.19992000  1.0
  O  O92  1  0.19901000  0.97769000  0.70014000  1.0
  O  O93  1  0.82263000  0.97816000  0.80007000  1.0
