# generated using pymatgen
data_CdH20C16N2O5
_symmetry_space_group_name_H-M   'P 1'
_cell_length_a   8.59927000
_cell_length_b   10.92710000
_cell_length_c   10.92710000
_cell_angle_alpha   116.12500000
_cell_angle_beta   92.03090000
_cell_angle_gamma   92.03090000
_symmetry_Int_Tables_number   1
_chemical_formula_structural   CdH20C16N2O5
_chemical_formula_sum   'Cd2 H40 C32 N4 O10'
_cell_volume   919.79589602
_cell_formula_units_Z   2
loop_
 _symmetry_equiv_pos_site_id
 _symmetry_equiv_pos_as_xyz
  1  'x, y, z'
loop_
 _atom_site_type_symbol
 _atom_site_label
 _atom_site_symmetry_multiplicity
 _atom_site_fract_x
 _atom_site_fract_y
 _atom_site_fract_z
 _atom_site_occupancy
  Cd  Cd0  1  0.25000000  0.39208000  0.60792000  1.0
  Cd  Cd1  1  0.75000000  0.60792000  0.39208000  1.0
  H  H2  1  0.79998000  0.36787000  0.85595000  1.0
  H  H3  1  0.70002000  0.14405000  0.63213000  1.0
  H  H4  1  0.20002000  0.63213000  0.14405000  1.0
  H  H5  1  0.29998000  0.85595000  0.36787000  1.0
  H  H6  1  0.74221000  0.48835000  0.79409000  1.0
  H  H7  1  0.75779000  0.20591000  0.51165000  1.0
  H  H8  1  0.25779000  0.51166000  0.20591000  1.0
  H  H9  1  0.24221000  0.79409000  0.48835000  1.0
  H  H10  1  0.86562000  0.54118000  0.94573000  1.0
  H  H11  1  0.63438000  0.05427000  0.45882000  1.0
  H  H12  1  0.13438000  0.45882000  0.05427000  1.0
  H  H13  1  0.36562000  0.94573000  0.54118000  1.0
  H  H14  1  0.31775000  0.50876000  0.92859000  1.0
  H  H15  1  0.18225000  0.07140000  0.49123000  1.0
  H  H16  1  0.68225000  0.49123000  0.07140000  1.0
  H  H17  1  0.81775000  0.92860000  0.50877000  1.0
  H  H18  1  0.47517000  0.69350000  0.12810000  1.0
  H  H19  1  0.02483000  0.87190000  0.30650000  1.0
  H  H20  1  0.52483000  0.30650000  0.87190000  1.0
  H  H21  1  0.97517000  0.12810000  0.69350000  1.0
  H  H22  1  0.63343000  0.84680000  0.84864000  1.0
  H  H23  1  0.86657000  0.15136000  0.15320000  1.0
  H  H24  1  0.36657000  0.15320000  0.15136000  1.0
  H  H25  1  0.13343000  0.84864000  0.84680000  1.0
  H  H26  1  0.47643000  0.65806000  0.66395000  1.0
  H  H27  1  0.02357000  0.33605000  0.34194000  1.0
  H  H28  1  0.52357000  0.34194000  0.33606000  1.0
  H  H29  1  0.97643000  0.66394000  0.65806000  1.0
  H  H30  1  0.63432000  0.99811000  0.12582000  1.0
  H  H31  1  0.86567000  0.87418000  0.00189000  1.0
  H  H32  1  0.36568000  0.00188000  0.87418000  1.0
  H  H33  1  0.13433000  0.12582000  0.99812000  1.0
  H  H34  1  0.63332000  0.89818000  0.21792000  1.0
  H  H35  1  0.86668000  0.78207000  0.10182000  1.0
  H  H36  1  0.36668000  0.10182000  0.78208000  1.0
  H  H37  1  0.13332000  0.21793000  0.89818000  1.0
  H  H38  1  0.16116000  0.52200000  0.42317000  1.0
  H  H39  1  0.33884000  0.57682000  0.47800000  1.0
  H  H40  1  0.83884000  0.47799000  0.57682000  1.0
  H  H41  1  0.66116000  0.42317000  0.52200000  1.0
  C  C42  1  0.98219000  0.43081000  0.76315000  1.0
  C  C43  1  0.51781000  0.23685000  0.56919000  1.0
  C  C44  1  0.01781000  0.56919000  0.23685000  1.0
  C  C45  1  0.48219000  0.76315000  0.43081000  1.0
  C  C46  1  0.83701000  0.45823000  0.84297000  1.0
  C  C47  1  0.66299000  0.15703000  0.54177000  1.0
  C  C48  1  0.16299000  0.54177000  0.15703000  1.0
  C  C49  1  0.33701000  0.84297000  0.45823000  1.0
  C  C50  1  0.38985000  0.58642000  0.91666000  1.0
  C  C51  1  0.11016000  0.08334000  0.41357000  1.0
  C  C52  1  0.61015000  0.41357000  0.08334000  1.0
  C  C53  1  0.88985000  0.91666000  0.58642000  1.0
  C  C54  1  0.47581000  0.68918000  0.02646000  1.0
  C  C55  1  0.02419000  0.97354000  0.31082000  1.0
  C  C56  1  0.52419000  0.31082000  0.97354000  1.0
  C  C57  1  0.97581000  0.02646000  0.68918000  1.0
  C  C58  1  0.56547000  0.78716000  0.00569000  1.0
  C  C59  1  0.93453000  0.99431000  0.21284000  1.0
  C  C60  1  0.43453000  0.21284000  0.99431000  1.0
  C  C61  1  0.06547000  0.00569000  0.78716000  1.0
  C  C62  1  0.56467000  0.77490000  0.87246000  1.0
  C  C63  1  0.93533000  0.12754000  0.22510000  1.0
  C  C64  1  0.43533000  0.22510000  0.12754000  1.0
  C  C65  1  0.06467000  0.87246000  0.77490000  1.0
  C  C66  1  0.47672000  0.66885000  0.76786000  1.0
  C  C67  1  0.02328000  0.23214000  0.33115000  1.0
  C  C68  1  0.52328000  0.33115000  0.23214000  1.0
  C  C69  1  0.97672000  0.76786000  0.66885000  1.0
  C  C70  1  0.66195000  0.89837000  0.12080000  1.0
  C  C71  1  0.83805000  0.87920000  0.10163000  1.0
  C  C72  1  0.33805000  0.10163000  0.87920000  1.0
  C  C73  1  0.16195000  0.12079000  0.89837000  1.0
  N  N74  1  0.38946000  0.57605000  0.78940000  1.0
  N  N75  1  0.11054000  0.21060000  0.42395000  1.0
  N  N76  1  0.61053000  0.42395000  0.21060000  1.0
  N  N77  1  0.88947000  0.78940000  0.57605000  1.0
  O  O78  1  0.08975000  0.36769000  0.78877000  1.0
  O  O79  1  0.41026000  0.21123000  0.63231000  1.0
  O  O80  1  0.91026000  0.63231000  0.21123000  1.0
  O  O81  1  0.58975000  0.78877000  0.36769000  1.0
  O  O82  1  0.99394000  0.47484000  0.67212000  1.0
  O  O83  1  0.50606000  0.32788000  0.52516000  1.0
  O  O84  1  0.00606000  0.52516000  0.32788000  1.0
  O  O85  1  0.49394000  0.67212000  0.47484000  1.0
  O  O86  1  0.25000000  0.51792000  0.48208000  1.0
  O  O87  1  0.75000000  0.48208000  0.51792000  1.0
