# generated using pymatgen
data_CoH16C8(N3O2)2
_symmetry_space_group_name_H-M   'P 1'
_cell_length_a   7.18308000
_cell_length_b   7.18312000
_cell_length_c   12.48650000
_cell_angle_alpha   101.16300000
_cell_angle_beta   101.16400000
_cell_angle_gamma   100.35100000
_symmetry_Int_Tables_number   1
_chemical_formula_structural   CoH16C8(N3O2)2
_chemical_formula_sum   'Co2 H32 C16 N12 O8'
_cell_volume   604.12559998
_cell_formula_units_Z   2
loop_
 _symmetry_equiv_pos_site_id
 _symmetry_equiv_pos_as_xyz
  1  'x, y, z'
loop_
 _atom_site_type_symbol
 _atom_site_label
 _atom_site_symmetry_multiplicity
 _atom_site_fract_x
 _atom_site_fract_y
 _atom_site_fract_z
 _atom_site_occupancy
  Co  Co0  1  0.00000000  0.00000000  0.00000000  1.0
  Co  Co1  1  0.00000000  0.00000000  0.50000000  1.0
  H  H2  1  0.02277000  0.34337000  0.15127000  1.0
  H  H3  1  0.65663000  0.97723000  0.34873000  1.0
  H  H4  1  0.97723000  0.65663000  0.84873000  1.0
  H  H5  1  0.34337000  0.02277000  0.65127000  1.0
  H  H6  1  0.79671000  0.24545000  0.09729000  1.0
  H  H7  1  0.75455000  0.20328000  0.40271000  1.0
  H  H8  1  0.20329000  0.75455000  0.90271000  1.0
  H  H9  1  0.24545000  0.79671000  0.59729000  1.0
  H  H10  1  0.41070000  0.89810000  0.12306000  1.0
  H  H11  1  0.10190000  0.58930000  0.37694000  1.0
  H  H12  1  0.58930000  0.10191000  0.87694000  1.0
  H  H13  1  0.89810000  0.41070000  0.62306000  1.0
  H  H14  1  0.39115000  0.10616000  0.22185000  1.0
  H  H15  1  0.89383000  0.60885000  0.27815000  1.0
  H  H16  1  0.60884000  0.89384000  0.77815000  1.0
  H  H17  1  0.10617000  0.39116000  0.72185000  1.0
  H  H18  1  0.88669000  0.91157000  0.22115000  1.0
  H  H19  1  0.08844000  0.11332000  0.27885000  1.0
  H  H20  1  0.11331000  0.08843000  0.77885000  1.0
  H  H21  1  0.91157000  0.88669000  0.72115000  1.0
  H  H22  1  0.36838000  0.08464000  0.40827000  1.0
  H  H23  1  0.91535000  0.63162000  0.09173000  1.0
  H  H24  1  0.63162000  0.91536000  0.59173000  1.0
  H  H25  1  0.08465000  0.36838000  0.90827000  1.0
  H  H26  1  0.37482000  0.85847000  0.44843000  1.0
  H  H27  1  0.14152000  0.62517000  0.05157000  1.0
  H  H28  1  0.62518000  0.14152000  0.55157000  1.0
  H  H29  1  0.85849000  0.37483000  0.94843000  1.0
  H  H30  1  0.40542000  0.58187000  0.32028000  1.0
  H  H31  1  0.41812000  0.59457000  0.17972000  1.0
  H  H32  1  0.59458000  0.41813000  0.67972000  1.0
  H  H33  1  0.58188000  0.40543000  0.82028000  1.0
  C  C34  1  0.42758000  0.26253000  0.04239000  1.0
  C  C35  1  0.73746000  0.57241000  0.45761000  1.0
  C  C36  1  0.57241000  0.73746000  0.95760000  1.0
  C  C37  1  0.26254000  0.42758000  0.54239000  1.0
  C  C38  1  0.34627000  0.94703000  0.19327000  1.0
  C  C39  1  0.05296000  0.65373000  0.30673000  1.0
  C  C40  1  0.65373000  0.05298000  0.80673000  1.0
  C  C41  1  0.94703000  0.34627000  0.69327000  1.0
  C  C42  1  0.04539000  0.95460000  0.25000000  1.0
  C  C43  1  0.95461000  0.04539000  0.75000000  1.0
  C  C44  1  0.32541000  0.92540000  0.37970000  1.0
  C  C45  1  0.07458000  0.67459000  0.12030000  1.0
  C  C46  1  0.67458000  0.07460000  0.62030000  1.0
  C  C47  1  0.92541000  0.32542000  0.87970000  1.0
  C  C48  1  0.35434000  0.64565000  0.25000000  1.0
  C  C49  1  0.64566000  0.35435000  0.75000000  1.0
  N  N50  1  0.26173000  0.17554000  0.01471000  1.0
  N  N51  1  0.82446000  0.73827000  0.48530000  1.0
  N  N52  1  0.73827000  0.82446000  0.98529000  1.0
  N  N53  1  0.17554000  0.26172000  0.51470000  1.0
  N  N54  1  0.13151000  0.88966000  0.15442000  1.0
  N  N55  1  0.11034000  0.86849000  0.34558000  1.0
  N  N56  1  0.86849000  0.11034000  0.84558000  1.0
  N  N57  1  0.88966000  0.13151000  0.65442000  1.0
  N  N58  1  0.41600000  0.86002000  0.28699000  1.0
  N  N59  1  0.13997000  0.58399000  0.21301000  1.0
  N  N60  1  0.58400000  0.13997000  0.71301000  1.0
  N  N61  1  0.86003000  0.41601000  0.78699000  1.0
  O  O62  1  0.59789000  0.35338000  0.07111000  1.0
  O  O63  1  0.64663000  0.40210000  0.42889000  1.0
  O  O64  1  0.40211000  0.64663000  0.92888000  1.0
  O  O65  1  0.35337000  0.59789000  0.57111000  1.0
  O  O66  1  0.92738000  0.21593000  0.11170000  1.0
  O  O67  1  0.78407000  0.07262000  0.38830000  1.0
  O  O68  1  0.07262000  0.78407000  0.88830000  1.0
  O  O69  1  0.21593000  0.92738000  0.61170000  1.0
