# generated using pymatgen
data_CuH12(C9N5)2
_symmetry_space_group_name_H-M   'P 1'
_cell_length_a   6.90138000
_cell_length_b   7.19334000
_cell_length_c   9.69387000
_cell_angle_alpha   84.95300000
_cell_angle_beta   89.45620000
_cell_angle_gamma   71.28290000
_symmetry_Int_Tables_number   1
_chemical_formula_structural   CuH12(C9N5)2
_chemical_formula_sum   'Cu1 H12 C18 N10'
_cell_volume   453.93477321
_cell_formula_units_Z   1
loop_
 _symmetry_equiv_pos_site_id
 _symmetry_equiv_pos_as_xyz
  1  'x, y, z'
loop_
 _atom_site_type_symbol
 _atom_site_label
 _atom_site_symmetry_multiplicity
 _atom_site_fract_x
 _atom_site_fract_y
 _atom_site_fract_z
 _atom_site_occupancy
  Cu  Cu0  1  0.00000000  0.99999000  0.00000000  1.0
  H  H1  1  0.71368000  0.83023000  0.32821000  1.0
  H  H2  1  0.28631000  0.16978000  0.67179000  1.0
  H  H3  1  0.77218000  0.87385000  0.57222000  1.0
  H  H4  1  0.22783000  0.12616000  0.42778000  1.0
  H  H5  1  0.76919000  0.19917000  0.64250000  1.0
  H  H6  1  0.23084000  0.80085000  0.35751000  1.0
  H  H7  1  0.70650000  0.48415000  0.46223000  1.0
  H  H8  1  0.29350000  0.51586000  0.53777000  1.0
  H  H9  1  0.57311000  0.21412000  0.04951000  1.0
  H  H10  1  0.42688000  0.78589000  0.95049000  1.0
  H  H11  1  0.62612000  0.97108000  0.10407000  1.0
  H  H12  1  0.37386000  0.02893000  0.89594000  1.0
  C  C13  1  0.10776000  0.59397000  0.16371000  1.0
  C  C14  1  0.89224000  0.40602000  0.83628000  1.0
  C  C15  1  0.14125000  0.26802000  0.17509000  1.0
  C  C16  1  0.85877000  0.73195000  0.82489000  1.0
  C  C17  1  0.67528000  0.13090000  0.25424000  1.0
  C  C18  1  0.32472000  0.86912000  0.74576000  1.0
  C  C19  1  0.71266000  0.97318000  0.35799000  1.0
  C  C20  1  0.28734000  0.02683000  0.64202000  1.0
  C  C21  1  0.74505000  0.99890000  0.49479000  1.0
  C  C22  1  0.25495000  0.00110000  0.50521000  1.0
  C  C23  1  0.74262000  0.18243000  0.53454000  1.0
  C  C24  1  0.25738000  0.81758000  0.46546000  1.0
  C  C25  1  0.70805000  0.34019000  0.43440000  1.0
  C  C26  1  0.29195000  0.65983000  0.56560000  1.0
  C  C27  1  0.67367000  0.31709000  0.29446000  1.0
  C  C28  1  0.32633000  0.68291000  0.70555000  1.0
  C  C29  1  0.63897000  0.48126000  0.19493000  1.0
  C  C30  1  0.36103000  0.51877000  0.80507000  1.0
  N  N31  1  0.07511000  0.75580000  0.11362000  1.0
  N  N32  1  0.92487000  0.24417000  0.88638000  1.0
  N  N33  1  0.14581000  0.42288000  0.23124000  1.0
  N  N34  1  0.85422000  0.57709000  0.76874000  1.0
  N  N35  1  0.14606000  0.11642000  0.13496000  1.0
  N  N36  1  0.85395000  0.88353000  0.86503000  1.0
  N  N37  1  0.65306000  0.09930000  0.11831000  1.0
  N  N38  1  0.34694000  0.90070000  0.88170000  1.0
  N  N39  1  0.61116000  0.61837000  0.11389000  1.0
  N  N40  1  0.38880000  0.38166000  0.88612000  1.0
