# generated using pymatgen
data_KCoH3(CO2)3
_symmetry_space_group_name_H-M   'P 1'
_cell_length_a   6.78603000
_cell_length_b   7.06197000
_cell_length_c   7.06198000
_cell_angle_alpha   79.69900000
_cell_angle_beta   86.46040000
_cell_angle_gamma   86.45700000
_symmetry_Int_Tables_number   1
_chemical_formula_structural   KCoH3(CO2)3
_chemical_formula_sum   'K2 Co2 H6 C6 O12'
_cell_volume   331.89516702
_cell_formula_units_Z   2
loop_
 _symmetry_equiv_pos_site_id
 _symmetry_equiv_pos_as_xyz
  1  'x, y, z'
loop_
 _atom_site_type_symbol
 _atom_site_label
 _atom_site_symmetry_multiplicity
 _atom_site_fract_x
 _atom_site_fract_y
 _atom_site_fract_z
 _atom_site_occupancy
  K  K0  1  0.24995000  0.89741000  0.10248000  1.0
  K  K1  1  0.75004000  0.10259000  0.89752000  1.0
  Co  Co2  1  0.50000000  0.00000000  0.50000000  1.0
  Co  Co3  1  0.00000000  0.50000000  0.00000000  1.0
  H  H4  1  0.48590000  0.43055000  0.32640000  1.0
  H  H5  1  0.01398000  0.67348000  0.56952000  1.0
  H  H6  1  0.51410000  0.56945000  0.67360000  1.0
  H  H7  1  0.98601000  0.32652000  0.43047000  1.0
  H  H8  1  0.24997000  0.37915000  0.62088000  1.0
  H  H9  1  0.75003000  0.62084000  0.37912000  1.0
  C  C10  1  0.36022000  0.37527000  0.26302000  1.0
  C  C11  1  0.13973000  0.73693000  0.62468000  1.0
  C  C12  1  0.63978000  0.62474000  0.73698000  1.0
  C  C13  1  0.86027000  0.26306000  0.37532000  1.0
  C  C14  1  0.25000000  0.25660000  0.74343000  1.0
  C  C15  1  0.75000000  0.74340000  0.25657000  1.0
  O  O16  1  0.34131000  0.19433000  0.29602000  1.0
  O  O17  1  0.15862000  0.70396000  0.80566000  1.0
  O  O18  1  0.65869000  0.80567000  0.70398000  1.0
  O  O19  1  0.84138000  0.29604000  0.19434000  1.0
  O  O20  1  0.24827000  0.50116000  0.16555000  1.0
  O  O21  1  0.25179000  0.83443000  0.49895000  1.0
  O  O22  1  0.75173000  0.49883000  0.83445000  1.0
  O  O23  1  0.74821000  0.16557000  0.50104000  1.0
  O  O24  1  0.37748000  0.11837000  0.73767000  1.0
  O  O25  1  0.12247000  0.26241000  0.88160000  1.0
  O  O26  1  0.62252000  0.88163000  0.26233000  1.0
  O  O27  1  0.87754000  0.73760000  0.11840000  1.0
