# generated using pymatgen
data_CdH13C15N2O7
_symmetry_space_group_name_H-M   'P 1'
_cell_length_a   7.97985000
_cell_length_b   9.97679777
_cell_length_c   12.47270000
_cell_angle_alpha   96.58968520
_cell_angle_beta   104.64230000
_cell_angle_gamma   111.61565061
_symmetry_Int_Tables_number   1
_chemical_formula_structural   CdH13C15N2O7
_chemical_formula_sum   'Cd2 H26 C30 N4 O14'
_cell_volume   869.00007515
_cell_formula_units_Z   2
loop_
 _symmetry_equiv_pos_site_id
 _symmetry_equiv_pos_as_xyz
  1  'x, y, z'
loop_
 _atom_site_type_symbol
 _atom_site_label
 _atom_site_symmetry_multiplicity
 _atom_site_fract_x
 _atom_site_fract_y
 _atom_site_fract_z
 _atom_site_occupancy
  Cd  Cd0  1  0.41446000  0.15029000  0.48298000  1.0
  Cd  Cd1  1  0.58555000  0.84971000  0.51703000  1.0
  H  H2  1  0.95512000  0.63518000  0.49239000  1.0
  H  H3  1  0.04486000  0.36483000  0.50762000  1.0
  H  H4  1  0.02511000  0.48906000  0.91211000  1.0
  H  H5  1  0.97487000  0.51093000  0.08788000  1.0
  H  H6  1  0.93546000  0.35031000  0.78336000  1.0
  H  H7  1  0.06452000  0.64969000  0.21664000  1.0
  H  H8  1  0.79192000  0.43335000  0.81663000  1.0
  H  H9  1  0.20805000  0.56664000  0.18337000  1.0
  H  H10  1  0.39756000  0.99125000  0.91471000  1.0
  H  H11  1  0.60245000  0.00874000  0.08530000  1.0
  H  H12  1  0.39876000  0.05713000  0.78869000  1.0
  H  H13  1  0.60126000  0.94286000  0.21131000  1.0
  H  H14  1  0.54862000  0.96998000  0.83774000  1.0
  H  H15  1  0.45138000  0.02999000  0.16226000  1.0
  H  H16  1  0.39134000  0.31210000  0.27767000  1.0
  H  H17  1  0.60873000  0.68791000  0.72233000  1.0
  H  H18  1  0.23061000  0.25113000  0.06975000  1.0
  H  H19  1  0.76948000  0.74887000  0.93025000  1.0
  H  H20  1  0.89799000  0.80945000  0.09803000  1.0
  H  H21  1  0.10198000  0.19057000  0.90198000  1.0
  H  H22  1  0.07314000  0.89120000  0.30505000  1.0
  H  H23  1  0.92684000  0.10884000  0.69497000  1.0
  H  H24  1  0.30523000  0.37336000  0.55814000  1.0
  H  H25  1  0.69476000  0.62663000  0.44185000  1.0
  H  H26  1  0.14355000  0.21487000  0.55284000  1.0
  H  H27  1  0.85643000  0.78511000  0.44715000  1.0
  C  C28  1  0.22841000  0.89990000  0.57007000  1.0
  C  C29  1  0.77158000  0.10009000  0.42993000  1.0
  C  C30  1  0.16791000  0.79180000  0.64117000  1.0
  C  C31  1  0.83208000  0.20820000  0.35882000  1.0
  C  C32  1  0.01353000  0.65797000  0.58437000  1.0
  C  C33  1  0.98645000  0.34203000  0.41562000  1.0
  C  C34  1  0.93019000  0.55092000  0.63932000  1.0
  C  C35  1  0.06979000  0.44908000  0.36068000  1.0
  C  C36  1  0.01380000  0.57072000  0.75759000  1.0
  C  C37  1  0.98619000  0.42928000  0.24241000  1.0
  C  C38  1  0.17291000  0.70524000  0.81126000  1.0
  C  C39  1  0.82708000  0.29476000  0.18873000  1.0
  C  C40  1  0.25174000  0.82056000  0.75971000  1.0
  C  C41  1  0.74827000  0.17944000  0.24029000  1.0
  C  C42  1  0.74923000  0.42262000  0.56647000  1.0
  C  C43  1  0.25076000  0.57738000  0.43353000  1.0
  C  C44  1  0.93982000  0.45629000  0.82209000  1.0
  C  C45  1  0.06015000  0.54370000  0.17790000  1.0
  C  C46  1  0.40689000  0.96700000  0.82900000  1.0
  C  C47  1  0.59312000  0.03298000  0.17100000  1.0
  C  C48  1  0.27953000  0.20235000  0.23364000  1.0
  C  C49  1  0.72051000  0.79767000  0.76636000  1.0
  C  C50  1  0.18811000  0.16618000  0.11684000  1.0
  C  C51  1  0.81194000  0.83381000  0.88316000  1.0
  C  C52  1  0.04817000  0.02246000  0.06245000  1.0
  C  C53  1  0.95186000  0.97755000  0.93755000  1.0
  C  C54  1  0.00498000  0.92271000  0.13250000  1.0
  C  C55  1  0.99502000  0.07731000  0.86751000  1.0
  C  C56  1  0.10190000  0.96642000  0.24858000  1.0
  C  C57  1  0.89810000  0.03360000  0.75143000  1.0
  N  N58  1  0.26721000  0.72986000  0.93462000  1.0
  N  N59  1  0.73278000  0.27013000  0.06537000  1.0
  N  N60  1  0.23840000  0.10374000  0.29863000  1.0
  N  N61  1  0.76161000  0.89628000  0.70137000  1.0
  O  O62  1  0.10283000  0.90539000  0.48779000  1.0
  O  O63  1  0.89717000  0.09460000  0.51220000  1.0
  O  O64  1  0.28363000  0.27627000  0.57880000  1.0
  O  O65  1  0.71636000  0.72373000  0.42119000  1.0
  O  O66  1  0.40736000  0.98319000  0.59556000  1.0
  O  O67  1  0.59264000  0.01681000  0.40445000  1.0
  O  O68  1  0.65037000  0.44109000  0.47700000  1.0
  O  O69  1  0.34961000  0.55890000  0.52299000  1.0
  O  O70  1  0.70449000  0.30066000  0.59900000  1.0
  O  O71  1  0.29550000  0.69934000  0.40100000  1.0
  O  O72  1  0.42253000  0.72095000  0.96364000  1.0
  O  O73  1  0.57746000  0.27905000  0.03637000  1.0
  O  O74  1  0.18654000  0.75769000  0.00147000  1.0
  O  O75  1  0.81343000  0.24227000  0.99852000  1.0
