# generated using pymatgen
data_LiH10C9N2O3
_symmetry_space_group_name_H-M   'P 1'
_cell_length_a   7.84049000
_cell_length_b   10.25410000
_cell_length_c   12.88605593
_cell_angle_alpha   87.77086071
_cell_angle_beta   72.30267445
_cell_angle_gamma   89.97730000
_symmetry_Int_Tables_number   1
_chemical_formula_structural   LiH10C9N2O3
_chemical_formula_sum   'Li4 H40 C36 N8 O12'
_cell_volume   986.15634863
_cell_formula_units_Z   4
loop_
 _symmetry_equiv_pos_site_id
 _symmetry_equiv_pos_as_xyz
  1  'x, y, z'
loop_
 _atom_site_type_symbol
 _atom_site_label
 _atom_site_symmetry_multiplicity
 _atom_site_fract_x
 _atom_site_fract_y
 _atom_site_fract_z
 _atom_site_occupancy
  Li  Li0  1  0.41867000  0.35264000  0.06512000  1.0
  Li  Li1  1  0.48392000  0.14726000  0.93493000  1.0
  Li  Li2  1  0.58133000  0.64736000  0.93488000  1.0
  Li  Li3  1  0.51608000  0.85275000  0.06507000  1.0
  H  H4  1  0.10024000  0.92492000  0.32339000  1.0
  H  H5  1  0.42403000  0.57516000  0.67658000  1.0
  H  H6  1  0.89976000  0.07508000  0.67661000  1.0
  H  H7  1  0.57597000  0.42484000  0.32342000  1.0
  H  H8  1  0.37165000  0.29864000  0.26556000  1.0
  H  H9  1  0.63742000  0.20121000  0.73447000  1.0
  H  H10  1  0.62835000  0.70136000  0.73444000  1.0
  H  H11  1  0.36257000  0.79879000  0.26553000  1.0
  H  H12  1  0.23499000  0.33652000  0.46403000  1.0
  H  H13  1  0.69898000  0.16334000  0.53602000  1.0
  H  H14  1  0.76502000  0.66348000  0.53597000  1.0
  H  H15  1  0.30102000  0.83666000  0.46398000  1.0
  H  H16  1  0.12984000  0.58099000  0.03637000  1.0
  H  H17  1  0.16638000  0.91888000  0.96382000  1.0
  H  H18  1  0.87016000  0.41901000  0.96363000  1.0
  H  H19  1  0.83362000  0.08112000  0.03618000  1.0
  H  H20  1  0.02838000  0.80503000  0.20213000  1.0
  H  H21  1  0.23040000  0.69502000  0.79798000  1.0
  H  H22  1  0.97162000  0.19497000  0.79787000  1.0
  H  H23  1  0.76959000  0.30498000  0.20203000  1.0
  H  H24  1  0.80947000  0.73189000  0.23951000  1.0
  H  H25  1  0.04893000  0.76833000  0.76054000  1.0
  H  H26  1  0.19052000  0.26810000  0.76050000  1.0
  H  H27  1  0.95107000  0.23167000  0.23946000  1.0
  H  H28  1  0.94396000  0.73749000  0.10142000  1.0
  H  H29  1  0.04528000  0.76262000  0.89865000  1.0
  H  H30  1  0.05604000  0.26250000  0.89858000  1.0
  H  H31  1  0.95472000  0.23738000  0.10135000  1.0
  H  H32  1  0.85882000  0.51808000  0.35233000  1.0
  H  H33  1  0.21100000  0.98215000  0.64784000  1.0
  H  H34  1  0.14118000  0.48192000  0.64767000  1.0
  H  H35  1  0.78900000  0.01785000  0.35216000  1.0
  H  H36  1  0.02870000  0.63031000  0.36010000  1.0
  H  H37  1  0.38872000  0.86983000  0.64006000  1.0
  H  H38  1  0.97129000  0.36969000  0.63991000  1.0
  H  H39  1  0.61128000  0.13017000  0.35994000  1.0
  H  H40  1  0.08716000  0.46902000  0.31173000  1.0
  H  H41  1  0.39867000  0.03107000  0.68855000  1.0
  H  H42  1  0.91284000  0.53098000  0.68827000  1.0
  H  H43  1  0.60133000  0.96893000  0.31145000  1.0
  C  C44  1  0.24585000  0.10769000  0.27841000  1.0
  C  C45  1  0.52463000  0.39230000  0.72159000  1.0
  C  C46  1  0.75415000  0.89231000  0.72159000  1.0
  C  C47  1  0.47537000  0.60770000  0.27841000  1.0
  C  C48  1  0.13281000  0.01772000  0.35112000  1.0
  C  C49  1  0.48431000  0.48235000  0.64886000  1.0
  C  C50  1  0.86718000  0.98228000  0.64888000  1.0
  C  C51  1  0.51569000  0.51765000  0.35114000  1.0
  C  C52  1  0.28348000  0.22532000  0.31893000  1.0
  C  C53  1  0.60265000  0.27461000  0.68109000  1.0
  C  C54  1  0.71652000  0.77468000  0.68107000  1.0
  C  C55  1  0.39735000  0.72539000  0.31891000  1.0
  C  C56  1  0.32690000  0.07443000  0.16022000  1.0
  C  C57  1  0.48735000  0.42552000  0.83980000  1.0
  C  C58  1  0.67310000  0.92557000  0.83978000  1.0
  C  C59  1  0.51265000  0.57449000  0.16020000  1.0
  C  C60  1  0.06070000  0.04722000  0.46084000  1.0
  C  C61  1  0.52161000  0.45276000  0.53916000  1.0
  C  C62  1  0.93930000  0.95278000  0.53916000  1.0
  C  C63  1  0.47839000  0.54725000  0.46084000  1.0
  C  C64  1  0.20665000  0.24615000  0.42985000  1.0
  C  C65  1  0.63661000  0.25377000  0.57017000  1.0
  C  C66  1  0.79335000  0.75385000  0.57015000  1.0
  C  C67  1  0.36339000  0.74623000  0.42983000  1.0
  C  C68  1  0.11580000  0.53146000  0.11641000  1.0
  C  C69  1  0.23223000  0.96847000  0.88379000  1.0
  C  C70  1  0.88421000  0.46854000  0.88359000  1.0
  C  C71  1  0.76778000  0.03153000  0.11621000  1.0
  C  C72  1  0.94727000  0.72550000  0.18562000  1.0
  C  C73  1  0.13281000  0.77460000  0.81447000  1.0
  C  C74  1  0.05273000  0.27450000  0.81438000  1.0
  C  C75  1  0.86719000  0.22540000  0.18553000  1.0
  C  C76  1  0.99768000  0.55132000  0.31321000  1.0
  C  C77  1  0.31074000  0.94882000  0.68700000  1.0
  C  C78  1  0.00232000  0.44868000  0.68679000  1.0
  C  C79  1  0.68926000  0.05118000  0.31300000  1.0
  N  N80  1  0.09755000  0.16051000  0.50020000  1.0
  N  N81  1  0.59774000  0.33943000  0.49982000  1.0
  N  N82  1  0.90244000  0.83949000  0.49980000  1.0
  N  N83  1  0.40226000  0.66057000  0.50018000  1.0
  N  N84  1  0.02131000  0.59887000  0.20167000  1.0
  N  N85  1  0.22288000  0.90119000  0.79849000  1.0
  N  N86  1  0.97869000  0.40112000  0.79833000  1.0
  N  N87  1  0.77712000  0.09881000  0.20151000  1.0
  O  O88  1  0.40905000  0.16529000  0.09344000  1.0
  O  O89  1  0.50258000  0.33457000  0.90661000  1.0
  O  O90  1  0.59095000  0.83471000  0.90656000  1.0
  O  O91  1  0.49741000  0.66543000  0.09339000  1.0
  O  O92  1  0.31043000  0.95771000  0.13585000  1.0
  O  O93  1  0.44649000  0.54222000  0.86420000  1.0
  O  O94  1  0.68957000  0.04229000  0.86415000  1.0
  O  O95  1  0.55351000  0.45778000  0.13580000  1.0
  O  O96  1  0.18398000  0.42279000  0.12360000  1.0
  O  O97  1  0.30755000  0.07711000  0.87665000  1.0
  O  O98  1  0.81602000  0.57721000  0.87640000  1.0
  O  O99  1  0.69246000  0.92289000  0.12335000  1.0
