# generated using pymatgen
data_ZnH14C12(NO)4
_symmetry_space_group_name_H-M   'P 1'
_cell_length_a   8.87104000
_cell_length_b   8.87113000
_cell_length_c   9.22958000
_cell_angle_alpha   92.26000000
_cell_angle_beta   92.25940000
_cell_angle_gamma   102.24100000
_symmetry_Int_Tables_number   1
_chemical_formula_structural   ZnH14C12(NO)4
_chemical_formula_sum   'Zn2 H28 C24 N8 O8'
_cell_volume   708.41698923
_cell_formula_units_Z   2
loop_
 _symmetry_equiv_pos_site_id
 _symmetry_equiv_pos_as_xyz
  1  'x, y, z'
loop_
 _atom_site_type_symbol
 _atom_site_label
 _atom_site_symmetry_multiplicity
 _atom_site_fract_x
 _atom_site_fract_y
 _atom_site_fract_z
 _atom_site_occupancy
  Zn  Zn0  1  0.88743000  0.11257000  0.24999000  1.0
  Zn  Zn1  1  0.11258000  0.88743000  0.74999000  1.0
  H  H2  1  0.98142000  0.48806000  0.35800000  1.0
  H  H3  1  0.51194000  0.01860000  0.14200000  1.0
  H  H4  1  0.01860000  0.51195000  0.64202000  1.0
  H  H5  1  0.48804000  0.98140000  0.85798000  1.0
  H  H6  1  0.86482000  0.70009000  0.19951000  1.0
  H  H7  1  0.29989000  0.13519000  0.30048000  1.0
  H  H8  1  0.13520000  0.29992000  0.80050000  1.0
  H  H9  1  0.70008000  0.86481000  0.69950000  1.0
  H  H10  1  0.70086000  0.48220000  0.83787000  1.0
  H  H11  1  0.51779000  0.29913000  0.66213000  1.0
  H  H12  1  0.29913000  0.51780000  0.16216000  1.0
  H  H13  1  0.48221000  0.70086000  0.33785000  1.0
  H  H14  1  0.77741000  0.67461000  0.90319000  1.0
  H  H15  1  0.32538000  0.22260000  0.59680000  1.0
  H  H16  1  0.22261000  0.32539000  0.09683000  1.0
  H  H17  1  0.67462000  0.77740000  0.40318000  1.0
  H  H18  1  0.77725000  0.26639000  0.96446000  1.0
  H  H19  1  0.73359000  0.22274000  0.53554000  1.0
  H  H20  1  0.22274000  0.73360000  0.03557000  1.0
  H  H21  1  0.26639000  0.77722000  0.46443000  1.0
  H  H22  1  0.49708000  0.63033000  0.89403000  1.0
  H  H23  1  0.36968000  0.50293000  0.60597000  1.0
  H  H24  1  0.50294000  0.36969000  0.10599000  1.0
  H  H25  1  0.63033000  0.49706000  0.39402000  1.0
  H  H26  1  0.56675000  0.66007000  0.07589000  1.0
  H  H27  1  0.33993000  0.43328000  0.42412000  1.0
  H  H28  1  0.43328000  0.33995000  0.92413000  1.0
  H  H29  1  0.66007000  0.56672000  0.57587000  1.0
  C  C30  1  0.92255000  0.47352000  0.25157000  1.0
  C  C31  1  0.52647000  0.07748000  0.24843000  1.0
  C  C32  1  0.07749000  0.52649000  0.74845000  1.0
  C  C33  1  0.47350000  0.92251000  0.75155000  1.0
  C  C34  1  0.02905000  0.08497000  0.53121000  1.0
  C  C35  1  0.91504000  0.97095000  0.96878000  1.0
  C  C36  1  0.97093000  0.91504000  0.46879000  1.0
  C  C37  1  0.08497000  0.02908000  0.03121000  1.0
  C  C38  1  0.86490000  0.57964000  0.17355000  1.0
  C  C39  1  0.42034000  0.13512000  0.32644000  1.0
  C  C40  1  0.13515000  0.42037000  0.82646000  1.0
  C  C41  1  0.57963000  0.86487000  0.67354000  1.0
  C  C42  1  0.71102000  0.56228000  0.93350000  1.0
  C  C43  1  0.43771000  0.28898000  0.56651000  1.0
  C  C44  1  0.28899000  0.43773000  0.06653000  1.0
  C  C45  1  0.56229000  0.71101000  0.43348000  1.0
  C  C46  1  0.81895000  0.35448000  0.04996000  1.0
  C  C47  1  0.64550000  0.18104000  0.45004000  1.0
  C  C48  1  0.18103000  0.64550000  0.95006000  1.0
  C  C49  1  0.35449000  0.81895000  0.54993000  1.0
  C  C50  1  0.55157000  0.57673000  0.98183000  1.0
  C  C51  1  0.42328000  0.44843000  0.51818000  1.0
  C  C52  1  0.44844000  0.42328000  0.01820000  1.0
  C  C53  1  0.57673000  0.55156000  0.48181000  1.0
  N  N54  1  0.89335000  0.33363000  0.17315000  1.0
  N  N55  1  0.66635000  0.10665000  0.32685000  1.0
  N  N56  1  0.10664000  0.66636000  0.82688000  1.0
  N  N57  1  0.33362000  0.89333000  0.67313000  1.0
  N  N58  1  0.79971000  0.50202000  0.04582000  1.0
  N  N59  1  0.49797000  0.20029000  0.45418000  1.0
  N  N60  1  0.20030000  0.49800000  0.95420000  1.0
  N  N61  1  0.50201000  0.79970000  0.54580000  1.0
  O  O62  1  0.00477000  0.19309000  0.45361000  1.0
  O  O63  1  0.80690000  0.99523000  0.04638000  1.0
  O  O64  1  0.99522000  0.80690000  0.54638000  1.0
  O  O65  1  0.19310000  0.00477000  0.95360000  1.0
  O  O66  1  0.09791000  0.10278000  0.65538000  1.0
  O  O67  1  0.89723000  0.90211000  0.84461000  1.0
  O  O68  1  0.90209000  0.89725000  0.34461000  1.0
  O  O69  1  0.10278000  0.09790000  0.15539000  1.0
