# generated using pymatgen
data_AlH9C24N3(ClO2)3
_symmetry_space_group_name_H-M   'P 1'
_cell_length_a   3.96185000
_cell_length_b   15.67048227
_cell_length_c   15.85290000
_cell_angle_alpha   117.54419189
_cell_angle_beta   96.99120000
_cell_angle_gamma   96.98200252
_symmetry_Int_Tables_number   1
_chemical_formula_structural   AlH9C24N3(ClO2)3
_chemical_formula_sum   'Al1 H9 C24 N3 Cl3 O6'
_cell_volume   848.29850517
_cell_formula_units_Z   1
loop_
 _symmetry_equiv_pos_site_id
 _symmetry_equiv_pos_as_xyz
  1  'x, y, z'
loop_
 _atom_site_type_symbol
 _atom_site_label
 _atom_site_symmetry_multiplicity
 _atom_site_fract_x
 _atom_site_fract_y
 _atom_site_fract_z
 _atom_site_occupancy
  Al  Al0  1  0.49119000  0.50126000  0.50254000  1.0
  H  H1  1  0.84726000  0.50459000  0.23552000  1.0
  H  H2  1  0.94794000  0.59153000  0.13909000  1.0
  H  H3  1  0.27931000  0.86593000  0.40482000  1.0
  H  H4  1  0.06263000  0.58842000  0.95329000  1.0
  H  H5  1  0.28575000  0.76656000  0.76893000  1.0
  H  H6  1  0.36152000  0.85993000  0.95007000  1.0
  H  H7  1  0.62571000  0.04428000  0.13795000  1.0
  H  H8  1  0.62142000  0.23537000  0.48920000  1.0
  H  H9  1  0.42154000  0.05227000  0.40149000  1.0
  C  C10  1  0.87186000  0.35072000  0.42417000  1.0
  C  C11  1  0.99577000  0.57914000  0.42772000  1.0
  C  C12  1  0.09341000  0.57344000  0.65173000  1.0
  C  C13  1  0.25162000  0.78446000  0.06923000  1.0
  C  C14  1  0.19962000  0.78645000  0.21149000  1.0
  C  C15  1  0.38959000  0.92915000  0.21095000  1.0
  C  C16  1  0.94267000  0.58388000  0.27172000  1.0
  C  C17  1  0.99832000  0.63185000  0.21810000  1.0
  C  C18  1  0.12447000  0.73378000  0.26616000  1.0
  C  C19  1  0.18760000  0.78669000  0.36788000  1.0
  C  C20  1  0.13775000  0.73805000  0.42114000  1.0
  C  C21  1  0.01885000  0.63556000  0.37360000  1.0
  C  C22  1  0.11703000  0.62716000  0.91298000  1.0
  C  C23  1  0.08443000  0.57538000  0.81259000  1.0
  C  C24  1  0.14531000  0.62539000  0.76012000  1.0
  C  C25  1  0.24288000  0.72820000  0.81038000  1.0
  C  C26  1  0.28355000  0.78020000  0.91073000  1.0
  C  C27  1  0.21807000  0.72984000  0.96269000  1.0
  C  C28  1  0.63171000  0.08599000  0.21545000  1.0
  C  C29  1  0.75461000  0.18738000  0.26524000  1.0
  C  C30  1  0.75325000  0.24209000  0.36494000  1.0
  C  C31  1  0.62685000  0.19200000  0.41245000  1.0
  C  C32  1  0.51438000  0.09079000  0.36397000  1.0
  C  C33  1  0.51442000  0.03697000  0.26441000  1.0
  N  N34  1  0.16373000  0.73319000  0.11464000  1.0
  N  N35  1  0.30607000  0.88474000  0.26268000  1.0
  N  N36  1  0.37012000  0.88228000  0.11439000  1.0
  Cl  Cl37  1  0.21336000  0.80717000  0.54627000  1.0
  Cl  Cl38  1  0.95146000  0.44897000  0.75320000  1.0
  Cl  Cl39  1  0.88816000  0.24233000  0.19898000  1.0
  O  O40  1  0.85421000  0.59461000  0.60771000  1.0
  O  O41  1  0.70251000  0.39500000  0.48998000  1.0
  O  O42  1  0.71738000  0.51756000  0.40731000  1.0
  O  O43  1  0.28976000  0.51464000  0.61167000  1.0
  O  O44  1  0.26666000  0.59529000  0.48938000  1.0
  O  O45  1  0.13274000  0.39263000  0.40834000  1.0
