# generated using pymatgen
data_PH12AuC15Cl
_symmetry_space_group_name_H-M   'P 1'
_cell_length_a   10.95200000
_cell_length_b   10.95190000
_cell_length_c   11.68530000
_cell_angle_alpha   79.32290000
_cell_angle_beta   79.32260000
_cell_angle_gamma   74.80280000
_symmetry_Int_Tables_number   1
_chemical_formula_structural   PH12AuC15Cl
_chemical_formula_sum   'P4 H48 Au4 C60 Cl4'
_cell_volume   1315.27953216
_cell_formula_units_Z   4
loop_
 _symmetry_equiv_pos_site_id
 _symmetry_equiv_pos_as_xyz
  1  'x, y, z'
loop_
 _atom_site_type_symbol
 _atom_site_label
 _atom_site_symmetry_multiplicity
 _atom_site_fract_x
 _atom_site_fract_y
 _atom_site_fract_z
 _atom_site_occupancy
  P  P0  1  0.96898000  0.69442000  0.75948000  1.0
  P  P1  1  0.30557000  0.03102000  0.74052000  1.0
  P  P2  1  0.03102000  0.30557000  0.24052000  1.0
  P  P3  1  0.69443000  0.96898000  0.25948000  1.0
  H  H4  1  0.15791000  0.46529000  0.81983000  1.0
  H  H5  1  0.53471000  0.84208000  0.68017000  1.0
  H  H6  1  0.84208000  0.53470000  0.18017000  1.0
  H  H7  1  0.46530000  0.15792000  0.31984000  1.0
  H  H8  1  0.63307000  0.09800000  0.72917000  1.0
  H  H9  1  0.90200000  0.36693000  0.77085000  1.0
  H  H10  1  0.36694000  0.90200000  0.27085000  1.0
  H  H11  1  0.09800000  0.63306000  0.22915000  1.0
  H  H12  1  0.81957000  0.69337000  0.00022000  1.0
  H  H13  1  0.30662000  0.18043000  0.49978000  1.0
  H  H14  1  0.18043000  0.30663000  0.99978000  1.0
  H  H15  1  0.69337000  0.81958000  0.50023000  1.0
  H  H16  1  0.97529000  0.62739000  0.52673000  1.0
  H  H17  1  0.37262000  0.02469000  0.97325000  1.0
  H  H18  1  0.02470000  0.37262000  0.47326000  1.0
  H  H19  1  0.62738000  0.97531000  0.02674000  1.0
  H  H20  1  0.71761000  0.64007000  0.85491000  1.0
  H  H21  1  0.35992000  0.28239000  0.64510000  1.0
  H  H22  1  0.28239000  0.35992000  0.14510000  1.0
  H  H23  1  0.64008000  0.71761000  0.35490000  1.0
  H  H24  1  0.01259000  0.84814000  0.91825000  1.0
  H  H25  1  0.15185000  0.98742000  0.58175000  1.0
  H  H26  1  0.98742000  0.15185000  0.08176000  1.0
  H  H27  1  0.84815000  0.01258000  0.41824000  1.0
  H  H28  1  0.71325000  0.19029000  0.87288000  1.0
  H  H29  1  0.80970000  0.28675000  0.62713000  1.0
  H  H30  1  0.28675000  0.80970000  0.12712000  1.0
  H  H31  1  0.19030000  0.71325000  0.37287000  1.0
  H  H32  1  0.61799000  0.51889000  0.56150000  1.0
  H  H33  1  0.48110000  0.38199000  0.93851000  1.0
  H  H34  1  0.38200000  0.48111000  0.43851000  1.0
  H  H35  1  0.51891000  0.61801000  0.06148000  1.0
  H  H36  1  0.74191000  0.88071000  0.68234000  1.0
  H  H37  1  0.11929000  0.25808000  0.81767000  1.0
  H  H38  1  0.25809000  0.11929000  0.31767000  1.0
  H  H39  1  0.88071000  0.74192000  0.18233000  1.0
  H  H40  1  0.82392000  0.54765000  0.44203000  1.0
  H  H41  1  0.45235000  0.17605000  0.05797000  1.0
  H  H42  1  0.17606000  0.45235000  0.55797000  1.0
  H  H43  1  0.54765000  0.82395000  0.94203000  1.0
  H  H44  1  0.56414000  0.56851000  0.76803000  1.0
  H  H45  1  0.43147000  0.43586000  0.73198000  1.0
  H  H46  1  0.43586000  0.43148000  0.23198000  1.0
  H  H47  1  0.56853000  0.56414000  0.26801000  1.0
  H  H48  1  0.90168000  0.06652000  0.96569000  1.0
  H  H49  1  0.93347000  0.09833000  0.53431000  1.0
  H  H50  1  0.09833000  0.93348000  0.03431000  1.0
  H  H51  1  0.06653000  0.90168000  0.46568000  1.0
  Au  Au52  1  0.16058000  0.69714000  0.65196000  1.0
  Au  Au53  1  0.30286000  0.83942000  0.84804000  1.0
  Au  Au54  1  0.83942000  0.30286000  0.34804000  1.0
  Au  Au55  1  0.69714000  0.16059000  0.15196000  1.0
  C  C56  1  0.08776000  0.47937000  0.89853000  1.0
  C  C57  1  0.52063000  0.91224000  0.60147000  1.0
  C  C58  1  0.91224000  0.52062000  0.10147000  1.0
  C  C59  1  0.47938000  0.08777000  0.39853000  1.0
  C  C60  1  0.71463000  0.04277000  0.77231000  1.0
  C  C61  1  0.95723000  0.28537000  0.72770000  1.0
  C  C62  1  0.28537000  0.95723000  0.22770000  1.0
  C  C63  1  0.04277000  0.71463000  0.27230000  1.0
  C  C64  1  0.98626000  0.58816000  0.89759000  1.0
  C  C65  1  0.41184000  0.01374000  0.60240000  1.0
  C  C66  1  0.01374000  0.41184000  0.10241000  1.0
  C  C67  1  0.58817000  0.98627000  0.39760000  1.0
  C  C68  1  0.89873000  0.60898000  0.99981000  1.0
  C  C69  1  0.39102000  0.10127000  0.50020000  1.0
  C  C70  1  0.10127000  0.39102000  0.00019000  1.0
  C  C71  1  0.60899000  0.89873000  0.49981000  1.0
  C  C72  1  0.85669000  0.63950000  0.69577000  1.0
  C  C73  1  0.36049000  0.14331000  0.80422000  1.0
  C  C74  1  0.14331000  0.36050000  0.30423000  1.0
  C  C75  1  0.63950000  0.85670000  0.19577000  1.0
  C  C76  1  0.88576000  0.61333000  0.57965000  1.0
  C  C77  1  0.38667000  0.11423000  0.92035000  1.0
  C  C78  1  0.11423000  0.38668000  0.42035000  1.0
  C  C79  1  0.61333000  0.88578000  0.07965000  1.0
  C  C80  1  0.74072000  0.62183000  0.76381000  1.0
  C  C81  1  0.37816000  0.25928000  0.73619000  1.0
  C  C82  1  0.25928000  0.37816000  0.23620000  1.0
  C  C83  1  0.62184000  0.74072000  0.26380000  1.0
  C  C84  1  0.88257000  0.84982000  0.79873000  1.0
  C  C85  1  0.15018000  0.11743000  0.70127000  1.0
  C  C86  1  0.11743000  0.15018000  0.20127000  1.0
  C  C87  1  0.84982000  0.88257000  0.29873000  1.0
  C  C88  1  0.92853000  0.90271000  0.87810000  1.0
  C  C89  1  0.09729000  0.07148000  0.62190000  1.0
  C  C90  1  0.07147000  0.09729000  0.12191000  1.0
  C  C91  1  0.90272000  0.92852000  0.37810000  1.0
  C  C92  1  0.75975000  0.09462000  0.85197000  1.0
  C  C93  1  0.90537000  0.24026000  0.64804000  1.0
  C  C94  1  0.24026000  0.90537000  0.14804000  1.0
  C  C95  1  0.09463000  0.75974000  0.35196000  1.0
  C  C96  1  0.68435000  0.55324000  0.59925000  1.0
  C  C97  1  0.44675000  0.31564000  0.90076000  1.0
  C  C98  1  0.31565000  0.44675000  0.40076000  1.0
  C  C99  1  0.55325000  0.68436000  0.09923000  1.0
  C  C100  1  0.77615000  0.92059000  0.74549000  1.0
  C  C101  1  0.07940000  0.22385000  0.75451000  1.0
  C  C102  1  0.22385000  0.07940000  0.25452000  1.0
  C  C103  1  0.92060000  0.77615000  0.24548000  1.0
  C  C104  1  0.79984000  0.56966000  0.53208000  1.0
  C  C105  1  0.43034000  0.20014000  0.96792000  1.0
  C  C106  1  0.20015000  0.43034000  0.46793000  1.0
  C  C107  1  0.56966000  0.79986000  0.03207000  1.0
  C  C108  1  0.65472000  0.57985000  0.71519000  1.0
  C  C109  1  0.42013000  0.34528000  0.78482000  1.0
  C  C110  1  0.34528000  0.42014000  0.28482000  1.0
  C  C111  1  0.57986000  0.65473000  0.21517000  1.0
  C  C112  1  0.86660000  0.02456000  0.90446000  1.0
  C  C113  1  0.97544000  0.13340000  0.59554000  1.0
  C  C114  1  0.13340000  0.97544000  0.09554000  1.0
  C  C115  1  0.02456000  0.86660000  0.40445000  1.0
  Cl  Cl116  1  0.35688000  0.70463000  0.54258000  1.0
  Cl  Cl117  1  0.29537000  0.64312000  0.95742000  1.0
  Cl  Cl118  1  0.64312000  0.29538000  0.45742000  1.0
  Cl  Cl119  1  0.70463000  0.35688000  0.04258000  1.0
