# generated using pymatgen
data_ZnH10C16N3ClO2
_symmetry_space_group_name_H-M   'P 1'
_cell_length_a   6.18705000
_cell_length_b   8.52382000
_cell_length_c   13.09710000
_cell_angle_alpha   90.18610000
_cell_angle_beta   90.14810000
_cell_angle_gamma   102.54600000
_symmetry_Int_Tables_number   1
_chemical_formula_structural   ZnH10C16N3ClO2
_chemical_formula_sum   'Zn2 H20 C32 N6 Cl2 O4'
_cell_volume   674.20558843
_cell_formula_units_Z   2
loop_
 _symmetry_equiv_pos_site_id
 _symmetry_equiv_pos_as_xyz
  1  'x, y, z'
loop_
 _atom_site_type_symbol
 _atom_site_label
 _atom_site_symmetry_multiplicity
 _atom_site_fract_x
 _atom_site_fract_y
 _atom_site_fract_z
 _atom_site_occupancy
  Zn  Zn0  1  0.79908000  0.74676000  0.24747000  1.0
  Zn  Zn1  1  0.20209000  0.25260000  0.74814000  1.0
  H  H2  1  0.21920000  0.63048000  0.31851000  1.0
  H  H3  1  0.78204000  0.36903000  0.81905000  1.0
  H  H4  1  0.77331000  0.37234000  0.67850000  1.0
  H  H5  1  0.22639000  0.62784000  0.17758000  1.0
  H  H6  1  0.39543000  0.59239000  0.48162000  1.0
  H  H7  1  0.60474000  0.40577000  0.98197000  1.0
  H  H8  1  0.59794000  0.40870000  0.51464000  1.0
  H  H9  1  0.40190000  0.59299000  0.01359000  1.0
  H  H10  1  0.23925000  0.67657000  0.64523000  1.0
  H  H11  1  0.76119000  0.32095000  0.14538000  1.0
  H  H12  1  0.75732000  0.32464000  0.35194000  1.0
  H  H13  1  0.24154000  0.67801000  0.85145000  1.0
  H  H14  1  0.75415000  0.84097000  0.45966000  1.0
  H  H15  1  0.24688000  0.15770000  0.96010000  1.0
  H  H16  1  0.24034000  0.16087000  0.53929000  1.0
  H  H17  1  0.75800000  0.83951000  0.03925000  1.0
  H  H18  1  0.64529000  0.93770000  0.58655000  1.0
  H  H19  1  0.35593000  0.06091000  0.08828000  1.0
  H  H20  1  0.34986000  0.06620000  0.41441000  1.0
  H  H21  1  0.64857000  0.93565000  0.91276000  1.0
  C  C22  1  0.15404000  0.67028000  0.38868000  1.0
  C  C23  1  0.84683000  0.32884000  0.88916000  1.0
  C  C24  1  0.83912000  0.33219000  0.60861000  1.0
  C  C25  1  0.16051000  0.66837000  0.10784000  1.0
  C  C26  1  0.25286000  0.64804000  0.48151000  1.0
  C  C27  1  0.74755000  0.35039000  0.98183000  1.0
  C  C28  1  0.74095000  0.35345000  0.51552000  1.0
  C  C29  1  0.25879000  0.64810000  0.01477000  1.0
  C  C30  1  0.16750000  0.69574000  0.57147000  1.0
  C  C31  1  0.83305000  0.30237000  0.07165000  1.0
  C  C32  1  0.82809000  0.30584000  0.42598000  1.0
  C  C33  1  0.17106000  0.69615000  0.92554000  1.0
  C  C34  1  0.98290000  0.76666000  0.56630000  1.0
  C  C35  1  0.01811000  0.23185000  0.06657000  1.0
  C  C36  1  0.01295000  0.23543000  0.43179000  1.0
  C  C37  1  0.98564000  0.76594000  0.93147000  1.0
  C  C38  1  0.89550000  0.78634000  0.46999000  1.0
  C  C39  1  0.10552000  0.21241000  0.97035000  1.0
  C  C40  1  0.09907000  0.21587000  0.52848000  1.0
  C  C41  1  0.89959000  0.78481000  0.02818000  1.0
  C  C42  1  0.88202000  0.81629000  0.66037000  1.0
  C  C43  1  0.11851000  0.18277000  0.16101000  1.0
  C  C44  1  0.11469000  0.18558000  0.33824000  1.0
  C  C45  1  0.88413000  0.81532000  0.83766000  1.0
  C  C46  1  0.71120000  0.90145000  0.65773000  1.0
  C  C47  1  0.28951000  0.09763000  0.15921000  1.0
  C  C48  1  0.28495000  0.10130000  0.34276000  1.0
  C  C49  1  0.71378000  0.89971000  0.84136000  1.0
  C  C50  1  0.62680000  0.94362000  0.75007000  1.0
  C  C51  1  0.37310000  0.05652000  0.25202000  1.0
  C  C52  1  0.45318000  0.04208000  0.75507000  1.0
  C  C53  1  0.54725000  0.95859000  0.25952000  1.0
  N  N54  1  0.97816000  0.73949000  0.38248000  1.0
  N  N55  1  0.02272000  0.25971000  0.88298000  1.0
  N  N56  1  0.01537000  0.26361000  0.61544000  1.0
  N  N57  1  0.98394000  0.73651000  0.11484000  1.0
  N  N58  1  0.96544000  0.77534000  0.74865000  1.0
  N  N59  1  0.03419000  0.22468000  0.24884000  1.0
  Cl  Cl60  1  0.54603000  0.51086000  0.24986000  1.0
  Cl  Cl61  1  0.45416000  0.48894000  0.75139000  1.0
  O  O62  1  0.39123000  0.07995000  0.84191000  1.0
  O  O63  1  0.60648000  0.92361000  0.34713000  1.0
  O  O64  1  0.62464000  0.90797000  0.17784000  1.0
  O  O65  1  0.37846000  0.09082000  0.67251000  1.0
