# generated using pymatgen
data_AgH4(C2N)3
_symmetry_space_group_name_H-M   'P 1'
_cell_length_a   3.65121000
_cell_length_b   12.42970000
_cell_length_c   14.51780000
_cell_angle_alpha   65.54500000
_cell_angle_beta   89.99980000
_cell_angle_gamma   89.99940000
_symmetry_Int_Tables_number   1
_chemical_formula_structural   AgH4(C2N)3
_chemical_formula_sum   'Ag4 H16 C24 N12'
_cell_volume   599.75856742
_cell_formula_units_Z   4
loop_
 _symmetry_equiv_pos_site_id
 _symmetry_equiv_pos_as_xyz
  1  'x, y, z'
loop_
 _atom_site_type_symbol
 _atom_site_label
 _atom_site_symmetry_multiplicity
 _atom_site_fract_x
 _atom_site_fract_y
 _atom_site_fract_z
 _atom_site_occupancy
  Ag  Ag0  1  0.60320000  0.32870000  0.07416000  1.0
  Ag  Ag1  1  0.10323000  0.17131000  0.92584000  1.0
  Ag  Ag2  1  0.39680000  0.67131000  0.92583000  1.0
  Ag  Ag3  1  0.89678000  0.82869000  0.07416000  1.0
  H  H4  1  0.37274000  0.14819000  0.31227000  1.0
  H  H5  1  0.87274000  0.35181000  0.68774000  1.0
  H  H6  1  0.62728000  0.85181000  0.68774000  1.0
  H  H7  1  0.12724000  0.64819000  0.31226000  1.0
  H  H8  1  0.21106000  0.96019000  0.45962000  1.0
  H  H9  1  0.71105000  0.53981000  0.54038000  1.0
  H  H10  1  0.78898000  0.03981000  0.54039000  1.0
  H  H11  1  0.28894000  0.46019000  0.45961000  1.0
  H  H12  1  0.29918000  0.76664000  0.45259000  1.0
  H  H13  1  0.79918000  0.73336000  0.54741000  1.0
  H  H14  1  0.70082000  0.23336000  0.54741000  1.0
  H  H15  1  0.20081000  0.26664000  0.45259000  1.0
  H  H16  1  0.57400000  0.75237000  0.29999000  1.0
  H  H17  1  0.07402000  0.74763000  0.70000000  1.0
  H  H18  1  0.42599000  0.24763000  0.70001000  1.0
  H  H19  1  0.92602000  0.25237000  0.30000000  1.0
  C  C20  1  0.55322000  0.05436000  0.22284000  1.0
  C  C21  1  0.05324000  0.44564000  0.77716000  1.0
  C  C22  1  0.44675000  0.94564000  0.77716000  1.0
  C  C23  1  0.94676000  0.55436000  0.22284000  1.0
  C  C24  1  0.41243000  0.06259000  0.30980000  1.0
  C  C25  1  0.91244000  0.43741000  0.69020000  1.0
  C  C26  1  0.58755000  0.93741000  0.69020000  1.0
  C  C27  1  0.08755000  0.56259000  0.30980000  1.0
  C  C28  1  0.32523000  0.95765000  0.39109000  1.0
  C  C29  1  0.82524000  0.54235000  0.60891000  1.0
  C  C30  1  0.67476000  0.04235000  0.60891000  1.0
  C  C31  1  0.17474000  0.45765000  0.39109000  1.0
  C  C32  1  0.37822000  0.84644000  0.38735000  1.0
  C  C33  1  0.87823000  0.65356000  0.61264000  1.0
  C  C34  1  0.62177000  0.15355000  0.61265000  1.0
  C  C35  1  0.12177000  0.34645000  0.38735000  1.0
  C  C36  1  0.52617000  0.83737000  0.30307000  1.0
  C  C37  1  0.02619000  0.66263000  0.69693000  1.0
  C  C38  1  0.47380000  0.16263000  0.69694000  1.0
  C  C39  1  0.97384000  0.33737000  0.30306000  1.0
  C  C40  1  0.61182000  0.94319000  0.22006000  1.0
  C  C41  1  0.11183000  0.55681000  0.77993000  1.0
  C  C42  1  0.38816000  0.05681000  0.77994000  1.0
  C  C43  1  0.88818000  0.44319000  0.22006000  1.0
  N  N44  1  0.66004000  0.13826000  0.13099000  1.0
  N  N45  1  0.16006000  0.36175000  0.86901000  1.0
  N  N46  1  0.33995000  0.86174000  0.86901000  1.0
  N  N47  1  0.83994000  0.63826000  0.13099000  1.0
  N  N48  1  0.77716000  0.08158000  0.07551000  1.0
  N  N49  1  0.27718000  0.41843000  0.92449000  1.0
  N  N50  1  0.22285000  0.91842000  0.92449000  1.0
  N  N51  1  0.72285000  0.58158000  0.07551000  1.0
  N  N52  1  0.75288000  0.96434000  0.12712000  1.0
  N  N53  1  0.25290000  0.53566000  0.87287000  1.0
  N  N54  1  0.24712000  0.03566000  0.87288000  1.0
  N  N55  1  0.74713000  0.46434000  0.12712000  1.0
