# generated using pymatgen
data_CdH16C20(N3O2)2
_symmetry_space_group_name_H-M   'P 1'
_cell_length_a   7.72859000
_cell_length_b   10.09610000
_cell_length_c   12.44780000
_cell_angle_alpha   90.53960000
_cell_angle_beta   105.42400000
_cell_angle_gamma   93.04100000
_symmetry_Int_Tables_number   1
_chemical_formula_structural   CdH16C20(N3O2)2
_chemical_formula_sum   'Cd2 H32 C40 N12 O8'
_cell_volume   934.70515364
_cell_formula_units_Z   2
loop_
 _symmetry_equiv_pos_site_id
 _symmetry_equiv_pos_as_xyz
  1  'x, y, z'
loop_
 _atom_site_type_symbol
 _atom_site_label
 _atom_site_symmetry_multiplicity
 _atom_site_fract_x
 _atom_site_fract_y
 _atom_site_fract_z
 _atom_site_occupancy
  Cd  Cd0  1  0.80698000  0.96463000  0.37227000  1.0
  Cd  Cd1  1  0.19302000  0.03537000  0.62773000  1.0
  H  H2  1  0.94663000  0.09003000  0.14333000  1.0
  H  H3  1  0.05337000  0.90996000  0.85666000  1.0
  H  H4  1  0.82114000  0.95966000  0.93411000  1.0
  H  H5  1  0.17886000  0.04034000  0.06589000  1.0
  H  H6  1  0.50280000  0.83190000  0.14692000  1.0
  H  H7  1  0.49719000  0.16811000  0.85308000  1.0
  H  H8  1  0.61031000  0.77537000  0.86423000  1.0
  H  H9  1  0.38969000  0.22463000  0.13577000  1.0
  H  H10  1  0.40314000  0.80758000  0.89108000  1.0
  H  H11  1  0.59686000  0.19242000  0.10892000  1.0
  H  H12  1  0.30579000  0.57755000  0.82258000  1.0
  H  H13  1  0.69421000  0.42245000  0.17742000  1.0
  H  H14  1  0.73048000  0.65350000  0.12399000  1.0
  H  H15  1  0.26952000  0.34650000  0.87601000  1.0
  H  H16  1  0.77136000  0.61759000  0.43178000  1.0
  H  H17  1  0.22864000  0.38241000  0.56822000  1.0
  H  H18  1  0.10221000  0.82699000  0.26140000  1.0
  H  H19  1  0.89779000  0.17301000  0.73861000  1.0
  H  H20  1  0.97705000  0.43693000  0.35148000  1.0
  H  H21  1  0.02296000  0.56307000  0.64852000  1.0
  H  H22  1  0.25235000  0.47709000  0.27439000  1.0
  H  H23  1  0.74766000  0.52291000  0.72561000  1.0
  H  H24  1  0.30478000  0.64158000  0.23687000  1.0
  H  H25  1  0.69522000  0.35842000  0.76313000  1.0
  H  H26  1  0.11769000  0.73198000  0.05460000  1.0
  H  H27  1  0.88231000  0.26802000  0.94540000  1.0
  H  H28  1  0.05218000  0.32426000  0.14176000  1.0
  H  H29  1  0.94782000  0.67574000  0.85824000  1.0
  H  H30  1  0.37370000  0.54985000  0.49782000  1.0
  H  H31  1  0.62629000  0.45015000  0.50218000  1.0
  H  H32  1  0.15766000  0.71553000  0.53059000  1.0
  H  H33  1  0.84233000  0.28447000  0.46941000  1.0
  C  C34  1  0.83623000  0.01723000  0.11210000  1.0
  C  C35  1  0.16377000  0.98277000  0.88790000  1.0
  C  C36  1  0.78027000  0.95120000  0.01073000  1.0
  C  C37  1  0.21973000  0.04880000  0.98927000  1.0
  C  C38  1  0.60712000  0.88500000  0.11835000  1.0
  C  C39  1  0.39287000  0.11500000  0.88165000  1.0
  C  C40  1  0.53753000  0.77265000  0.92910000  1.0
  C  C41  1  0.46247000  0.22734000  0.07089000  1.0
  C  C42  1  0.52081000  0.63266000  0.96890000  1.0
  C  C43  1  0.47919000  0.36734000  0.03110000  1.0
  C  C44  1  0.39263000  0.54378000  0.90043000  1.0
  C  C45  1  0.60738000  0.45622000  0.09957000  1.0
  C  C46  1  0.62822000  0.58734000  0.06916000  1.0
  C  C47  1  0.37178000  0.41266000  0.93085000  1.0
  C  C48  1  0.86853000  0.63350000  0.38364000  1.0
  C  C49  1  0.13147000  0.36651000  0.61636000  1.0
  C  C50  1  0.03564000  0.74671000  0.29632000  1.0
  C  C51  1  0.96436000  0.25330000  0.70368000  1.0
  C  C52  1  0.96890000  0.54384000  0.34614000  1.0
  C  C53  1  0.03110000  0.45616000  0.65386000  1.0
  C  C54  1  0.19566000  0.56520000  0.23065000  1.0
  C  C55  1  0.80434000  0.43480000  0.76935000  1.0
  C  C56  1  0.09791000  0.53095000  0.11058000  1.0
  C  C57  1  0.90209000  0.46905000  0.88942000  1.0
  C  C58  1  0.06618000  0.62996000  0.03084000  1.0
  C  C59  1  0.93382000  0.37004000  0.96916000  1.0
  C  C60  1  0.03113000  0.40072000  0.07885000  1.0
  C  C61  1  0.96887000  0.59928000  0.92115000  1.0
  C  C62  1  0.42202000  0.64861000  0.53331000  1.0
  C  C63  1  0.57798000  0.35139000  0.46669000  1.0
  C  C64  1  0.30209000  0.73894000  0.55117000  1.0
  C  C65  1  0.69791000  0.26106000  0.44883000  1.0
  C  C66  1  0.54002000  0.89059000  0.62382000  1.0
  C  C67  1  0.45998000  0.10941000  0.37618000  1.0
  C  C68  1  0.65952000  0.79945000  0.60208000  1.0
  C  C69  1  0.34048000  0.20055000  0.39792000  1.0
  C  C70  1  0.86000000  0.83417000  0.62573000  1.0
  C  C71  1  0.13999000  0.16582000  0.37427000  1.0
  C  C72  1  0.60274000  0.02223000  0.68559000  1.0
  C  C73  1  0.39726000  0.97777000  0.31441000  1.0
  N  N74  1  0.72754000  0.97482000  0.17860000  1.0
  N  N75  1  0.27246000  0.02518000  0.82140000  1.0
  N  N76  1  0.63553000  0.86732000  0.01628000  1.0
  N  N77  1  0.36447000  0.13268000  0.98372000  1.0
  N  N78  1  0.91162000  0.75932000  0.35206000  1.0
  N  N79  1  0.08839000  0.24069000  0.64794000  1.0
  N  N80  1  0.07389000  0.61754000  0.29158000  1.0
  N  N81  1  0.92611000  0.38246000  0.70842000  1.0
  N  N82  1  0.59969000  0.67838000  0.55810000  1.0
  N  N83  1  0.40031000  0.32162000  0.44190000  1.0
  N  N84  1  0.36273000  0.85917000  0.59603000  1.0
  N  N85  1  0.63727000  0.14083000  0.40397000  1.0
  O  O86  1  0.90226000  0.93493000  0.57239000  1.0
  O  O87  1  0.09774000  0.06507000  0.42761000  1.0
  O  O88  1  0.96739000  0.76457000  0.69047000  1.0
  O  O89  1  0.03261000  0.23543000  0.30953000  1.0
  O  O90  1  0.50208000  0.11909000  0.65810000  1.0
  O  O91  1  0.49792000  0.88091000  0.34190000  1.0
  O  O92  1  0.74739000  0.02133000  0.76160000  1.0
  O  O93  1  0.25261000  0.97867000  0.23840000  1.0
