# generated using pymatgen
data_CdH23C32N5O4
_symmetry_space_group_name_H-M   'P 1'
_cell_length_a   9.66903000
_cell_length_b   10.13270000
_cell_length_c   15.29550000
_cell_angle_alpha   72.88580000
_cell_angle_beta   84.87320000
_cell_angle_gamma   63.86250000
_symmetry_Int_Tables_number   1
_chemical_formula_structural   CdH23C32N5O4
_chemical_formula_sum   'Cd2 H46 C64 N10 O8'
_cell_volume   1284.32149806
_cell_formula_units_Z   2
loop_
 _symmetry_equiv_pos_site_id
 _symmetry_equiv_pos_as_xyz
  1  'x, y, z'
loop_
 _atom_site_type_symbol
 _atom_site_label
 _atom_site_symmetry_multiplicity
 _atom_site_fract_x
 _atom_site_fract_y
 _atom_site_fract_z
 _atom_site_occupancy
  Cd  Cd0  1  0.24840000  0.20667000  0.65758000  1.0
  Cd  Cd1  1  0.75160000  0.79333000  0.34242000  1.0
  H  H2  1  0.00607000  0.95306000  0.20619000  1.0
  H  H3  1  0.99393000  0.04693000  0.79381000  1.0
  H  H4  1  0.42547000  0.99457000  0.39664000  1.0
  H  H5  1  0.57453000  0.00543000  0.60336000  1.0
  H  H6  1  0.38329000  0.94118000  0.25622000  1.0
  H  H7  1  0.61671000  0.05882000  0.74379000  1.0
  H  H8  1  0.90272000  0.07386000  0.31641000  1.0
  H  H9  1  0.09729000  0.92614000  0.68359000  1.0
  H  H10  1  0.94482000  0.14521000  0.45052000  1.0
  H  H11  1  0.05518000  0.85479000  0.54948000  1.0
  H  H12  1  0.28892000  0.10776000  0.12289000  1.0
  H  H13  1  0.71108000  0.89224000  0.87712000  1.0
  H  H14  1  0.36865000  0.13030000  0.96384000  1.0
  H  H15  1  0.63135000  0.86970000  0.03617000  1.0
  H  H16  1  0.17113000  0.83665000  0.93847000  1.0
  H  H17  1  0.82887000  0.16335000  0.06153000  1.0
  H  H18  1  0.09758000  0.80624000  0.09949000  1.0
  H  H19  1  0.90242000  0.19376000  0.90051000  1.0
  H  H20  1  0.48036000  0.21132000  0.47114000  1.0
  H  H21  1  0.51964000  0.78868000  0.52886000  1.0
  H  H22  1  0.20106000  0.57432000  0.58240000  1.0
  H  H23  1  0.79894000  0.42568000  0.41760000  1.0
  H  H24  1  0.28696000  0.69745000  0.41297000  1.0
  H  H25  1  0.71304000  0.30255000  0.58703000  1.0
  H  H26  1  0.37160000  0.71380000  0.28555000  1.0
  H  H27  1  0.62840000  0.28620000  0.71445000  1.0
  H  H28  1  0.49889000  0.73320000  0.14017000  1.0
  H  H29  1  0.50111000  0.26680000  0.85983000  1.0
  H  H30  1  0.72759000  0.23922000  0.20649000  1.0
  H  H31  1  0.27241000  0.76078000  0.79351000  1.0
  H  H32  1  0.60666000  0.21860000  0.35365000  1.0
  H  H33  1  0.39334000  0.78140000  0.64635000  1.0
  H  H34  1  0.49437000  0.68185000  0.99460000  1.0
  H  H35  1  0.50563000  0.31815000  0.00540000  1.0
  H  H36  1  0.60937000  0.68421000  0.84503000  1.0
  H  H37  1  0.39063000  0.31579000  0.15497000  1.0
  H  H38  1  0.04129000  0.32231000  0.97969000  1.0
  H  H39  1  0.95871000  0.67769000  0.02031000  1.0
  H  H40  1  0.92346000  0.31743000  0.12769000  1.0
  H  H41  1  0.07654000  0.68257000  0.87231000  1.0
  H  H42  1  0.72714000  0.69638000  0.71953000  1.0
  H  H43  1  0.27286000  0.30362000  0.28047000  1.0
  H  H44  1  0.92430000  0.57706000  0.59145000  1.0
  H  H45  1  0.07570000  0.42294000  0.40855000  1.0
  H  H46  1  0.11095000  0.28786000  0.85485000  1.0
  H  H47  1  0.88905000  0.71214000  0.14515000  1.0
  C  C48  1  0.18841000  0.07088000  0.43360000  1.0
  C  C49  1  0.81159000  0.92912000  0.56640000  1.0
  C  C50  1  0.31061000  0.01327000  0.37799000  1.0
  C  C51  1  0.68939000  0.98673000  0.62201000  1.0
  C  C52  1  0.28646000  0.98346000  0.29881000  1.0
  C  C53  1  0.71354000  0.01654000  0.70119000  1.0
  C  C54  1  0.13869000  0.00360000  0.27636000  1.0
  C  C55  1  0.86131000  0.99640000  0.72364000  1.0
  C  C56  1  0.01609000  0.06093000  0.33264000  1.0
  C  C57  1  0.98391000  0.93907000  0.66736000  1.0
  C  C58  1  0.04021000  0.09820000  0.40818000  1.0
  C  C59  1  0.95979000  0.90180000  0.59181000  1.0
  C  C60  1  0.18027000  0.96042000  0.12153000  1.0
  C  C61  1  0.81973000  0.03958000  0.87847000  1.0
  C  C62  1  0.26486000  0.04560000  0.08386000  1.0
  C  C63  1  0.73514000  0.95440000  0.91614000  1.0
  C  C64  1  0.30976000  0.05854000  0.99396000  1.0
  C  C65  1  0.69025000  0.94146000  0.00604000  1.0
  C  C66  1  0.27233000  0.98843000  0.93895000  1.0
  C  C67  1  0.72767000  0.01157000  0.06105000  1.0
  C  C68  1  0.19876000  0.89418000  0.97934000  1.0
  C  C69  1  0.80124000  0.10582000  0.02066000  1.0
  C  C70  1  0.15680000  0.87762000  0.06924000  1.0
  C  C71  1  0.84320000  0.12238000  0.93076000  1.0
  C  C72  1  0.28689000  0.03222000  0.83818000  1.0
  C  C73  1  0.71311000  0.96778000  0.16182000  1.0
  C  C74  1  0.41718000  0.32574000  0.47936000  1.0
  C  C75  1  0.58281000  0.67426000  0.52064000  1.0
  C  C76  1  0.27316000  0.51694000  0.53408000  1.0
  C  C77  1  0.72684000  0.48306000  0.46592000  1.0
  C  C78  1  0.31465000  0.57932000  0.44983000  1.0
  C  C79  1  0.68536000  0.42068000  0.55017000  1.0
  C  C80  1  0.47977000  0.46594000  0.33025000  1.0
  C  C81  1  0.52022000  0.53406000  0.66975000  1.0
  C  C82  1  0.44993000  0.60932000  0.26877000  1.0
  C  C83  1  0.55007000  0.39068000  0.73123000  1.0
  C  C84  1  0.52160000  0.61990000  0.18569000  1.0
  C  C85  1  0.47840000  0.38010000  0.81431000  1.0
  C  C86  1  0.62452000  0.48783000  0.16168000  1.0
  C  C87  1  0.37548000  0.51216000  0.83832000  1.0
  C  C88  1  0.65247000  0.34452000  0.22403000  1.0
  C  C89  1  0.34753000  0.65548000  0.77596000  1.0
  C  C90  1  0.58175000  0.33240000  0.30756000  1.0
  C  C91  1  0.41825000  0.66760000  0.69244000  1.0
  C  C92  1  0.69861000  0.49775000  0.07281000  1.0
  C  C93  1  0.30140000  0.50225000  0.92719000  1.0
  C  C94  1  0.61497000  0.60361000  0.99171000  1.0
  C  C95  1  0.38503000  0.39639000  0.00829000  1.0
  C  C96  1  0.68034000  0.60562000  0.90664000  1.0
  C  C97  1  0.31966000  0.39438000  0.09336000  1.0
  C  C98  1  0.83331000  0.50229000  0.90101000  1.0
  C  C99  1  0.16669000  0.49771000  0.09899000  1.0
  C  C100  1  0.92064000  0.40078000  0.98149000  1.0
  C  C101  1  0.07936000  0.59922000  0.01851000  1.0
  C  C102  1  0.85349000  0.39808000  0.06588000  1.0
  C  C103  1  0.14651000  0.60192000  0.93412000  1.0
  C  C104  1  0.83379000  0.59308000  0.72848000  1.0
  C  C105  1  0.16621000  0.40692000  0.27152000  1.0
  C  C106  1  0.93278000  0.53257000  0.66559000  1.0
  C  C107  1  0.06721000  0.46744000  0.33441000  1.0
  C  C108  1  0.03436000  0.38093000  0.80015000  1.0
  C  C109  1  0.96564000  0.61907000  0.19985000  1.0
  C  C110  1  0.21286000  0.10473000  0.51762000  1.0
  C  C111  1  0.78714000  0.89527000  0.48239000  1.0
  N  N112  1  0.33789000  0.35929000  0.55178000  1.0
  N  N113  1  0.66211000  0.64071000  0.44822000  1.0
  N  N114  1  0.40686000  0.45701000  0.41542000  1.0
  N  N115  1  0.59314000  0.54299000  0.58458000  1.0
  N  N116  1  0.89883000  0.49547000  0.81435000  1.0
  N  N117  1  0.10117000  0.50453000  0.18565000  1.0
  N  N118  1  0.05721000  0.39996000  0.71138000  1.0
  N  N119  1  0.94279000  0.60004000  0.28862000  1.0
  N  N120  1  0.10914000  0.96106000  0.20421000  1.0
  N  N121  1  0.89086000  0.03894000  0.79579000  1.0
  O  O122  1  0.10052000  0.21165000  0.54312000  1.0
  O  O123  1  0.89949000  0.78835000  0.45688000  1.0
  O  O124  1  0.34439000  0.02799000  0.56132000  1.0
  O  O125  1  0.65561000  0.97201000  0.43868000  1.0
  O  O126  1  0.37465000  0.09738000  0.80347000  1.0
  O  O127  1  0.62535000  0.90262000  0.19653000  1.0
  O  O128  1  0.19891000  0.01720000  0.78747000  1.0
  O  O129  1  0.80110000  0.98280000  0.21253000  1.0
