# generated using pymatgen
data_Er4H36C57(O11F6)3
_symmetry_space_group_name_H-M   'P 1'
_cell_length_a   7.87794000
_cell_length_b   21.28970000
_cell_length_c   22.88970000
_cell_angle_alpha   82.75840000
_cell_angle_beta   82.35160000
_cell_angle_gamma   80.13090000
_symmetry_Int_Tables_number   1
_chemical_formula_structural   Er4H36C57(O11F6)3
_chemical_formula_sum   'Er8 H72 C114 O66 F36'
_cell_volume   3727.56554351
_cell_formula_units_Z   2
loop_
 _symmetry_equiv_pos_site_id
 _symmetry_equiv_pos_as_xyz
  1  'x, y, z'
loop_
 _atom_site_type_symbol
 _atom_site_label
 _atom_site_symmetry_multiplicity
 _atom_site_fract_x
 _atom_site_fract_y
 _atom_site_fract_z
 _atom_site_occupancy
  Er  Er0  1  0.19651000  0.57746000  0.71253000  1.0
  Er  Er1  1  0.61981000  0.52828000  0.56577000  1.0
  Er  Er2  1  0.53134000  0.75269000  0.90314000  1.0
  Er  Er3  1  0.76768000  0.90537000  0.96364000  1.0
  Er  Er4  1  0.80348000  0.42254000  0.28747000  1.0
  Er  Er5  1  0.38019000  0.47172000  0.43423000  1.0
  Er  Er6  1  0.46866000  0.24731000  0.09686000  1.0
  Er  Er7  1  0.23232000  0.09464000  0.03636000  1.0
  H  H8  1  0.49742000  0.58264000  0.77734000  1.0
  H  H9  1  0.37150000  0.53772000  0.81502000  1.0
  H  H10  1  0.99046000  0.54631000  0.83292000  1.0
  H  H11  1  0.07382000  0.60937000  0.83285000  1.0
  H  H12  1  0.80413000  0.59783000  0.74080000  1.0
  H  H13  1  0.85069000  0.54599000  0.69534000  1.0
  H  H14  1  0.92172000  0.57651000  0.59732000  1.0
  H  H15  1  0.00321000  0.53235000  0.54835000  1.0
  H  H16  1  0.15384000  0.73811000  0.94802000  1.0
  H  H17  1  0.18235000  0.73022000  0.87830000  1.0
  H  H18  1  0.89108000  0.69181000  0.89024000  1.0
  H  H19  1  0.86364000  0.69456000  0.95861000  1.0
  H  H20  1  0.55664000  0.63149000  0.86082000  1.0
  H  H21  1  0.39256000  0.63919000  0.90806000  1.0
  H  H22  1  0.09120000  0.96671000  0.94759000  1.0
  H  H23  1  0.12793000  0.89962000  0.91874000  1.0
  H  H24  1  0.61331000  0.04187000  0.92329000  1.0
  H  H25  1  0.81696000  0.04054000  0.91834000  1.0
  H  H26  1  0.43091000  0.36099000  0.75561000  1.0
  H  H27  1  0.45909000  0.28689000  0.55795000  1.0
  H  H28  1  0.55704000  0.20976000  0.64004000  1.0
  H  H29  1  0.63281000  0.23335000  0.87785000  1.0
  H  H30  1  0.00676000  0.25413000  0.85593000  1.0
  H  H31  1  0.21944000  0.25647000  0.76656000  1.0
  H  H32  1  0.67147000  0.71174000  0.56358000  1.0
  H  H33  1  0.67156000  0.81770000  0.74387000  1.0
  H  H34  1  0.77488000  0.87053000  0.64672000  1.0
  H  H35  1  0.02530000  0.73302000  0.58876000  1.0
  H  H36  1  0.01309000  0.68533000  0.38329000  1.0
  H  H37  1  0.84740000  0.78693000  0.41620000  1.0
  H  H38  1  0.35558000  0.90335000  0.78409000  1.0
  H  H39  1  0.16252000  0.12444000  0.83828000  1.0
  H  H40  1  0.09887000  0.09721000  0.74320000  1.0
  H  H41  1  0.96682000  0.93278000  0.79188000  1.0
  H  H42  1  0.24075000  0.75231000  0.67813000  1.0
  H  H43  1  0.30027000  0.86114000  0.64112000  1.0
  H  H44  1  0.50258000  0.41736000  0.22266000  1.0
  H  H45  1  0.62849000  0.46228000  0.18497000  1.0
  H  H46  1  0.00955000  0.45369000  0.16708000  1.0
  H  H47  1  0.92617000  0.39063000  0.16715000  1.0
  H  H48  1  0.19588000  0.40218000  0.25920000  1.0
  H  H49  1  0.14929000  0.45403000  0.30465000  1.0
  H  H50  1  0.07831000  0.42348000  0.40267000  1.0
  H  H51  1  0.99682000  0.46765000  0.45164000  1.0
  H  H52  1  0.84616000  0.26190000  0.05198000  1.0
  H  H53  1  0.81763000  0.26978000  0.12170000  1.0
  H  H54  1  0.10891000  0.30819000  0.10976000  1.0
  H  H55  1  0.13634000  0.30544000  0.04139000  1.0
  H  H56  1  0.44334000  0.36850000  0.13918000  1.0
  H  H57  1  0.60742000  0.36081000  0.09195000  1.0
  H  H58  1  0.90881000  0.03329000  0.05240000  1.0
  H  H59  1  0.87206000  0.10038000  0.08125000  1.0
  H  H60  1  0.38668000  0.95813000  0.07671000  1.0
  H  H61  1  0.18303000  0.95946000  0.08167000  1.0
  H  H62  1  0.56909000  0.63901000  0.24439000  1.0
  H  H63  1  0.54092000  0.71311000  0.44205000  1.0
  H  H64  1  0.44297000  0.79024000  0.35996000  1.0
  H  H65  1  0.36717000  0.76666000  0.12215000  1.0
  H  H66  1  0.99323000  0.74587000  0.14407000  1.0
  H  H67  1  0.78055000  0.74353000  0.23344000  1.0
  H  H68  1  0.32857000  0.28825000  0.43642000  1.0
  H  H69  1  0.32843000  0.18231000  0.25612000  1.0
  H  H70  1  0.22510000  0.12947000  0.35327000  1.0
  H  H71  1  0.97472000  0.26698000  0.41124000  1.0
  H  H72  1  0.98691000  0.31467000  0.61670000  1.0
  H  H73  1  0.15259000  0.21307000  0.58380000  1.0
  H  H74  1  0.64445000  0.09666000  0.21590000  1.0
  H  H75  1  0.83745000  0.87556000  0.16172000  1.0
  H  H76  1  0.90111000  0.90279000  0.25680000  1.0
  H  H77  1  0.03317000  0.06723000  0.20812000  1.0
  H  H78  1  0.75927000  0.24768000  0.32188000  1.0
  H  H79  1  0.69976000  0.13886000  0.35889000  1.0
  C  C80  1  0.56975000  0.23541000  0.75808000  1.0
  C  C81  1  0.50411000  0.27972000  0.70456000  1.0
  C  C82  1  0.44259000  0.34425000  0.71196000  1.0
  C  C83  1  0.39831000  0.38897000  0.66400000  1.0
  C  C84  1  0.40525000  0.36787000  0.60777000  1.0
  C  C85  1  0.45656000  0.30273000  0.60144000  1.0
  C  C86  1  0.51029000  0.25920000  0.64842000  1.0
  C  C87  1  0.34037000  0.45684000  0.67806000  1.0
  C  C88  1  0.37285000  0.41007000  0.55184000  1.0
  C  C89  1  0.44311000  0.24282000  0.81489000  1.0
  C  C90  1  0.49706000  0.23716000  0.87135000  1.0
  C  C91  1  0.37682000  0.23397000  0.92196000  1.0
  C  C92  1  0.19952000  0.23759000  0.91691000  1.0
  C  C93  1  0.14437000  0.24827000  0.86052000  1.0
  C  C94  1  0.26475000  0.25005000  0.81019000  1.0
  C  C95  1  0.43316000  0.22744000  0.98212000  1.0
  C  C96  1  0.07157000  0.22829000  0.97123000  1.0
  C  C97  1  0.75208000  0.25123000  0.76457000  1.0
  C  C98  1  0.59260000  0.16317000  0.74753000  1.0
  C  C99  1  0.80056000  0.82192000  0.53448000  1.0
  C  C100  1  0.73090000  0.79543000  0.59734000  1.0
  C  C101  1  0.67138000  0.73625000  0.60259000  1.0
  C  C102  1  0.61522000  0.70629000  0.65759000  1.0
  C  C103  1  0.61635000  0.73552000  0.70924000  1.0
  C  C104  1  0.67082000  0.79527000  0.70381000  1.0
  C  C105  1  0.72948000  0.82483000  0.64864000  1.0
  C  C106  1  0.54391000  0.64532000  0.65840000  1.0
  C  C107  1  0.57159000  0.70346000  0.76996000  1.0
  C  C108  1  0.92004000  0.76647000  0.50562000  1.0
  C  C109  1  0.02306000  0.72374000  0.54318000  1.0
  C  C110  1  0.11576000  0.66666667  0.52479000  1.0
  C  C111  1  0.10812000  0.65224000  0.46699000  1.0
  C  C112  1  0.01716000  0.69711000  0.42797000  1.0
  C  C113  1  0.92293000  0.75405000  0.44693000  1.0
  C  C114  1  0.21801000  0.62294000  0.56902000  1.0
  C  C115  1  0.18007000  0.58694000  0.45031000  1.0
  C  C116  1  0.63965000  0.84885000  0.50088000  1.0
  C  C117  1  0.90927000  0.87667000  0.53390000  1.0
  C  C118  1  0.17887000  0.97497000  0.69970000  1.0
  C  C119  1  0.22085000  0.99784000  0.75649000  1.0
  C  C120  1  0.31440000  0.95250000  0.79460000  1.0
  C  C121  1  0.34927000  0.96746000  0.84885000  1.0
  C  C122  1  0.29443000  0.02994000  0.86478000  1.0
  C  C123  1  0.20684000  0.07609000  0.82580000  1.0
  C  C124  1  0.16990000  0.06032000  0.77203000  1.0
  C  C125  1  0.42970000  0.91506000  0.89129000  1.0
  C  C126  1  0.29417000  0.04591000  0.92654000  1.0
  C  C127  1  0.14073000  0.90573000  0.71430000  1.0
  C  C128  1  0.02793000  0.89396000  0.76577000  1.0
  C  C129  1  0.99198000  0.83268000  0.78627000  1.0
  C  C130  1  0.07239000  0.78058000  0.75494000  1.0
  C  C131  1  0.17917000  0.79274000  0.70224000  1.0
  C  C132  1  0.21372000  0.85446000  0.68181000  1.0
  C  C133  1  0.85787000  0.82776000  0.83879000  1.0
  C  C134  1  0.06197000  0.71175000  0.77672000  1.0
  C  C135  1  0.33901000  0.98176000  0.65302000  1.0
  C  C136  1  0.01482000  0.01594000  0.67515000  1.0
  C  C137  1  0.43025000  0.76459000  0.24192000  1.0
  C  C138  1  0.49588000  0.72028000  0.29545000  1.0
  C  C139  1  0.55741000  0.65574000  0.28804000  1.0
  C  C140  1  0.60168000  0.61103000  0.33600000  1.0
  C  C141  1  0.59475000  0.63212000  0.39223000  1.0
  C  C142  1  0.54344000  0.69727000  0.39857000  1.0
  C  C143  1  0.48970000  0.74079000  0.35159000  1.0
  C  C144  1  0.65961000  0.54316000  0.32194000  1.0
  C  C145  1  0.62717000  0.58993000  0.44816000  1.0
  C  C146  1  0.55689000  0.75719000  0.18511000  1.0
  C  C147  1  0.50293000  0.76284000  0.12865000  1.0
  C  C148  1  0.62317000  0.76603000  0.07804000  1.0
  C  C149  1  0.80047000  0.76242000  0.08309000  1.0
  C  C150  1  0.85563000  0.75173000  0.13949000  1.0
  C  C151  1  0.73525000  0.74994000  0.18981000  1.0
  C  C152  1  0.56683000  0.77256000  0.01788000  1.0
  C  C153  1  0.92841000  0.77172000  0.02877000  1.0
  C  C154  1  0.24790000  0.74878000  0.23544000  1.0
  C  C155  1  0.40741000  0.83683000  0.25247000  1.0
  C  C156  1  0.19946000  0.17808000  0.46552000  1.0
  C  C157  1  0.26911000  0.20456000  0.40265000  1.0
  C  C158  1  0.32865000  0.26374000  0.39741000  1.0
  C  C159  1  0.38479000  0.29371000  0.34241000  1.0
  C  C160  1  0.38366000  0.26448000  0.29075000  1.0
  C  C161  1  0.32919000  0.20473000  0.29619000  1.0
  C  C162  1  0.27052000  0.17516000  0.35136000  1.0
  C  C163  1  0.45608000  0.35468000  0.34160000  1.0
  C  C164  1  0.42842000  0.29654000  0.23004000  1.0
  C  C165  1  0.07997000  0.23353000  0.49437000  1.0
  C  C166  1  0.97697000  0.27626000  0.45682000  1.0
  C  C167  1  0.88425000  0.33333333  0.47520000  1.0
  C  C168  1  0.89188000  0.34776000  0.53300000  1.0
  C  C169  1  0.98284000  0.30289000  0.57201000  1.0
  C  C170  1  0.07709000  0.24594000  0.55307000  1.0
  C  C171  1  0.78200000  0.37705000  0.43097000  1.0
  C  C172  1  0.81993000  0.41306000  0.54969000  1.0
  C  C173  1  0.36036000  0.15115000  0.49912000  1.0
  C  C174  1  0.09074000  0.12332000  0.46610000  1.0
  C  C175  1  0.82112000  0.02503000  0.30030000  1.0
  C  C176  1  0.77914000  0.00216000  0.24351000  1.0
  C  C177  1  0.68560000  0.04750000  0.20540000  1.0
  C  C178  1  0.65072000  0.03254000  0.15115000  1.0
  C  C179  1  0.70555000  0.97006000  0.13522000  1.0
  C  C180  1  0.79313000  0.92391000  0.17420000  1.0
  C  C181  1  0.83009000  0.93968000  0.22797000  1.0
  C  C182  1  0.57031000  0.08495000  0.10871000  1.0
  C  C183  1  0.70582000  0.95409000  0.07346000  1.0
  C  C184  1  0.85927000  0.09426000  0.28570000  1.0
  C  C185  1  0.97207000  0.10603000  0.23423000  1.0
  C  C186  1  0.00803000  0.16732000  0.21374000  1.0
  C  C187  1  0.92762000  0.21942000  0.24507000  1.0
  C  C188  1  0.82085000  0.20725000  0.29777000  1.0
  C  C189  1  0.78630000  0.14553000  0.31819000  1.0
  C  C190  1  0.14213000  0.17224000  0.16121000  1.0
  C  C191  1  0.93803000  0.28825000  0.22328000  1.0
  C  C192  1  0.66098000  0.01825000  0.34698000  1.0
  C  C193  1  0.98517000  0.98406000  0.32484000  1.0
  O  O194  1  0.21338000  0.46725000  0.71847000  1.0
  O  O195  1  0.41671000  0.50339000  0.65302000  1.0
  O  O196  1  0.43648000  0.46244000  0.54105000  1.0
  O  O197  1  0.29623000  0.39196000  0.51323000  1.0
  O  O198  1  0.35429000  0.19332000  0.02451000  1.0
  O  O199  1  0.54800000  0.25793000  0.99346000  1.0
  O  O200  1  0.04732000  0.17046000  0.98758000  1.0
  O  O201  1  0.99680000  0.27653000  0.99666000  1.0
  O  O202  1  0.39089000  0.64444000  0.68402000  1.0
  O  O203  1  0.63792000  0.60039000  0.63239000  1.0
  O  O204  1  0.49110000  0.73857000  0.80883000  1.0
  O  O205  1  0.62169000  0.64261000  0.78127000  1.0
  O  O206  1  0.13304000  0.60922000  0.61977000  1.0
  O  O207  1  0.37726000  0.60564000  0.55510000  1.0
  O  O208  1  0.25227000  0.57751000  0.39851000  1.0
  O  O209  1  0.17024000  0.53981000  0.49121000  1.0
  O  O210  1  0.41508000  0.85775000  0.88455000  1.0
  O  O211  1  0.50008000  0.93153000  0.93264000  1.0
  O  O212  1  0.40055000  0.07867000  0.94109000  1.0
  O  O213  1  0.16974000  0.03001000  0.96437000  1.0
  O  O214  1  0.75570000  0.78745000  0.84048000  1.0
  O  O215  1  0.84907000  0.86700000  0.87702000  1.0
  O  O216  1  0.05481000  0.67478000  0.73814000  1.0
  O  O217  1  0.07141000  0.69189000  0.83187000  1.0
  O  O218  1  0.42451000  0.54949000  0.77503000  1.0
  O  O219  1  0.09820000  0.56379000  0.82295000  1.0
  O  O220  1  0.89843000  0.56470000  0.72512000  1.0
  O  O221  1  0.90847000  0.53712000  0.58168000  1.0
  O  O222  1  0.23963000  0.74061000  0.91115000  1.0
  O  O223  1  0.80365000  0.68750000  0.92520000  1.0
  O  O224  1  0.51811000  0.63773000  0.90330000  1.0
  O  O225  1  0.03787000  0.93401000  0.93170000  1.0
  O  O226  1  0.72830000  0.01400000  0.91803000  1.0
  O  O227  1  0.78662000  0.53275000  0.28153000  1.0
  O  O228  1  0.58325000  0.49662000  0.34698000  1.0
  O  O229  1  0.56354000  0.53756000  0.45895000  1.0
  O  O230  1  0.70380000  0.60804000  0.48676000  1.0
  O  O231  1  0.64571000  0.80668000  0.97549000  1.0
  O  O232  1  0.45199000  0.74208000  0.00654000  1.0
  O  O233  1  0.95266000  0.82954000  0.01242000  1.0
  O  O234  1  0.00319000  0.72347000  0.00334000  1.0
  O  O235  1  0.60912000  0.35555000  0.31598000  1.0
  O  O236  1  0.36208000  0.39962000  0.36760000  1.0
  O  O237  1  0.50890000  0.26143000  0.19117000  1.0
  O  O238  1  0.37832000  0.35739000  0.21873000  1.0
  O  O239  1  0.86697000  0.39077000  0.38022000  1.0
  O  O240  1  0.62274000  0.39436000  0.44489000  1.0
  O  O241  1  0.74773000  0.42249000  0.60148000  1.0
  O  O242  1  0.82978000  0.46018000  0.50879000  1.0
  O  O243  1  0.58493000  0.14225000  0.11545000  1.0
  O  O244  1  0.49993000  0.06846000  0.06736000  1.0
  O  O245  1  0.59944000  0.92134000  0.05891000  1.0
  O  O246  1  0.83025000  0.96999000  0.03563000  1.0
  O  O247  1  0.24428000  0.21256000  0.15951000  1.0
  O  O248  1  0.15093000  0.13300000  0.12299000  1.0
  O  O249  1  0.94523000  0.32522000  0.26187000  1.0
  O  O250  1  0.92856000  0.30812000  0.16814000  1.0
  O  O251  1  0.57548000  0.45051000  0.22497000  1.0
  O  O252  1  0.90180000  0.43621000  0.17705000  1.0
  O  O253  1  0.10157000  0.43531000  0.27488000  1.0
  O  O254  1  0.09156000  0.46287000  0.41831000  1.0
  O  O255  1  0.76037000  0.25939000  0.08885000  1.0
  O  O256  1  0.19634000  0.31251000  0.07479000  1.0
  O  O257  1  0.48188000  0.36227000  0.09670000  1.0
  O  O258  1  0.96213000  0.06600000  0.06830000  1.0
  O  O259  1  0.27170000  0.98600000  0.08197000  1.0
  F  F260  1  0.85282000  0.25618000  0.71179000  1.0
  F  F261  1  0.84425000  0.20510000  0.80076000  1.0
  F  F262  1  0.73919000  0.30768000  0.78805000  1.0
  F  F263  1  0.72495000  0.14716000  0.70476000  1.0
  F  F264  1  0.44559000  0.14922000  0.73036000  1.0
  F  F265  1  0.62580000  0.12332000  0.79740000  1.0
  F  F266  1  0.55403000  0.80083000  0.49181000  1.0
  F  F267  1  0.52312000  0.89017000  0.53229000  1.0
  F  F268  1  0.68090000  0.88036000  0.44686000  1.0
  F  F269  1  0.98970000  0.89167000  0.47891000  1.0
  F  F270  1  0.81269000  0.93164000  0.55188000  1.0
  F  F271  1  0.03638000  0.85802000  0.57044000  1.0
  F  F272  1  0.38757000  0.04032000  0.65075000  1.0
  F  F273  1  0.47797000  0.93784000  0.66810000  1.0
  F  F274  1  0.31092000  0.97345000  0.59753000  1.0
  F  F275  1  0.03933000  0.07650000  0.65259000  1.0
  F  F276  1  0.87914000  0.02123000  0.71886000  1.0
  F  F277  1  0.96408000  0.98850000  0.63141000  1.0
  F  F278  1  0.14718000  0.74382000  0.28822000  1.0
  F  F279  1  0.15573000  0.79490000  0.19925000  1.0
  F  F280  1  0.26079000  0.69232000  0.21197000  1.0
  F  F281  1  0.27507000  0.85285000  0.29525000  1.0
  F  F282  1  0.55443000  0.85077000  0.26965000  1.0
  F  F283  1  0.37423000  0.87668000  0.20261000  1.0
  F  F284  1  0.44598000  0.19917000  0.50820000  1.0
  F  F285  1  0.47690000  0.10983000  0.46771000  1.0
  F  F286  1  0.31910000  0.11963000  0.55314000  1.0
  F  F287  1  0.01031000  0.10833000  0.52109000  1.0
  F  F288  1  0.18731000  0.06834000  0.44813000  1.0
  F  F289  1  0.96364000  0.14198000  0.42956000  1.0
  F  F290  1  0.61239000  0.95969000  0.34926000  1.0
  F  F291  1  0.52204000  0.06217000  0.33190000  1.0
  F  F292  1  0.68908000  0.02655000  0.40248000  1.0
  F  F293  1  0.96067000  0.92349000  0.34741000  1.0
  F  F294  1  0.12083000  0.97877000  0.28113000  1.0
  F  F295  1  0.03594000  0.01150000  0.36858000  1.0
