# generated using pymatgen
data_Cu2H25C20S2I2NO2
_symmetry_space_group_name_H-M   'P 1'
_cell_length_a   11.72110000
_cell_length_b   11.72120000
_cell_length_c   24.16582794
_cell_angle_alpha   99.69055582
_cell_angle_beta   99.69004300
_cell_angle_gamma   107.44400000
_symmetry_Int_Tables_number   1
_chemical_formula_structural   Cu2H25C20S2I2NO2
_chemical_formula_sum   'Cu8 H100 C80 S8 I8 N4 O8'
_cell_volume   3036.48414957
_cell_formula_units_Z   4
loop_
 _symmetry_equiv_pos_site_id
 _symmetry_equiv_pos_as_xyz
  1  'x, y, z'
loop_
 _atom_site_type_symbol
 _atom_site_label
 _atom_site_symmetry_multiplicity
 _atom_site_fract_x
 _atom_site_fract_y
 _atom_site_fract_z
 _atom_site_occupancy
  Cu  Cu0  1  0.09652000  0.81598000  0.79175000  1.0
  Cu  Cu1  1  0.18401000  0.90347000  0.70825000  1.0
  Cu  Cu2  1  0.90347000  0.18401000  0.20824000  1.0
  Cu  Cu3  1  0.81598000  0.09653000  0.29175000  1.0
  Cu  Cu4  1  0.32482000  0.84858000  0.78723000  1.0
  Cu  Cu5  1  0.15143000  0.67518000  0.71277000  1.0
  Cu  Cu6  1  0.67518000  0.15142000  0.21277000  1.0
  Cu  Cu7  1  0.84858000  0.32482000  0.28723000  1.0
  H  H8  1  0.85766000  0.16556000  0.80822000  1.0
  H  H9  1  0.83442000  0.14232000  0.69177000  1.0
  H  H10  1  0.14232000  0.83443000  0.19177000  1.0
  H  H11  1  0.16556000  0.85767000  0.30822000  1.0
  H  H12  1  0.88012000  0.79579000  0.03217000  1.0
  H  H13  1  0.20423000  0.11989000  0.46783000  1.0
  H  H14  1  0.11987000  0.20420000  0.96783000  1.0
  H  H15  1  0.79579000  0.88010000  0.53216000  1.0
  H  H16  1  0.71567000  0.74460000  0.00864000  1.0
  H  H17  1  0.25542000  0.28434000  0.49137000  1.0
  H  H18  1  0.28433000  0.25540000  0.99136000  1.0
  H  H19  1  0.74459000  0.71565000  0.50862000  1.0
  H  H20  1  0.81641000  0.96895000  0.06052000  1.0
  H  H21  1  0.03106000  0.18360000  0.43948000  1.0
  H  H22  1  0.18361000  0.03106000  0.93949000  1.0
  H  H23  1  0.96895000  0.81638000  0.56051000  1.0
  H  H24  1  0.89511000  0.99337000  0.00389000  1.0
  H  H25  1  0.00664000  0.10488000  0.49610000  1.0
  H  H26  1  0.10488000  0.00663000  0.99611000  1.0
  H  H27  1  0.99338000  0.89511000  0.50389000  1.0
  H  H28  1  0.87222000  0.16418000  0.04681000  1.0
  H  H29  1  0.83583000  0.12777000  0.45318000  1.0
  H  H30  1  0.12776000  0.83581000  0.95319000  1.0
  H  H31  1  0.16419000  0.87224000  0.54680000  1.0
  H  H32  1  0.84321000  0.36414000  0.05473000  1.0
  H  H33  1  0.63587000  0.15678000  0.44526000  1.0
  H  H34  1  0.15679000  0.63587000  0.94527000  1.0
  H  H35  1  0.36415000  0.84322000  0.55473000  1.0
  H  H36  1  0.64774000  0.38067000  0.00208000  1.0
  H  H37  1  0.61932000  0.35224000  0.49791000  1.0
  H  H38  1  0.35226000  0.61933000  0.99790000  1.0
  H  H39  1  0.38067000  0.64774000  0.50209000  1.0
  H  H40  1  0.48494000  0.19137000  0.93889000  1.0
  H  H41  1  0.80863000  0.51505000  0.56112000  1.0
  H  H42  1  0.51507000  0.80863000  0.06111000  1.0
  H  H43  1  0.19139000  0.48494000  0.43889000  1.0
  H  H44  1  0.40081000  0.97576000  0.90823000  1.0
  H  H45  1  0.02424000  0.59918000  0.59177000  1.0
  H  H46  1  0.59918000  0.02424000  0.09177000  1.0
  H  H47  1  0.97577000  0.40081000  0.40823000  1.0
  H  H48  1  0.48047000  0.87680000  0.93004000  1.0
  H  H49  1  0.12321000  0.51953000  0.56997000  1.0
  H  H50  1  0.51952000  0.12321000  0.06997000  1.0
  H  H51  1  0.87681000  0.48048000  0.43004000  1.0
  H  H52  1  0.54688000  0.04788000  0.77658000  1.0
  H  H53  1  0.95211000  0.45312000  0.72342000  1.0
  H  H54  1  0.45310000  0.95211000  0.22342000  1.0
  H  H55  1  0.04789000  0.54690000  0.27658000  1.0
  H  H56  1  0.51579000  0.12542000  0.83891000  1.0
  H  H57  1  0.87457000  0.48420000  0.66109000  1.0
  H  H58  1  0.48421000  0.87457000  0.16110000  1.0
  H  H59  1  0.12543000  0.51580000  0.33890000  1.0
  H  H60  1  0.71654000  0.23921000  0.83277000  1.0
  H  H61  1  0.76079000  0.28346000  0.66723000  1.0
  H  H62  1  0.28345000  0.76078000  0.16723000  1.0
  H  H63  1  0.23922000  0.71655000  0.33277000  1.0
  H  H64  1  0.73835000  0.17196000  0.89188000  1.0
  H  H65  1  0.82803000  0.26166000  0.60812000  1.0
  H  H66  1  0.26165000  0.82803000  0.10812000  1.0
  H  H67  1  0.17197000  0.73835000  0.39188000  1.0
  H  H68  1  0.76409000  0.95379000  0.85790000  1.0
  H  H69  1  0.04622000  0.23591000  0.64210000  1.0
  H  H70  1  0.23591000  0.04621000  0.14210000  1.0
  H  H71  1  0.95378000  0.76410000  0.35790000  1.0
  H  H72  1  0.90228000  0.07718000  0.89120000  1.0
  H  H73  1  0.92283000  0.09773000  0.60880000  1.0
  H  H74  1  0.09772000  0.92282000  0.10880000  1.0
  H  H75  1  0.07717000  0.90228000  0.39120000  1.0
  H  H76  1  0.99148000  0.03066000  0.80630000  1.0
  H  H77  1  0.96932000  0.00851000  0.69369000  1.0
  H  H78  1  0.00851000  0.96933000  0.19369000  1.0
  H  H79  1  0.03067000  0.99148000  0.30630000  1.0
  H  H80  1  0.85156000  0.91029000  0.76990000  1.0
  H  H81  1  0.08970000  0.14843000  0.73010000  1.0
  H  H82  1  0.14843000  0.08970000  0.23010000  1.0
  H  H83  1  0.91030000  0.85156000  0.26990000  1.0
  H  H84  1  0.75489000  0.76097000  0.83952000  1.0
  H  H85  1  0.23902000  0.24511000  0.66048000  1.0
  H  H86  1  0.24512000  0.23903000  0.16049000  1.0
  H  H87  1  0.76096000  0.75489000  0.33951000  1.0
  H  H88  1  0.80897000  0.68190000  0.78474000  1.0
  H  H89  1  0.31810000  0.19102000  0.71526000  1.0
  H  H90  1  0.19103000  0.31811000  0.21527000  1.0
  H  H91  1  0.68189000  0.80897000  0.28473000  1.0
  H  H92  1  0.89071000  0.52215000  0.80349000  1.0
  H  H93  1  0.47785000  0.10929000  0.69651000  1.0
  H  H94  1  0.10928000  0.47785000  0.19651000  1.0
  H  H95  1  0.52214000  0.89072000  0.30349000  1.0
  H  H96  1  0.92858000  0.38340000  0.86682000  1.0
  H  H97  1  0.61661000  0.07142000  0.63318000  1.0
  H  H98  1  0.07140000  0.61659000  0.13318000  1.0
  H  H99  1  0.38339000  0.92859000  0.36682000  1.0
  H  H100  1  0.89891000  0.42183000  0.96717000  1.0
  H  H101  1  0.57818000  0.10110000  0.53283000  1.0
  H  H102  1  0.10107000  0.57815000  0.03282000  1.0
  H  H103  1  0.42186000  0.89894000  0.46719000  1.0
  H  H104  1  0.84232000  0.60070000  0.00547000  1.0
  H  H105  1  0.39930000  0.15768000  0.49453000  1.0
  H  H106  1  0.15767000  0.39929000  0.99453000  1.0
  H  H107  1  0.60073000  0.84234000  0.50547000  1.0
  C  C108  1  0.80267000  0.80402000  0.00200000  1.0
  C  C109  1  0.19599000  0.19733000  0.49800000  1.0
  C  C110  1  0.19732000  0.19598000  0.99800000  1.0
  C  C111  1  0.80402000  0.80267000  0.50199000  1.0
  C  C112  1  0.81104000  0.93702000  0.01420000  1.0
  C  C113  1  0.06299000  0.18896000  0.48580000  1.0
  C  C114  1  0.18897000  0.06299000  0.98581000  1.0
  C  C115  1  0.93702000  0.81102000  0.51419000  1.0
  C  C116  1  0.69609000  0.06346000  0.98665000  1.0
  C  C117  1  0.93655000  0.30391000  0.51336000  1.0
  C  C118  1  0.30391000  0.93655000  0.01337000  1.0
  C  C119  1  0.06346000  0.69607000  0.48663000  1.0
  C  C120  1  0.78800000  0.16916000  0.02202000  1.0
  C  C121  1  0.83085000  0.21199000  0.47798000  1.0
  C  C122  1  0.21196000  0.83083000  0.97798000  1.0
  C  C123  1  0.16917000  0.78803000  0.52202000  1.0
  C  C124  1  0.77058000  0.28297000  0.02689000  1.0
  C  C125  1  0.71704000  0.22940000  0.47310000  1.0
  C  C126  1  0.22941000  0.71702000  0.97311000  1.0
  C  C127  1  0.28299000  0.77058000  0.52689000  1.0
  C  C128  1  0.66168000  0.29206000  0.99767000  1.0
  C  C129  1  0.70795000  0.33831000  0.50233000  1.0
  C  C130  1  0.33831000  0.70794000  0.00232000  1.0
  C  C131  1  0.29207000  0.66168000  0.49768000  1.0
  C  C132  1  0.57076000  0.18618000  0.96232000  1.0
  C  C133  1  0.81384000  0.42924000  0.53769000  1.0
  C  C134  1  0.42923000  0.81385000  0.03768000  1.0
  C  C135  1  0.18618000  0.57077000  0.46232000  1.0
  C  C136  1  0.58650000  0.07137000  0.95543000  1.0
  C  C137  1  0.92862000  0.41348000  0.54457000  1.0
  C  C138  1  0.41349000  0.92861000  0.04457000  1.0
  C  C139  1  0.07139000  0.58650000  0.45543000  1.0
  C  C140  1  0.48998000  0.96166000  0.91498000  1.0
  C  C141  1  0.03834000  0.51001000  0.58502000  1.0
  C  C142  1  0.51001000  0.03834000  0.08502000  1.0
  C  C143  1  0.96167000  0.48998000  0.41498000  1.0
  C  C144  1  0.57278000  0.07302000  0.82404000  1.0
  C  C145  1  0.92699000  0.42722000  0.67597000  1.0
  C  C146  1  0.42722000  0.92698000  0.17597000  1.0
  C  C147  1  0.07302000  0.57278000  0.32403000  1.0
  C  C148  1  0.70883000  0.15075000  0.84432000  1.0
  C  C149  1  0.84925000  0.29118000  0.65569000  1.0
  C  C150  1  0.29117000  0.84925000  0.15569000  1.0
  C  C151  1  0.15075000  0.70883000  0.34431000  1.0
  C  C152  1  0.84047000  0.02340000  0.84864000  1.0
  C  C153  1  0.97659000  0.15953000  0.65136000  1.0
  C  C154  1  0.15952000  0.97659000  0.15136000  1.0
  C  C155  1  0.02340000  0.84048000  0.34864000  1.0
  C  C156  1  0.91000000  0.96233000  0.81270000  1.0
  C  C157  1  0.03765000  0.08999000  0.68729000  1.0
  C  C158  1  0.08998000  0.03765000  0.18729000  1.0
  C  C159  1  0.96235000  0.91002000  0.31271000  1.0
  C  C160  1  0.82835000  0.72553000  0.83080000  1.0
  C  C161  1  0.27446000  0.17164000  0.66919000  1.0
  C  C162  1  0.17165000  0.27446000  0.16920000  1.0
  C  C163  1  0.72553000  0.82835000  0.33080000  1.0
  C  C164  1  0.84694000  0.64012000  0.86816000  1.0
  C  C165  1  0.35988000  0.15306000  0.63184000  1.0
  C  C166  1  0.15306000  0.35988000  0.13184000  1.0
  C  C167  1  0.64011000  0.84695000  0.36815000  1.0
  C  C168  1  0.87974000  0.53864000  0.84774000  1.0
  C  C169  1  0.46135000  0.12025000  0.65225000  1.0
  C  C170  1  0.12025000  0.46136000  0.15226000  1.0
  C  C171  1  0.53865000  0.87976000  0.34775000  1.0
  C  C172  1  0.90064000  0.46081000  0.88315000  1.0
  C  C173  1  0.53918000  0.09934000  0.61684000  1.0
  C  C174  1  0.09933000  0.53916000  0.11684000  1.0
  C  C175  1  0.46085000  0.90068000  0.38317000  1.0
  C  C176  1  0.88582000  0.48335000  0.93950000  1.0
  C  C177  1  0.51665000  0.11417000  0.56050000  1.0
  C  C178  1  0.11416000  0.51663000  0.06050000  1.0
  C  C179  1  0.48338000  0.88586000  0.43951000  1.0
  C  C180  1  0.85359000  0.58472000  0.96131000  1.0
  C  C181  1  0.41528000  0.14641000  0.53869000  1.0
  C  C182  1  0.14640000  0.41527000  0.03869000  1.0
  C  C183  1  0.58474000  0.85361000  0.46131000  1.0
  C  C184  1  0.83653000  0.66438000  0.92609000  1.0
  C  C185  1  0.33562000  0.16346000  0.57391000  1.0
  C  C186  1  0.16346000  0.33561000  0.07391000  1.0
  C  C187  1  0.66440000  0.83655000  0.42609000  1.0
  S  S188  1  0.52080000  0.92407000  0.84272000  1.0
  S  S189  1  0.07593000  0.47919000  0.65728000  1.0
  S  S190  1  0.47919000  0.07593000  0.15729000  1.0
  S  S191  1  0.92408000  0.52081000  0.34272000  1.0
  S  S192  1  0.96967000  0.85946000  0.84711000  1.0
  S  S193  1  0.14054000  0.03033000  0.65289000  1.0
  S  S194  1  0.03033000  0.14054000  0.15289000  1.0
  S  S195  1  0.85947000  0.96967000  0.34711000  1.0
  I  I196  1  0.19658000  0.65360000  0.82099000  1.0
  I  I197  1  0.34640000  0.80342000  0.67901000  1.0
  I  I198  1  0.80342000  0.34640000  0.17901000  1.0
  I  I199  1  0.65360000  0.19658000  0.32099000  1.0
  I  I200  1  0.25211000  0.05375000  0.81681000  1.0
  I  I201  1  0.94624000  0.74788000  0.68319000  1.0
  I  I202  1  0.74787000  0.94625000  0.18318000  1.0
  I  I203  1  0.05375000  0.25212000  0.31682000  1.0
  N  N204  1  0.78859000  0.09770000  0.81613000  1.0
  N  N205  1  0.90231000  0.21142000  0.68387000  1.0
  N  N206  1  0.21140000  0.90230000  0.18387000  1.0
  N  N207  1  0.09769000  0.78859000  0.31613000  1.0
  O  O208  1  0.81087000  0.76927000  0.94355000  1.0
  O  O209  1  0.23072000  0.18912000  0.55645000  1.0
  O  O210  1  0.18912000  0.23073000  0.05645000  1.0
  O  O211  1  0.76928000  0.81089000  0.44355000  1.0
  O  O212  1  0.70459000  0.94810000  0.97986000  1.0
  O  O213  1  0.05191000  0.29541000  0.52015000  1.0
  O  O214  1  0.29540000  0.05189000  0.02015000  1.0
  O  O215  1  0.94811000  0.70458000  0.47984000  1.0
