# generated using pymatgen
data_AgBH9C7S2N3F4
_symmetry_space_group_name_H-M   'P 1'
_cell_length_a   7.32043000
_cell_length_b   8.71864000
_cell_length_c   11.13950000
_cell_angle_alpha   79.77890000
_cell_angle_beta   78.57570000
_cell_angle_gamma   68.31500000
_symmetry_Int_Tables_number   1
_chemical_formula_structural   AgBH9C7S2N3F4
_chemical_formula_sum   'Ag2 B2 H18 C14 S4 N6 F8'
_cell_volume   643.30806298
_cell_formula_units_Z   2
loop_
 _symmetry_equiv_pos_site_id
 _symmetry_equiv_pos_as_xyz
  1  'x, y, z'
loop_
 _atom_site_type_symbol
 _atom_site_label
 _atom_site_symmetry_multiplicity
 _atom_site_fract_x
 _atom_site_fract_y
 _atom_site_fract_z
 _atom_site_occupancy
  Ag  Ag0  1  0.46136000  0.62882000  0.35093000  1.0
  Ag  Ag1  1  0.53862000  0.37116000  0.64909000  1.0
  B  B2  1  0.63773000  0.29492000  0.15045000  1.0
  B  B3  1  0.36225000  0.70512000  0.84954000  1.0
  H  H4  1  0.16573000  0.34098000  0.81736000  1.0
  H  H5  1  0.83424000  0.65902000  0.18265000  1.0
  H  H6  1  0.90022000  0.44195000  0.84055000  1.0
  H  H7  1  0.09976000  0.55806000  0.15947000  1.0
  H  H8  1  0.05975000  0.53285000  0.87952000  1.0
  H  H9  1  0.94025000  0.46715000  0.12049000  1.0
  H  H10  1  0.68236000  0.96239000  0.27243000  1.0
  H  H11  1  0.31770000  0.03761000  0.72754000  1.0
  H  H12  1  0.68323000  0.78599000  0.38254000  1.0
  H  H13  1  0.31678000  0.21401000  0.61743000  1.0
  H  H14  1  0.57833000  0.14434000  0.44683000  1.0
  H  H15  1  0.42168000  0.85566000  0.55313000  1.0
  H  H16  1  0.06394000  0.14765000  0.10631000  1.0
  H  H17  1  0.93607000  0.85232000  0.89371000  1.0
  H  H18  1  0.22409000  0.05717000  0.97304000  1.0
  H  H19  1  0.77591000  0.94280000  0.02697000  1.0
  H  H20  1  0.29129000  0.18899000  0.04976000  1.0
  H  H21  1  0.70873000  0.81098000  0.95025000  1.0
  C  C22  1  0.04341000  0.46082000  0.81315000  1.0
  C  C23  1  0.95658000  0.53918000  0.18687000  1.0
  C  C24  1  0.06044000  0.55003000  0.68724000  1.0
  C  C25  1  0.93954000  0.44997000  0.31277000  1.0
  C  C26  1  0.02088000  0.72855000  0.49503000  1.0
  C  C27  1  0.97911000  0.27145000  0.50498000  1.0
  C  C28  1  0.70407000  0.90683000  0.36746000  1.0
  C  C29  1  0.29595000  0.09317000  0.63252000  1.0
  C  C30  1  0.56688000  0.02098000  0.45657000  1.0
  C  C31  1  0.43314000  0.97902000  0.54339000  1.0
  C  C32  1  0.32481000  0.95246000  0.14027000  1.0
  C  C33  1  0.67522000  0.04751000  0.85974000  1.0
  C  C34  1  0.21908000  0.09572000  0.06260000  1.0
  C  C35  1  0.78093000  0.90425000  0.93741000  1.0
  S  S36  1  0.96608000  0.87089000  0.36640000  1.0
  S  S37  1  0.03395000  0.12909000  0.63360000  1.0
  S  S38  1  0.86006000  0.70243000  0.62718000  1.0
  S  S39  1  0.13993000  0.29757000  0.37284000  1.0
  N  N40  1  0.20652000  0.62721000  0.50103000  1.0
  N  N41  1  0.79346000  0.37278000  0.49898000  1.0
  N  N42  1  0.22782000  0.52770000  0.61102000  1.0
  N  N43  1  0.77216000  0.47229000  0.38899000  1.0
  N  N44  1  0.40701000  0.83696000  0.20426000  1.0
  N  N45  1  0.59302000  0.16301000  0.79575000  1.0
  F  F46  1  0.47042000  0.41602000  0.21035000  1.0
  F  F47  1  0.52953000  0.58396000  0.78967000  1.0
  F  F48  1  0.57370000  0.17229000  0.12133000  1.0
  F  F49  1  0.42635000  0.82775000  0.87860000  1.0
  F  F50  1  0.78046000  0.21593000  0.23349000  1.0
  F  F51  1  0.21952000  0.78408000  0.76650000  1.0
  F  F52  1  0.72666000  0.36786000  0.04403000  1.0
  F  F53  1  0.27327000  0.63228000  0.95599000  1.0
