# generated using pymatgen
data_Zn6H60C58(N4O11)3
_symmetry_space_group_name_H-M   'P 1'
_cell_length_a   18.51990000
_cell_length_b   18.55360000
_cell_length_c   18.68401112
_cell_angle_alpha   109.33005037
_cell_angle_beta   109.78264594
_cell_angle_gamma   108.65300000
_symmetry_Int_Tables_number   1
_chemical_formula_structural   Zn6H60C58(N4O11)3
_chemical_formula_sum   'Zn6 H60 C58 N12 O33'
_cell_volume   4980.90074544
_cell_formula_units_Z   1
loop_
 _symmetry_equiv_pos_site_id
 _symmetry_equiv_pos_as_xyz
  1  'x, y, z'
loop_
 _atom_site_type_symbol
 _atom_site_label
 _atom_site_symmetry_multiplicity
 _atom_site_fract_x
 _atom_site_fract_y
 _atom_site_fract_z
 _atom_site_occupancy
  Zn  Zn0  1  0.98965000  0.56644000  0.04879000  1.0
  Zn  Zn1  1  0.99665000  0.44637000  0.92843000  1.0
  Zn  Zn2  1  0.54488000  0.55502000  0.50046000  1.0
  Zn  Zn3  1  0.41796000  0.42864000  0.49443000  1.0
  Zn  Zn4  1  0.57328000  0.01649000  0.06877000  1.0
  Zn  Zn5  1  0.44268000  0.00470000  0.93716000  1.0
  H  H6  1  0.35086000  0.46612000  0.24303000  1.0
  H  H7  1  0.05116000  0.59930000  0.87871000  1.0
  H  H8  1  0.12513000  0.55455000  0.79770000  1.0
  H  H9  1  0.11167000  0.62842000  0.75940000  1.0
  H  H10  1  0.01767000  0.53777000  0.73574000  1.0
  H  H11  1  0.24336000  0.82724000  0.86692000  1.0
  H  H12  1  0.45330000  0.91979000  0.13718000  1.0
  H  H13  1  0.36885000  0.82732000  0.21918000  1.0
  H  H14  1  0.26510000  0.64659000  0.13930000  1.0
  H  H15  1  0.22104000  0.69299000  0.20137000  1.0
  H  H16  1  0.33360000  0.72133000  0.25319000  1.0
  H  H17  1  0.67195000  0.28959000  0.28362000  1.0
  H  H18  1  0.36381000  0.29400000  0.28812000  1.0
  H  H19  1  0.28853000  0.11657000  0.20263000  1.0
  H  H20  1  0.24795000  0.13844000  0.11596000  1.0
  H  H21  1  0.23160000  0.17803000  0.20676000  1.0
  H  H22  1  0.39078000  0.10382000  0.06971000  1.0
  H  H23  1  0.55179000  0.34260000  0.65176000  1.0
  H  H24  1  0.60353000  0.33859000  0.77991000  1.0
  H  H25  1  0.66874000  0.45497000  0.83762000  1.0
  H  H26  1  0.71063000  0.38912000  0.79329000  1.0
  H  H27  1  0.66098000  0.46878000  0.41656000  1.0
  H  H28  1  0.58093000  0.26694000  0.95320000  1.0
  H  H29  1  0.46619000  0.55556000  0.69012000  1.0
  H  H30  1  0.52172000  0.52009000  0.79028000  1.0
  H  H31  1  0.50166000  0.58884000  0.86506000  1.0
  H  H32  1  0.59942000  0.63339000  0.86077000  1.0
  H  H33  1  0.53187000  0.78512000  0.95595000  1.0
  H  H34  1  0.40484000  0.66515000  0.92255000  1.0
  H  H35  1  0.38067000  0.61307000  0.81200000  1.0
  H  H36  1  0.36818000  0.70722000  0.85233000  1.0
  H  H37  1  0.52629000  0.94613000  0.75733000  1.0
  H  H38  1  0.67210000  0.96187000  0.75337000  1.0
  H  H39  1  0.73757000  0.64819000  0.73144000  1.0
  H  H40  1  0.71280000  0.00277000  0.86761000  1.0
  H  H41  1  0.66885000  0.05593000  0.81717000  1.0
  H  H42  1  0.54111000  0.86707000  0.65409000  1.0
  H  H43  1  0.41818000  0.68641000  0.53025000  1.0
  H  H44  1  0.50829000  0.72061000  0.51251000  1.0
  H  H45  1  0.44578000  0.77667000  0.51141000  1.0
  H  H46  1  0.81857000  0.67885000  0.88087000  1.0
  H  H47  1  0.98350000  0.69928000  0.97099000  1.0
  H  H48  1  0.96014000  0.76196000  0.92079000  1.0
  H  H49  1  0.96467000  0.66678000  0.86314000  1.0
  H  H50  1  0.12764000  0.49598000  0.36226000  1.0
  H  H51  1  0.80574000  0.39142000  0.70357000  1.0
  H  H52  1  0.91804000  0.31158000  0.99624000  1.0
  H  H53  1  0.85135000  0.13762000  0.92638000  1.0
  H  H54  1  0.89850000  0.17142000  0.03979000  1.0
  H  H55  1  0.96474000  0.21612000  0.99919000  1.0
  H  H56  1  0.70737000  0.11042000  0.02082000  1.0
  H  H57  1  0.76137000  0.45866000  0.00670000  1.0
  H  H58  1  0.19491000  0.43671000  0.03903000  1.0
  H  H59  1  0.31992000  0.44477000  0.03320000  1.0
  H  H60  1  0.32296000  0.39021000  0.09617000  1.0
  H  H61  1  0.30525000  0.57220000  0.48935000  1.0
  H  H62  1  0.38419000  0.50636000  0.14899000  1.0
  H  H63  1  0.24928000  0.46905000  0.47921000  1.0
  H  H64  1  0.21246000  0.54697000  0.50468000  1.0
  H  H65  1  0.05405000  0.50651000  0.19661000  1.0
  C  C66  1  0.86016000  0.40886000  0.99453000  1.0
  C  C67  1  0.20252000  0.47887000  0.30996000  1.0
  C  C68  1  0.14615000  0.48122000  0.23777000  1.0
  C  C69  1  0.89110000  0.49576000  0.84894000  1.0
  C  C70  1  0.15735000  0.46997000  0.16430000  1.0
  C  C71  1  0.16807000  0.70554000  0.93877000  1.0
  C  C72  1  0.22512000  0.77218000  0.93344000  1.0
  C  C73  1  0.31071000  0.83466000  0.00625000  1.0
  C  C74  1  0.33534000  0.83340000  0.08616000  1.0
  C  C75  1  0.27504000  0.77414000  0.09655000  1.0
  C  C76  1  0.19221000  0.71040000  0.02203000  1.0
  C  C77  1  0.73880000  0.20286000  0.99648000  1.0
  C  C78  1  0.51453000  0.40446000  0.38244000  1.0
  C  C79  1  0.56486000  0.46116000  0.61545000  1.0
  C  C80  1  0.51000000  0.63442000  0.62054000  1.0
  C  C81  1  0.12590000  0.64327000  0.02647000  1.0
  C  C82  1  0.34381000  0.47340000  0.37971000  1.0
  C  C83  1  0.53526000  0.13754000  0.14008000  1.0
  C  C84  1  0.58678000  0.12750000  0.96797000  1.0
  C  C85  1  0.53586000  0.89721000  0.91255000  1.0
  C  C86  1  0.37427000  0.89767000  0.99824000  1.0
  C  C87  1  0.43910000  0.26071000  0.24545000  1.0
  C  C88  1  0.65665000  0.20010000  0.97472000  1.0
  C  C89  1  0.44686000  0.19938000  0.18301000  1.0
  C  C90  1  0.53046000  0.20788000  0.20087000  1.0
  C  C91  1  0.60803000  0.28281000  0.27280000  1.0
  C  C92  1  0.60199000  0.35053000  0.32625000  1.0
  C  C93  1  0.09447000  0.47111000  0.09230000  1.0
  C  C94  1  0.51827000  0.33823000  0.31637000  1.0
  C  C95  1  0.50421000  0.68198000  0.75954000  1.0
  C  C96  1  0.51741000  0.74903000  0.83541000  1.0
  C  C97  1  0.54059000  0.83235000  0.84366000  1.0
  C  C98  1  0.55128000  0.85299000  0.78092000  1.0
  C  C99  1  0.64325000  0.26811000  0.96595000  1.0
  C  C100  1  0.53195000  0.78526000  0.70196000  1.0
  C  C101  1  0.51257000  0.70083000  0.69301000  1.0
  C  C102  1  0.71071000  0.54578000  0.74792000  1.0
  C  C103  1  0.63234000  0.46764000  0.69258000  1.0
  C  C104  1  0.79585000  0.56063000  0.80439000  1.0
  C  C105  1  0.82249000  0.49688000  0.78517000  1.0
  C  C106  1  0.80539000  0.26781000  0.99656000  1.0
  C  C107  1  0.23965000  0.51965000  0.46586000  1.0
  C  C108  1  0.08598000  0.58774000  0.78527000  1.0
  C  C109  1  0.27916000  0.70669000  0.19325000  1.0
  C  C110  1  0.71301000  0.33975000  0.98111000  1.0
  C  C111  1  0.27772000  0.16574000  0.18687000  1.0
  C  C112  1  0.65047000  0.39419000  0.78185000  1.0
  C  C113  1  0.52886000  0.58553000  0.82093000  1.0
  C  C114  1  0.40888000  0.67660000  0.86965000  1.0
  C  C115  1  0.66104000  0.99170000  0.80787000  1.0
  C  C116  1  0.47336000  0.74420000  0.54325000  1.0
  C  C117  1  0.94440000  0.69540000  0.90922000  1.0
  C  C118  1  0.89920000  0.19376000  0.99260000  1.0
  C  C119  1  0.32196000  0.44864000  0.09374000  1.0
  C  C120  1  0.79196000  0.33794000  0.99145000  1.0
  C  C121  1  0.23229000  0.46268000  0.16426000  1.0
  C  C122  1  0.29167000  0.46841000  0.23867000  1.0
  C  C123  1  0.27651000  0.47391000  0.30890000  1.0
  N  N124  1  0.18023000  0.48604000  0.37457000  1.0
  N  N125  1  0.85068000  0.64415000  0.87344000  1.0
  N  N126  1  0.88297000  0.26800000  0.00901000  1.0
  N  N127  1  0.24755000  0.45637000  0.09591000  1.0
  N  N128  1  0.08648000  0.64061000  0.86403000  1.0
  N  N129  1  0.30475000  0.78095000  0.17862000  1.0
  N  N130  1  0.35830000  0.24934000  0.23429000  1.0
  N  N131  1  0.60991000  0.39529000  0.70151000  1.0
  N  N132  1  0.48345000  0.60006000  0.75070000  1.0
  N  N133  1  0.50131000  0.72973000  0.89755000  1.0
  N  N134  1  0.57535000  0.94016000  0.79633000  1.0
  N  N135  1  0.52950000  0.80487000  0.63638000  1.0
  O  O136  1  0.87819000  0.48915000  0.03893000  1.0
  O  O137  1  0.47260000  0.09315000  0.05976000  1.0
  O  O138  1  0.61178000  0.09029000  0.01132000  1.0
  O  O139  1  0.89935000  0.38826000  0.95342000  1.0
  O  O140  1  0.50487000  0.10172000  0.92100000  1.0
  O  O141  1  0.58936000  0.92777000  0.99427000  1.0
  O  O142  1  0.47448000  0.91454000  0.88502000  1.0
  O  O143  1  0.45650000  0.93464000  0.05451000  1.0
  O  O144  1  0.34672000  0.91468000  0.93504000  1.0
  O  O145  1  0.92855000  0.55172000  0.93051000  1.0
  O  O146  1  0.91222000  0.43435000  0.82150000  1.0
  O  O147  1  0.45342000  0.38103000  0.40061000  1.0
  O  O148  1  0.09637000  0.66770000  0.07802000  1.0
  O  O149  1  0.09963000  0.56370000  0.97453000  1.0
  O  O150  1  0.05497000  0.51479000  0.11105000  1.0
  O  O151  1  0.07912000  0.42888000  0.01351000  1.0
  O  O152  1  0.57447000  0.48627000  0.42143000  1.0
  O  O153  1  0.70437000  0.62090000  0.75477000  1.0
  O  O154  1  0.07971000  0.49385000  0.24412000  1.0
  O  O155  1  0.19659000  0.77391000  0.85682000  1.0
  O  O156  1  0.41722000  0.88904000  0.15757000  1.0
  O  O157  1  0.37131000  0.13361000  0.10801000  1.0
  O  O158  1  0.59080000  0.50736000  0.58342000  1.0
  O  O159  1  0.67767000  0.42579000  0.38991000  1.0
  O  O160  1  0.77732000  0.42761000  0.70070000  1.0
  O  O161  1  0.75817000  0.14514000  0.01697000  1.0
  O  O162  1  0.70254000  0.40956000  0.98138000  1.0
  O  O163  1  0.48299000  0.40545000  0.58278000  1.0
  O  O164  1  0.56535000  0.65864000  0.59445000  1.0
  O  O165  1  0.45440000  0.55356000  0.58713000  1.0
  O  O166  1  0.42409000  0.52548000  0.40882000  1.0
  O  O167  1  0.31728000  0.41764000  0.40460000  1.0
  O  O168  1  0.59824000  0.12053000  0.16716000  1.0
