# generated using pymatgen
data_CaH18C10Br2(NO2)2
_symmetry_space_group_name_H-M   'P 1'
_cell_length_a   7.66615000
_cell_length_b   9.85258000
_cell_length_c   10.96397051
_cell_angle_alpha   95.08875714
_cell_angle_beta   110.47019097
_cell_angle_gamma   89.98410000
_symmetry_Int_Tables_number   1
_chemical_formula_structural   CaH18C10Br2(NO2)2
_chemical_formula_sum   'Ca2 H36 C20 Br4 N4 O8'
_cell_volume   772.35367609
_cell_formula_units_Z   2
loop_
 _symmetry_equiv_pos_site_id
 _symmetry_equiv_pos_as_xyz
  1  'x, y, z'
loop_
 _atom_site_type_symbol
 _atom_site_label
 _atom_site_symmetry_multiplicity
 _atom_site_fract_x
 _atom_site_fract_y
 _atom_site_fract_z
 _atom_site_occupancy
  Ca  Ca0  1  0.82839000  0.75546000  0.51311000  1.0
  Ca  Ca1  1  0.31488000  0.24454000  0.48674000  1.0
  H  H2  1  0.48312000  0.11849000  0.12432000  1.0
  H  H3  1  0.35888000  0.88157000  0.87526000  1.0
  H  H4  1  0.68217000  0.16859000  0.08696000  1.0
  H  H5  1  0.59543000  0.83158000  0.91288000  1.0
  H  H6  1  0.89668000  0.39017000  0.36542000  1.0
  H  H7  1  0.53165000  0.60956000  0.63443000  1.0
  H  H8  1  0.46969000  0.34753000  0.99865000  1.0
  H  H9  1  0.47129000  0.65271000  0.00124000  1.0
  H  H10  1  0.38430000  0.35467000  0.13142000  1.0
  H  H11  1  0.25328000  0.64543000  0.86835000  1.0
  H  H12  1  0.62748000  0.54303000  0.20207000  1.0
  H  H13  1  0.42613000  0.45703000  0.79805000  1.0
  H  H14  1  0.77860000  0.43965000  0.14490000  1.0
  H  H15  1  0.63434000  0.56048000  0.85520000  1.0
  H  H16  1  0.82426000  0.17025000  0.30716000  1.0
  H  H17  1  0.51751000  0.82966000  0.69262000  1.0
  H  H18  1  0.62635000  0.19393000  0.33875000  1.0
  H  H19  1  0.28801000  0.80590000  0.66096000  1.0
  H  H20  1  0.75371000  0.17343000  0.57522000  1.0
  H  H21  1  0.17863000  0.82670000  0.42497000  1.0
  H  H22  1  0.15748000  0.11925000  0.88566000  1.0
  H  H23  1  0.27178000  0.88048000  0.11445000  1.0
  H  H24  1  0.98248000  0.12989000  0.96017000  1.0
  H  H25  1  0.02227000  0.86992000  0.03992000  1.0
  H  H26  1  0.86966000  0.34286000  0.86023000  1.0
  H  H27  1  0.00951000  0.65707000  0.14018000  1.0
  H  H28  1  0.11530000  0.36850000  0.91856000  1.0
  H  H29  1  0.19674000  0.63126000  0.08174000  1.0
  H  H30  1  0.13154000  0.30669000  0.70424000  1.0
  H  H31  1  0.42749000  0.69342000  0.29593000  1.0
  H  H32  1  0.91348000  0.38593000  0.65794000  1.0
  H  H33  1  0.25601000  0.61413000  0.34242000  1.0
  H  H34  1  0.74693000  0.09609000  0.75451000  1.0
  H  H35  1  0.99242000  0.90388000  0.24557000  1.0
  H  H36  1  0.90622000  0.98232000  0.74010000  1.0
  H  H37  1  0.16605000  0.01762000  0.25993000  1.0
  C  C38  1  0.65503000  0.42481000  0.41817000  1.0
  C  C39  1  0.23715000  0.57520000  0.58190000  1.0
  C  C40  1  0.58709000  0.20010000  0.13839000  1.0
  C  C41  1  0.44898000  0.79999000  0.86135000  1.0
  C  C42  1  0.74517000  0.37432000  0.31828000  1.0
  C  C43  1  0.42739000  0.62556000  0.68166000  1.0
  C  C44  1  0.50844000  0.33946000  0.10391000  1.0
  C  C45  1  0.40493000  0.66067000  0.89594000  1.0
  C  C46  1  0.66874000  0.43792000  0.18775000  1.0
  C  C47  1  0.48160000  0.56214000  0.81228000  1.0
  C  C48  1  0.99640000  0.07734000  0.56405000  1.0
  C  C49  1  0.43235000  0.92280000  0.43588000  1.0
  C  C50  1  0.89668000  0.16169000  0.64246000  1.0
  C  C51  1  0.25425000  0.83836000  0.35768000  1.0
  C  C52  1  0.01807000  0.15533000  0.87636000  1.0
  C  C53  1  0.14166000  0.84450000  0.12376000  1.0
  C  C54  1  0.99928000  0.30476000  0.85016000  1.0
  C  C55  1  0.14913000  0.69511000  0.15011000  1.0
  C  C56  1  0.99070000  0.30137000  0.70784000  1.0
  C  C57  1  0.28307000  0.69866000  0.29241000  1.0
  Br  Br58  1  0.71654000  0.84241000  0.24423000  1.0
  Br  Br59  1  0.47170000  0.15726000  0.75559000  1.0
  Br  Br60  1  0.89503000  0.75178000  0.78920000  1.0
  Br  Br61  1  0.10461000  0.24830000  0.21070000  1.0
  N  N62  1  0.70189000  0.22291000  0.28229000  1.0
  N  N63  1  0.42007000  0.77702000  0.71751000  1.0
  N  N64  1  0.88276000  0.08633000  0.75228000  1.0
  N  N65  1  0.13045000  0.91364000  0.24778000  1.0
  O  O66  1  0.67647000  0.54954000  0.45789000  1.0
  O  O67  1  0.21845000  0.45042000  0.54241000  1.0
  O  O68  1  0.56854000  0.33692000  0.45543000  1.0
  O  O69  1  0.11366000  0.66330000  0.54454000  1.0
  O  O70  1  0.01968000  0.95246000  0.58133000  1.0
  O  O71  1  0.43809000  0.04762000  0.41838000  1.0
  O  O72  1  0.04242000  0.13913000  0.48260000  1.0
  O  O73  1  0.56012000  0.86116000  0.51730000  1.0
