# generated using pymatgen
data_CdH17C21(NO2)3
_symmetry_space_group_name_H-M   'P 1'
_cell_length_a   8.76640000
_cell_length_b   10.51520000
_cell_length_c   10.97810000
_cell_angle_alpha   90.00000000
_cell_angle_beta   90.00000000
_cell_angle_gamma   104.03400000
_symmetry_Int_Tables_number   1
_chemical_formula_structural   CdH17C21(NO2)3
_chemical_formula_sum   'Cd2 H34 C42 N6 O12'
_cell_volume   981.76101945
_cell_formula_units_Z   2
loop_
 _symmetry_equiv_pos_site_id
 _symmetry_equiv_pos_as_xyz
  1  'x, y, z'
loop_
 _atom_site_type_symbol
 _atom_site_label
 _atom_site_symmetry_multiplicity
 _atom_site_fract_x
 _atom_site_fract_y
 _atom_site_fract_z
 _atom_site_occupancy
  Cd  Cd0  1  0.75000000  0.25000000  0.44105000  1.0
  Cd  Cd1  1  0.25000000  0.75000000  0.55895000  1.0
  H  H2  1  0.04270000  0.48177000  0.39016000  1.0
  H  H3  1  0.45730000  0.01822000  0.39016000  1.0
  H  H4  1  0.95730000  0.51823000  0.60984000  1.0
  H  H5  1  0.54270000  0.98177000  0.60984000  1.0
  H  H6  1  0.14581000  0.66713000  0.24924000  1.0
  H  H7  1  0.35419000  0.83287000  0.24924000  1.0
  H  H8  1  0.85419000  0.33287000  0.75076000  1.0
  H  H9  1  0.64581000  0.16713000  0.75076000  1.0
  H  H10  1  0.99206000  0.69110000  0.06170000  1.0
  H  H11  1  0.50794000  0.80890000  0.06170000  1.0
  H  H12  1  0.00794000  0.30890000  0.93830000  1.0
  H  H13  1  0.49206000  0.19110000  0.93830000  1.0
  H  H14  1  0.64696000  0.34376000  0.17532000  1.0
  H  H15  1  0.85304000  0.15624000  0.17532000  1.0
  H  H16  1  0.35304000  0.65624000  0.82468000  1.0
  H  H17  1  0.14696000  0.84376000  0.82469000  1.0
  H  H18  1  0.70688000  0.53889000  0.74294000  1.0
  H  H19  1  0.79312000  0.96111000  0.74294000  1.0
  H  H20  1  0.29312000  0.46111000  0.25706000  1.0
  H  H21  1  0.20688000  0.03889000  0.25707000  1.0
  H  H22  1  0.75000000  0.75000000  0.62663000  1.0
  H  H23  1  0.25000000  0.25000000  0.37337000  1.0
  H  H24  1  0.10527000  0.15278000  0.72752000  1.0
  H  H25  1  0.39472000  0.34722000  0.72752000  1.0
  H  H26  1  0.89472000  0.84722000  0.27247000  1.0
  H  H27  1  0.60527000  0.65278000  0.27248000  1.0
  H  H28  1  0.20125000  0.12732000  0.58912000  1.0
  H  H29  1  0.29875000  0.37269000  0.58912000  1.0
  H  H30  1  0.79875000  0.87269000  0.41088000  1.0
  H  H31  1  0.70125000  0.62731000  0.41088000  1.0
  H  H32  1  0.04562000  0.00042000  0.65153000  1.0
  H  H33  1  0.45437000  0.49958000  0.65153000  1.0
  H  H34  1  0.95437000  0.99958000  0.34847000  1.0
  H  H35  1  0.54562000  0.50042000  0.34847000  1.0
  C  C36  1  0.97679000  0.49581000  0.30921000  1.0
  C  C37  1  0.52321000  0.00419000  0.30921000  1.0
  C  C38  1  0.02321000  0.50420000  0.69079000  1.0
  C  C39  1  0.47679000  0.99580000  0.69079000  1.0
  C  C40  1  0.03428000  0.59872000  0.22900000  1.0
  C  C41  1  0.46572000  0.90128000  0.22900000  1.0
  C  C42  1  0.96572000  0.40128000  0.77100000  1.0
  C  C43  1  0.53428000  0.09872000  0.77100000  1.0
  C  C44  1  0.94856000  0.61053000  0.12478000  1.0
  C  C45  1  0.55144000  0.88947000  0.12478000  1.0
  C  C46  1  0.05144000  0.38947000  0.87521000  1.0
  C  C47  1  0.44856000  0.11053000  0.87521000  1.0
  C  C48  1  0.80739000  0.51667000  0.10279000  1.0
  C  C49  1  0.69261000  0.98333000  0.10279000  1.0
  C  C50  1  0.19261000  0.48334000  0.89721000  1.0
  C  C51  1  0.30739000  0.01666000  0.89722000  1.0
  C  C52  1  0.75751000  0.41703000  0.18872000  1.0
  C  C53  1  0.74250000  0.08297000  0.18872000  1.0
  C  C54  1  0.24250000  0.58297000  0.81128000  1.0
  C  C55  1  0.25751000  0.91703000  0.81128000  1.0
  C  C56  1  0.71400000  0.51373000  0.98898000  1.0
  C  C57  1  0.78600000  0.98628000  0.98898000  1.0
  C  C58  1  0.28600000  0.48628000  0.01102000  1.0
  C  C59  1  0.21400000  0.01372000  0.01102000  1.0
  C  C60  1  0.73162000  0.63814000  0.91798000  1.0
  C  C61  1  0.76838000  0.86186000  0.91798000  1.0
  C  C62  1  0.26838000  0.36186000  0.08202000  1.0
  C  C63  1  0.23162000  0.13814000  0.08202000  1.0
  C  C64  1  0.72643000  0.63274000  0.79038000  1.0
  C  C65  1  0.77357000  0.86726000  0.79038000  1.0
  C  C66  1  0.27357000  0.36726000  0.20962000  1.0
  C  C67  1  0.22643000  0.13274000  0.20962000  1.0
  C  C68  1  0.75000000  0.75000000  0.72570000  1.0
  C  C69  1  0.25000000  0.25000000  0.27430000  1.0
  C  C70  1  0.96747000  0.15791000  0.56845000  1.0
  C  C71  1  0.53253000  0.34209000  0.56845000  1.0
  C  C72  1  0.03253000  0.84209000  0.43155000  1.0
  C  C73  1  0.46747000  0.65791000  0.43155000  1.0
  C  C74  1  0.08847000  0.10613000  0.63719000  1.0
  C  C75  1  0.41152000  0.39387000  0.63719000  1.0
  C  C76  1  0.91152000  0.89387000  0.36281000  1.0
  C  C77  1  0.58847000  0.60613000  0.36281000  1.0
  N  N78  1  0.83952000  0.40721000  0.28987000  1.0
  N  N79  1  0.66048000  0.09279000  0.28986000  1.0
  N  N80  1  0.16048000  0.59279000  0.71013000  1.0
  N  N81  1  0.33952000  0.90721000  0.71014000  1.0
  N  N82  1  0.75000000  0.75000000  0.98174000  1.0
  N  N83  1  0.25000000  0.25000000  0.01826000  1.0
  O  O84  1  0.62775000  0.41027000  0.95133000  1.0
  O  O85  1  0.87225000  0.08972000  0.95133000  1.0
  O  O86  1  0.37225000  0.58972000  0.04866000  1.0
  O  O87  1  0.12775000  0.91028000  0.04867000  1.0
  O  O88  1  0.82159000  0.10832000  0.58957000  1.0
  O  O89  1  0.67841000  0.39168000  0.58957000  1.0
  O  O90  1  0.17841000  0.89168000  0.41043000  1.0
  O  O91  1  0.32159000  0.60832000  0.41043000  1.0
  O  O92  1  0.01268000  0.25084000  0.49155000  1.0
  O  O93  1  0.48732000  0.24916000  0.49155000  1.0
  O  O94  1  0.98732000  0.74916000  0.50845000  1.0
  O  O95  1  0.51268000  0.75084000  0.50845000  1.0
