# generated using pymatgen
data_Zn3H24(C2O)14
_symmetry_space_group_name_H-M   'P 1'
_cell_length_a   10.66280000
_cell_length_b   10.91544108
_cell_length_c   16.26790000
_cell_angle_alpha   73.79295999
_cell_angle_beta   89.99580000
_cell_angle_gamma   60.76986827
_symmetry_Int_Tables_number   1
_chemical_formula_structural   Zn3H24(C2O)14
_chemical_formula_sum   'Zn6 H48 C56 O28'
_cell_volume   1565.54327671
_cell_formula_units_Z   2
loop_
 _symmetry_equiv_pos_site_id
 _symmetry_equiv_pos_as_xyz
  1  'x, y, z'
loop_
 _atom_site_type_symbol
 _atom_site_label
 _atom_site_symmetry_multiplicity
 _atom_site_fract_x
 _atom_site_fract_y
 _atom_site_fract_z
 _atom_site_occupancy
  Zn  Zn0  1  0.40511000  0.86571000  0.90983000  1.0
  Zn  Zn1  1  0.27075000  0.13425000  0.59013000  1.0
  Zn  Zn2  1  0.59489000  0.13429000  0.09017000  1.0
  Zn  Zn3  1  0.72925000  0.86575000  0.40987000  1.0
  Zn  Zn4  1  0.50000000  0.50000000  0.00000000  1.0
  Zn  Zn5  1  0.00000000  0.50000000  0.50000000  1.0
  H  H6  1  0.13398000  0.96351000  0.68224000  1.0
  H  H7  1  0.09756000  0.03651000  0.81792000  1.0
  H  H8  1  0.86602000  0.03649000  0.31776000  1.0
  H  H9  1  0.90244000  0.96349000  0.18208000  1.0
  H  H10  1  0.96697000  0.97817000  0.56790000  1.0
  H  H11  1  0.94509000  0.02187000  0.93219000  1.0
  H  H12  1  0.03303000  0.02183000  0.43210000  1.0
  H  H13  1  0.05490000  0.97814000  0.06781000  1.0
  H  H14  1  0.06856000  0.53466000  0.70641000  1.0
  H  H15  1  0.60322000  0.46525000  0.79355000  1.0
  H  H16  1  0.93144000  0.46534000  0.29359000  1.0
  H  H17  1  0.39678000  0.53475000  0.20645000  1.0
  H  H18  1  0.22978000  0.52359000  0.82502000  1.0
  H  H19  1  0.75350000  0.47631000  0.67501000  1.0
  H  H20  1  0.77022000  0.47641000  0.17498000  1.0
  H  H21  1  0.24650000  0.52369000  0.32499000  1.0
  H  H22  1  0.88535000  0.36307000  0.96886000  1.0
  H  H23  1  0.24840000  0.63708000  0.53106000  1.0
  H  H24  1  0.11465000  0.63693000  0.03114000  1.0
  H  H25  1  0.75160000  0.36292000  0.46894000  1.0
  H  H26  1  0.84354000  0.76633000  0.98726000  1.0
  H  H27  1  0.60968000  0.23369000  0.51274000  1.0
  H  H28  1  0.15646000  0.23367000  0.01274000  1.0
  H  H29  1  0.39032000  0.76631000  0.48726000  1.0
  H  H30  1  0.26601000  0.12280000  0.78308000  1.0
  H  H31  1  0.38886000  0.87716000  0.71692000  1.0
  H  H32  1  0.73399000  0.87720000  0.21692000  1.0
  H  H33  1  0.61114000  0.12284000  0.28308000  1.0
  H  H34  1  0.29230000  0.26781000  0.86647000  1.0
  H  H35  1  0.56006000  0.73224000  0.63349000  1.0
  H  H36  1  0.70770000  0.73219000  0.13353000  1.0
  H  H37  1  0.43994000  0.26776000  0.36651000  1.0
  H  H38  1  0.46563000  0.10821000  0.91242000  1.0
  H  H39  1  0.57377000  0.89187000  0.58750000  1.0
  H  H40  1  0.53437000  0.89179000  0.08758000  1.0
  H  H41  1  0.42623000  0.10813000  0.41250000  1.0
  H  H42  1  0.54418000  0.12989000  0.76619000  1.0
  H  H43  1  0.67406000  0.87023000  0.73371000  1.0
  H  H44  1  0.45583000  0.87010000  0.23381000  1.0
  H  H45  1  0.32593000  0.12977000  0.26629000  1.0
  H  H46  1  0.48138000  0.29921000  0.78910000  1.0
  H  H47  1  0.78057000  0.70090000  0.71080000  1.0
  H  H48  1  0.51862000  0.70079000  0.21090000  1.0
  H  H49  1  0.21943000  0.29910000  0.28920000  1.0
  H  H50  1  0.36715000  0.28561000  0.71746000  1.0
  H  H51  1  0.65277000  0.71449000  0.78245000  1.0
  H  H52  1  0.63285000  0.71439000  0.28254000  1.0
  H  H53  1  0.34723000  0.28551000  0.21755000  1.0
  C  C54  1  0.19251000  0.74188000  0.75988000  1.0
  C  C55  1  0.93451000  0.25812000  0.74020000  1.0
  C  C56  1  0.80749000  0.25812000  0.24012000  1.0
  C  C57  1  0.06549000  0.74188000  0.25979000  1.0
  C  C58  1  0.11932000  0.86995000  0.68746000  1.0
  C  C59  1  0.98934000  0.13009000  0.81265000  1.0
  C  C60  1  0.88068000  0.13005000  0.31254000  1.0
  C  C61  1  0.01066000  0.86991000  0.18735000  1.0
  C  C62  1  0.02606000  0.87833000  0.62367000  1.0
  C  C63  1  0.90441000  0.12168000  0.87641000  1.0
  C  C64  1  0.97395000  0.12166000  0.37633000  1.0
  C  C65  1  0.09559000  0.87832000  0.12359000  1.0
  C  C66  1  0.00825000  0.75701000  0.63078000  1.0
  C  C67  1  0.76526000  0.24296000  0.86925000  1.0
  C  C68  1  0.99174000  0.24300000  0.36922000  1.0
  C  C69  1  0.23474000  0.75704000  0.13075000  1.0
  C  C70  1  0.08278000  0.62813000  0.70288000  1.0
  C  C71  1  0.71094000  0.37181000  0.79713000  1.0
  C  C72  1  0.91722000  0.37187000  0.29712000  1.0
  C  C73  1  0.28906000  0.62819000  0.20287000  1.0
  C  C74  1  0.17283000  0.62128000  0.76775000  1.0
  C  C75  1  0.79421000  0.37866000  0.73229000  1.0
  C  C76  1  0.82717000  0.37872000  0.23225000  1.0
  C  C77  1  0.20579000  0.62134000  0.26771000  1.0
  C  C78  1  0.28790000  0.73351000  0.83061000  1.0
  C  C79  1  0.02150000  0.26644000  0.66945000  1.0
  C  C80  1  0.71210000  0.26649000  0.16939000  1.0
  C  C81  1  0.97850000  0.73356000  0.33055000  1.0
  C  C82  1  0.91271000  0.76159000  0.56174000  1.0
  C  C83  1  0.67427000  0.23835000  0.93829000  1.0
  C  C84  1  0.08729000  0.23841000  0.43826000  1.0
  C  C85  1  0.32573000  0.76165000  0.06171000  1.0
  C  C86  1  0.84919000  0.57150000  0.97570000  1.0
  C  C87  1  0.42058000  0.42860000  0.52424000  1.0
  C  C88  1  0.15081000  0.42850000  0.02430000  1.0
  C  C89  1  0.57942000  0.57140000  0.47576000  1.0
  C  C90  1  0.93710000  0.42155000  0.98259000  1.0
  C  C91  1  0.35863000  0.57853000  0.51735000  1.0
  C  C92  1  0.06290000  0.57845000  0.01741000  1.0
  C  C93  1  0.64137000  0.42147000  0.48264000  1.0
  C  C94  1  0.91285000  0.64976000  0.99317000  1.0
  C  C95  1  0.56250000  0.35026000  0.50682000  1.0
  C  C96  1  0.08715000  0.35024000  0.00683000  1.0
  C  C97  1  0.43750000  0.64974000  0.49318000  1.0
  C  C98  1  0.68843000  0.64581000  0.95007000  1.0
  C  C99  1  0.33407000  0.35433000  0.54987000  1.0
  C  C100  1  0.31157000  0.35419000  0.04993000  1.0
  C  C101  1  0.66593000  0.64567000  0.45013000  1.0
  C  C102  1  0.38457000  0.17355000  0.85301000  1.0
  C  C103  1  0.55811000  0.82651000  0.64694000  1.0
  C  C104  1  0.61543000  0.82645000  0.14699000  1.0
  C  C105  1  0.44189000  0.17349000  0.35306000  1.0
  C  C106  1  0.44841000  0.22429000  0.77683000  1.0
  C  C107  1  0.67271000  0.77579000  0.72309000  1.0
  C  C108  1  0.55159000  0.77571000  0.22317000  1.0
  C  C109  1  0.32729000  0.22421000  0.27691000  1.0
  O  O110  1  0.31331000  0.64308000  0.90472000  1.0
  O  O111  1  0.95649000  0.35683000  0.59534000  1.0
  O  O112  1  0.68669000  0.35692000  0.09528000  1.0
  O  O113  1  0.04351000  0.64317000  0.40466000  1.0
  O  O114  1  0.33624000  0.82533000  0.81161000  1.0
  O  O115  1  0.16164000  0.17459000  0.68840000  1.0
  O  O116  1  0.66376000  0.17467000  0.18839000  1.0
  O  O117  1  0.83836000  0.82541000  0.31160000  1.0
  O  O118  1  0.90414000  0.64720000  0.56909000  1.0
  O  O119  1  0.55131000  0.35273000  0.93094000  1.0
  O  O120  1  0.09587000  0.35280000  0.43091000  1.0
  O  O121  1  0.44869000  0.64727000  0.06906000  1.0
  O  O122  1  0.84205000  0.88281000  0.49779000  1.0
  O  O123  1  0.72485000  0.11716000  0.00227000  1.0
  O  O124  1  0.15795000  0.11719000  0.50221000  1.0
  O  O125  1  0.27515000  0.88284000  0.99773000  1.0
  O  O126  1  0.63382000  0.57367000  0.93307000  1.0
  O  O127  1  0.20737000  0.42648000  0.56691000  1.0
  O  O128  1  0.36618000  0.42633000  0.06693000  1.0
  O  O129  1  0.79263000  0.57352000  0.43309000  1.0
  O  O130  1  0.61257000  0.78391000  0.94462000  1.0
  O  O131  1  0.39626000  0.21624000  0.55530000  1.0
  O  O132  1  0.38743000  0.21609000  0.05538000  1.0
  O  O133  1  0.60374000  0.78376000  0.44470000  1.0
  O  O134  1  0.33512000  0.07770000  0.83870000  1.0
  O  O135  1  0.41286000  0.92235000  0.66132000  1.0
  O  O136  1  0.66488000  0.92230000  0.16130000  1.0
  O  O137  1  0.58714000  0.07765000  0.33868000  1.0
