# generated using pymatgen
data_CuH14C20(NO)4
_symmetry_space_group_name_H-M   'P 1'
_cell_length_a   8.62632000
_cell_length_b   8.62718000
_cell_length_c   13.42169510
_cell_angle_alpha   108.36638656
_cell_angle_beta   95.72202758
_cell_angle_gamma   110.77000000
_symmetry_Int_Tables_number   1
_chemical_formula_structural   CuH14C20(NO)4
_chemical_formula_sum   'Cu2 H28 C40 N8 O8'
_cell_volume   860.83662924
_cell_formula_units_Z   2
loop_
 _symmetry_equiv_pos_site_id
 _symmetry_equiv_pos_as_xyz
  1  'x, y, z'
loop_
 _atom_site_type_symbol
 _atom_site_label
 _atom_site_symmetry_multiplicity
 _atom_site_fract_x
 _atom_site_fract_y
 _atom_site_fract_z
 _atom_site_occupancy
  Cu  Cu0  1  1.00000000  0.50000000  0.50000000  1.0
  Cu  Cu1  1  0.00000000  0.00000000  0.00000000  1.0
  H  H2  1  0.88370000  0.29273000  0.24106000  1.0
  H  H3  1  0.05188000  0.14274000  0.25905000  1.0
  H  H4  1  0.11630000  0.70727000  0.75894000  1.0
  H  H5  1  0.94812000  0.85726000  0.74095000  1.0
  H  H6  1  0.59733000  0.41813000  0.46844000  1.0
  H  H7  1  0.94930000  0.62890000  0.03157000  1.0
  H  H8  1  0.40268000  0.58186000  0.53156000  1.0
  H  H9  1  0.05070000  0.37110000  0.96843000  1.0
  H  H10  1  0.37771000  0.21926000  0.26418000  1.0
  H  H11  1  0.95485000  0.61356000  0.23582000  1.0
  H  H12  1  0.62229000  0.78074000  0.73582000  1.0
  H  H13  1  0.04515000  0.38644000  0.76418000  1.0
  H  H14  1  0.33505000  0.91699000  0.13067000  1.0
  H  H15  1  0.78630000  0.70443000  0.36937000  1.0
  H  H16  1  0.66495000  0.08301000  0.86933000  1.0
  H  H17  1  0.21370000  0.29557000  0.63063000  1.0
  H  H18  1  0.76385000  0.28090000  0.06338000  1.0
  H  H19  1  0.21754000  0.20039000  0.43655000  1.0
  H  H20  1  0.23615000  0.71910000  0.93662000  1.0
  H  H21  1  0.78246000  0.79961000  0.56345000  1.0
  H  H22  1  0.43381000  0.88846000  0.42844000  1.0
  H  H23  1  0.46012000  0.50541000  0.07160000  1.0
  H  H24  1  0.56619000  0.11154000  0.57156000  1.0
  H  H25  1  0.53988000  0.49459000  0.92840000  1.0
  H  H26  1  0.66206000  0.01454000  0.34021000  1.0
  H  H27  1  0.67439000  0.82185000  0.15983000  1.0
  H  H28  1  0.33794000  0.98546000  0.65979000  1.0
  H  H29  1  0.32561000  0.17816000  0.84017000  1.0
  C  C30  1  0.77857000  0.29957000  0.27799000  1.0
  C  C31  1  0.02172000  0.00069000  0.22210000  1.0
  C  C32  1  0.22143000  0.70043000  0.72200000  1.0
  C  C33  1  0.97828000  0.99931000  0.77790000  1.0
  C  C34  1  0.62343000  0.35929000  0.39157000  1.0
  C  C35  1  0.96744000  0.73193000  0.10843000  1.0
  C  C36  1  0.37657000  0.64071000  0.60843000  1.0
  C  C37  1  0.03257000  0.26806000  0.89157000  1.0
  C  C38  1  0.51342000  0.25973000  0.29158000  1.0
  C  C39  1  0.96785000  0.72184000  0.20841000  1.0
  C  C40  1  0.48658000  0.74027000  0.70842000  1.0
  C  C41  1  0.03215000  0.27816000  0.79159000  1.0
  C  C42  1  0.55426000  0.11155000  0.10826000  1.0
  C  C43  1  0.00333000  0.94594000  0.39176000  1.0
  C  C44  1  0.44574000  0.88846000  0.89174000  1.0
  C  C45  1  0.99666000  0.05406000  0.60824000  1.0
  C  C46  1  0.40610000  0.95398000  0.07317000  1.0
  C  C47  1  0.88083000  0.83290000  0.42690000  1.0
  C  C48  1  0.59390000  0.04603000  0.92683000  1.0
  C  C49  1  0.11917000  0.16710000  0.57310000  1.0
  C  C50  1  0.64825000  0.15820000  0.03542000  1.0
  C  C51  1  0.12282000  0.11281000  0.46454000  1.0
  C  C52  1  0.35175000  0.84180000  0.96458000  1.0
  C  C53  1  0.87717000  0.88719000  0.53546000  1.0
  C  C54  1  0.20299000  0.54738000  0.36221000  1.0
  C  C55  1  0.18504000  0.34076000  0.13780000  1.0
  C  C56  1  0.79701000  0.45262000  0.63779000  1.0
  C  C57  1  0.81496000  0.65924000  0.86220000  1.0
  C  C58  1  0.32234000  0.62892000  0.30108000  1.0
  C  C59  1  0.32776000  0.52127000  0.19892000  1.0
  C  C60  1  0.67765000  0.37108000  0.69892000  1.0
  C  C61  1  0.67224000  0.47874000  0.80108000  1.0
  C  C62  1  0.44116000  0.80665000  0.34999000  1.0
  C  C63  1  0.45666000  0.59116000  0.15003000  1.0
  C  C64  1  0.55884000  0.19336000  0.65001000  1.0
  C  C65  1  0.54333000  0.40884000  0.84997000  1.0
  C  C66  1  0.56843000  0.87654000  0.29995000  1.0
  C  C67  1  0.57664000  0.76842000  0.20008000  1.0
  C  C68  1  0.43157000  0.12346000  0.70005000  1.0
  C  C69  1  0.42336000  0.23158000  0.79992000  1.0
  N  N70  1  0.78807000  0.38261000  0.38208000  1.0
  N  N71  1  0.00064000  0.90615000  0.11797000  1.0
  N  N72  1  0.21193000  0.61738000  0.61791000  1.0
  N  N73  1  0.99935000  0.09384000  0.88202000  1.0
  N  N74  1  0.61300000  0.22293000  0.22032000  1.0
  N  N75  1  0.00247000  0.89270000  0.27970000  1.0
  N  N76  1  0.38699000  0.77707000  0.77968000  1.0
  N  N77  1  0.99752000  0.10729000  0.72029000  1.0
  O  O78  1  0.12831000  0.63977000  0.41549000  1.0
  O  O79  1  0.22422000  0.21285000  0.08448000  1.0
  O  O80  1  0.87168000  0.36023000  0.58451000  1.0
  O  O81  1  0.77578000  0.78715000  0.91552000  1.0
  O  O82  1  0.18777000  0.39713000  0.36329000  1.0
  O  O83  1  0.03367000  0.32432000  0.13670000  1.0
  O  O84  1  0.81224000  0.60287000  0.63671000  1.0
  O  O85  1  0.96633000  0.67568000  0.86330000  1.0
