# generated using pymatgen
data_CuPH4C2O3
_symmetry_space_group_name_H-M   'P 1'
_cell_length_a   4.22937000
_cell_length_b   6.65045000
_cell_length_c   10.55350000
_cell_angle_alpha   71.68600000
_cell_angle_beta   87.29470000
_cell_angle_gamma   89.99360000
_symmetry_Int_Tables_number   1
_chemical_formula_structural   CuPH4C2O3
_chemical_formula_sum   'Cu2 P2 H8 C4 O6'
_cell_volume   281.45721785
_cell_formula_units_Z   2
loop_
 _symmetry_equiv_pos_site_id
 _symmetry_equiv_pos_as_xyz
  1  'x, y, z'
loop_
 _atom_site_type_symbol
 _atom_site_label
 _atom_site_symmetry_multiplicity
 _atom_site_fract_x
 _atom_site_fract_y
 _atom_site_fract_z
 _atom_site_occupancy
  Cu  Cu0  1  0.49999000  0.00000000  0.50000000  1.0
  Cu  Cu1  1  0.50001000  0.50001000  0.50000000  1.0
  P  P2  1  0.02442000  0.82588000  0.34807000  1.0
  P  P3  1  0.97558000  0.17414000  0.65193000  1.0
  H  H4  1  0.69572000  0.03841000  0.18743000  1.0
  H  H5  1  0.23891000  0.09776000  0.06956000  1.0
  H  H6  1  0.30380000  0.22660000  0.81276000  1.0
  H  H7  1  0.76087000  0.16748000  0.93081000  1.0
  H  H8  1  0.30428000  0.96159000  0.81257000  1.0
  H  H9  1  0.76109000  0.90224000  0.93044000  1.0
  H  H10  1  0.69621000  0.77341000  0.18724000  1.0
  H  H11  1  0.23914000  0.83252000  0.06919000  1.0
  C  C12  1  0.85174000  0.90607000  0.18718000  1.0
  C  C13  1  0.08434000  0.96697000  0.06581000  1.0
  C  C14  1  0.14826000  0.09392000  0.81283000  1.0
  C  C15  1  0.91566000  0.03303000  0.93419000  1.0
  O  O16  1  0.21187000  0.01597000  0.36071000  1.0
  O  O17  1  0.78786000  0.37681000  0.63941000  1.0
  O  O18  1  0.78812000  0.98401000  0.63930000  1.0
  O  O19  1  0.21214000  0.62318000  0.36058000  1.0
  O  O20  1  0.73944000  0.77149000  0.45686000  1.0
  O  O21  1  0.26056000  0.22851000  0.54314000  1.0
