# generated using pymatgen
data_CsH7C7O4
_symmetry_space_group_name_H-M   'P 1'
_cell_length_a   5.99939000
_cell_length_b   6.73260000
_cell_length_c   23.06250000
_cell_angle_alpha   89.99740000
_cell_angle_beta   89.99860000
_cell_angle_gamma   81.47810000
_symmetry_Int_Tables_number   1
_chemical_formula_structural   CsH7C7O4
_chemical_formula_sum   'Cs4 H28 C28 O16'
_cell_volume   921.24407345
_cell_formula_units_Z   4
loop_
 _symmetry_equiv_pos_site_id
 _symmetry_equiv_pos_as_xyz
  1  'x, y, z'
loop_
 _atom_site_type_symbol
 _atom_site_label
 _atom_site_symmetry_multiplicity
 _atom_site_fract_x
 _atom_site_fract_y
 _atom_site_fract_z
 _atom_site_occupancy
  Cs  Cs0  1  0.74782000  0.69276000  0.44783000  1.0
  Cs  Cs1  1  0.75220000  0.80726000  0.94783000  1.0
  Cs  Cs2  1  0.25223000  0.30725000  0.55219000  1.0
  Cs  Cs3  1  0.24775000  0.19276000  0.05217000  1.0
  H  H4  1  0.30871000  0.44967000  0.39425000  1.0
  H  H5  1  0.19135000  0.05032000  0.89424000  1.0
  H  H6  1  0.69134000  0.55033000  0.60576000  1.0
  H  H7  1  0.80862000  0.94967000  0.10576000  1.0
  H  H8  1  0.78058000  0.33203000  0.29846000  1.0
  H  H9  1  0.71946000  0.16792000  0.79846000  1.0
  H  H10  1  0.21943000  0.66794000  0.70154000  1.0
  H  H11  1  0.28055000  0.83206000  0.20152000  1.0
  H  H12  1  0.84533000  0.99736000  0.25010000  1.0
  H  H13  1  0.65465000  0.50263000  0.75011000  1.0
  H  H14  1  0.15464000  0.00262000  0.74990000  1.0
  H  H15  1  0.34538000  0.49733000  0.24987000  1.0
  H  H16  1  0.58880000  0.74664000  0.26928000  1.0
  H  H17  1  0.91113000  0.75339000  0.76928000  1.0
  H  H18  1  0.41116000  0.25336000  0.73073000  1.0
  H  H19  1  0.08890000  0.24658000  0.23070000  1.0
  H  H20  1  0.26440000  0.83266000  0.33749000  1.0
  H  H21  1  0.23553000  0.66738000  0.83749000  1.0
  H  H22  1  0.73558000  0.16736000  0.66252000  1.0
  H  H23  1  0.76446000  0.33261000  0.16251000  1.0
  H  H24  1  0.17099000  0.83703000  0.53306000  1.0
  H  H25  1  0.32903000  0.66298000  0.03305000  1.0
  H  H26  1  0.82906000  0.16301000  0.46696000  1.0
  H  H27  1  0.67092000  0.33702000  0.96695000  1.0
  H  H28  1  0.19977000  0.87572000  0.46722000  1.0
  H  H29  1  0.30023000  0.62431000  0.96722000  1.0
  H  H30  1  0.80028000  0.12432000  0.53279000  1.0
  H  H31  1  0.69971000  0.37570000  0.03278000  1.0
  C  C32  1  0.33924000  0.12820000  0.35637000  1.0
  C  C33  1  0.16075000  0.37181000  0.85637000  1.0
  C  C34  1  0.66075000  0.87181000  0.64363000  1.0
  C  C35  1  0.83924000  0.62818000  0.14363000  1.0
  C  C36  1  0.48665000  0.27047000  0.34459000  1.0
  C  C37  1  0.01337000  0.22951000  0.84459000  1.0
  C  C38  1  0.51337000  0.72952000  0.65542000  1.0
  C  C39  1  0.98662000  0.77049000  0.15541000  1.0
  C  C40  1  0.66856000  0.22145000  0.30643000  1.0
  C  C41  1  0.83145000  0.27852000  0.80643000  1.0
  C  C42  1  0.33145000  0.77853000  0.69357000  1.0
  C  C43  1  0.16856000  0.72146000  0.19355000  1.0
  C  C44  1  0.70353000  0.03454000  0.27967000  1.0
  C  C45  1  0.79645000  0.46546000  0.77967000  1.0
  C  C46  1  0.29645000  0.96546000  0.72033000  1.0
  C  C47  1  0.20356000  0.53453000  0.22031000  1.0
  C  C48  1  0.55858000  0.89305000  0.29034000  1.0
  C  C49  1  0.94137000  0.60697000  0.79035000  1.0
  C  C50  1  0.44140000  0.10695000  0.70966000  1.0
  C  C51  1  0.05864000  0.39302000  0.20964000  1.0
  C  C52  1  0.37828000  0.94077000  0.32839000  1.0
  C  C53  1  0.12168000  0.55925000  0.82839000  1.0
  C  C54  1  0.62170000  0.05925000  0.67161000  1.0
  C  C55  1  0.87832000  0.44074000  0.17160000  1.0
  C  C56  1  0.15428000  0.17704000  0.39942000  1.0
  C  C57  1  0.34573000  0.32299000  0.89942000  1.0
  C  C58  1  0.84574000  0.82298000  0.60059000  1.0
  C  C59  1  0.65424000  0.67701000  0.10058000  1.0
  O  O60  1  0.27203000  0.79432000  0.49973000  1.0
  O  O61  1  0.22798000  0.70570000  0.99973000  1.0
  O  O62  1  0.72802000  0.20572000  0.50028000  1.0
  O  O63  1  0.77196000  0.29430000  0.00027000  1.0
  O  O64  1  0.45419000  0.45372000  0.36985000  1.0
  O  O65  1  0.04587000  0.04626000  0.86985000  1.0
  O  O66  1  0.54586000  0.54627000  0.63015000  1.0
  O  O67  1  0.95411000  0.95374000  0.13014000  1.0
  O  O68  1  0.04118000  0.04237000  0.41673000  1.0
  O  O69  1  0.45881000  0.45767000  0.91673000  1.0
  O  O70  1  0.95884000  0.95765000  0.58328000  1.0
  O  O71  1  0.54116000  0.54233000  0.08327000  1.0
  O  O72  1  0.12017000  0.35834000  0.41943000  1.0
  O  O73  1  0.37986000  0.14168000  0.91942000  1.0
  O  O74  1  0.87988000  0.64167000  0.58058000  1.0
  O  O75  1  0.62009000  0.85833000  0.08058000  1.0
