# generated using pymatgen
data_CdH16C16(N4Cl)2
_symmetry_space_group_name_H-M   'P 1'
_cell_length_a   7.53410000
_cell_length_b   8.09911000
_cell_length_c   16.99440000
_cell_angle_alpha   90.00010000
_cell_angle_beta   90.00000000
_cell_angle_gamma   112.90600000
_symmetry_Int_Tables_number   1
_chemical_formula_structural   CdH16C16(N4Cl)2
_chemical_formula_sum   'Cd2 H32 C32 N16 Cl4'
_cell_volume   955.21767231
_cell_formula_units_Z   2
loop_
 _symmetry_equiv_pos_site_id
 _symmetry_equiv_pos_as_xyz
  1  'x, y, z'
loop_
 _atom_site_type_symbol
 _atom_site_label
 _atom_site_symmetry_multiplicity
 _atom_site_fract_x
 _atom_site_fract_y
 _atom_site_fract_z
 _atom_site_occupancy
  Cd  Cd0  1  0.00000000  0.00000000  0.50000000  1.0
  Cd  Cd1  1  0.00000000  0.50000000  0.00000000  1.0
  H  H2  1  0.50161000  0.84484000  0.45179000  1.0
  H  H3  1  0.49839000  0.65516000  0.95179000  1.0
  H  H4  1  0.49839000  0.15516000  0.54821000  1.0
  H  H5  1  0.50161000  0.34484000  0.04821000  1.0
  H  H6  1  0.19139000  0.60009000  0.41386000  1.0
  H  H7  1  0.80861000  0.89991000  0.91386000  1.0
  H  H8  1  0.80861000  0.39991000  0.58614000  1.0
  H  H9  1  0.19139000  0.10009000  0.08614000  1.0
  H  H10  1  0.18446000  0.38116000  0.40228000  1.0
  H  H11  1  0.81554000  0.11884000  0.90229000  1.0
  H  H12  1  0.81554000  0.61883000  0.59772000  1.0
  H  H13  1  0.18446000  0.88117000  0.09772000  1.0
  H  H14  1  0.50384000  0.59260000  0.24967000  1.0
  H  H15  1  0.49616000  0.90740000  0.74966000  1.0
  H  H16  1  0.49616000  0.40740000  0.75034000  1.0
  H  H17  1  0.50384000  0.09260000  0.25033000  1.0
  H  H18  1  0.40781000  0.59520000  0.10989000  1.0
  H  H19  1  0.59219000  0.90480000  0.60988000  1.0
  H  H20  1  0.59219000  0.40480000  0.89011000  1.0
  H  H21  1  0.40782000  0.09520000  0.39011000  1.0
  H  H22  1  0.83883000  0.47539000  0.17118000  1.0
  H  H23  1  0.16117000  0.02462000  0.67118000  1.0
  H  H24  1  0.16117000  0.52461000  0.82882000  1.0
  H  H25  1  0.83883000  0.97539000  0.32882000  1.0
  H  H26  1  0.90774000  0.45456000  0.31366000  1.0
  H  H27  1  0.09226000  0.04544000  0.81366000  1.0
  H  H28  1  0.09226000  0.54543000  0.68634000  1.0
  H  H29  1  0.90774000  0.95457000  0.18634000  1.0
  H  H30  1  0.85173000  0.54979000  0.43138000  1.0
  H  H31  1  0.14827000  0.95021000  0.93138000  1.0
  H  H32  1  0.14827000  0.45021000  0.56862000  1.0
  H  H33  1  0.85173000  0.04979000  0.06862000  1.0
  C  C34  1  0.55882000  0.74492000  0.43671000  1.0
  C  C35  1  0.44117000  0.75508000  0.93671000  1.0
  C  C36  1  0.44118000  0.25507000  0.56329000  1.0
  C  C37  1  0.55882000  0.24493000  0.06329000  1.0
  C  C38  1  0.25379000  0.51933000  0.38028000  1.0
  C  C39  1  0.74621000  0.98067000  0.88028000  1.0
  C  C40  1  0.74622000  0.48067000  0.61972000  1.0
  C  C41  1  0.25379000  0.01933000  0.11972000  1.0
  C  C42  1  0.21341000  0.52464000  0.29378000  1.0
  C  C43  1  0.78659000  0.97536000  0.79378000  1.0
  C  C44  1  0.78659000  0.47536000  0.70622000  1.0
  C  C45  1  0.21341000  0.02464000  0.20622000  1.0
  C  C46  1  0.35384000  0.56367000  0.23518000  1.0
  C  C47  1  0.64616000  0.93632000  0.73518000  1.0
  C  C48  1  0.64616000  0.43632000  0.76482000  1.0
  C  C49  1  0.35384000  0.06368000  0.26482000  1.0
  C  C50  1  0.30038000  0.56468000  0.15661000  1.0
  C  C51  1  0.69962000  0.93532000  0.65661000  1.0
  C  C52  1  0.69962000  0.43532000  0.84339000  1.0
  C  C53  1  0.30038000  0.06468000  0.34339000  1.0
  C  C54  1  0.98360000  0.49657000  0.19125000  1.0
  C  C55  1  0.01640000  0.00344000  0.69125000  1.0
  C  C56  1  0.01641000  0.50343000  0.80875000  1.0
  C  C57  1  0.98359000  0.99657000  0.30875000  1.0
  C  C58  1  0.02351000  0.48859000  0.27050000  1.0
  C  C59  1  0.97649000  0.01141000  0.77050000  1.0
  C  C60  1  0.97649000  0.51140000  0.72950000  1.0
  C  C61  1  0.02351000  0.98860000  0.22950000  1.0
  C  C62  1  0.73178000  0.59127000  0.42512000  1.0
  C  C63  1  0.26822000  0.90873000  0.92512000  1.0
  C  C64  1  0.26822000  0.40872000  0.57488000  1.0
  C  C65  1  0.73178000  0.09127000  0.07488000  1.0
  N  N66  1  0.56436000  0.48720000  0.39342000  1.0
  N  N67  1  0.43563000  0.01280000  0.89342000  1.0
  N  N68  1  0.43564000  0.51280000  0.60658000  1.0
  N  N69  1  0.56436000  0.98720000  0.10658000  1.0
  N  N70  1  0.73480000  0.75094000  0.45241000  1.0
  N  N71  1  0.26519000  0.74906000  0.95241000  1.0
  N  N72  1  0.26520000  0.24905000  0.54759000  1.0
  N  N73  1  0.73480000  0.25095000  0.04759000  1.0
  N  N74  1  0.45601000  0.58775000  0.40149000  1.0
  N  N75  1  0.54398000  0.91225000  0.90149000  1.0
  N  N76  1  0.54399000  0.41225000  0.59851000  1.0
  N  N77  1  0.45601000  0.08775000  0.09851000  1.0
  N  N78  1  0.11859000  0.53222000  0.13471000  1.0
  N  N79  1  0.88141000  0.96778000  0.63471000  1.0
  N  N80  1  0.88141000  0.46777000  0.86529000  1.0
  N  N81  1  0.11860000  0.03223000  0.36529000  1.0
  Cl  Cl82  1  0.80831000  0.19834000  0.46414000  1.0
  Cl  Cl83  1  0.19169000  0.30166000  0.96414000  1.0
  Cl  Cl84  1  0.19169000  0.80166000  0.53586000  1.0
  Cl  Cl85  1  0.80831000  0.69834000  0.03586000  1.0
