# generated using pymatgen
data_CuH6C9BrN6
_symmetry_space_group_name_H-M   'P 1'
_cell_length_a   7.45830000
_cell_length_b   11.16900000
_cell_length_c   12.78770000
_cell_angle_alpha   73.50700000
_cell_angle_beta   89.99980000
_cell_angle_gamma   89.99990000
_symmetry_Int_Tables_number   1
_chemical_formula_structural   CuH6C9BrN6
_chemical_formula_sum   'Cu4 H24 C36 Br4 N24'
_cell_volume   1021.40800210
_cell_formula_units_Z   4
loop_
 _symmetry_equiv_pos_site_id
 _symmetry_equiv_pos_as_xyz
  1  'x, y, z'
loop_
 _atom_site_type_symbol
 _atom_site_label
 _atom_site_symmetry_multiplicity
 _atom_site_fract_x
 _atom_site_fract_y
 _atom_site_fract_z
 _atom_site_occupancy
  Cu  Cu0  1  0.08080000  0.96815000  0.39611000  1.0
  Cu  Cu1  1  0.58081000  0.53185000  0.10389000  1.0
  Cu  Cu2  1  0.91920000  0.03185000  0.60389000  1.0
  Cu  Cu3  1  0.41919000  0.46815000  0.89611000  1.0
  H  H4  1  0.38896000  0.15321000  0.31892000  1.0
  H  H5  1  0.88896000  0.34679000  0.18108000  1.0
  H  H6  1  0.61104000  0.84678000  0.68108000  1.0
  H  H7  1  0.11104000  0.65321000  0.81892000  1.0
  H  H8  1  0.45025000  0.29111000  0.10228000  1.0
  H  H9  1  0.95025000  0.20889000  0.39772000  1.0
  H  H10  1  0.54975000  0.70889000  0.89772000  1.0
  H  H11  1  0.04976000  0.79111000  0.60227000  1.0
  H  H12  1  0.78235000  0.97544000  0.25415000  1.0
  H  H13  1  0.28236000  0.52456000  0.24586000  1.0
  H  H14  1  0.21765000  0.02456000  0.74586000  1.0
  H  H15  1  0.71764000  0.47544000  0.75414000  1.0
  H  H16  1  0.55560000  0.94739000  0.08876000  1.0
  H  H17  1  0.05560000  0.55261000  0.41124000  1.0
  H  H18  1  0.44440000  0.05261000  0.91124000  1.0
  H  H19  1  0.94440000  0.44739000  0.58876000  1.0
  H  H20  1  0.88727000  0.24250000  0.77426000  1.0
  H  H21  1  0.38728000  0.25750000  0.72574000  1.0
  H  H22  1  0.11272000  0.75750000  0.22574000  1.0
  H  H23  1  0.61272000  0.74250000  0.27426000  1.0
  H  H24  1  0.17710000  0.40251000  0.72013000  1.0
  H  H25  1  0.67711000  0.09749000  0.77987000  1.0
  H  H26  1  0.82289000  0.59749000  0.27987000  1.0
  H  H27  1  0.32289000  0.90251000  0.22013000  1.0
  C  C28  1  0.07859000  0.13113000  0.15508000  1.0
  C  C29  1  0.57860000  0.36888000  0.34492000  1.0
  C  C30  1  0.92141000  0.86888000  0.84492000  1.0
  C  C31  1  0.42140000  0.63113000  0.65508000  1.0
  C  C32  1  0.30718000  0.16377000  0.24686000  1.0
  C  C33  1  0.80719000  0.33623000  0.25314000  1.0
  C  C34  1  0.69282000  0.83623000  0.75314000  1.0
  C  C35  1  0.19282000  0.66377000  0.74686000  1.0
  C  C36  1  0.34032000  0.23146000  0.14143000  1.0
  C  C37  1  0.84033000  0.26854000  0.35857000  1.0
  C  C38  1  0.65968000  0.76854000  0.85857000  1.0
  C  C39  1  0.15968000  0.73146000  0.64143000  1.0
  C  C40  1  0.88858000  0.12378000  0.00374000  1.0
  C  C41  1  0.38858000  0.37622000  0.49626000  1.0
  C  C42  1  0.11142000  0.87621000  0.99626000  1.0
  C  C43  1  0.61141000  0.62378000  0.50374000  1.0
  C  C44  1  0.78716000  0.01260000  0.16591000  1.0
  C  C45  1  0.28717000  0.48740000  0.33409000  1.0
  C  C46  1  0.21284000  0.98740000  0.83409000  1.0
  C  C47  1  0.71283000  0.51261000  0.66591000  1.0
  C  C48  1  0.67839000  0.00101000  0.08263000  1.0
  C  C49  1  0.17839000  0.49899000  0.41737000  1.0
  C  C50  1  0.32161000  0.99899000  0.91737000  1.0
  C  C51  1  0.82161000  0.50101000  0.58263000  1.0
  C  C52  1  0.15421000  0.25333000  0.97228000  1.0
  C  C53  1  0.65421000  0.24667000  0.52772000  1.0
  C  C54  1  0.84579000  0.74667000  0.02772000  1.0
  C  C55  1  0.34579000  0.75333000  0.47228000  1.0
  C  C56  1  0.99517000  0.26223000  0.82325000  1.0
  C  C57  1  0.49516000  0.23777000  0.67675000  1.0
  C  C58  1  0.00483000  0.73777000  0.17675000  1.0
  C  C59  1  0.50483000  0.76223000  0.32325000  1.0
  C  C60  1  0.13880000  0.34143000  0.79910000  1.0
  C  C61  1  0.63880000  0.15857000  0.70090000  1.0
  C  C62  1  0.86120000  0.65857000  0.20090000  1.0
  C  C63  1  0.36120000  0.84143000  0.29910000  1.0
  Br  Br64  1  0.77868000  0.92895000  0.46470000  1.0
  Br  Br65  1  0.27869000  0.57105000  0.03530000  1.0
  Br  Br66  1  0.22131000  0.07104000  0.53530000  1.0
  Br  Br67  1  0.72131000  0.42896000  0.96470000  1.0
  N  N68  1  0.92488000  0.09198000  0.11458000  1.0
  N  N69  1  0.42488000  0.40802000  0.38542000  1.0
  N  N70  1  0.07512000  0.90802000  0.88542000  1.0
  N  N71  1  0.57512000  0.59199000  0.61457000  1.0
  N  N72  1  0.14344000  0.10103000  0.25536000  1.0
  N  N73  1  0.64344000  0.39897000  0.24464000  1.0
  N  N74  1  0.85656000  0.89897000  0.74464000  1.0
  N  N75  1  0.35656000  0.60103000  0.75536000  1.0
  N  N76  1  0.19257000  0.21112000  0.08207000  1.0
  N  N77  1  0.69257000  0.28888000  0.41793000  1.0
  N  N78  1  0.80743000  0.78888000  0.91793000  1.0
  N  N79  1  0.30743000  0.71112000  0.58207000  1.0
  N  N80  1  0.74270000  0.07012000  0.98120000  1.0
  N  N81  1  0.24270000  0.42988000  0.51880000  1.0
  N  N82  1  0.25730000  0.92988000  0.01880000  1.0
  N  N83  1  0.75729000  0.57012000  0.48120000  1.0
  N  N84  1  0.00486000  0.20536000  0.93467000  1.0
  N  N85  1  0.50487000  0.29464000  0.56533000  1.0
  N  N86  1  0.99513000  0.79464000  0.06533000  1.0
  N  N87  1  0.49513000  0.70536000  0.43467000  1.0
  N  N88  1  0.23858000  0.33587000  0.89261000  1.0
  N  N89  1  0.73858000  0.16412000  0.60739000  1.0
  N  N90  1  0.76142000  0.66412000  0.10739000  1.0
  N  N91  1  0.26142000  0.83587000  0.39261000  1.0
