# generated using pymatgen
data_CoH12C11(NO2)2
_symmetry_space_group_name_H-M   'P 1'
_cell_length_a   7.33764000
_cell_length_b   7.81338000
_cell_length_c   9.73744000
_cell_angle_alpha   86.30020000
_cell_angle_beta   84.95550000
_cell_angle_gamma   86.16180000
_symmetry_Int_Tables_number   1
_chemical_formula_structural   CoH12C11(NO2)2
_chemical_formula_sum   'Co2 H24 C22 N4 O8'
_cell_volume   553.88836562
_cell_formula_units_Z   2
loop_
 _symmetry_equiv_pos_site_id
 _symmetry_equiv_pos_as_xyz
  1  'x, y, z'
loop_
 _atom_site_type_symbol
 _atom_site_label
 _atom_site_symmetry_multiplicity
 _atom_site_fract_x
 _atom_site_fract_y
 _atom_site_fract_z
 _atom_site_occupancy
  Co  Co0  1  0.29157000  0.42935000  0.45439000  1.0
  Co  Co1  1  0.70843000  0.57065000  0.54561000  1.0
  H  H2  1  0.56203000  0.64285000  0.99125000  1.0
  H  H3  1  0.43798000  0.35715000  0.00875000  1.0
  H  H4  1  0.47378000  0.77627000  0.12173000  1.0
  H  H5  1  0.52622000  0.22372000  0.87827000  1.0
  H  H6  1  0.65372000  0.92162000  0.91007000  1.0
  H  H7  1  0.34628000  0.07837000  0.08993000  1.0
  H  H8  1  0.72213000  0.97082000  0.07201000  1.0
  H  H9  1  0.27787000  0.02918000  0.92799000  1.0
  H  H10  1  0.90569000  0.68958000  0.89217000  1.0
  H  H11  1  0.09431000  0.31042000  0.10782000  1.0
  H  H12  1  0.99674000  0.89102000  0.90535000  1.0
  H  H13  1  0.00326000  0.10899000  0.09465000  1.0
  H  H14  1  0.05697000  0.82624000  0.14426000  1.0
  H  H15  1  0.94304000  0.17376000  0.85575000  1.0
  H  H16  1  0.13242000  0.64189000  0.05767000  1.0
  H  H17  1  0.86758000  0.35811000  0.94233000  1.0
  H  H18  1  0.14820000  0.13731000  0.30026000  1.0
  H  H19  1  0.85179000  0.86269000  0.69974000  1.0
  H  H20  1  0.16828000  0.79538000  0.40237000  1.0
  H  H21  1  0.83171000  0.20463000  0.59764000  1.0
  H  H22  1  0.38985000  0.10542000  0.67888000  1.0
  H  H23  1  0.61016000  0.89458000  0.32111000  1.0
  H  H24  1  0.32078000  0.80247000  0.63037000  1.0
  H  H25  1  0.67922000  0.19753000  0.36963000  1.0
  C  C26  1  0.70315000  0.61248000  0.17585000  1.0
  C  C27  1  0.29685000  0.38752000  0.82415000  1.0
  C  C28  1  0.88515000  0.61600000  0.18818000  1.0
  C  C29  1  0.11485000  0.38400000  0.81182000  1.0
  C  C30  1  0.60368000  0.72344000  0.07065000  1.0
  C  C31  1  0.39633000  0.27656000  0.92935000  1.0
  C  C32  1  0.71872000  0.86611000  0.00165000  1.0
  C  C33  1  0.28128000  0.13389000  0.99835000  1.0
  C  C34  1  0.91348000  0.79343000  0.96213000  1.0
  C  C35  1  0.08652000  0.20657000  0.03787000  1.0
  C  C36  1  0.00815000  0.72138000  0.08893000  1.0
  C  C37  1  0.99185000  0.27862000  0.91107000  1.0
  C  C38  1  0.58316000  0.49933000  0.26911000  1.0
  C  C39  1  0.41683000  0.50067000  0.73089000  1.0
  C  C40  1  0.97037000  0.51510000  0.30288000  1.0
  C  C41  1  0.02963000  0.48490000  0.69712000  1.0
  C  C42  1  0.20212000  0.07936000  0.39340000  1.0
  C  C43  1  0.79787000  0.92064000  0.60660000  1.0
  C  C44  1  0.21043000  0.91083000  0.44282000  1.0
  C  C45  1  0.78956000  0.08918000  0.55718000  1.0
  C  C46  1  0.32234000  0.07069000  0.59125000  1.0
  C  C47  1  0.67766000  0.92931000  0.40875000  1.0
  N  N48  1  0.27233000  0.17853000  0.48699000  1.0
  N  N49  1  0.72767000  0.82147000  0.51301000  1.0
  N  N50  1  0.28575000  0.90875000  0.56774000  1.0
  N  N51  1  0.71424000  0.09125000  0.43226000  1.0
  O  O52  1  0.49627000  0.57282000  0.37449000  1.0
  O  O53  1  0.50374000  0.42718000  0.62550000  1.0
  O  O54  1  0.56080000  0.34847000  0.24074000  1.0
  O  O55  1  0.43920000  0.65153000  0.75925000  1.0
  O  O56  1  0.87181000  0.44433000  0.40378000  1.0
  O  O57  1  0.12819000  0.55567000  0.59622000  1.0
  O  O58  1  0.14576000  0.50268000  0.29569000  1.0
  O  O59  1  0.85425000  0.49732000  0.70430000  1.0
