# generated using pymatgen
data_ZnH8C12S2(NO2)2
_symmetry_space_group_name_H-M   'P 1'
_cell_length_a   7.40409000
_cell_length_b   12.86080000
_cell_length_c   13.37600000
_cell_angle_alpha   90.00000000
_cell_angle_beta   96.25840000
_cell_angle_gamma   90.00000000
_symmetry_Int_Tables_number   1
_chemical_formula_structural   ZnH8C12S2(NO2)2
_chemical_formula_sum   'Zn4 H32 C48 S8 N8 O16'
_cell_volume   1266.10567297
_cell_formula_units_Z   4
loop_
 _symmetry_equiv_pos_site_id
 _symmetry_equiv_pos_as_xyz
  1  'x, y, z'
loop_
 _atom_site_type_symbol
 _atom_site_label
 _atom_site_symmetry_multiplicity
 _atom_site_fract_x
 _atom_site_fract_y
 _atom_site_fract_z
 _atom_site_occupancy
  Zn  Zn0  1  0.42579000  0.91925000  0.26556000  1.0
  Zn  Zn1  1  0.07421000  0.41925000  0.73444000  1.0
  Zn  Zn2  1  0.57421000  0.08075000  0.73444000  1.0
  Zn  Zn3  1  0.92580000  0.58075000  0.26556000  1.0
  H  H4  1  0.40821000  0.34492000  0.26249000  1.0
  H  H5  1  0.09179000  0.84492000  0.73751000  1.0
  H  H6  1  0.59179000  0.65508000  0.73751000  1.0
  H  H7  1  0.90821000  0.15508000  0.26249000  1.0
  H  H8  1  0.56377000  0.43246000  0.41906000  1.0
  H  H9  1  0.93623000  0.93246000  0.58094000  1.0
  H  H10  1  0.43623000  0.56754000  0.58094000  1.0
  H  H11  1  0.06377000  0.06754000  0.41906000  1.0
  H  H12  1  0.71569000  0.31114000  0.55523000  1.0
  H  H13  1  0.78431000  0.81114000  0.44477000  1.0
  H  H14  1  0.28431000  0.68886000  0.44477000  1.0
  H  H15  1  0.21569000  0.18886000  0.55523000  1.0
  H  H16  1  0.51195000  0.49502000  0.25705000  1.0
  H  H17  1  0.98805000  0.99502000  0.74295000  1.0
  H  H18  1  0.48805000  0.50499000  0.74295000  1.0
  H  H19  1  0.01195000  0.00498000  0.25705000  1.0
  H  H20  1  0.33803000  0.40902000  0.10549000  1.0
  H  H21  1  0.16196000  0.90902000  0.89451000  1.0
  H  H22  1  0.66197000  0.59098000  0.89451000  1.0
  H  H23  1  0.83803000  0.09098000  0.10549000  1.0
  H  H24  1  0.23562000  0.52911000  0.95758000  1.0
  H  H25  1  0.26437000  0.02911000  0.04242000  1.0
  H  H26  1  0.76438000  0.47089000  0.04242000  1.0
  H  H27  1  0.73562000  0.97088000  0.95758000  1.0
  H  H28  1  0.71020000  0.13994000  0.53145000  1.0
  H  H29  1  0.78980000  0.63994000  0.46855000  1.0
  H  H30  1  0.28979000  0.86006000  0.46855000  1.0
  H  H31  1  0.21020000  0.36006000  0.53145000  1.0
  H  H32  1  0.27370000  0.69929000  0.96926000  1.0
  H  H33  1  0.22630000  0.19929000  0.03075000  1.0
  H  H34  1  0.72630000  0.30071000  0.03074000  1.0
  H  H35  1  0.77370000  0.80071000  0.96926000  1.0
  C  C36  1  0.57773000  0.12962000  0.38467000  1.0
  C  C37  1  0.92227000  0.62962000  0.61533000  1.0
  C  C38  1  0.42227000  0.87038000  0.61533000  1.0
  C  C39  1  0.07773000  0.37038000  0.38467000  1.0
  C  C40  1  0.48364000  0.19266000  0.30819000  1.0
  C  C41  1  0.01636000  0.69266000  0.69181000  1.0
  C  C42  1  0.51636000  0.80734000  0.69181000  1.0
  C  C43  1  0.98364000  0.30734000  0.30819000  1.0
  C  C44  1  0.48048000  0.29997000  0.32297000  1.0
  C  C45  1  0.01952000  0.79997000  0.67704000  1.0
  C  C46  1  0.51952000  0.70003000  0.67703000  1.0
  C  C47  1  0.98048000  0.20003000  0.32297000  1.0
  C  C48  1  0.56398000  0.34847000  0.40930000  1.0
  C  C49  1  0.93602000  0.84847000  0.59070000  1.0
  C  C50  1  0.43602000  0.65153000  0.59070000  1.0
  C  C51  1  0.06398000  0.15153000  0.40930000  1.0
  C  C52  1  0.64645000  0.28512000  0.48363000  1.0
  C  C53  1  0.85355000  0.78511000  0.51637000  1.0
  C  C54  1  0.35355000  0.71488000  0.51637000  1.0
  C  C55  1  0.14645000  0.21488000  0.48363000  1.0
  C  C56  1  0.38352000  0.15459000  0.20992000  1.0
  C  C57  1  0.11648000  0.65459000  0.79008000  1.0
  C  C58  1  0.61648000  0.84541000  0.79008000  1.0
  C  C59  1  0.88352000  0.34541000  0.20992000  1.0
  C  C60  1  0.40502000  0.71185000  0.11810000  1.0
  C  C61  1  0.09498000  0.21185000  0.88190000  1.0
  C  C62  1  0.59498000  0.28815000  0.88190000  1.0
  C  C63  1  0.90502000  0.78815000  0.11810000  1.0
  C  C64  1  0.47691000  0.64824000  0.20006000  1.0
  C  C65  1  0.02309000  0.14824000  0.79994000  1.0
  C  C66  1  0.52309000  0.35176000  0.79994000  1.0
  C  C67  1  0.97691000  0.85176000  0.20006000  1.0
  C  C68  1  0.45195000  0.54073000  0.19383000  1.0
  C  C69  1  0.04805000  0.04073000  0.80617000  1.0
  C  C70  1  0.54805000  0.45928000  0.80617000  1.0
  C  C71  1  0.95195000  0.95927000  0.19382000  1.0
  C  C72  1  0.35941000  0.49277000  0.10997000  1.0
  C  C73  1  0.14059000  0.99277000  0.89003000  1.0
  C  C74  1  0.64059000  0.50723000  0.89004000  1.0
  C  C75  1  0.85941000  0.00723000  0.10996000  1.0
  C  C76  1  0.30185000  0.55602000  0.02966000  1.0
  C  C77  1  0.19815000  0.05602000  0.97033000  1.0
  C  C78  1  0.69815000  0.44398000  0.97034000  1.0
  C  C79  1  0.80185000  0.94397000  0.02966000  1.0
  C  C80  1  0.58403000  0.68723000  0.29394000  1.0
  C  C81  1  0.91597000  0.18723000  0.70606000  1.0
  C  C82  1  0.41597000  0.31277000  0.70606000  1.0
  C  C83  1  0.08403000  0.81277000  0.29394000  1.0
  S  S84  1  0.62858000  0.99969000  0.38543000  1.0
  S  S85  1  0.87142000  0.49969000  0.61457000  1.0
  S  S86  1  0.37142000  0.00031000  0.61457000  1.0
  S  S87  1  0.12858000  0.50031000  0.38543000  1.0
  S  S88  1  0.40719000  0.84457000  0.10627000  1.0
  S  S89  1  0.09281000  0.34457000  0.89373000  1.0
  S  S90  1  0.59280000  0.15543000  0.89373000  1.0
  S  S91  1  0.90719000  0.65543000  0.10627000  1.0
  N  N92  1  0.64851000  0.18152000  0.46992000  1.0
  N  N93  1  0.85149000  0.68152000  0.53008000  1.0
  N  N94  1  0.35149000  0.81848000  0.53008000  1.0
  N  N95  1  0.14851000  0.31848000  0.46992000  1.0
  N  N96  1  0.32821000  0.65938000  0.03491000  1.0
  N  N97  1  0.17179000  0.15938000  0.96509000  1.0
  N  N98  1  0.67179000  0.34062000  0.96509000  1.0
  N  N99  1  0.82821000  0.84062000  0.03491000  1.0
  O  O100  1  0.33843000  0.05875000  0.19943000  1.0
  O  O101  1  0.16157000  0.55875000  0.80057000  1.0
  O  O102  1  0.66157000  0.94125000  0.80057000  1.0
  O  O103  1  0.83843000  0.44125000  0.19943000  1.0
  O  O104  1  0.34331000  0.22301000  0.14360000  1.0
  O  O105  1  0.15669000  0.72301000  0.85640000  1.0
  O  O106  1  0.65669000  0.77699000  0.85640000  1.0
  O  O107  1  0.84332000  0.27699000  0.14360000  1.0
  O  O108  1  0.55907000  0.77633000  0.32896000  1.0
  O  O109  1  0.94094000  0.27633000  0.67104000  1.0
  O  O110  1  0.44092000  0.22368000  0.67104000  1.0
  O  O111  1  0.05907000  0.72368000  0.32896000  1.0
  O  O112  1  0.69991000  0.62213000  0.33878000  1.0
  O  O113  1  0.80009000  0.12213000  0.66122000  1.0
  O  O114  1  0.30009000  0.37787000  0.66122000  1.0
  O  O115  1  0.19991000  0.87787000  0.33878000  1.0
