# generated using pymatgen
data_Al2H4C19NO12
_symmetry_space_group_name_H-M   'P 1'
_cell_length_a   6.69641000
_cell_length_b   19.41520000
_cell_length_c   21.47690000
_cell_angle_alpha   86.69050000
_cell_angle_beta   88.55130000
_cell_angle_gamma   88.99580000
_symmetry_Int_Tables_number   1
_chemical_formula_structural   Al2H4C19NO12
_chemical_formula_sum   'Al4 H8 C38 N2 O24'
_cell_volume   2786.34881672
_cell_formula_units_Z   2
loop_
 _symmetry_equiv_pos_site_id
 _symmetry_equiv_pos_as_xyz
  1  'x, y, z'
loop_
 _atom_site_type_symbol
 _atom_site_label
 _atom_site_symmetry_multiplicity
 _atom_site_fract_x
 _atom_site_fract_y
 _atom_site_fract_z
 _atom_site_occupancy
  Al  Al0  1  0.76603000  0.26510000  0.26194000  1.0
  Al  Al1  1  0.23397000  0.73489000  0.73805000  1.0
  Al  Al2  1  0.26564000  0.26492000  0.26248000  1.0
  Al  Al3  1  0.73435000  0.73509000  0.73752000  1.0
  H  H4  1  0.16160000  0.10262000  0.95117000  1.0
  H  H5  1  0.83841000  0.89738000  0.04882000  1.0
  H  H6  1  0.78933000  0.04769000  0.91511000  1.0
  H  H7  1  0.21068000  0.95231000  0.08488000  1.0
  H  H8  1  0.52123000  0.17560000  0.25487000  1.0
  H  H9  1  0.47875000  0.82440000  0.74514000  1.0
  H  H10  1  0.01108000  0.35539000  0.26582000  1.0
  H  H11  1  0.98890000  0.64461000  0.73418000  1.0
  C  C12  1  0.51777000  0.34968000  0.17491000  1.0
  C  C13  1  0.48222000  0.65031000  0.82507000  1.0
  C  C14  1  0.50571000  0.34524000  0.34420000  1.0
  C  C15  1  0.49432000  0.65475000  0.65580000  1.0
  C  C16  1  0.01304000  0.17777000  0.34728000  1.0
  C  C17  1  0.98696000  0.82223000  0.65272000  1.0
  C  C18  1  0.02716000  0.18486000  0.18009000  1.0
  C  C19  1  0.97285000  0.81514000  0.81990000  1.0
  C  C20  1  0.88403000  0.02730000  0.95263000  1.0
  C  C21  1  0.11596000  0.97271000  0.04736000  1.0
  C  C22  1  0.08700000  0.05731000  0.97238000  1.0
  C  C23  1  0.91299000  0.94270000  0.02762000  1.0
  C  C24  1  0.03176000  0.13823000  0.13024000  1.0
  C  C25  1  0.96825000  0.86178000  0.86975000  1.0
  C  C26  1  0.81771000  0.01622000  0.02203000  1.0
  C  C27  1  0.18228000  0.98378000  0.97797000  1.0
  C  C28  1  0.02147000  0.04818000  0.04380000  1.0
  C  C29  1  0.97853000  0.95183000  0.95620000  1.0
  C  C30  1  0.03297000  0.09708000  0.08958000  1.0
  C  C31  1  0.96703000  0.90292000  0.91042000  1.0
  C  C32  1  0.98944000  0.87545000  0.60312000  1.0
  C  C33  1  0.01055000  0.12456000  0.39688000  1.0
  C  C34  1  0.99324000  0.92315000  0.56313000  1.0
  C  C35  1  0.00675000  0.07685000  0.43687000  1.0
  C  C36  1  0.99779000  0.97565000  0.51976000  1.0
  C  C37  1  0.00224000  0.02434000  0.48023000  1.0
  C  C38  1  0.51672000  0.39605000  0.12007000  1.0
  C  C39  1  0.48329000  0.60392000  0.87991000  1.0
  C  C40  1  0.51109000  0.43592000  0.07368000  1.0
  C  C41  1  0.48893000  0.56404000  0.92628000  1.0
  C  C42  1  0.50392000  0.47970000  0.02313000  1.0
  C  C43  1  0.49612000  0.52025000  0.97683000  1.0
  C  C44  1  0.50152000  0.39236000  0.39359000  1.0
  C  C45  1  0.49856000  0.60763000  0.60642000  1.0
  C  C46  1  0.50091000  0.43371000  0.43467000  1.0
  C  C47  1  0.49932000  0.56626000  0.56534000  1.0
  C  C48  1  0.50032000  0.47906000  0.47946000  1.0
  C  C49  1  0.49995000  0.52091000  0.52055000  1.0
  N  N50  1  0.37327000  0.96366000  0.94956000  1.0
  N  N51  1  0.62673000  0.03635000  0.05044000  1.0
  O  O52  1  0.33747000  0.32686000  0.32504000  1.0
  O  O53  1  0.66253000  0.67314000  0.67496000  1.0
  O  O54  1  0.68812000  0.33177000  0.19600000  1.0
  O  O55  1  0.31188000  0.66822000  0.80398000  1.0
  O  O56  1  0.85438000  0.20278000  0.20005000  1.0
  O  O57  1  0.14562000  0.79722000  0.79994000  1.0
  O  O58  1  0.67811000  0.32740000  0.32392000  1.0
  O  O59  1  0.32191000  0.67259000  0.67608000  1.0
  O  O60  1  0.84344000  0.19822000  0.32732000  1.0
  O  O61  1  0.15656000  0.80177000  0.67267000  1.0
  O  O62  1  0.34698000  0.33193000  0.19714000  1.0
  O  O63  1  0.65302000  0.66807000  0.80285000  1.0
  O  O64  1  0.51802000  0.22428000  0.26264000  1.0
  O  O65  1  0.48197000  0.77572000  0.73736000  1.0
  O  O66  1  0.18441000  0.19788000  0.32751000  1.0
  O  O67  1  0.81559000  0.80212000  0.67249000  1.0
  O  O68  1  0.19470000  0.20271000  0.20007000  1.0
  O  O69  1  0.80530000  0.79729000  0.79993000  1.0
  O  O70  1  0.01388000  0.30602000  0.26135000  1.0
  O  O71  1  0.98611000  0.69398000  0.73864000  1.0
  O  O72  1  0.48116000  0.92189000  0.97996000  1.0
  O  O73  1  0.41076000  0.98819000  0.89612000  1.0
  O  O74  1  0.51882000  0.07811000  0.02005000  1.0
  O  O75  1  0.58927000  0.01182000  0.10389000  1.0
