# generated using pymatgen
data_AlH9C27(ClO)6
_symmetry_space_group_name_H-M   'P 1'
_cell_length_a   4.02318000
_cell_length_b   27.83660000
_cell_length_c   27.85387666
_cell_angle_alpha   60.07428118
_cell_angle_beta   89.73087530
_cell_angle_gamma   89.58690000
_symmetry_Int_Tables_number   1
_chemical_formula_structural   AlH9C27(ClO)6
_chemical_formula_sum   'Al3 H27 C81 Cl18 O18'
_cell_volume   2703.42845128
_cell_formula_units_Z   3
loop_
 _symmetry_equiv_pos_site_id
 _symmetry_equiv_pos_as_xyz
  1  'x, y, z'
loop_
 _atom_site_type_symbol
 _atom_site_label
 _atom_site_symmetry_multiplicity
 _atom_site_fract_x
 _atom_site_fract_y
 _atom_site_fract_z
 _atom_site_occupancy
  Al  Al0  1  0.99992000  0.00008000  0.49991000  1.0
  Al  Al1  1  0.05121000  0.33366000  0.83325000  1.0
  Al  Al2  1  0.93780000  0.66730000  0.16625000  1.0
  H  H3  1  0.48726000  0.00034000  0.92273000  1.0
  H  H4  1  0.50535000  0.91130000  0.83362000  1.0
  H  H5  1  0.47162000  0.08932000  0.74487000  1.0
  H  H6  1  0.27776000  0.07294000  0.91470000  1.0
  H  H7  1  0.74965000  0.14959000  0.75348000  1.0
  H  H8  1  0.69936000  0.92830000  0.98650000  1.0
  H  H9  1  0.23297000  0.85048000  0.90305000  1.0
  H  H10  1  0.25209000  0.92028000  0.76253000  1.0
  H  H11  1  0.72852000  0.08023000  0.68283000  1.0
  H  H12  1  0.48675000  0.42286000  0.07737000  1.0
  H  H13  1  0.47239000  0.24486000  0.16610000  1.0
  H  H14  1  0.50468000  0.33380000  0.25527000  1.0
  H  H15  1  0.70631000  0.48622000  0.08566000  1.0
  H  H16  1  0.23186000  0.40399000  0.24667000  1.0
  H  H17  1  0.27026000  0.41459000  0.01358000  1.0
  H  H18  1  0.75052000  0.25363000  0.09647000  1.0
  H  H19  1  0.73569000  0.18297000  0.23703000  1.0
  H  H20  1  0.24414000  0.26261000  0.31719000  1.0
  H  H21  1  0.51750000  0.57689000  0.49975000  1.0
  H  H22  1  0.53698000  0.75482000  0.41080000  1.0
  H  H23  1  0.50555000  0.66615000  0.58869000  1.0
  H  H24  1  0.30237000  0.51356000  0.57159000  1.0
  H  H25  1  0.77121000  0.59618000  0.65005000  1.0
  H  H26  1  0.72659000  0.58507000  0.42665000  1.0
  H  H27  1  0.24928000  0.74624000  0.35121000  1.0
  H  H28  1  0.27800000  0.81678000  0.41996000  1.0
  H  H29  1  0.76192000  0.73743000  0.57951000  1.0
  C  C30  1  0.50495000  0.92621000  0.49993000  1.0
  C  C31  1  0.49713000  0.00019000  0.57364000  1.0
  C  C32  1  0.49782000  0.07380000  0.42610000  1.0
  C  C33  1  0.55293000  0.26012000  0.83328000  1.0
  C  C34  1  0.54775000  0.33360000  0.90679000  1.0
  C  C35  1  0.55025000  0.40719000  0.75992000  1.0
  C  C36  1  0.43720000  0.74058000  0.09265000  1.0
  C  C37  1  0.44188000  0.59346000  0.16672000  1.0
  C  C38  1  0.43783000  0.66728000  0.23980000  1.0
  C  C39  1  0.48151000  0.94964000  0.88438000  1.0
  C  C40  1  0.48718000  0.00034000  0.88364000  1.0
  C  C41  1  0.49377000  0.05100000  0.83383000  1.0
  C  C42  1  0.48632000  0.05027000  0.78388000  1.0
  C  C43  1  0.48797000  0.00029000  0.78313000  1.0
  C  C44  1  0.48920000  0.95033000  0.83372000  1.0
  C  C45  1  0.41750000  0.15785000  0.87968000  1.0
  C  C46  1  0.39347000  0.10810000  0.87938000  1.0
  C  C47  1  0.50926000  0.10406000  0.83393000  1.0
  C  C48  1  0.64532000  0.15137000  0.78869000  1.0
  C  C49  1  0.65590000  0.20145000  0.78855000  1.0
  C  C50  1  0.54445000  0.20575000  0.83404000  1.0
  C  C51  1  0.58634000  0.89285000  0.98659000  1.0
  C  C52  1  0.56687000  0.84303000  0.03654000  1.0
  C  C53  1  0.44407000  0.79482000  0.03902000  1.0
  C  C54  1  0.33176000  0.79886000  0.98955000  1.0
  C  C55  1  0.33771000  0.84895000  0.93974000  1.0
  C  C56  1  0.46981000  0.89657000  0.93745000  1.0
  C  C57  1  0.36249000  0.95547000  0.72653000  1.0
  C  C58  1  0.36683000  0.95518000  0.67667000  1.0
  C  C59  1  0.49471000  0.00020000  0.62737000  1.0
  C  C60  1  0.62010000  0.04524000  0.63181000  1.0
  C  C61  1  0.61960000  0.04505000  0.68190000  1.0
  C  C62  1  0.48970000  0.00028000  0.73006000  1.0
  C  C63  1  0.49317000  0.33388000  0.11551000  1.0
  C  C64  1  0.48707000  0.38377000  0.11640000  1.0
  C  C65  1  0.48228000  0.38458000  0.16630000  1.0
  C  C66  1  0.48907000  0.33388000  0.21618000  1.0
  C  C67  1  0.48803000  0.28323000  0.21677000  1.0
  C  C68  1  0.48676000  0.28392000  0.16611000  1.0
  C  C69  1  0.57454000  0.53671000  0.12078000  1.0
  C  C70  1  0.59248000  0.48663000  0.12097000  1.0
  C  C71  1  0.47261000  0.43774000  0.16631000  1.0
  C  C72  1  0.33917000  0.44042000  0.21156000  1.0
  C  C73  1  0.33455000  0.49035000  0.21179000  1.0
  C  C74  1  0.44959000  0.53959000  0.16638000  1.0
  C  C75  1  0.38737000  0.37937000  0.01330000  1.0
  C  C76  1  0.40995000  0.37970000  0.96322000  1.0
  C  C77  1  0.53865000  0.33414000  0.96052000  1.0
  C  C78  1  0.65282000  0.28865000  0.00991000  1.0
  C  C79  1  0.64376000  0.28876000  0.05985000  1.0
  C  C80  1  0.50652000  0.33396000  0.06234000  1.0
  C  C81  1  0.62346000  0.18201000  0.27312000  1.0
  C  C82  1  0.62403000  0.13191000  0.32296000  1.0
  C  C83  1  0.49464000  0.12747000  0.37239000  1.0
  C  C84  1  0.36234000  0.17677000  0.36810000  1.0
  C  C85  1  0.35799000  0.22662000  0.31802000  1.0
  C  C86  1  0.48955000  0.23016000  0.26975000  1.0
  C  C87  1  0.51271000  0.66587000  0.44912000  1.0
  C  C88  1  0.51925000  0.61599000  0.49978000  1.0
  C  C89  1  0.52617000  0.61528000  0.55044000  1.0
  C  C90  1  0.52085000  0.66601000  0.54970000  1.0
  C  C91  1  0.52245000  0.71661000  0.49976000  1.0
  C  C92  1  0.52238000  0.71582000  0.44984000  1.0
  C  C93  1  0.42659000  0.46346000  0.65725000  1.0
  C  C94  1  0.41364000  0.51332000  0.60724000  1.0
  C  C95  1  0.53399000  0.56221000  0.60358000  1.0
  C  C96  1  0.66360000  0.55975000  0.65145000  1.0
  C  C97  1  0.66307000  0.51006000  0.70170000  1.0
  C  C98  1  0.54696000  0.46084000  0.70568000  1.0
  C  C99  1  0.60835000  0.62047000  0.39172000  1.0
  C  C100  1  0.58019000  0.62036000  0.34194000  1.0
  C  C101  1  0.44990000  0.66613000  0.29433000  1.0
  C  C102  1  0.33866000  0.71146000  0.29901000  1.0
  C  C103  1  0.35343000  0.71115000  0.34912000  1.0
  C  C104  1  0.49334000  0.66585000  0.39608000  1.0
  C  C105  1  0.38796000  0.81783000  0.45503000  1.0
  C  C106  1  0.38526000  0.86797000  0.45483000  1.0
  C  C107  1  0.51094000  0.87249000  0.49982000  1.0
  C  C108  1  0.64252000  0.82327000  0.54472000  1.0
  C  C109  1  0.64904000  0.77337000  0.54442000  1.0
  C  C110  1  0.52058000  0.76973000  0.49972000  1.0
  Cl  Cl111  1  0.81321000  0.25923000  0.73109000  1.0
  Cl  Cl112  1  0.28349000  0.16021000  0.93747000  1.0
  Cl  Cl113  1  0.70178000  0.84096000  0.09635000  1.0
  Cl  Cl114  1  0.17879000  0.74072000  0.99010000  1.0
  Cl  Cl115  1  0.21772000  0.89569000  0.67960000  1.0
  Cl  Cl116  1  0.77243000  0.10464000  0.57548000  1.0
  Cl  Cl117  1  0.17975000  0.49134000  0.26926000  1.0
  Cl  Cl118  1  0.71314000  0.59621000  0.06312000  1.0
  Cl  Cl119  1  0.27156000  0.43739000  0.90357000  1.0
  Cl  Cl120  1  0.81154000  0.23119000  0.00915000  1.0
  Cl  Cl121  1  0.78171000  0.07557000  0.31989000  1.0
  Cl  Cl122  1  0.20732000  0.17973000  0.42455000  1.0
  Cl  Cl123  1  0.81196000  0.50946000  0.76011000  1.0
  Cl  Cl124  1  0.28668000  0.40390000  0.65933000  1.0
  Cl  Cl125  1  0.71275000  0.56263000  0.33920000  1.0
  Cl  Cl126  1  0.17615000  0.76900000  0.24165000  1.0
  Cl  Cl127  1  0.22970000  0.92421000  0.39552000  1.0
  Cl  Cl128  1  0.79344000  0.82044000  0.60407000  1.0
  O  O129  1  0.26088000  0.06498000  0.45980000  1.0
  O  O130  1  0.26614000  0.95955000  0.47519000  1.0
  O  O131  1  0.26187000  0.97531000  0.56488000  1.0
  O  O132  1  0.73686000  0.04036000  0.43477000  1.0
  O  O133  1  0.73390000  0.02502000  0.54011000  1.0
  O  O134  1  0.73966000  0.93516000  0.52480000  1.0
  O  O135  1  0.31383000  0.39915000  0.79336000  1.0
  O  O136  1  0.31834000  0.29400000  0.80770000  1.0
  O  O137  1  0.31435000  0.30819000  0.89851000  1.0
  O  O138  1  0.78925000  0.37403000  0.76804000  1.0
  O  O139  1  0.78631000  0.35850000  0.87393000  1.0
  O  O140  1  0.79138000  0.26804000  0.85807000  1.0
  O  O141  1  0.19853000  0.64267000  0.23188000  1.0
  O  O142  1  0.19742000  0.73273000  0.12543000  1.0
  O  O143  1  0.20263000  0.62639000  0.14173000  1.0
  O  O144  1  0.67037000  0.69300000  0.20575000  1.0
  O  O145  1  0.67587000  0.60184000  0.19199000  1.0
  O  O146  1  0.67307000  0.70680000  0.10097000  1.0
