# generated using pymatgen
data_Co3H2(C4O5)2
_symmetry_space_group_name_H-M   'P 1'
_cell_length_a   5.42995000
_cell_length_b   7.90803000
_cell_length_c   7.90801000
_cell_angle_alpha   106.14300000
_cell_angle_beta   89.94540000
_cell_angle_gamma   89.94450000
_symmetry_Int_Tables_number   1
_chemical_formula_structural   Co3H2(C4O5)2
_chemical_formula_sum   'Co3 H2 C8 O10'
_cell_volume   326.18212392
_cell_formula_units_Z   1
loop_
 _symmetry_equiv_pos_site_id
 _symmetry_equiv_pos_as_xyz
  1  'x, y, z'
loop_
 _atom_site_type_symbol
 _atom_site_label
 _atom_site_symmetry_multiplicity
 _atom_site_fract_x
 _atom_site_fract_y
 _atom_site_fract_z
 _atom_site_occupancy
  Co  Co0  1  0.50001000  0.99956000  0.00044000  1.0
  Co  Co1  1  0.99999000  0.88278000  0.11724000  1.0
  Co  Co2  1  0.00001000  0.11754000  0.88244000  1.0
  H  H3  1  0.84266000  0.79025000  0.78781000  1.0
  H  H4  1  0.15734000  0.21219000  0.20974000  1.0
  C  C5  1  0.66256000  0.56720000  0.05082000  1.0
  C  C6  1  0.33744000  0.94918000  0.43281000  1.0
  C  C7  1  0.33713000  0.43266000  0.94991000  1.0
  C  C8  1  0.66287000  0.05009000  0.56734000  1.0
  C  C9  1  0.42120000  0.61691000  0.99270000  1.0
  C  C10  1  0.57879000  0.00730000  0.38311000  1.0
  C  C11  1  0.57840000  0.38286000  0.00830000  1.0
  C  C12  1  0.42161000  0.99169000  0.61712000  1.0
  O  O13  1  0.85679000  0.64458000  0.11433000  1.0
  O  O14  1  0.14321000  0.88568000  0.35542000  1.0
  O  O15  1  0.14318000  0.35536000  0.88562000  1.0
  O  O16  1  0.85682000  0.11438000  0.64464000  1.0
  O  O17  1  0.82335000  0.89114000  0.89032000  1.0
  O  O18  1  0.17666000  0.10969000  0.10885000  1.0
  O  O19  1  0.32398000  0.76011000  0.98230000  1.0
  O  O20  1  0.67601000  0.01771000  0.23991000  1.0
  O  O21  1  0.67580000  0.23970000  0.01854000  1.0
  O  O22  1  0.32422000  0.98145000  0.76028000  1.0
