# generated using pymatgen
data_CuH4C4IN2
_symmetry_space_group_name_H-M   'P 1'
_cell_length_a   4.13768000
_cell_length_b   6.87178000
_cell_length_c   11.00500000
_cell_angle_alpha   89.99940000
_cell_angle_beta   99.72980000
_cell_angle_gamma   90.00000000
_symmetry_Int_Tables_number   1
_chemical_formula_structural   CuH4C4IN2
_chemical_formula_sum   'Cu2 H8 C8 I2 N4'
_cell_volume   308.40670281
_cell_formula_units_Z   2
loop_
 _symmetry_equiv_pos_site_id
 _symmetry_equiv_pos_as_xyz
  1  'x, y, z'
loop_
 _atom_site_type_symbol
 _atom_site_label
 _atom_site_symmetry_multiplicity
 _atom_site_fract_x
 _atom_site_fract_y
 _atom_site_fract_z
 _atom_site_occupancy
  Cu  Cu0  1  0.50001000  0.20758000  0.25000000  1.0
  Cu  Cu1  1  0.50000000  0.79243000  0.75000000  1.0
  H  H2  1  0.76022000  0.60168000  0.32877000  1.0
  H  H3  1  0.23980000  0.60168000  0.17123000  1.0
  H  H4  1  0.23979000  0.39831000  0.67124000  1.0
  H  H5  1  0.76019000  0.39831000  0.82876000  1.0
  H  H6  1  0.25603000  0.17696000  0.49368000  1.0
  H  H7  1  0.74397000  0.17696000  0.00632000  1.0
  H  H8  1  0.74398000  0.82303000  0.50632000  1.0
  H  H9  1  0.25601000  0.82303000  0.99367000  1.0
  C  C10  1  0.64258000  0.55442000  0.40522000  1.0
  C  C11  1  0.35743000  0.55443000  0.09477000  1.0
  C  C12  1  0.35744000  0.44557000  0.59477000  1.0
  C  C13  1  0.64255000  0.44557000  0.90523000  1.0
  C  C14  1  0.36730000  0.32120000  0.49629000  1.0
  C  C15  1  0.63270000  0.32121000  0.00371000  1.0
  C  C16  1  0.63273000  0.67881000  0.50371000  1.0
  C  C17  1  0.36727000  0.67881000  0.99628000  1.0
  I  I18  1  0.00001000  0.97477000  0.25001000  1.0
  I  I19  1  0.99999000  0.02524000  0.75000000  1.0
  N  N20  1  0.50958000  0.37408000  0.39946000  1.0
  N  N21  1  0.49043000  0.37408000  0.10054000  1.0
  N  N22  1  0.49043000  0.62592000  0.60054000  1.0
  N  N23  1  0.50956000  0.62592000  0.89946000  1.0
