# generated using pymatgen
data_AgH17C24(NO2)2
_symmetry_space_group_name_H-M   'P 1'
_cell_length_a   10.17270000
_cell_length_b   10.21470000
_cell_length_c   10.71740000
_cell_angle_alpha   62.60310000
_cell_angle_beta   79.66050000
_cell_angle_gamma   79.07990000
_symmetry_Int_Tables_number   1
_chemical_formula_structural   AgH17C24(NO2)2
_chemical_formula_sum   'Ag2 H34 C48 N4 O8'
_cell_volume   965.38718960
_cell_formula_units_Z   2
loop_
 _symmetry_equiv_pos_site_id
 _symmetry_equiv_pos_as_xyz
  1  'x, y, z'
loop_
 _atom_site_type_symbol
 _atom_site_label
 _atom_site_symmetry_multiplicity
 _atom_site_fract_x
 _atom_site_fract_y
 _atom_site_fract_z
 _atom_site_occupancy
  Ag  Ag0  1  0.07561000  0.12428000  0.94258000  1.0
  Ag  Ag1  1  0.92439000  0.87572000  0.05742000  1.0
  H  H2  1  0.62395000  0.00550000  0.04714000  1.0
  H  H3  1  0.37605000  0.99451000  0.95286000  1.0
  H  H4  1  0.39475000  0.94583000  0.17815000  1.0
  H  H5  1  0.60525000  0.05417000  0.82185000  1.0
  H  H6  1  0.38040000  0.74719000  0.42617000  1.0
  H  H7  1  0.61960000  0.25281000  0.57383000  1.0
  H  H8  1  0.81477000  0.69428000  0.39311000  1.0
  H  H9  1  0.18523000  0.30573000  0.60689000  1.0
  H  H10  1  0.39824000  0.67743000  0.64684000  1.0
  H  H11  1  0.60176000  0.32257000  0.35316000  1.0
  H  H12  1  0.39629000  0.49192000  0.89518000  1.0
  H  H13  1  0.60371000  0.50808000  0.10481000  1.0
  H  H14  1  0.59396000  0.29543000  0.97629000  1.0
  H  H15  1  0.40604000  0.70457000  0.02371000  1.0
  H  H16  1  0.78993000  0.47065000  0.55307000  1.0
  H  H17  1  0.21007000  0.52935000  0.44693000  1.0
  H  H18  1  0.22736000  0.33114000  0.98337000  1.0
  H  H19  1  0.77264000  0.66886000  0.01663000  1.0
  H  H20  1  0.34118000  0.35037000  0.16414000  1.0
  H  H21  1  0.65882000  0.64963000  0.83587000  1.0
  H  H22  1  0.32071000  0.15665000  0.41135000  1.0
  H  H23  1  0.67929000  0.84335000  0.58865000  1.0
  H  H24  1  0.07110000  0.95009000  0.28330000  1.0
  H  H25  1  0.92890000  0.04991000  0.71670000  1.0
  H  H26  1  0.24793000  0.03840000  0.60876000  1.0
  H  H27  1  0.75207000  0.96160000  0.39124000  1.0
  H  H28  1  0.21776000  0.84940000  0.85462000  1.0
  H  H29  1  0.78224000  0.15060000  0.14538000  1.0
  H  H30  1  0.11863000  0.61948000  0.91251000  1.0
  H  H31  1  0.88137000  0.38052000  0.08749000  1.0
  H  H32  1  0.09495000  0.76400000  0.47126000  1.0
  H  H33  1  0.90505000  0.23600000  0.52874000  1.0
  H  H34  1  0.97695000  0.42591000  0.66288000  1.0
  H  H35  1  0.02305000  0.57409000  0.33712000  1.0
  C  C36  1  0.71891000  0.74433000  0.34896000  1.0
  C  C37  1  0.28109000  0.25568000  0.65104000  1.0
  C  C38  1  0.59653000  0.70223000  0.43184000  1.0
  C  C39  1  0.40348000  0.29777000  0.56816000  1.0
  C  C40  1  0.59405000  0.58823000  0.58046000  1.0
  C  C41  1  0.40595000  0.41177000  0.41954000  1.0
  C  C42  1  0.70354000  0.47761000  0.62733000  1.0
  C  C43  1  0.29646000  0.52238000  0.37267000  1.0
  C  C44  1  0.70354000  0.37314000  0.76908000  1.0
  C  C45  1  0.29646000  0.62686000  0.23092000  1.0
  C  C46  1  0.82291000  0.25806000  0.81818000  1.0
  C  C47  1  0.17709000  0.74193000  0.18182000  1.0
  C  C48  1  0.61181000  0.91947000  0.15560000  1.0
  C  C49  1  0.38819000  0.08053000  0.84440000  1.0
  C  C50  1  0.48572000  0.88663000  0.22917000  1.0
  C  C51  1  0.51428000  0.11337000  0.77083000  1.0
  C  C52  1  0.47805000  0.77654000  0.36792000  1.0
  C  C53  1  0.52195000  0.22346000  0.63208000  1.0
  C  C54  1  0.48333000  0.59086000  0.67928000  1.0
  C  C55  1  0.51667000  0.40914000  0.32072000  1.0
  C  C56  1  0.48257000  0.48597000  0.82051000  1.0
  C  C57  1  0.51743000  0.51403000  0.17949000  1.0
  C  C58  1  0.59211000  0.37716000  0.86608000  1.0
  C  C59  1  0.40789000  0.62285000  0.13392000  1.0
  C  C60  1  0.22114000  0.24895000  0.09366000  1.0
  C  C61  1  0.77886000  0.75105000  0.90634000  1.0
  C  C62  1  0.28318000  0.25899000  0.19412000  1.0
  C  C63  1  0.71682000  0.74101000  0.80588000  1.0
  C  C64  1  0.26999000  0.15055000  0.33327000  1.0
  C  C65  1  0.73001000  0.84945000  0.66666667  1.0
  C  C66  1  0.19291000  0.03445000  0.37167000  1.0
  C  C67  1  0.80709000  0.96555000  0.62833000  1.0
  C  C68  1  0.13343000  0.03515000  0.26261000  1.0
  C  C69  1  0.86657000  0.96485000  0.73739000  1.0
  C  C70  1  0.17494000  0.91754000  0.51904000  1.0
  C  C71  1  0.82506000  0.08245000  0.48096000  1.0
  C  C72  1  0.20999000  0.93657000  0.63036000  1.0
  C  C73  1  0.79001000  0.06343000  0.36965000  1.0
  C  C74  1  0.19308000  0.82991000  0.77024000  1.0
  C  C75  1  0.80692000  0.17008000  0.22976000  1.0
  C  C76  1  0.13887000  0.70102000  0.80322000  1.0
  C  C77  1  0.86113000  0.29898000  0.19678000  1.0
  C  C78  1  0.10401000  0.67886000  0.69419000  1.0
  C  C79  1  0.89599000  0.32114000  0.30580000  1.0
  C  C80  1  0.12241000  0.78574000  0.55323000  1.0
  C  C81  1  0.87759000  0.21426000  0.44678000  1.0
  C  C82  1  0.04577000  0.53973000  0.73372000  1.0
  C  C83  1  0.95422000  0.46027000  0.26628000  1.0
  N  N84  1  0.72677000  0.84874000  0.21435000  1.0
  N  N85  1  0.27323000  0.15127000  0.78565000  1.0
  N  N86  1  0.14799000  0.13815000  0.12755000  1.0
  N  N87  1  0.85201000  0.86185000  0.87245000  1.0
  O  O88  1  0.81138000  0.15381000  0.94185000  1.0
  O  O89  1  0.18861000  0.84619000  0.05815000  1.0
  O  O90  1  0.93166000  0.27209000  0.73297000  1.0
  O  O91  1  0.06834000  0.72791000  0.26703000  1.0
  O  O92  1  0.02864000  0.44517000  0.85761000  1.0
  O  O93  1  0.97133000  0.55484000  0.14239000  1.0
  O  O94  1  0.01485000  0.52668000  0.62419000  1.0
  O  O95  1  0.98515000  0.47332000  0.37580000  1.0
