# generated using pymatgen
data_CuH12(C2N)10
_symmetry_space_group_name_H-M   'P 1'
_cell_length_a   7.30002000
_cell_length_b   9.81432000
_cell_length_c   14.49090000
_cell_angle_alpha   77.38600000
_cell_angle_beta   89.96670000
_cell_angle_gamma   68.25500000
_symmetry_Int_Tables_number   1
_chemical_formula_structural   CuH12(C2N)10
_chemical_formula_sum   'Cu2 H24 C40 N20'
_cell_volume   937.34290000
_cell_formula_units_Z   2
loop_
 _symmetry_equiv_pos_site_id
 _symmetry_equiv_pos_as_xyz
  1  'x, y, z'
loop_
 _atom_site_type_symbol
 _atom_site_label
 _atom_site_symmetry_multiplicity
 _atom_site_fract_x
 _atom_site_fract_y
 _atom_site_fract_z
 _atom_site_occupancy
  Cu  Cu0  1  0.38839000  0.00013000  0.24998000  1.0
  Cu  Cu1  1  0.61161000  0.99987000  0.75001000  1.0
  H  H2  1  0.54515000  0.68831000  0.38621000  1.0
  H  H3  1  0.76668000  0.68798000  0.88629000  1.0
  H  H4  1  0.45485000  0.31169000  0.61379000  1.0
  H  H5  1  0.23333000  0.31202000  0.11371000  1.0
  H  H6  1  0.68693000  0.42835000  0.49139000  1.0
  H  H7  1  0.88464000  0.42802000  0.99156000  1.0
  H  H8  1  0.31307000  0.57166000  0.50861000  1.0
  H  H9  1  0.11538000  0.57198000  0.00845000  1.0
  H  H10  1  0.79143000  0.20458000  0.42154000  1.0
  H  H11  1  0.00398000  0.20421000  0.92171000  1.0
  H  H12  1  0.20857000  0.79542000  0.57846000  1.0
  H  H13  1  0.99602000  0.79580000  0.07829000  1.0
  H  H14  1  0.76019000  0.23753000  0.24563000  1.0
  H  H15  1  0.00286000  0.23710000  0.74582000  1.0
  H  H16  1  0.23981000  0.76247000  0.75437000  1.0
  H  H17  1  0.99713000  0.76290000  0.25419000  1.0
  H  H18  1  0.53155000  0.64871000  0.99120000  1.0
  H  H19  1  0.82016000  0.64832000  0.49127000  1.0
  H  H20  1  0.46845000  0.35129000  0.00879000  1.0
  H  H21  1  0.17984000  0.35167000  0.50873000  1.0
  H  H22  1  0.43924000  0.87693000  0.06167000  1.0
  H  H23  1  0.68425000  0.87651000  0.56176000  1.0
  H  H24  1  0.56077000  0.12306000  0.93833000  1.0
  H  H25  1  0.31575000  0.12349000  0.43824000  1.0
  C  C26  1  0.57779000  0.60966000  0.25719000  1.0
  C  C27  1  0.81307000  0.60928000  0.75730000  1.0
  C  C28  1  0.42222000  0.39034000  0.74281000  1.0
  C  C29  1  0.18693000  0.39072000  0.24270000  1.0
  C  C30  1  0.59369000  0.58858000  0.35714000  1.0
  C  C31  1  0.81800000  0.58823000  0.85725000  1.0
  C  C32  1  0.40632000  0.41142000  0.64286000  1.0
  C  C33  1  0.18200000  0.41177000  0.14276000  1.0
  C  C34  1  0.67003000  0.44480000  0.41453000  1.0
  C  C35  1  0.88537000  0.44443000  0.91469000  1.0
  C  C36  1  0.32997000  0.55520000  0.58547000  1.0
  C  C37  1  0.11464000  0.55558000  0.08531000  1.0
  C  C38  1  0.73095000  0.31709000  0.37475000  1.0
  C  C39  1  0.95227000  0.31670000  0.87493000  1.0
  C  C40  1  0.26904000  0.68292000  0.62525000  1.0
  C  C41  1  0.04772000  0.68330000  0.12508000  1.0
  C  C42  1  0.71530000  0.33409000  0.27780000  1.0
  C  C43  1  0.95131000  0.33369000  0.77797000  1.0
  C  C44  1  0.28470000  0.66591000  0.72221000  1.0
  C  C45  1  0.04869000  0.66630000  0.22204000  1.0
  C  C46  1  0.63848000  0.48019000  0.21669000  1.0
  C  C47  1  0.88209000  0.47979000  0.71681000  1.0
  C  C48  1  0.36153000  0.51982000  0.78332000  1.0
  C  C49  1  0.11791000  0.52021000  0.28320000  1.0
  C  C50  1  0.54974000  0.63503000  0.06793000  1.0
  C  C51  1  0.81575000  0.63465000  0.56801000  1.0
  C  C52  1  0.45025000  0.36496000  0.93207000  1.0
  C  C53  1  0.18425000  0.36535000  0.43199000  1.0
  C  C54  1  0.49494000  0.76318000  0.10744000  1.0
  C  C55  1  0.74242000  0.76277000  0.60753000  1.0
  C  C56  1  0.50506000  0.23682000  0.89256000  1.0
  C  C57  1  0.25758000  0.23723000  0.39247000  1.0
  C  C58  1  0.69869000  0.06859000  0.12517000  1.0
  C  C59  1  0.23351000  0.06823000  0.62505000  1.0
  C  C60  1  0.30131000  0.93141000  0.87482000  1.0
  C  C61  1  0.76647000  0.93177000  0.37494000  1.0
  C  C62  1  0.01100000  0.07071000  0.12413000  1.0
  C  C63  1  0.91906000  0.07044000  0.62431000  1.0
  C  C64  1  0.98900000  0.92929000  0.87587000  1.0
  C  C65  1  0.08094000  0.92957000  0.37569000  1.0
  N  N66  1  0.50736000  0.75195000  0.19988000  1.0
  N  N67  1  0.74118000  0.75154000  0.69998000  1.0
  N  N68  1  0.49264000  0.24805000  0.80011000  1.0
  N  N69  1  0.25882000  0.24845000  0.30002000  1.0
  N  N70  1  0.62221000  0.49556000  0.12083000  1.0
  N  N71  1  0.88291000  0.49518000  0.62094000  1.0
  N  N72  1  0.37780000  0.50443000  0.87917000  1.0
  N  N73  1  0.11708000  0.50482000  0.37907000  1.0
  N  N74  1  0.54713000  0.07101000  0.15436000  1.0
  N  N75  1  0.38277000  0.07050000  0.65415000  1.0
  N  N76  1  0.45287000  0.92899000  0.84563000  1.0
  N  N77  1  0.61723000  0.92950000  0.34584000  1.0
  N  N78  1  0.85532000  0.06791000  0.08371000  1.0
  N  N79  1  0.07748000  0.06755000  0.58373000  1.0
  N  N80  1  0.14468000  0.93209000  0.91628000  1.0
  N  N81  1  0.92251000  0.93246000  0.41626000  1.0
  N  N82  1  0.15870000  0.07440000  0.15388000  1.0
  N  N83  1  0.76757000  0.07432000  0.65412000  1.0
  N  N84  1  0.84128000  0.92559000  0.84612000  1.0
  N  N85  1  0.23243000  0.92568000  0.34588000  1.0
