# generated using pymatgen
data_Mn3CrH21C15(N2O)6
_symmetry_space_group_name_H-M   'P 1'
_cell_length_a   7.74698000
_cell_length_b   13.17380000
_cell_length_c   13.17611408
_cell_angle_alpha   60.04541464
_cell_angle_beta   90.02460466
_cell_angle_gamma   90.01300000
_symmetry_Int_Tables_number   1
_chemical_formula_structural   Mn3CrH21C15(N2O)6
_chemical_formula_sum   'Mn6 Cr2 H42 C30 N24 O12'
_cell_volume   1165.09141441
_cell_formula_units_Z   2
loop_
 _symmetry_equiv_pos_site_id
 _symmetry_equiv_pos_as_xyz
  1  'x, y, z'
loop_
 _atom_site_type_symbol
 _atom_site_label
 _atom_site_symmetry_multiplicity
 _atom_site_fract_x
 _atom_site_fract_y
 _atom_site_fract_z
 _atom_site_occupancy
  Mn  Mn0  1  0.55520000  0.30945000  0.03336000  1.0
  Mn  Mn1  1  0.55458000  0.65776000  0.30900000  1.0
  Mn  Mn2  1  0.55412000  0.03364000  0.65740000  1.0
  Mn  Mn3  1  0.05551000  0.69075000  0.96727000  1.0
  Mn  Mn4  1  0.05563000  0.34234000  0.69086000  1.0
  Mn  Mn5  1  0.05353000  0.96631000  0.34211000  1.0
  Cr  Cr6  1  0.92209000  0.33324000  0.33361000  1.0
  Cr  Cr7  1  0.42525000  0.66696000  0.66704000  1.0
  H  H8  1  0.91588000  0.40534000  0.85219000  1.0
  H  H9  1  0.93717000  0.26420000  0.91541000  1.0
  H  H10  1  0.21160000  0.43945000  0.85150000  1.0
  H  H11  1  0.30221000  0.35378000  0.14433000  1.0
  H  H12  1  0.30017000  0.46288000  0.00992000  1.0
  H  H13  1  0.03705000  0.36164000  0.04428000  1.0
  H  H14  1  0.15064000  0.22874000  0.09417000  1.0
  H  H15  1  0.91506000  0.74171000  0.40605000  1.0
  H  H16  1  0.93453000  0.81873000  0.26478000  1.0
  H  H17  1  0.21036000  0.70880000  0.43907000  1.0
  H  H18  1  0.30110000  0.50232000  0.35255000  1.0
  H  H19  1  0.29876000  0.52737000  0.46194000  1.0
  H  H20  1  0.03583000  0.59438000  0.36002000  1.0
  H  H21  1  0.15026000  0.67774000  0.22765000  1.0
  H  H22  1  0.91486000  0.85159000  0.74255000  1.0
  H  H23  1  0.93470000  0.91553000  0.81993000  1.0
  H  H24  1  0.21005000  0.85200000  0.70903000  1.0
  H  H25  1  0.29860000  0.14487000  0.50225000  1.0
  H  H26  1  0.29711000  0.01042000  0.52760000  1.0
  H  H27  1  0.03425000  0.04481000  0.59525000  1.0
  H  H28  1  0.14904000  0.09423000  0.67829000  1.0
  H  H29  1  0.41483000  0.59389000  0.14754000  1.0
  H  H30  1  0.43454000  0.73522000  0.08345000  1.0
  H  H31  1  0.70977000  0.56055000  0.14781000  1.0
  H  H32  1  0.80126000  0.64677000  0.85527000  1.0
  H  H33  1  0.79880000  0.53780000  0.98962000  1.0
  H  H34  1  0.53620000  0.64028000  0.95405000  1.0
  H  H35  1  0.65129000  0.77239000  0.90566000  1.0
  H  H36  1  0.41560000  0.25799000  0.59350000  1.0
  H  H37  1  0.43473000  0.18086000  0.73487000  1.0
  H  H38  1  0.71050000  0.29156000  0.56082000  1.0
  H  H39  1  0.80009000  0.49764000  0.64792000  1.0
  H  H40  1  0.79756000  0.47290000  0.53842000  1.0
  H  H41  1  0.53557000  0.40479000  0.64119000  1.0
  H  H42  1  0.65125000  0.32130000  0.77303000  1.0
  H  H43  1  0.41378000  0.14824000  0.25799000  1.0
  H  H44  1  0.43286000  0.08433000  0.18049000  1.0
  H  H45  1  0.70847000  0.14753000  0.29161000  1.0
  H  H46  1  0.79850000  0.85466000  0.49703000  1.0
  H  H47  1  0.79621000  0.98894000  0.47224000  1.0
  H  H48  1  0.53386000  0.95380000  0.40434000  1.0
  H  H49  1  0.64965000  0.90590000  0.32044000  1.0
  C  C50  1  0.56141000  0.53473000  0.78991000  1.0
  C  C51  1  0.77099000  0.35446000  0.20505000  1.0
  C  C52  1  0.29555000  0.27369000  0.88534000  1.0
  C  C53  1  0.16496000  0.34888000  0.90590000  1.0
  C  C54  1  0.15630000  0.32323000  0.03249000  1.0
  C  C55  1  0.56073000  0.67628000  0.53458000  1.0
  C  C56  1  0.77127000  0.44097000  0.35468000  1.0
  C  C57  1  0.29379000  0.84104000  0.27345000  1.0
  C  C58  1  0.16353000  0.74510000  0.34852000  1.0
  C  C59  1  0.15528000  0.64453000  0.32223000  1.0
  C  C60  1  0.55983000  0.79067000  0.67574000  1.0
  C  C61  1  0.77077000  0.20474000  0.44096000  1.0
  C  C62  1  0.29392000  0.88569000  0.84114000  1.0
  C  C63  1  0.16317000  0.90611000  0.74553000  1.0
  C  C64  1  0.15406000  0.03286000  0.64501000  1.0
  C  C65  1  0.05825000  0.46514000  0.21055000  1.0
  C  C66  1  0.27441000  0.64587000  0.79595000  1.0
  C  C67  1  0.79405000  0.72580000  0.11514000  1.0
  C  C68  1  0.66342000  0.65122000  0.09373000  1.0
  C  C69  1  0.65577000  0.67774000  0.96682000  1.0
  C  C70  1  0.05805000  0.32392000  0.46592000  1.0
  C  C71  1  0.27500000  0.55862000  0.64614000  1.0
  C  C72  1  0.79444000  0.15901000  0.72616000  1.0
  C  C73  1  0.66385000  0.25481000  0.65144000  1.0
  C  C74  1  0.65549000  0.35498000  0.67834000  1.0
  C  C75  1  0.05687000  0.20994000  0.32412000  1.0
  C  C76  1  0.27301000  0.79522000  0.55910000  1.0
  C  C77  1  0.79299000  0.11508000  0.15893000  1.0
  C  C78  1  0.66195000  0.09376000  0.25462000  1.0
  C  C79  1  0.65373000  0.96671000  0.35444000  1.0
  N  N80  1  0.99780000  0.34151000  0.85791000  1.0
  N  N81  1  0.30891000  0.37307000  0.05898000  1.0
  N  N82  1  0.63362000  0.45391000  0.86860000  1.0
  N  N83  1  0.68041000  0.37675000  0.12340000  1.0
  N  N84  1  0.99607000  0.79988000  0.34161000  1.0
  N  N85  1  0.30777000  0.56820000  0.37217000  1.0
  N  N86  1  0.63233000  0.67825000  0.45365000  1.0
  N  N87  1  0.68077000  0.50065000  0.37655000  1.0
  N  N88  1  0.99613000  0.85777000  0.80072000  1.0
  N  N89  1  0.30610000  0.05956000  0.56827000  1.0
  N  N90  1  0.63158000  0.86966000  0.67775000  1.0
  N  N91  1  0.68005000  0.12325000  0.50017000  1.0
  N  N92  1  0.49588000  0.65832000  0.14140000  1.0
  N  N93  1  0.80820000  0.62755000  0.94060000  1.0
  N  N94  1  0.13086000  0.54578000  0.13194000  1.0
  N  N95  1  0.18447000  0.62383000  0.87773000  1.0
  N  N96  1  0.49650000  0.19988000  0.65808000  1.0
  N  N97  1  0.80745000  0.43188000  0.62815000  1.0
  N  N98  1  0.13076000  0.32196000  0.54658000  1.0
  N  N99  1  0.18560000  0.49861000  0.62405000  1.0
  N  N100  1  0.49466000  0.14201000  0.19971000  1.0
  N  N101  1  0.80576000  0.94010000  0.43128000  1.0
  N  N102  1  0.12855000  0.13109000  0.32190000  1.0
  N  N103  1  0.18201000  0.87630000  0.49928000  1.0
  O  O104  1  0.43384000  0.24073000  0.94506000  1.0
  O  O105  1  0.26333000  0.24937000  0.80532000  1.0
  O  O106  1  0.43214000  0.81465000  0.24028000  1.0
  O  O107  1  0.26113000  0.94526000  0.24942000  1.0
  O  O108  1  0.43185000  0.94570000  0.81447000  1.0
  O  O109  1  0.26210000  0.80543000  0.94542000  1.0
  O  O110  1  0.93227000  0.75927000  0.05560000  1.0
  O  O111  1  0.76195000  0.74913000  0.19594000  1.0
  O  O112  1  0.93238000  0.18541000  0.75981000  1.0
  O  O113  1  0.76248000  0.05492000  0.74946000  1.0
  O  O114  1  0.92997000  0.05431000  0.18497000  1.0
  O  O115  1  0.76240000  0.19699000  0.05509000  1.0
