# generated using pymatgen
data_FeH16(C12N5)2
_symmetry_space_group_name_H-M   'P 1'
_cell_length_a   8.90907000
_cell_length_b   16.23100000
_cell_length_c   16.23410000
_cell_angle_alpha   116.73200000
_cell_angle_beta   100.53500000
_cell_angle_gamma   100.54100000
_symmetry_Int_Tables_number   1
_chemical_formula_structural   FeH16(C12N5)2
_chemical_formula_sum   'Fe3 H48 C72 N30'
_cell_volume   1965.01044420
_cell_formula_units_Z   3
loop_
 _symmetry_equiv_pos_site_id
 _symmetry_equiv_pos_as_xyz
  1  'x, y, z'
loop_
 _atom_site_type_symbol
 _atom_site_label
 _atom_site_symmetry_multiplicity
 _atom_site_fract_x
 _atom_site_fract_y
 _atom_site_fract_z
 _atom_site_occupancy
  Fe  Fe0  1  0.00000000  0.50000000  0.50000000  1.0
  Fe  Fe1  1  0.50000000  0.00000000  0.50000000  1.0
  Fe  Fe2  1  0.50000000  0.50000000  0.00000000  1.0
  H  H3  1  0.42015000  0.31435000  0.33901000  1.0
  H  H4  1  0.10596000  0.02468000  0.68581000  1.0
  H  H5  1  0.08109000  0.66099000  0.97527000  1.0
  H  H6  1  0.57985000  0.68565000  0.66099000  1.0
  H  H7  1  0.89404000  0.97532000  0.31419000  1.0
  H  H8  1  0.91891000  0.33901000  0.02473000  1.0
  H  H9  1  0.41974000  0.25817000  0.16580000  1.0
  H  H10  1  0.16163000  0.90755000  0.74183000  1.0
  H  H11  1  0.25372000  0.83421000  0.09235000  1.0
  H  H12  1  0.58026000  0.74183000  0.83420000  1.0
  H  H13  1  0.83837000  0.09245000  0.25817000  1.0
  H  H14  1  0.74628000  0.16579000  0.90765000  1.0
  H  H15  1  0.68014000  0.31064000  0.13685000  1.0
  H  H16  1  0.36959000  0.82613000  0.68939000  1.0
  H  H17  1  0.54309000  0.86325000  0.17377000  1.0
  H  H18  1  0.31986000  0.68936000  0.86315000  1.0
  H  H19  1  0.63041000  0.17386000  0.31061000  1.0
  H  H20  1  0.45692000  0.13675000  0.82623000  1.0
  H  H21  1  0.92730000  0.41199000  0.27849000  1.0
  H  H22  1  0.51535000  0.86645000  0.58796000  1.0
  H  H23  1  0.64868000  0.72159000  0.13357000  1.0
  H  H24  1  0.07270000  0.58801000  0.72151000  1.0
  H  H25  1  0.48465000  0.13354000  0.41204000  1.0
  H  H26  1  0.35132000  0.27841000  0.86643000  1.0
  H  H27  1  0.40397000  0.36766000  0.63919000  1.0
  H  H28  1  0.03607000  0.27153000  0.63233000  1.0
  H  H29  1  0.76474000  0.36081000  0.72855000  1.0
  H  H30  1  0.59603000  0.63234000  0.36081000  1.0
  H  H31  1  0.96393000  0.72847000  0.36767000  1.0
  H  H32  1  0.23526000  0.63919000  0.27145000  1.0
  H  H33  1  0.34321000  0.37832000  0.78631000  1.0
  H  H34  1  0.96485000  0.40805000  0.62166000  1.0
  H  H35  1  0.55699000  0.21368000  0.59203000  1.0
  H  H36  1  0.65679000  0.62168000  0.21369000  1.0
  H  H37  1  0.03515000  0.59195000  0.37834000  1.0
  H  H38  1  0.44301000  0.78632000  0.40797000  1.0
  H  H39  1  0.73156000  0.62515000  0.96617000  1.0
  H  H40  1  0.10626000  0.34095000  0.37478000  1.0
  H  H41  1  0.76537000  0.03372000  0.65893000  1.0
  H  H42  1  0.26844000  0.37485000  0.03383000  1.0
  H  H43  1  0.89373000  0.65905000  0.62522000  1.0
  H  H44  1  0.23463000  0.96628000  0.34107000  1.0
  H  H45  1  0.81516000  0.61863000  0.82603000  1.0
  H  H46  1  0.19654000  0.20739000  0.38144000  1.0
  H  H47  1  0.98908000  0.17389000  0.79260000  1.0
  H  H48  1  0.18484000  0.38137000  0.17397000  1.0
  H  H49  1  0.80346000  0.79261000  0.61856000  1.0
  H  H50  1  0.01092000  0.82611000  0.20740000  1.0
  C  C51  1  0.68612000  0.42946000  0.49708000  1.0
  C  C52  1  0.25689000  0.06780000  0.57073000  1.0
  C  C53  1  0.18911000  0.50291000  0.93226000  1.0
  C  C54  1  0.31388000  0.57054000  0.50292000  1.0
  C  C55  1  0.74310000  0.93220000  0.42927000  1.0
  C  C56  1  0.81089000  0.49709000  0.06774000  1.0
  C  C57  1  0.66984000  0.47946000  0.63738000  1.0
  C  C58  1  0.19059000  0.15809000  0.52072000  1.0
  C  C59  1  0.03254000  0.36258000  0.84204000  1.0
  C  C60  1  0.33016000  0.52054000  0.36262000  1.0
  C  C61  1  0.80941000  0.84191000  0.47928000  1.0
  C  C62  1  0.96746000  0.63742000  0.15796000  1.0
  C  C63  1  0.67106000  0.38998000  0.39593000  1.0
  C  C64  1  0.28124000  0.00605000  0.61016000  1.0
  C  C65  1  0.27513000  0.60406000  0.99391000  1.0
  C  C66  1  0.32894000  0.61002000  0.60407000  1.0
  C  C67  1  0.71876000  0.99394000  0.38984000  1.0
  C  C68  1  0.72487000  0.39594000  0.00609000  1.0
  C  C69  1  0.52858000  0.33237000  0.32069000  1.0
  C  C70  1  0.19639000  0.98836000  0.66776000  1.0
  C  C71  1  0.20784000  0.67933000  0.01161000  1.0
  C  C72  1  0.47142000  0.66763000  0.67931000  1.0
  C  C73  1  0.80361000  0.01163000  0.33224000  1.0
  C  C74  1  0.79216000  0.32067000  0.98839000  1.0
  C  C75  1  0.52960000  0.30225000  0.22590000  1.0
  C  C76  1  0.22749000  0.92362000  0.69780000  1.0
  C  C77  1  0.30357000  0.77413000  0.07635000  1.0
  C  C78  1  0.47040000  0.69775000  0.77410000  1.0
  C  C79  1  0.77250000  0.07637000  0.30220000  1.0
  C  C80  1  0.69644000  0.22587000  0.92365000  1.0
  C  C81  1  0.67362000  0.33116000  0.20960000  1.0
  C  C82  1  0.34259000  0.87839000  0.66889000  1.0
  C  C83  1  0.46389000  0.79049000  0.12159000  1.0
  C  C84  1  0.32638000  0.66884000  0.79040000  1.0
  C  C85  1  0.65741000  0.12161000  0.33111000  1.0
  C  C86  1  0.53611000  0.20951000  0.87841000  1.0
  C  C87  1  0.81198000  0.38844000  0.28800000  1.0
  C  C88  1  0.42360000  0.89952000  0.61158000  1.0
  C  C89  1  0.52388000  0.71206000  0.10047000  1.0
  C  C90  1  0.18802000  0.61156000  0.71200000  1.0
  C  C91  1  0.57640000  0.10048000  0.38842000  1.0
  C  C92  1  0.47612000  0.28794000  0.89953000  1.0
  C  C93  1  0.61740000  0.49112000  0.72024000  1.0
  C  C94  1  0.12622000  0.22916000  0.50894000  1.0
  C  C95  1  0.89710000  0.27970000  0.77092000  1.0
  C  C96  1  0.38260000  0.50888000  0.27976000  1.0
  C  C97  1  0.87378000  0.77084000  0.49106000  1.0
  C  C98  1  0.10290000  0.72030000  0.22908000  1.0
  C  C99  1  0.47978000  0.42545000  0.71064000  1.0
  C  C100  1  0.05411000  0.28516000  0.57452000  1.0
  C  C101  1  0.76912000  0.28935000  0.71490000  1.0
  C  C102  1  0.52022000  0.57455000  0.28936000  1.0
  C  C103  1  0.94589000  0.71484000  0.42548000  1.0
  C  C104  1  0.23088000  0.71065000  0.28510000  1.0
  C  C105  1  0.44517000  0.43162000  0.79260000  1.0
  C  C106  1  0.01341000  0.36098000  0.56834000  1.0
  C  C107  1  0.65258000  0.20737000  0.63906000  1.0
  C  C108  1  0.55483000  0.56838000  0.20740000  1.0
  C  C109  1  0.98659000  0.63902000  0.43166000  1.0
  C  C110  1  0.34742000  0.79263000  0.36094000  1.0
  C  C111  1  0.66291000  0.56857000  0.89268000  1.0
  C  C112  1  0.09421000  0.32406000  0.43138000  1.0
  C  C113  1  0.77021000  0.10723000  0.67588000  1.0
  C  C114  1  0.33709000  0.43143000  0.10732000  1.0
  C  C115  1  0.90579000  0.67594000  0.56862000  1.0
  C  C116  1  0.22979000  0.89277000  0.32412000  1.0
  C  C117  1  0.70788000  0.56519000  0.81443000  1.0
  C  C118  1  0.14263000  0.24924000  0.43483000  1.0
  C  C119  1  0.89339000  0.18550000  0.75079000  1.0
  C  C120  1  0.29212000  0.43481000  0.18557000  1.0
  C  C121  1  0.85737000  0.75076000  0.56517000  1.0
  C  C122  1  0.10661000  0.81450000  0.24921000  1.0
  N  N123  1  0.83287000  0.49085000  0.55851000  1.0
  N  N124  1  0.34215000  0.06777000  0.50927000  1.0
  N  N125  1  0.27438000  0.44143000  0.93226000  1.0
  N  N126  1  0.16713000  0.50915000  0.44149000  1.0
  N  N127  1  0.65785000  0.93223000  0.49073000  1.0
  N  N128  1  0.72562000  0.55857000  0.06774000  1.0
  N  N129  1  0.82326000  0.52453000  0.64905000  1.0
  N  N130  1  0.29884000  0.12463000  0.47559000  1.0
  N  N131  1  0.17426000  0.35090000  0.87546000  1.0
  N  N132  1  0.17674000  0.47547000  0.35095000  1.0
  N  N133  1  0.70116000  0.87537000  0.52442000  1.0
  N  N134  1  0.82574000  0.64910000  0.12454000  1.0
  N  N135  1  0.58006000  0.41924000  0.54346000  1.0
  N  N136  1  0.16111000  0.12443000  0.58099000  1.0
  N  N137  1  0.03665000  0.45647000  0.87564000  1.0
  N  N138  1  0.41994000  0.58076000  0.45654000  1.0
  N  N139  1  0.83889000  0.87557000  0.41902000  1.0
  N  N140  1  0.96335000  0.54353000  0.12436000  1.0
  N  N141  1  0.81314000  0.41770000  0.38024000  1.0
  N  N142  1  0.39550000  0.96256000  0.58236000  1.0
  N  N143  1  0.43290000  0.61981000  0.03743000  1.0
  N  N144  1  0.18686000  0.58230000  0.61976000  1.0
  N  N145  1  0.60450000  0.03744000  0.41764000  1.0
  N  N146  1  0.56710000  0.38019000  0.96257000  1.0
  N  N147  1  0.53619000  0.50106000  0.88357000  1.0
  N  N148  1  0.03502000  0.38248000  0.49889000  1.0
  N  N149  1  0.65265000  0.11639000  0.61750000  1.0
  N  N150  1  0.46381000  0.49894000  0.11643000  1.0
  N  N151  1  0.96498000  0.61751000  0.50111000  1.0
  N  N152  1  0.34735000  0.88361000  0.38250000  1.0
