# generated using pymatgen
data_H16PbC16O7
_symmetry_space_group_name_H-M   'P 1'
_cell_length_a   7.26894000
_cell_length_b   10.54990000
_cell_length_c   11.26630000
_cell_angle_alpha   109.68800000
_cell_angle_beta   91.41920000
_cell_angle_gamma   102.89000000
_symmetry_Int_Tables_number   1
_chemical_formula_structural   H16PbC16O7
_chemical_formula_sum   'H32 Pb2 C32 O14'
_cell_volume   788.25452002
_cell_formula_units_Z   2
loop_
 _symmetry_equiv_pos_site_id
 _symmetry_equiv_pos_as_xyz
  1  'x, y, z'
loop_
 _atom_site_type_symbol
 _atom_site_label
 _atom_site_symmetry_multiplicity
 _atom_site_fract_x
 _atom_site_fract_y
 _atom_site_fract_z
 _atom_site_occupancy
  H  H0  1  0.76979000  0.66158000  0.10647000  1.0
  H  H1  1  0.23021000  0.33843000  0.89353000  1.0
  H  H2  1  0.37293000  0.57723000  0.98044000  1.0
  H  H3  1  0.62707000  0.42278000  0.01957000  1.0
  H  H4  1  0.82191000  0.54504000  0.72844000  1.0
  H  H5  1  0.17809000  0.45495000  0.27155000  1.0
  H  H6  1  0.91251000  0.52972000  0.86859000  1.0
  H  H7  1  0.08749000  0.47026000  0.13141000  1.0
  H  H8  1  0.02064000  0.59992000  0.57925000  1.0
  H  H9  1  0.97938000  0.40007000  0.42075000  1.0
  H  H10  1  0.34175000  0.66553000  0.51255000  1.0
  H  H11  1  0.65827000  0.33448000  0.48746000  1.0
  H  H12  1  0.62539000  0.66587000  0.63733000  1.0
  H  H13  1  0.37461000  0.33414000  0.36269000  1.0
  H  H14  1  0.58855000  0.60620000  0.83555000  1.0
  H  H15  1  0.41146000  0.39381000  0.16446000  1.0
  H  H16  1  0.63830000  0.97439000  0.15720000  1.0
  H  H17  1  0.36169000  0.02559000  0.84279000  1.0
  H  H18  1  0.78758000  0.14423000  0.21245000  1.0
  H  H19  1  0.21242000  0.85576000  0.78756000  1.0
  H  H20  1  0.07011000  0.67706000  0.03678000  1.0
  H  H21  1  0.92988000  0.32295000  0.96322000  1.0
  H  H22  1  0.37421000  0.83739000  0.03461000  1.0
  H  H23  1  0.62579000  0.16260000  0.96540000  1.0
  H  H24  1  0.40286000  0.09437000  0.11085000  1.0
  H  H25  1  0.59715000  0.90563000  0.88916000  1.0
  H  H26  1  0.12191000  0.18402000  0.18617000  1.0
  H  H27  1  0.87809000  0.81598000  0.81383000  1.0
  H  H28  1  0.79000000  0.73786000  0.39200000  1.0
  H  H29  1  0.21001000  0.26214000  0.60800000  1.0
  H  H30  1  0.57049000  0.73562000  0.37694000  1.0
  H  H31  1  0.42951000  0.26438000  0.62305000  1.0
  Pb  Pb32  1  0.76074000  0.02239000  0.60701000  1.0
  Pb  Pb33  1  0.23926000  0.97763000  0.39296000  1.0
  C  C34  1  0.85464000  0.34269000  0.70883000  1.0
  C  C35  1  0.14537000  0.65731000  0.29117000  1.0
  C  C36  1  0.92382000  0.50180000  0.76624000  1.0
  C  C37  1  0.07619000  0.49820000  0.23376000  1.0
  C  C38  1  0.12040000  0.55701000  0.73901000  1.0
  C  C39  1  0.87960000  0.44298000  0.26099000  1.0
  C  C40  1  0.14612000  0.59786000  0.63308000  1.0
  C  C41  1  0.85389000  0.40213000  0.36692000  1.0
  C  C42  1  0.32534000  0.63543000  0.59573000  1.0
  C  C43  1  0.67466000  0.36456000  0.40427000  1.0
  C  C44  1  0.48563000  0.63739000  0.66761000  1.0
  C  C45  1  0.51437000  0.36261000  0.33240000  1.0
  C  C46  1  0.46506000  0.60356000  0.77688000  1.0
  C  C47  1  0.53495000  0.39645000  0.22313000  1.0
  C  C48  1  0.28409000  0.56280000  0.81098000  1.0
  C  C49  1  0.71591000  0.43720000  0.18903000  1.0
  C  C50  1  0.76527000  0.04316000  0.34742000  1.0
  C  C51  1  0.23471000  0.95683000  0.65257000  1.0
  C  C52  1  0.77468000  0.03782000  0.21096000  1.0
  C  C53  1  0.22531000  0.96217000  0.78903000  1.0
  C  C54  1  0.93804000  0.98349000  0.15399000  1.0
  C  C55  1  0.06196000  0.01651000  0.84601000  1.0
  C  C56  1  0.92383000  0.83943000  0.10999000  1.0
  C  C57  1  0.07616000  0.16057000  0.89000000  1.0
  C  C58  1  0.08108000  0.78823000  0.06725000  1.0
  C  C59  1  0.91891000  0.21177000  0.93275000  1.0
  C  C60  1  0.25274000  0.87922000  0.06693000  1.0
  C  C61  1  0.74726000  0.12078000  0.93307000  1.0
  C  C62  1  0.26897000  0.02220000  0.10912000  1.0
  C  C63  1  0.73103000  0.97780000  0.89088000  1.0
  C  C64  1  0.11123000  0.07255000  0.15220000  1.0
  C  C65  1  0.88877000  0.92745000  0.84781000  1.0
  O  O66  1  0.67928000  0.28836000  0.70472000  1.0
  O  O67  1  0.32072000  0.71165000  0.29528000  1.0
  O  O68  1  0.97827000  0.27306000  0.67118000  1.0
  O  O69  1  0.02174000  0.72694000  0.32883000  1.0
  O  O70  1  0.75316000  0.75393000  0.11237000  1.0
  O  O71  1  0.24683000  0.24607000  0.88762000  1.0
  O  O72  1  0.26226000  0.52420000  0.91855000  1.0
  O  O73  1  0.73775000  0.47581000  0.08146000  1.0
  O  O74  1  0.91351000  0.04260000  0.41017000  1.0
  O  O75  1  0.08647000  0.95741000  0.58982000  1.0
  O  O76  1  0.61289000  0.05132000  0.39876000  1.0
  O  O77  1  0.38708000  0.94866000  0.60122000  1.0
  O  O78  1  0.68205000  0.76086000  0.43913000  1.0
  O  O79  1  0.31795000  0.23914000  0.56087000  1.0
