# generated using pymatgen
data_ZnH9C16NO4F
_symmetry_space_group_name_H-M   'P 1'
_cell_length_a   10.90730000
_cell_length_b   10.99010000
_cell_length_c   18.39110000
_cell_angle_alpha   87.21810000
_cell_angle_beta   85.06150000
_cell_angle_gamma   69.77610000
_symmetry_Int_Tables_number   1
_chemical_formula_structural   ZnH9C16NO4F
_chemical_formula_sum   'Zn4 H36 C64 N4 O16 F4'
_cell_volume   2060.57353413
_cell_formula_units_Z   4
loop_
 _symmetry_equiv_pos_site_id
 _symmetry_equiv_pos_as_xyz
  1  'x, y, z'
loop_
 _atom_site_type_symbol
 _atom_site_label
 _atom_site_symmetry_multiplicity
 _atom_site_fract_x
 _atom_site_fract_y
 _atom_site_fract_z
 _atom_site_occupancy
  Zn  Zn0  1  0.34158000  0.24225000  0.57808000  1.0
  Zn  Zn1  1  0.32001000  0.23722000  0.73584000  1.0
  Zn  Zn2  1  0.65842000  0.75775000  0.42192000  1.0
  Zn  Zn3  1  0.67998000  0.76278000  0.26416000  1.0
  H  H4  1  0.75287000  0.21089000  0.54405000  1.0
  H  H5  1  0.96563000  0.24966000  0.54853000  1.0
  H  H6  1  0.91761000  0.24986000  0.78241000  1.0
  H  H7  1  0.70249000  0.21498000  0.77803000  1.0
  H  H8  1  0.35743000  0.62673000  0.53710000  1.0
  H  H9  1  0.37050000  0.84876000  0.53748000  1.0
  H  H10  1  0.31822000  0.84807000  0.77172000  1.0
  H  H11  1  0.30375000  0.62448000  0.77097000  1.0
  H  H12  1  0.35022000  0.05837000  0.46244000  1.0
  H  H13  1  0.33714000  0.06361000  0.32769000  1.0
  H  H14  1  0.30218000  0.46846000  0.32814000  1.0
  H  H15  1  0.31468000  0.44578000  0.46293000  1.0
  H  H16  1  0.46140000  0.07695000  0.22306000  1.0
  H  H17  1  0.45561000  0.07491000  0.08956000  1.0
  H  H18  1  0.52150000  0.15808000  0.98298000  1.0
  H  H19  1  0.51536000  0.14792000  0.84762000  1.0
  H  H20  1  0.11649000  0.34576000  0.85706000  1.0
  H  H21  1  0.10402000  0.36765000  0.99230000  1.0
  H  H22  1  0.24713000  0.78911000  0.45595000  1.0
  H  H23  1  0.03437000  0.75034000  0.45147000  1.0
  H  H24  1  0.08239000  0.75014000  0.21759000  1.0
  H  H25  1  0.29750000  0.78502000  0.22197000  1.0
  H  H26  1  0.64257000  0.37327000  0.46290000  1.0
  H  H27  1  0.62950000  0.15124000  0.46252000  1.0
  H  H28  1  0.68178000  0.15193000  0.22828000  1.0
  H  H29  1  0.69625000  0.37552000  0.22903000  1.0
  H  H30  1  0.64978000  0.94162000  0.53756000  1.0
  H  H31  1  0.66286000  0.93639000  0.67231000  1.0
  H  H32  1  0.69782000  0.53154000  0.67186000  1.0
  H  H33  1  0.68532000  0.55422000  0.53707000  1.0
  H  H34  1  0.53860000  0.92305000  0.77695000  1.0
  H  H35  1  0.54439000  0.92509000  0.91045000  1.0
  H  H36  1  0.47850000  0.84192000  0.01702000  1.0
  H  H37  1  0.48464000  0.85208000  0.15238000  1.0
  H  H38  1  0.88352000  0.65423000  0.14294000  1.0
  H  H39  1  0.89598000  0.63234000  0.00770000  1.0
  C  C40  1  0.71455000  0.21142000  0.66081000  1.0
  C  C41  1  0.78892000  0.22055000  0.59603000  1.0
  C  C42  1  0.90695000  0.24208000  0.59841000  1.0
  C  C43  1  0.95294000  0.25367000  0.66571000  1.0
  C  C44  1  0.87992000  0.24205000  0.73057000  1.0
  C  C45  1  0.76140000  0.22183000  0.72812000  1.0
  C  C46  1  0.58293000  0.19737000  0.65871000  1.0
  C  C47  1  0.08246000  0.27231000  0.66811000  1.0
  C  C48  1  0.32752000  0.61352000  0.65401000  1.0
  C  C49  1  0.34718000  0.67644000  0.58826000  1.0
  C  C50  1  0.35480000  0.80011000  0.58856000  1.0
  C  C51  1  0.34426000  0.86211000  0.65478000  1.0
  C  C52  1  0.32628000  0.79856000  0.72070000  1.0
  C  C53  1  0.31792000  0.67516000  0.72032000  1.0
  C  C54  1  0.31901000  0.48037000  0.65336000  1.0
  C  C55  1  0.35078000  0.99599000  0.65501000  1.0
  C  C56  1  0.33839000  0.14707000  0.43036000  1.0
  C  C57  1  0.33156000  0.15094000  0.35529000  1.0
  C  C58  1  0.31859000  0.26672000  0.31586000  1.0
  C  C59  1  0.31121000  0.37575000  0.35514000  1.0
  C  C60  1  0.31877000  0.36416000  0.43025000  1.0
  C  C61  1  0.31705000  0.26855000  0.23569000  1.0
  C  C62  1  0.39586000  0.16062000  0.19475000  1.0
  C  C63  1  0.39411000  0.16049000  0.11943000  1.0
  C  C64  1  0.31306000  0.26685000  0.08010000  1.0
  C  C65  1  0.23508000  0.37380000  0.12106000  1.0
  C  C66  1  0.23723000  0.37487000  0.19674000  1.0
  C  C67  1  0.31233000  0.26309000  0.00013000  1.0
  C  C68  1  0.42885000  0.19990000  0.95773000  1.0
  C  C69  1  0.42680000  0.19339000  0.88270000  1.0
  C  C70  1  0.20353000  0.30612000  0.88773000  1.0
  C  C71  1  0.19782000  0.31789000  0.96298000  1.0
  C  C72  1  0.28545000  0.78858000  0.33919000  1.0
  C  C73  1  0.21107000  0.77945000  0.40397000  1.0
  C  C74  1  0.09305000  0.75792000  0.40159000  1.0
  C  C75  1  0.04706000  0.74632000  0.33429000  1.0
  C  C76  1  0.12007000  0.75795000  0.26943000  1.0
  C  C77  1  0.23860000  0.77817000  0.27188000  1.0
  C  C78  1  0.41707000  0.80263000  0.34129000  1.0
  C  C79  1  0.91754000  0.72769000  0.33189000  1.0
  C  C80  1  0.67248000  0.38648000  0.34599000  1.0
  C  C81  1  0.65282000  0.32356000  0.41174000  1.0
  C  C82  1  0.64520000  0.19989000  0.41144000  1.0
  C  C83  1  0.65574000  0.13790000  0.34522000  1.0
  C  C84  1  0.67372000  0.20144000  0.27930000  1.0
  C  C85  1  0.68208000  0.32484000  0.27968000  1.0
  C  C86  1  0.68099000  0.51963000  0.34664000  1.0
  C  C87  1  0.64922000  0.00401000  0.34499000  1.0
  C  C88  1  0.66161000  0.85293000  0.56964000  1.0
  C  C89  1  0.66844000  0.84906000  0.64471000  1.0
  C  C90  1  0.68141000  0.73328000  0.68414000  1.0
  C  C91  1  0.68879000  0.62425000  0.64486000  1.0
  C  C92  1  0.68123000  0.63584000  0.56975000  1.0
  C  C93  1  0.68295000  0.73145000  0.76431000  1.0
  C  C94  1  0.60414000  0.83938000  0.80525000  1.0
  C  C95  1  0.60589000  0.83950000  0.88057000  1.0
  C  C96  1  0.68693000  0.73315000  0.91990000  1.0
  C  C97  1  0.76492000  0.62620000  0.87894000  1.0
  C  C98  1  0.76277000  0.62512000  0.80326000  1.0
  C  C99  1  0.68767000  0.73691000  0.99987000  1.0
  C  C100  1  0.57116000  0.80010000  0.04227000  1.0
  C  C101  1  0.57320000  0.80661000  0.11730000  1.0
  C  C102  1  0.79647000  0.69387000  0.11227000  1.0
  C  C103  1  0.80218000  0.68211000  0.03702000  1.0
  N  N104  1  0.33245000  0.25197000  0.46733000  1.0
  N  N105  1  0.31597000  0.24465000  0.84815000  1.0
  N  N106  1  0.66755000  0.74803000  0.53267000  1.0
  N  N107  1  0.68403000  0.75534000  0.15185000  1.0
  O  O108  1  0.54016000  0.19739000  0.59643000  1.0
  O  O109  1  0.52214000  0.18875000  0.72025000  1.0
  O  O110  1  0.12352000  0.27340000  0.73102000  1.0
  O  O111  1  0.14347000  0.28192000  0.60731000  1.0
  O  O112  1  0.32720000  0.43071000  0.59117000  1.0
  O  O113  1  0.30608000  0.42633000  0.71497000  1.0
  O  O114  1  0.34616000  0.04523000  0.71706000  1.0
  O  O115  1  0.35986000  0.05082000  0.59318000  1.0
  O  O116  1  0.45983000  0.80261000  0.40357000  1.0
  O  O117  1  0.47786000  0.81125000  0.27975000  1.0
  O  O118  1  0.87648000  0.72660000  0.26898000  1.0
  O  O119  1  0.85653000  0.71808000  0.39269000  1.0
  O  O120  1  0.67280000  0.56929000  0.40883000  1.0
  O  O121  1  0.69392000  0.57367000  0.28502000  1.0
  O  O122  1  0.65384000  0.95477000  0.28294000  1.0
  O  O123  1  0.64014000  0.94918000  0.40682000  1.0
  F  F124  1  0.15620000  0.48181000  0.23145000  1.0
  F  F125  1  0.15556000  0.48266000  0.08800000  1.0
  F  F126  1  0.84380000  0.51819000  0.76855000  1.0
  F  F127  1  0.84444000  0.51733000  0.91200000  1.0
