# generated using pymatgen
data_FeH2C4O3
_symmetry_space_group_name_H-M   'P 1'
_cell_length_a   7.01582000
_cell_length_b   15.02060000
_cell_length_c   15.02586563
_cell_angle_alpha   117.68501321
_cell_angle_beta   99.25764735
_cell_angle_gamma   98.34380000
_symmetry_Int_Tables_number   1
_chemical_formula_structural   FeH2C4O3
_chemical_formula_sum   'Fe6 H12 C24 O18'
_cell_volume   1339.40517724
_cell_formula_units_Z   6
loop_
 _symmetry_equiv_pos_site_id
 _symmetry_equiv_pos_as_xyz
  1  'x, y, z'
loop_
 _atom_site_type_symbol
 _atom_site_label
 _atom_site_symmetry_multiplicity
 _atom_site_fract_x
 _atom_site_fract_y
 _atom_site_fract_z
 _atom_site_occupancy
  Fe  Fe0  1  0.10756000  0.32276000  0.58430000  1.0
  Fe  Fe1  1  0.52512000  0.41280000  0.73574000  1.0
  Fe  Fe2  1  0.78378000  0.26167000  0.67843000  1.0
  Fe  Fe3  1  0.89308000  0.67736000  0.41580000  1.0
  Fe  Fe4  1  0.47541000  0.58712000  0.26378000  1.0
  Fe  Fe5  1  0.21519000  0.73855000  0.32155000  1.0
  H  H6  1  0.34095000  0.97563000  0.52771000  1.0
  H  H7  1  0.81093000  0.46958000  0.44556000  1.0
  H  H8  1  0.36280000  0.55269000  0.02277000  1.0
  H  H9  1  0.65741000  0.02427000  0.47361000  1.0
  H  H10  1  0.19150000  0.53080000  0.55442000  1.0
  H  H11  1  0.63695000  0.44688000  0.97687000  1.0
  H  H12  1  0.86547000  0.74583000  0.52295000  1.0
  H  H13  1  0.34114000  0.48017000  0.22346000  1.0
  H  H14  1  0.12657000  0.78551000  0.25985000  1.0
  H  H15  1  0.13211000  0.25376000  0.47652000  1.0
  H  H16  1  0.66004000  0.51974000  0.77695000  1.0
  H  H17  1  0.87370000  0.21537000  0.74046000  1.0
  C  C18  1  0.34628000  0.17485000  0.61459000  1.0
  C  C19  1  0.73604000  0.38294000  0.55812000  1.0
  C  C20  1  0.17262000  0.43869000  0.82353000  1.0
  C  C21  1  0.65212000  0.82507000  0.38552000  1.0
  C  C22  1  0.26552000  0.61671000  0.44126000  1.0
  C  C23  1  0.82705000  0.56130000  0.17609000  1.0
  C  C24  1  0.16535000  0.08739000  0.55589000  1.0
  C  C25  1  0.61468000  0.44483000  0.53233000  1.0
  C  C26  1  0.07845000  0.46676000  0.91167000  1.0
  C  C27  1  0.83309000  0.91254000  0.44510000  1.0
  C  C28  1  0.38762000  0.55541000  0.46755000  1.0
  C  C29  1  0.92125000  0.53303000  0.08800000  1.0
  C  C30  1  0.96853000  0.10115000  0.54065000  1.0
  C  C31  1  0.43658000  0.46274000  0.56413000  1.0
  C  C32  1  0.86957000  0.43653000  0.89871000  1.0
  C  C33  1  0.02992000  0.89875000  0.46049000  1.0
  C  C34  1  0.56597000  0.53779000  0.43599000  1.0
  C  C35  1  0.13017000  0.56328000  0.10100000  1.0
  C  C36  1  0.19074000  0.98639000  0.51547000  1.0
  C  C37  1  0.67496000  0.48345000  0.46985000  1.0
  C  C38  1  0.20301000  0.52906000  0.01261000  1.0
  C  C39  1  0.80765000  0.01353000  0.48583000  1.0
  C  C40  1  0.32749000  0.51696000  0.53018000  1.0
  C  C41  1  0.79672000  0.47062000  0.98705000  1.0
  O  O42  1  0.32310000  0.26851000  0.65339000  1.0
  O  O43  1  0.66801000  0.33640000  0.60389000  1.0
  O  O44  1  0.05516000  0.39331000  0.73120000  1.0
  O  O45  1  0.67577000  0.73153000  0.34508000  1.0
  O  O46  1  0.33267000  0.66298000  0.39508000  1.0
  O  O47  1  0.94407000  0.60813000  0.26864000  1.0
  O  O48  1  0.51654000  0.15637000  0.62637000  1.0
  O  O49  1  0.90022000  0.37600000  0.53149000  1.0
  O  O50  1  0.36210000  0.46199000  0.84294000  1.0
  O  O51  1  0.48188000  0.84383000  0.37474000  1.0
  O  O52  1  0.10116000  0.62341000  0.46770000  1.0
  O  O53  1  0.63757000  0.53694000  0.15658000  1.0
  O  O54  1  0.92940000  0.19588000  0.57592000  1.0
  O  O55  1  0.36618000  0.43163000  0.62688000  1.0
  O  O56  1  0.73442000  0.37387000  0.80469000  1.0
  O  O57  1  0.06917000  0.80396000  0.42479000  1.0
  O  O58  1  0.63638000  0.56897000  0.37328000  1.0
  O  O59  1  0.26511000  0.62601000  0.19498000  1.0
