# generated using pymatgen
data_CdH12C13N2O5
_symmetry_space_group_name_H-M   'P 1'
_cell_length_a   8.28369000
_cell_length_b   8.90997000
_cell_length_c   9.25589000
_cell_angle_alpha   77.72550000
_cell_angle_beta   68.82150000
_cell_angle_gamma   78.81950000
_symmetry_Int_Tables_number   1
_chemical_formula_structural   CdH12C13N2O5
_chemical_formula_sum   'Cd2 H24 C26 N4 O10'
_cell_volume   617.28935943
_cell_formula_units_Z   2
loop_
 _symmetry_equiv_pos_site_id
 _symmetry_equiv_pos_as_xyz
  1  'x, y, z'
loop_
 _atom_site_type_symbol
 _atom_site_label
 _atom_site_symmetry_multiplicity
 _atom_site_fract_x
 _atom_site_fract_y
 _atom_site_fract_z
 _atom_site_occupancy
  Cd  Cd0  1  0.27801000  0.10402000  0.58097000  1.0
  Cd  Cd1  1  0.72198000  0.89598000  0.41904000  1.0
  H  H2  1  0.51446000  0.12656000  0.19662000  1.0
  H  H3  1  0.48552000  0.87346000  0.80337000  1.0
  H  H4  1  0.99435000  0.85401000  0.81196000  1.0
  H  H5  1  0.00566000  0.14600000  0.18804000  1.0
  H  H6  1  0.36840000  0.37763000  0.96485000  1.0
  H  H7  1  0.63160000  0.62237000  0.03516000  1.0
  H  H8  1  0.25780000  0.59511000  0.79070000  1.0
  H  H9  1  0.74221000  0.40490000  0.20930000  1.0
  H  H10  1  0.01047000  0.55935000  0.37897000  1.0
  H  H11  1  0.98953000  0.44065000  0.62104000  1.0
  H  H12  1  0.54382000  0.11770000  0.92647000  1.0
  H  H13  1  0.45617000  0.88230000  0.07351000  1.0
  H  H14  1  0.75153000  0.04187000  0.80444000  1.0
  H  H15  1  0.24849000  0.95812000  0.19555000  1.0
  H  H16  1  0.72395000  0.21937000  0.87904000  1.0
  H  H17  1  0.27606000  0.78063000  0.12095000  1.0
  H  H18  1  0.24824000  0.67993000  0.37913000  1.0
  H  H19  1  0.75176000  0.32007000  0.62087000  1.0
  H  H20  1  0.19818000  0.58668000  0.57181000  1.0
  H  H21  1  0.80181000  0.41333000  0.42819000  1.0
  H  H22  1  0.46776000  0.47262000  0.35555000  1.0
  H  H23  1  0.53225000  0.52738000  0.64445000  1.0
  H  H24  1  0.57723000  0.62277000  0.35888000  1.0
  H  H25  1  0.42277000  0.37723000  0.64111000  1.0
  C  C26  1  0.25302000  0.31336000  0.27805000  1.0
  C  C27  1  0.74698000  0.68664000  0.72196000  1.0
  C  C28  1  0.19371000  0.45325000  0.18020000  1.0
  C  C29  1  0.80628000  0.54675000  0.81980000  1.0
  C  C30  1  0.26455000  0.46634000  0.01515000  1.0
  C  C31  1  0.73545000  0.53366000  0.98485000  1.0
  C  C32  1  0.20358000  0.58697000  0.91731000  1.0
  C  C33  1  0.79643000  0.41303000  0.08269000  1.0
  C  C34  1  0.06619000  0.69404000  0.98911000  1.0
  C  C35  1  0.93382000  0.30596000  0.01089000  1.0
  C  C36  1  0.99845000  0.68632000  0.15542000  1.0
  C  C37  1  0.00155000  0.31368000  0.84458000  1.0
  C  C38  1  0.06372000  0.56667000  0.25208000  1.0
  C  C39  1  0.93628000  0.43332000  0.74793000  1.0
  C  C40  1  0.84915000  0.88661000  0.05404000  1.0
  C  C41  1  0.15088000  0.11337000  0.94596000  1.0
  C  C42  1  0.72322000  0.01579000  0.04784000  1.0
  C  C43  1  0.27676000  0.98425000  0.95216000  1.0
  C  C44  1  0.68551000  0.10168000  0.90615000  1.0
  C  C45  1  0.31450000  0.89831000  0.09384000  1.0
  C  C46  1  0.28786000  0.80638000  0.52474000  1.0
  C  C47  1  0.71215000  0.19362000  0.47526000  1.0
  C  C48  1  0.29761000  0.65074000  0.47883000  1.0
  C  C49  1  0.70239000  0.34926000  0.52117000  1.0
  C  C50  1  0.47468000  0.54950000  0.43102000  1.0
  C  C51  1  0.52532000  0.45050000  0.56898000  1.0
  N  N52  1  0.86861000  0.80770000  0.19195000  1.0
  N  N53  1  0.13139000  0.19230000  0.80805000  1.0
  N  N54  1  0.97206000  0.82001000  0.93006000  1.0
  N  N55  1  0.02794000  0.17999000  0.06994000  1.0
  O  O56  1  0.20746000  0.31461000  0.42591000  1.0
  O  O57  1  0.79253000  0.68539000  0.57410000  1.0
  O  O58  1  0.34158000  0.19894000  0.21022000  1.0
  O  O59  1  0.65841000  0.80105000  0.78980000  1.0
  O  O60  1  0.63892000  0.06610000  0.18604000  1.0
  O  O61  1  0.36108000  0.93389000  0.81395000  1.0
  O  O62  1  0.42478000  0.87512000  0.47893000  1.0
  O  O63  1  0.57522000  0.12488000  0.52106000  1.0
  O  O64  1  0.14030000  0.87439000  0.59981000  1.0
  O  O65  1  0.85970000  0.12560000  0.40019000  1.0
