# generated using pymatgen
data_ZnHgH14C14(NO2)2
_symmetry_space_group_name_H-M   'P 1'
_cell_length_a   8.01019000
_cell_length_b   10.14600000
_cell_length_c   21.98400000
_cell_angle_alpha   90.00000000
_cell_angle_beta   90.00000000
_cell_angle_gamma   106.16600000
_symmetry_Int_Tables_number   1
_chemical_formula_structural   ZnHgH14C14(NO2)2
_chemical_formula_sum   'Zn4 Hg4 H56 C56 N8 O16'
_cell_volume   1716.02359303
_cell_formula_units_Z   4
loop_
 _symmetry_equiv_pos_site_id
 _symmetry_equiv_pos_as_xyz
  1  'x, y, z'
loop_
 _atom_site_type_symbol
 _atom_site_label
 _atom_site_symmetry_multiplicity
 _atom_site_fract_x
 _atom_site_fract_y
 _atom_site_fract_z
 _atom_site_occupancy
  Zn  Zn0  1  0.97471000  0.04945000  0.66372000  1.0
  Zn  Zn1  1  0.52529000  0.45055000  0.16372000  1.0
  Zn  Zn2  1  0.02529000  0.95055000  0.33628000  1.0
  Zn  Zn3  1  0.47471000  0.54945000  0.83628000  1.0
  Hg  Hg4  1  0.18332000  0.72259000  0.91967000  1.0
  Hg  Hg5  1  0.31668000  0.77741000  0.41967000  1.0
  Hg  Hg6  1  0.81668000  0.27740000  0.08033000  1.0
  Hg  Hg7  1  0.68332000  0.22259000  0.58033000  1.0
  H  H8  1  0.43597000  0.82613000  0.02697000  1.0
  H  H9  1  0.06402000  0.67388000  0.52697000  1.0
  H  H10  1  0.56401000  0.17387000  0.97303000  1.0
  H  H11  1  0.93598000  0.32613000  0.47303000  1.0
  H  H12  1  0.56697000  0.71947000  0.10905000  1.0
  H  H13  1  0.93302000  0.78053000  0.60905000  1.0
  H  H14  1  0.43301000  0.28053000  0.89095000  1.0
  H  H15  1  0.06698000  0.21947000  0.39095000  1.0
  H  H16  1  0.27228000  0.32891000  0.06357000  1.0
  H  H17  1  0.22772000  0.17109000  0.56357000  1.0
  H  H18  1  0.72772000  0.67108000  0.93643000  1.0
  H  H19  1  0.77229000  0.82891000  0.43643000  1.0
  H  H20  1  0.12808000  0.41689000  0.97845000  1.0
  H  H21  1  0.37192000  0.08311000  0.47845000  1.0
  H  H22  1  0.87192000  0.58310000  0.02155000  1.0
  H  H23  1  0.62808000  0.91689000  0.52155000  1.0
  H  H24  1  0.19573000  0.03187000  0.87847000  1.0
  H  H25  1  0.30427000  0.46813000  0.37847000  1.0
  H  H26  1  0.80427000  0.96813000  0.12153000  1.0
  H  H27  1  0.69573000  0.53187000  0.62153000  1.0
  H  H28  1  0.12514000  0.13408000  0.78393000  1.0
  H  H29  1  0.37486000  0.36592000  0.28393000  1.0
  H  H30  1  0.87486000  0.86592000  0.21607000  1.0
  H  H31  1  0.62514000  0.63408000  0.71607000  1.0
  H  H32  1  0.93919000  0.75340000  0.70184000  1.0
  H  H33  1  0.56081000  0.74660000  0.20184000  1.0
  H  H34  1  0.06081000  0.24660000  0.29816000  1.0
  H  H35  1  0.43919000  0.25340000  0.79816000  1.0
  H  H36  1  0.01727000  0.63414000  0.79135000  1.0
  H  H37  1  0.48274000  0.86586000  0.29135000  1.0
  H  H38  1  0.98273000  0.36586000  0.20865000  1.0
  H  H39  1  0.51727000  0.13414000  0.70865000  1.0
  H  H40  1  0.05206000  0.53399000  0.66692000  1.0
  H  H41  1  0.44794000  0.96601000  0.16692000  1.0
  H  H42  1  0.94794000  0.46601000  0.33307000  1.0
  H  H43  1  0.55206000  0.03399000  0.83308000  1.0
  H  H44  1  0.26651000  0.53684000  0.64649000  1.0
  H  H45  1  0.23349000  0.96315000  0.14649000  1.0
  H  H46  1  0.73349000  0.46316000  0.35351000  1.0
  H  H47  1  0.76651000  0.03684000  0.85351000  1.0
  H  H48  1  0.19117000  0.48932000  0.72222000  1.0
  H  H49  1  0.30883000  0.01068000  0.22222000  1.0
  H  H50  1  0.80883000  0.51069000  0.27778000  1.0
  H  H51  1  0.69117000  0.98932000  0.77778000  1.0
  H  H52  1  0.38906000  0.95299000  0.65103000  1.0
  H  H53  1  0.11094000  0.54701000  0.15103000  1.0
  H  H54  1  0.61094000  0.04701000  0.34897000  1.0
  H  H55  1  0.88906000  0.45299000  0.84897000  1.0
  H  H56  1  0.39809000  0.82749000  0.70674000  1.0
  H  H57  1  0.10191000  0.67251000  0.20674000  1.0
  H  H58  1  0.60191000  0.17251000  0.29326000  1.0
  H  H59  1  0.89809000  0.32749000  0.79326000  1.0
  H  H60  1  0.36621000  0.77858000  0.62925000  1.0
  H  H61  1  0.13379000  0.72142000  0.12925000  1.0
  H  H62  1  0.63379000  0.22142000  0.37076000  1.0
  H  H63  1  0.86621000  0.27858000  0.87076000  1.0
  C  C64  1  0.26578000  0.63135000  0.99540000  1.0
  C  C65  1  0.23422000  0.86866000  0.49540000  1.0
  C  C66  1  0.73421000  0.36865000  0.00460000  1.0
  C  C67  1  0.76579000  0.13135000  0.50461000  1.0
  C  C68  1  0.39046000  0.71545000  0.03385000  1.0
  C  C69  1  0.10953000  0.78455000  0.53385000  1.0
  C  C70  1  0.60953000  0.28454000  0.96615000  1.0
  C  C71  1  0.89047000  0.21545000  0.46615000  1.0
  C  C72  1  0.46372000  0.65801000  0.08037000  1.0
  C  C73  1  0.03627000  0.84200000  0.58037000  1.0
  C  C74  1  0.53627000  0.34199000  0.91963000  1.0
  C  C75  1  0.96372000  0.15800000  0.41963000  1.0
  C  C76  1  0.29972000  0.43857000  0.05446000  1.0
  C  C77  1  0.20028000  0.06144000  0.55446000  1.0
  C  C78  1  0.70028000  0.56143000  0.94554000  1.0
  C  C79  1  0.79972000  0.93857000  0.44554000  1.0
  C  C80  1  0.22121000  0.48980000  0.00689000  1.0
  C  C81  1  0.27879000  0.01020000  0.50690000  1.0
  C  C82  1  0.77879000  0.51019000  0.99311000  1.0
  C  C83  1  0.72122000  0.98980000  0.49311000  1.0
  C  C84  1  0.11310000  0.82126000  0.84404000  1.0
  C  C85  1  0.38690000  0.67874000  0.34404000  1.0
  C  C86  1  0.88690000  0.17874000  0.15596000  1.0
  C  C87  1  0.61310000  0.32126000  0.65596000  1.0
  C  C88  1  0.14257000  0.96394000  0.84054000  1.0
  C  C89  1  0.35743000  0.53606000  0.34054000  1.0
  C  C90  1  0.85743000  0.03606000  0.15946000  1.0
  C  C91  1  0.64257000  0.46394000  0.65946000  1.0
  C  C92  1  0.10265000  0.02354000  0.78746000  1.0
  C  C93  1  0.39735000  0.47646000  0.28746000  1.0
  C  C94  1  0.89735000  0.97646000  0.21254000  1.0
  C  C95  1  0.60265000  0.52354000  0.71254000  1.0
  C  C96  1  0.00066000  0.81094000  0.74152000  1.0
  C  C97  1  0.49934000  0.68906000  0.24152000  1.0
  C  C98  1  0.99934000  0.18906000  0.25848000  1.0
  C  C99  1  0.50067000  0.31094000  0.75848000  1.0
  C  C100  1  0.04066000  0.74504000  0.79251000  1.0
  C  C101  1  0.45934000  0.75496000  0.29251000  1.0
  C  C102  1  0.95934000  0.25496000  0.20749000  1.0
  C  C103  1  0.54066000  0.24504000  0.70750000  1.0
  C  C104  1  0.08816000  0.33593000  0.65197000  1.0
  C  C105  1  0.41184000  0.16407000  0.15197000  1.0
  C  C106  1  0.91185000  0.66407000  0.34803000  1.0
  C  C107  1  0.58815000  0.83593000  0.84803000  1.0
  C  C108  1  0.15442000  0.48257000  0.67417000  1.0
  C  C109  1  0.34558000  0.01743000  0.17417000  1.0
  C  C110  1  0.84558000  0.51743000  0.32583000  1.0
  C  C111  1  0.65442000  0.98256000  0.82583000  1.0
  C  C112  1  0.62769000  0.89004000  0.65336000  1.0
  C  C113  1  0.87231000  0.60996000  0.15335000  1.0
  C  C114  1  0.37232000  0.10996000  0.34664000  1.0
  C  C115  1  0.12769000  0.39004000  0.84664000  1.0
  C  C116  1  0.43297000  0.86177000  0.65978000  1.0
  C  C117  1  0.06703000  0.63823000  0.15978000  1.0
  C  C118  1  0.56704000  0.13824000  0.34022000  1.0
  C  C119  1  0.93297000  0.36177000  0.84022000  1.0
  N  N120  1  0.41932000  0.52149000  0.09094000  1.0
  N  N121  1  0.08067000  0.97851000  0.59094000  1.0
  N  N122  1  0.58067000  0.47851000  0.90906000  1.0
  N  N123  1  0.91933000  0.02149000  0.40906000  1.0
  N  N124  1  0.03239000  0.94840000  0.73850000  1.0
  N  N125  1  0.46761000  0.55160000  0.23850000  1.0
  N  N126  1  0.96761000  0.05160000  0.26150000  1.0
  N  N127  1  0.53239000  0.44840000  0.76150000  1.0
  O  O128  1  0.07758000  0.24011000  0.69211000  1.0
  O  O129  1  0.42243000  0.25989000  0.19211000  1.0
  O  O130  1  0.92243000  0.75989000  0.30789000  1.0
  O  O131  1  0.57757000  0.74010000  0.80789000  1.0
  O  O132  1  0.04564000  0.31296000  0.59713000  1.0
  O  O133  1  0.45435000  0.18704000  0.09713000  1.0
  O  O134  1  0.95436000  0.68704000  0.40287000  1.0
  O  O135  1  0.54564000  0.81296000  0.90287000  1.0
  O  O136  1  0.71863000  0.01771000  0.66090000  1.0
  O  O137  1  0.78137000  0.48229000  0.16090000  1.0
  O  O138  1  0.28137000  0.98229000  0.33910000  1.0
  O  O139  1  0.21863000  0.51771000  0.83910000  1.0
  O  O140  1  0.69309000  0.79414000  0.64310000  1.0
  O  O141  1  0.80690000  0.70586000  0.14310000  1.0
  O  O142  1  0.30691000  0.20586000  0.35690000  1.0
  O  O143  1  0.19310000  0.29415000  0.85690000  1.0
