# generated using pymatgen
data_Zn2H13C20I(NO4)2
_symmetry_space_group_name_H-M   'P 1'
_cell_length_a   9.75786000
_cell_length_b   10.99660000
_cell_length_c   11.33770000
_cell_angle_alpha   88.95230000
_cell_angle_beta   78.36400000
_cell_angle_gamma   66.76100000
_symmetry_Int_Tables_number   1
_chemical_formula_structural   Zn2H13C20I(NO4)2
_chemical_formula_sum   'Zn2 H13 C20 I1 N2 O8'
_cell_volume   1092.35214754
_cell_formula_units_Z   1
loop_
 _symmetry_equiv_pos_site_id
 _symmetry_equiv_pos_as_xyz
  1  'x, y, z'
loop_
 _atom_site_type_symbol
 _atom_site_label
 _atom_site_symmetry_multiplicity
 _atom_site_fract_x
 _atom_site_fract_y
 _atom_site_fract_z
 _atom_site_occupancy
  Zn  Zn0  1  0.34545000  0.53999000  0.50373000  1.0
  Zn  Zn1  1  0.66489000  0.42655000  0.49062000  1.0
  H  H2  1  0.68315000  0.80960000  0.35775000  1.0
  H  H3  1  0.31230000  0.27463000  0.70787000  1.0
  H  H4  1  0.70498000  0.02812000  0.37112000  1.0
  H  H5  1  0.38272000  0.53144000  0.09984000  1.0
  H  H6  1  0.31022000  0.56950000  0.91718000  1.0
  H  H7  1  0.72067000  0.35789000  0.09436000  1.0
  H  H8  1  0.15034000  0.38736000  0.55005000  1.0
  H  H9  1  0.85042000  0.58506000  0.46878000  1.0
  H  H10  1  0.05060000  0.65559000  0.46580000  1.0
  H  H11  1  0.95443000  0.31065000  0.53795000  1.0
  H  H12  1  0.27407000  0.83686000  0.68810000  1.0
  H  H13  1  0.10623000  0.00667000  0.85122000  1.0
  H  H14  1  0.12486000  0.22655000  0.86105000  1.0
  C  C15  1  0.56069000  0.44605000  0.26422000  1.0
  C  C16  1  0.53550000  0.45300000  0.92754000  1.0
  C  C17  1  0.92741000  0.49104000  0.49719000  1.0
  C  C18  1  0.49188000  0.72489000  0.49171000  1.0
  C  C19  1  0.07533000  0.47973000  0.51817000  1.0
  C  C20  1  0.43888000  0.51420000  0.73191000  1.0
  C  C21  1  0.52519000  0.23997000  0.51782000  1.0
  C  C22  1  0.28233000  0.93239000  0.69183000  1.0
  C  C23  1  0.18821000  0.02791000  0.78254000  1.0
  C  C24  1  0.19831000  0.15237000  0.78793000  1.0
  C  C25  1  0.30310000  0.17930000  0.70231000  1.0
  C  C26  1  0.39152000  0.95642000  0.60150000  1.0
  C  C27  1  0.40239000  0.08305000  0.60762000  1.0
  C  C28  1  0.49480000  0.85890000  0.50766000  1.0
  C  C29  1  0.60589000  0.88560000  0.42811000  1.0
  C  C30  1  0.61771000  0.00840000  0.43510000  1.0
  C  C31  1  0.51639000  0.10679000  0.52148000  1.0
  C  C32  1  0.60109000  0.41989000  0.13131000  1.0
  C  C33  1  0.50155000  0.46920000  0.05837000  1.0
  C  C34  1  0.42557000  0.51415000  0.86440000  1.0
  I  I35  1  0.76236000  0.32722000  0.84342000  1.0
  N  N36  1  0.88135000  0.39640000  0.50913000  1.0
  N  N37  1  0.12446000  0.57193000  0.49682000  1.0
  O  O38  1  0.42359000  0.51667000  0.31663000  1.0
  O  O39  1  0.67394000  0.39220000  0.31564000  1.0
  O  O40  1  0.36263000  0.71601000  0.51459000  1.0
  O  O41  1  0.61998000  0.62841000  0.45507000  1.0
  O  O42  1  0.31761000  0.53580000  0.69359000  1.0
  O  O43  1  0.56889000  0.49526000  0.66628000  1.0
  O  O44  1  0.40432000  0.33708000  0.50434000  1.0
  O  O45  1  0.65072000  0.24598000  0.52448000  1.0
