# generated using pymatgen
data_Zn2PH6C8NO8
_symmetry_space_group_name_H-M   'P 1'
_cell_length_a   6.64602000
_cell_length_b   9.66095000
_cell_length_c   16.60930000
_cell_angle_alpha   89.58980000
_cell_angle_beta   90.00010000
_cell_angle_gamma   90.00000000
_symmetry_Int_Tables_number   1
_chemical_formula_structural   Zn2PH6C8NO8
_chemical_formula_sum   'Zn8 P4 H24 C32 N4 O32'
_cell_volume   1066.40378425
_cell_formula_units_Z   4
loop_
 _symmetry_equiv_pos_site_id
 _symmetry_equiv_pos_as_xyz
  1  'x, y, z'
loop_
 _atom_site_type_symbol
 _atom_site_label
 _atom_site_symmetry_multiplicity
 _atom_site_fract_x
 _atom_site_fract_y
 _atom_site_fract_z
 _atom_site_occupancy
  Zn  Zn0  1  0.65847000  0.57966000  0.43965000  1.0
  Zn  Zn1  1  0.15847000  0.92035000  0.56035000  1.0
  Zn  Zn2  1  0.34154000  0.42035000  0.56034000  1.0
  Zn  Zn3  1  0.84153000  0.07965000  0.43965000  1.0
  Zn  Zn4  1  0.94823000  0.61127000  0.62672000  1.0
  Zn  Zn5  1  0.44822000  0.88874000  0.37328000  1.0
  Zn  Zn6  1  0.05177000  0.38874000  0.37329000  1.0
  Zn  Zn7  1  0.55177000  0.11127000  0.62672000  1.0
  P  P8  1  0.66269000  0.84527000  0.54989000  1.0
  P  P9  1  0.16268000  0.65473000  0.45011000  1.0
  P  P10  1  0.33732000  0.15473000  0.45011000  1.0
  P  P11  1  0.83731000  0.34528000  0.54989000  1.0
  H  H12  1  0.96412000  0.66266000  0.84401000  1.0
  H  H13  1  0.46411000  0.83733000  0.15599000  1.0
  H  H14  1  0.03589000  0.33733000  0.15600000  1.0
  H  H15  1  0.53589000  0.16266000  0.84401000  1.0
  H  H16  1  0.45249000  0.90445000  0.91662000  1.0
  H  H17  1  0.95247000  0.59554000  0.08339000  1.0
  H  H18  1  0.54752000  0.09555000  0.08339000  1.0
  H  H19  1  0.04751000  0.40445000  0.91661000  1.0
  H  H20  1  0.24419000  0.78623000  0.81284000  1.0
  H  H21  1  0.74418000  0.71376000  0.18716000  1.0
  H  H22  1  0.75581000  0.21377000  0.18716000  1.0
  H  H23  1  0.25581000  0.28623000  0.81284000  1.0
  H  H24  1  0.88602000  0.46065000  0.76024000  1.0
  H  H25  1  0.38601000  0.03935000  0.23976000  1.0
  H  H26  1  0.11398000  0.53935000  0.23976000  1.0
  H  H27  1  0.61399000  0.96065000  0.76024000  1.0
  H  H28  1  0.67361000  0.45721000  0.70364000  1.0
  H  H29  1  0.17361000  0.04280000  0.29636000  1.0
  H  H30  1  0.32639000  0.54280000  0.29636000  1.0
  H  H31  1  0.82639000  0.95721000  0.70364000  1.0
  H  H32  1  0.84538000  0.02031000  0.02085000  1.0
  H  H33  1  0.34536000  0.47968000  0.97915000  1.0
  H  H34  1  0.15464000  0.97969000  0.97915000  1.0
  H  H35  1  0.65462000  0.52031000  0.02085000  1.0
  C  C36  1  0.34647000  0.59414000  0.70947000  1.0
  C  C37  1  0.84645000  0.90587000  0.29053000  1.0
  C  C38  1  0.65355000  0.40586000  0.29053000  1.0
  C  C39  1  0.15354000  0.09414000  0.70947000  1.0
  C  C40  1  0.48262000  0.65481000  0.77169000  1.0
  C  C41  1  0.98261000  0.84519000  0.22831000  1.0
  C  C42  1  0.51739000  0.34519000  0.22831000  1.0
  C  C43  1  0.01739000  0.15481000  0.77169000  1.0
  C  C44  1  0.68749000  0.61710000  0.78108000  1.0
  C  C45  1  0.18749000  0.88290000  0.21892000  1.0
  C  C46  1  0.31250000  0.38290000  0.21892000  1.0
  C  C47  1  0.81251000  0.11710000  0.78108000  1.0
  C  C48  1  0.80456000  0.68681000  0.83833000  1.0
  C  C49  1  0.30455000  0.81319000  0.16167000  1.0
  C  C50  1  0.19544000  0.31319000  0.16167000  1.0
  C  C51  1  0.69544000  0.18681000  0.83833000  1.0
  C  C52  1  0.72032000  0.78965000  0.88642000  1.0
  C  C53  1  0.22031000  0.71034000  0.11358000  1.0
  C  C54  1  0.27968000  0.21034000  0.11358000  1.0
  C  C55  1  0.77968000  0.28965000  0.88642000  1.0
  C  C56  1  0.51589000  0.82402000  0.87889000  1.0
  C  C57  1  0.01587000  0.67597000  0.12111000  1.0
  C  C58  1  0.48412000  0.17597000  0.12111000  1.0
  C  C59  1  0.98411000  0.32403000  0.87889000  1.0
  C  C60  1  0.40103000  0.75772000  0.82124000  1.0
  C  C61  1  0.90102000  0.74227000  0.17876000  1.0
  C  C62  1  0.59897000  0.24228000  0.17876000  1.0
  C  C63  1  0.09897000  0.25773000  0.82124000  1.0
  C  C64  1  0.84960000  0.87271000  0.94047000  1.0
  C  C65  1  0.34959000  0.62728000  0.05954000  1.0
  C  C66  1  0.15040000  0.12728000  0.05954000  1.0
  C  C67  1  0.65041000  0.37271000  0.94047000  1.0
  N  N68  1  0.77959000  0.51843000  0.73103000  1.0
  N  N69  1  0.27958000  0.98157000  0.26897000  1.0
  N  N70  1  0.22042000  0.48157000  0.26897000  1.0
  N  N71  1  0.72042000  0.01843000  0.73103000  1.0
  O  O72  1  0.61052000  0.77556000  0.46821000  1.0
  O  O73  1  0.11053000  0.72445000  0.53179000  1.0
  O  O74  1  0.38948000  0.22445000  0.53179000  1.0
  O  O75  1  0.88947000  0.27556000  0.46821000  1.0
  O  O76  1  0.47299000  0.92607000  0.58029000  1.0
  O  O77  1  0.97299000  0.57393000  0.41971000  1.0
  O  O78  1  0.52701000  0.07393000  0.41971000  1.0
  O  O79  1  0.02701000  0.42607000  0.58029000  1.0
  O  O80  1  0.72679000  0.74234000  0.61512000  1.0
  O  O81  1  0.22678000  0.75767000  0.38488000  1.0
  O  O82  1  0.27322000  0.25767000  0.38488000  1.0
  O  O83  1  0.77321000  0.24234000  0.61512000  1.0
  O  O84  1  0.83110000  0.95532000  0.53567000  1.0
  O  O85  1  0.33109000  0.54468000  0.46432000  1.0
  O  O86  1  0.16891000  0.04468000  0.46432000  1.0
  O  O87  1  0.66891000  0.45532000  0.53567000  1.0
  O  O88  1  0.40667000  0.48742000  0.67102000  1.0
  O  O89  1  0.90667000  0.01259000  0.32898000  1.0
  O  O90  1  0.59333000  0.51259000  0.32898000  1.0
  O  O91  1  0.09332000  0.98742000  0.67101000  1.0
  O  O92  1  0.17759000  0.65389000  0.70040000  1.0
  O  O93  1  0.67758000  0.84612000  0.29960000  1.0
  O  O94  1  0.82242000  0.34612000  0.29960000  1.0
  O  O95  1  0.32241000  0.15388000  0.70040000  1.0
  O  O96  1  0.75061000  0.95093000  0.99165000  1.0
  O  O97  1  0.25060000  0.54907000  0.00835000  1.0
  O  O98  1  0.24939000  0.04907000  0.00835000  1.0
  O  O99  1  0.74939000  0.45093000  0.99165000  1.0
  O  O100  1  0.03720000  0.87141000  0.93452000  1.0
  O  O101  1  0.53718000  0.62858000  0.06548000  1.0
  O  O102  1  0.96281000  0.12857000  0.06549000  1.0
  O  O103  1  0.46280000  0.37141000  0.93452000  1.0
