# generated using pymatgen
data_ZnH10C11S(NO)4
_symmetry_space_group_name_H-M   'P 1'
_cell_length_a   4.95508000
_cell_length_b   16.21390000
_cell_length_c   16.52660000
_cell_angle_alpha   90.00000000
_cell_angle_beta   90.00010000
_cell_angle_gamma   89.99990000
_symmetry_Int_Tables_number   1
_chemical_formula_structural   ZnH10C11S(NO)4
_chemical_formula_sum   'Zn4 H40 C44 S4 N16 O16'
_cell_volume   1327.76640676
_cell_formula_units_Z   4
loop_
 _symmetry_equiv_pos_site_id
 _symmetry_equiv_pos_as_xyz
  1  'x, y, z'
loop_
 _atom_site_type_symbol
 _atom_site_label
 _atom_site_symmetry_multiplicity
 _atom_site_fract_x
 _atom_site_fract_y
 _atom_site_fract_z
 _atom_site_occupancy
  Zn  Zn0  1  0.96072000  0.36014000  0.73320000  1.0
  Zn  Zn1  1  0.53929000  0.63986000  0.23320000  1.0
  Zn  Zn2  1  0.46071000  0.13986000  0.26680000  1.0
  Zn  Zn3  1  0.03928000  0.86014000  0.76681000  1.0
  H  H4  1  0.02202000  0.55267000  0.98264000  1.0
  H  H5  1  0.47798000  0.44733000  0.48264000  1.0
  H  H6  1  0.52202000  0.94733000  0.01736000  1.0
  H  H7  1  0.97798000  0.05267000  0.51736000  1.0
  H  H8  1  0.69181000  0.71532000  0.86015000  1.0
  H  H9  1  0.80818000  0.28468000  0.36015000  1.0
  H  H10  1  0.19182000  0.78468000  0.13985000  1.0
  H  H11  1  0.30818000  0.21532000  0.63985000  1.0
  H  H12  1  0.25391000  0.70599000  0.66812000  1.0
  H  H13  1  0.24609000  0.29401000  0.16812000  1.0
  H  H14  1  0.75391000  0.79401000  0.33188000  1.0
  H  H15  1  0.74609000  0.20599000  0.83188000  1.0
  H  H16  1  0.09956000  0.54692000  0.70534000  1.0
  H  H17  1  0.40043000  0.45308000  0.20534000  1.0
  H  H18  1  0.59957000  0.95308000  0.29466000  1.0
  H  H19  1  0.90043000  0.04692000  0.79466000  1.0
  H  H20  1  0.61650000  0.50616000  0.78916000  1.0
  H  H21  1  0.88351000  0.49383000  0.28917000  1.0
  H  H22  1  0.11650000  0.99384000  0.21083000  1.0
  H  H23  1  0.38350000  0.00616000  0.71084000  1.0
  H  H24  1  0.59622000  0.56386000  0.88141000  1.0
  H  H25  1  0.90379000  0.43614000  0.38141000  1.0
  H  H26  1  0.09622000  0.93614000  0.11859000  1.0
  H  H27  1  0.40378000  0.06386000  0.61859000  1.0
  H  H28  1  0.38702000  0.27468000  0.83907000  1.0
  H  H29  1  0.11298000  0.72532000  0.33907000  1.0
  H  H30  1  0.88702000  0.22532000  0.16093000  1.0
  H  H31  1  0.61297000  0.77468000  0.66093000  1.0
  H  H32  1  0.72642000  0.25506000  0.95094000  1.0
  H  H33  1  0.77359000  0.74493000  0.45094000  1.0
  H  H34  1  0.22642000  0.24494000  0.04907000  1.0
  H  H35  1  0.27358000  0.75506000  0.54906000  1.0
  H  H36  1  0.77451000  0.35852000  0.05926000  1.0
  H  H37  1  0.72550000  0.64148000  0.55926000  1.0
  H  H38  1  0.27450000  0.14148000  0.94074000  1.0
  H  H39  1  0.22549000  0.85852000  0.44074000  1.0
  H  H40  1  0.48180000  0.48255000  0.06464000  1.0
  H  H41  1  0.01821000  0.51745000  0.56464000  1.0
  H  H42  1  0.98179000  0.01745000  0.93536000  1.0
  H  H43  1  0.51820000  0.98255000  0.43536000  1.0
  C  C44  1  0.82478000  0.69231000  0.81310000  1.0
  C  C45  1  0.67522000  0.30769000  0.31310000  1.0
  C  C46  1  0.32478000  0.80769000  0.18690000  1.0
  C  C47  1  0.17522000  0.19231000  0.68690000  1.0
  C  C48  1  0.11655000  0.68444000  0.71416000  1.0
  C  C49  1  0.38345000  0.31556000  0.21415000  1.0
  C  C50  1  0.61655000  0.81556000  0.28585000  1.0
  C  C51  1  0.88346000  0.18444000  0.78585000  1.0
  C  C52  1  0.04202000  0.60532000  0.73203000  1.0
  C  C53  1  0.45798000  0.39469000  0.23203000  1.0
  C  C54  1  0.54202000  0.89469000  0.26797000  1.0
  C  C55  1  0.95798000  0.10532000  0.76797000  1.0
  C  C56  1  0.73304000  0.54049000  0.83454000  1.0
  C  C57  1  0.76696000  0.45951000  0.33454000  1.0
  C  C58  1  0.23304000  0.95951000  0.16546000  1.0
  C  C59  1  0.26695000  0.04049000  0.66546000  1.0
  C  C60  1  0.94435000  0.48633000  0.87133000  1.0
  C  C61  1  0.55565000  0.51367000  0.37133000  1.0
  C  C62  1  0.44435000  0.01367000  0.12867000  1.0
  C  C63  1  0.05565000  0.98633000  0.62867000  1.0
  C  C64  1  0.24158000  0.38853000  0.89136000  1.0
  C  C65  1  0.25843000  0.61147000  0.39136000  1.0
  C  C66  1  0.74157000  0.11147000  0.10864000  1.0
  C  C67  1  0.75842000  0.88853000  0.60864000  1.0
  C  C68  1  0.40618000  0.31855000  0.88849000  1.0
  C  C69  1  0.09382000  0.68145000  0.38849000  1.0
  C  C70  1  0.90618000  0.18145000  0.11151000  1.0
  C  C71  1  0.59381000  0.81855000  0.61151000  1.0
  C  C72  1  0.59379000  0.30865000  0.95035000  1.0
  C  C73  1  0.90622000  0.69135000  0.45035000  1.0
  C  C74  1  0.09378000  0.19136000  0.04965000  1.0
  C  C75  1  0.40621000  0.80864000  0.54965000  1.0
  C  C76  1  0.62051000  0.36704000  0.01303000  1.0
  C  C77  1  0.87950000  0.63296000  0.51303000  1.0
  C  C78  1  0.12050000  0.13296000  0.98697000  1.0
  C  C79  1  0.37949000  0.86704000  0.48697000  1.0
  C  C80  1  0.45715000  0.43665000  0.01715000  1.0
  C  C81  1  0.04285000  0.56335000  0.51715000  1.0
  C  C82  1  0.95715000  0.06335000  0.98285000  1.0
  C  C83  1  0.54285000  0.93665000  0.48285000  1.0
  C  C84  1  0.26529000  0.44557000  0.95578000  1.0
  C  C85  1  0.23471000  0.55443000  0.45578000  1.0
  C  C86  1  0.76528000  0.05443000  0.04421000  1.0
  C  C87  1  0.73471000  0.94557000  0.54422000  1.0
  S  S88  1  0.46449000  0.42044000  0.63819000  1.0
  S  S89  1  0.03551000  0.57956000  0.13819000  1.0
  S  S90  1  0.96449000  0.07956000  0.36181000  1.0
  S  S91  1  0.53551000  0.92044000  0.86181000  1.0
  N  N92  1  0.97951000  0.73823000  0.76462000  1.0
  N  N93  1  0.52050000  0.26177000  0.26463000  1.0
  N  N94  1  0.47950000  0.76177000  0.23538000  1.0
  N  N95  1  0.02050000  0.23823000  0.73537000  1.0
  N  N96  1  0.85817000  0.61146000  0.79458000  1.0
  N  N97  1  0.64183000  0.38854000  0.29458000  1.0
  N  N98  1  0.35817000  0.88854000  0.20542000  1.0
  N  N99  1  0.14183000  0.11146000  0.70542000  1.0
  N  N100  1  0.04054000  0.41628000  0.83894000  1.0
  N  N101  1  0.45947000  0.58372000  0.33894000  1.0
  N  N102  1  0.54054000  0.08373000  0.16106000  1.0
  N  N103  1  0.95946000  0.91627000  0.66106000  1.0
  N  N104  1  0.07495000  0.50610000  0.94068000  1.0
  N  N105  1  0.42505000  0.49390000  0.44068000  1.0
  N  N106  1  0.57495000  0.99390000  0.05932000  1.0
  N  N107  1  0.92504000  0.00610000  0.55932000  1.0
  O  O108  1  0.15906000  0.41491000  0.64563000  1.0
  O  O109  1  0.34094000  0.58509000  0.14563000  1.0
  O  O110  1  0.65906000  0.08509000  0.35437000  1.0
  O  O111  1  0.84094000  0.91491000  0.85437000  1.0
  O  O112  1  0.57244000  0.36620000  0.70616000  1.0
  O  O113  1  0.92756000  0.63380000  0.20616000  1.0
  O  O114  1  0.07244000  0.13380000  0.29384000  1.0
  O  O115  1  0.42756000  0.86620000  0.79384000  1.0
  O  O116  1  0.54433000  0.38572000  0.55909000  1.0
  O  O117  1  0.95567000  0.61428000  0.05909000  1.0
  O  O118  1  0.04433000  0.11428000  0.44091000  1.0
  O  O119  1  0.45567000  0.88572000  0.94091000  1.0
  O  O120  1  0.55026000  0.50610000  0.64950000  1.0
  O  O121  1  0.94973000  0.49390000  0.14950000  1.0
  O  O122  1  0.05027000  0.99390000  0.35050000  1.0
  O  O123  1  0.44973000  0.00610000  0.85050000  1.0
