# generated using pymatgen
data_VCdP2H14(C4O3)3
_symmetry_space_group_name_H-M   'P 1'
_cell_length_a   6.97662000
_cell_length_b   8.86613000
_cell_length_c   14.74630000
_cell_angle_alpha   72.54780000
_cell_angle_beta   86.47750000
_cell_angle_gamma   78.03390000
_symmetry_Int_Tables_number   1
_chemical_formula_structural   VCdP2H14(C4O3)3
_chemical_formula_sum   'V2 Cd2 P4 H28 C24 O18'
_cell_volume   851.24504712
_cell_formula_units_Z   2
loop_
 _symmetry_equiv_pos_site_id
 _symmetry_equiv_pos_as_xyz
  1  'x, y, z'
loop_
 _atom_site_type_symbol
 _atom_site_label
 _atom_site_symmetry_multiplicity
 _atom_site_fract_x
 _atom_site_fract_y
 _atom_site_fract_z
 _atom_site_occupancy
  V  V0  1  0.29583000  0.75717000  0.99202000  1.0
  V  V1  1  0.79575000  0.74916000  0.00816000  1.0
  Cd  Cd2  1  0.07144000  0.27608000  0.95409000  1.0
  Cd  Cd3  1  0.57180000  0.22994000  0.04569000  1.0
  P  P4  1  0.50741000  0.06022000  0.88024000  1.0
  P  P5  1  0.00785000  0.94078000  0.11978000  1.0
  P  P6  1  0.64006000  0.56600000  0.87993000  1.0
  P  P7  1  0.14077000  0.44596000  0.11988000  1.0
  H  H8  1  0.28905000  0.34390000  0.74287000  1.0
  H  H9  1  0.78916000  0.08732000  0.25729000  1.0
  H  H10  1  0.30542000  0.44196000  0.56716000  1.0
  H  H11  1  0.80598000  0.00953000  0.43298000  1.0
  H  H12  1  0.56691000  0.30447000  0.47961000  1.0
  H  H13  1  0.06770000  0.78453000  0.52049000  1.0
  H  H14  1  0.81201000  0.06763000  0.56909000  1.0
  H  H15  1  0.31321000  0.63790000  0.43087000  1.0
  H  H16  1  0.78780000  0.96163000  0.74492000  1.0
  H  H17  1  0.28901000  0.70817000  0.25500000  1.0
  H  H18  1  0.13126000  0.05386000  0.85394000  1.0
  H  H19  1  0.63184000  0.90800000  0.14679000  1.0
  H  H20  1  0.90442000  0.08367000  0.87515000  1.0
  H  H21  1  0.40502000  0.95886000  0.12550000  1.0
  H  H22  1  0.24395000  0.54397000  0.87384000  1.0
  H  H23  1  0.74517000  0.41677000  0.12646000  1.0
  H  H24  1  0.01455000  0.59936000  0.85979000  1.0
  H  H25  1  0.51606000  0.45831000  0.14075000  1.0
  H  H26  1  0.36410000  0.80225000  0.74338000  1.0
  H  H27  1  0.86517000  0.54630000  0.25589000  1.0
  H  H28  1  0.34977000  0.87978000  0.56705000  1.0
  H  H29  1  0.85015000  0.44809000  0.43224000  1.0
  H  H30  1  0.60306000  0.73916000  0.47759000  1.0
  H  H31  1  0.10258000  0.21750000  0.52204000  1.0
  H  H32  1  0.86336000  0.51348000  0.56567000  1.0
  H  H33  1  0.36265000  0.07897000  0.43438000  1.0
  H  H34  1  0.86986000  0.42793000  0.74172000  1.0
  H  H35  1  0.36984000  0.16905000  0.25831000  1.0
  C  C36  1  0.53684000  0.14574000  0.75476000  1.0
  C  C37  1  0.03741000  0.90147000  0.24525000  1.0
  C  C38  1  0.40144000  0.28167000  0.70470000  1.0
  C  C39  1  0.90186000  0.98707000  0.29538000  1.0
  C  C40  1  0.41215000  0.33744000  0.60590000  1.0
  C  C41  1  0.91285000  0.94401000  0.39419000  1.0
  C  C42  1  0.55928000  0.26059000  0.55695000  1.0
  C  C43  1  0.06017000  0.81831000  0.44313000  1.0
  C  C44  1  0.69633000  0.12718000  0.60705000  1.0
  C  C45  1  0.19741000  0.73538000  0.39296000  1.0
  C  C46  1  0.68439000  0.06829000  0.70575000  1.0
  C  C47  1  0.18546000  0.77540000  0.29425000  1.0
  C  C48  1  0.61793000  0.61065000  0.75359000  1.0
  C  C49  1  0.11855000  0.36431000  0.24615000  1.0
  C  C50  1  0.47100000  0.73740000  0.70425000  1.0
  C  C51  1  0.97171000  0.44221000  0.29525000  1.0
  C  C52  1  0.46465000  0.78171000  0.60524000  1.0
  C  C53  1  0.96499000  0.38783000  0.39424000  1.0
  C  C54  1  0.60638000  0.70233000  0.55513000  1.0
  C  C55  1  0.10623000  0.25804000  0.44452000  1.0
  C  C56  1  0.75277000  0.57606000  0.60443000  1.0
  C  C57  1  0.25249000  0.18056000  0.39545000  1.0
  C  C58  1  0.75797000  0.52860000  0.70346000  1.0
  C  C59  1  0.25817000  0.23190000  0.29644000  1.0
  O  O60  1  0.40726000  0.19238000  0.92490000  1.0
  O  O61  1  0.90767000  0.11746000  0.07489000  1.0
  O  O62  1  0.37661000  0.93473000  0.88821000  1.0
  O  O63  1  0.87696000  0.82317000  0.11195000  1.0
  O  O64  1  0.71295000  0.97949000  0.92530000  1.0
  O  O65  1  0.21344000  0.90464000  0.07500000  1.0
  O  O66  1  0.07239000  0.77833000  0.95128000  1.0
  O  O67  1  0.57263000  0.72938000  0.04902000  1.0
  O  O68  1  0.01388000  0.14014000  0.84952000  1.0
  O  O69  1  0.51446000  0.99000000  0.15102000  1.0
  O  O70  1  0.12818000  0.51709000  0.85095000  1.0
  O  O71  1  0.62944000  0.36709000  0.14938000  1.0
  O  O72  1  0.73517000  0.38784000  0.92382000  1.0
  O  O73  1  0.23574000  0.31178000  0.07586000  1.0
  O  O74  1  0.43225000  0.60180000  0.92230000  1.0
  O  O75  1  0.93280000  0.52410000  0.07751000  1.0
  O  O76  1  0.77156000  0.67962000  0.89321000  1.0
  O  O77  1  0.27224000  0.57274000  0.10689000  1.0
