# generated using pymatgen
data_CuH5C5NCl2O
_symmetry_space_group_name_H-M   'P 1'
_cell_length_a   3.82294000
_cell_length_b   9.82028000
_cell_length_c   10.25020000
_cell_angle_alpha   65.15120000
_cell_angle_beta   89.73910000
_cell_angle_gamma   87.50340000
_symmetry_Int_Tables_number   1
_chemical_formula_structural   CuH5C5NCl2O
_chemical_formula_sum   'Cu2 H10 C10 N2 Cl4 O2'
_cell_volume   348.81856666
_cell_formula_units_Z   2
loop_
 _symmetry_equiv_pos_site_id
 _symmetry_equiv_pos_as_xyz
  1  'x, y, z'
loop_
 _atom_site_type_symbol
 _atom_site_label
 _atom_site_symmetry_multiplicity
 _atom_site_fract_x
 _atom_site_fract_y
 _atom_site_fract_z
 _atom_site_occupancy
  Cu  Cu0  1  0.65498000  0.95638000  0.17145000  1.0
  Cu  Cu1  1  0.34502000  0.04362000  0.82855000  1.0
  H  H2  1  0.40895000  0.12350000  0.50248000  1.0
  H  H3  1  0.59106000  0.87650000  0.49752000  1.0
  H  H4  1  0.82256000  0.27625000  0.08743000  1.0
  H  H5  1  0.17745000  0.72375000  0.91257000  1.0
  H  H6  1  0.78850000  0.53779000  0.07199000  1.0
  H  H7  1  0.21149000  0.46221000  0.92801000  1.0
  H  H8  1  0.53604000  0.58660000  0.27464000  1.0
  H  H9  1  0.46395000  0.41340000  0.72536000  1.0
  H  H10  1  0.33608000  0.36226000  0.49448000  1.0
  H  H11  1  0.66393000  0.63774000  0.50552000  1.0
  C  C12  1  0.60077000  0.17881000  0.29837000  1.0
  C  C13  1  0.39923000  0.82119000  0.70163000  1.0
  C  C14  1  0.71753000  0.30075000  0.17437000  1.0
  C  C15  1  0.28247000  0.69926000  0.82564000  1.0
  C  C16  1  0.69780000  0.44437000  0.16730000  1.0
  C  C17  1  0.30220000  0.55562000  0.83269000  1.0
  C  C18  1  0.55824000  0.47336000  0.28079000  1.0
  C  C19  1  0.44176000  0.52665000  0.71920000  1.0
  C  C20  1  0.44901000  0.35387000  0.40040000  1.0
  C  C21  1  0.55098000  0.64612000  0.59960000  1.0
  N  N22  1  0.47253000  0.21269000  0.40713000  1.0
  N  N23  1  0.52748000  0.78731000  0.59287000  1.0
  Cl  Cl24  1  0.69691000  0.86032000  0.99936000  1.0
  Cl  Cl25  1  0.30309000  0.13967000  0.00064000  1.0
  Cl  Cl26  1  0.07691000  0.78984000  0.30226000  1.0
  Cl  Cl27  1  0.92309000  0.21016000  0.69774000  1.0
  O  O28  1  0.60720000  0.03957000  0.31915000  1.0
  O  O29  1  0.39280000  0.96043000  0.68085000  1.0
