# generated using pymatgen
data_ZnH24C28(NO3)2
_symmetry_space_group_name_H-M   'P 1'
_cell_length_a   9.05722000
_cell_length_b   9.16335000
_cell_length_c   15.98300000
_cell_angle_alpha   78.60580000
_cell_angle_beta   77.93320000
_cell_angle_gamma   85.52990000
_symmetry_Int_Tables_number   1
_chemical_formula_structural   ZnH24C28(NO3)2
_chemical_formula_sum   'Zn2 H48 C56 N4 O12'
_cell_volume   1270.69585069
_cell_formula_units_Z   2
loop_
 _symmetry_equiv_pos_site_id
 _symmetry_equiv_pos_as_xyz
  1  'x, y, z'
loop_
 _atom_site_type_symbol
 _atom_site_label
 _atom_site_symmetry_multiplicity
 _atom_site_fract_x
 _atom_site_fract_y
 _atom_site_fract_z
 _atom_site_occupancy
  Zn  Zn0  1  0.58390000  0.64900000  0.74948000  1.0
  Zn  Zn1  1  0.41610000  0.35100000  0.25052000  1.0
  H  H2  1  0.95499000  0.43003000  0.09398000  1.0
  H  H3  1  0.04501000  0.56997000  0.90602000  1.0
  H  H4  1  0.77996000  0.34536000  0.14657000  1.0
  H  H5  1  0.22004000  0.65464000  0.85343000  1.0
  H  H6  1  0.80891000  0.68031000  0.07167000  1.0
  H  H7  1  0.19109000  0.31969000  0.92833000  1.0
  H  H8  1  0.80260000  0.60018000  0.18317000  1.0
  H  H9  1  0.19740000  0.39982000  0.81683000  1.0
  H  H10  1  0.64351000  0.58933000  0.13684000  1.0
  H  H11  1  0.35649000  0.41067000  0.86316000  1.0
  H  H12  1  0.93124000  0.18596000  0.08424000  1.0
  H  H13  1  0.06876000  0.81404000  0.91576000  1.0
  H  H14  1  0.96925000  0.98141000  0.85851000  1.0
  H  H15  1  0.03075000  0.01859000  0.14150000  1.0
  H  H16  1  0.84826000  0.20618000  0.78550000  1.0
  H  H17  1  0.15173000  0.79382000  0.21450000  1.0
  H  H18  1  0.21884000  0.60479000  0.40858000  1.0
  H  H19  1  0.78116000  0.39521000  0.59142000  1.0
  H  H20  1  0.38353000  0.79144000  0.35584000  1.0
  H  H21  1  0.61647000  0.20856000  0.64416000  1.0
  H  H22  1  0.46667000  0.60711000  0.37662000  1.0
  H  H23  1  0.53333000  0.39289000  0.62338000  1.0
  H  H24  1  0.62073000  0.89655000  0.37396000  1.0
  H  H25  1  0.37927000  0.10345000  0.62604000  1.0
  H  H26  1  0.66373000  0.78096000  0.29406000  1.0
  H  H27  1  0.33627000  0.21904000  0.70594000  1.0
  H  H28  1  0.69943000  0.71090000  0.39957000  1.0
  H  H29  1  0.30057000  0.28910000  0.60043000  1.0
  H  H30  1  0.07342000  0.56753000  0.72840000  1.0
  H  H31  1  0.92658000  0.43247000  0.27160000  1.0
  H  H32  1  0.90928000  0.46689000  0.65262000  1.0
  H  H33  1  0.09072000  0.53311000  0.34738000  1.0
  H  H34  1  0.85598000  0.80642000  0.75010000  1.0
  H  H35  1  0.14402000  0.19358000  0.24990000  1.0
  H  H36  1  0.05140000  0.95727000  0.64359000  1.0
  H  H37  1  0.94860000  0.04273000  0.35641000  1.0
  H  H38  1  0.79407000  0.93291000  0.44653000  1.0
  H  H39  1  0.20594000  0.06709000  0.55347000  1.0
  H  H40  1  0.61414000  0.77860000  0.56092000  1.0
  H  H41  1  0.38586000  0.22140000  0.43908000  1.0
  H  H42  1  0.46581000  0.13096000  0.86002000  1.0
  H  H43  1  0.53418000  0.86904000  0.13998000  1.0
  H  H44  1  0.47124000  0.95789000  0.75738000  1.0
  H  H45  1  0.52876000  0.04211000  0.24262000  1.0
  H  H46  1  0.54539000  0.59017000  0.94255000  1.0
  H  H47  1  0.45461000  0.40983000  0.05745000  1.0
  H  H48  1  0.52380000  0.74145000  0.05624000  1.0
  H  H49  1  0.47620000  0.25855000  0.94376000  1.0
  C  C50  1  0.76617000  0.46428000  0.84109000  1.0
  C  C51  1  0.23383000  0.53572000  0.15891000  1.0
  C  C52  1  0.82590000  0.32481000  0.89070000  1.0
  C  C53  1  0.17410000  0.67519000  0.10930000  1.0
  C  C54  1  0.84834000  0.31736000  0.97632000  1.0
  C  C55  1  0.15166000  0.68264000  0.02368000  1.0
  C  C56  1  0.83173000  0.44042000  0.09857000  1.0
  C  C57  1  0.16827000  0.55958000  0.90143000  1.0
  C  C58  1  0.76747000  0.58667000  0.12358000  1.0
  C  C59  1  0.23253000  0.41333000  0.87642000  1.0
  C  C60  1  0.91553000  0.18924000  0.01836000  1.0
  C  C61  1  0.08447000  0.81076000  0.98164000  1.0
  C  C62  1  0.96276000  0.06643000  0.97726000  1.0
  C  C63  1  0.03723000  0.93357000  0.02274000  1.0
  C  C64  1  0.93648000  0.07398000  0.89279000  1.0
  C  C65  1  0.06352000  0.92602000  0.10721000  1.0
  C  C66  1  0.86779000  0.20082000  0.85116000  1.0
  C  C67  1  0.13220000  0.79918000  0.14884000  1.0
  C  C68  1  0.04986000  0.52874000  0.52381000  1.0
  C  C69  1  0.95014000  0.47126000  0.47619000  1.0
  C  C70  1  0.18578000  0.59616000  0.47869000  1.0
  C  C71  1  0.81422000  0.40384000  0.52131000  1.0
  C  C72  1  0.28065000  0.65157000  0.52260000  1.0
  C  C73  1  0.71935000  0.34843000  0.47739000  1.0
  C  C74  1  0.46446000  0.72023000  0.39052000  1.0
  C  C75  1  0.53554000  0.27977000  0.60948000  1.0
  C  C76  1  0.62100000  0.78160000  0.36360000  1.0
  C  C77  1  0.37900000  0.21840000  0.63640000  1.0
  C  C78  1  0.23997000  0.64234000  0.61336000  1.0
  C  C79  1  0.76003000  0.35766000  0.38664000  1.0
  C  C80  1  0.10649000  0.57477000  0.65814000  1.0
  C  C81  1  0.89351000  0.42523000  0.34186000  1.0
  C  C82  1  0.01258000  0.51814000  0.61451000  1.0
  C  C83  1  0.98742000  0.48186000  0.38549000  1.0
  C  C84  1  0.34233000  0.69755000  0.66189000  1.0
  C  C85  1  0.65767000  0.30245000  0.33811000  1.0
  C  C86  1  0.84708000  0.84003000  0.68203000  1.0
  C  C87  1  0.15292000  0.15997000  0.31797000  1.0
  C  C88  1  0.95534000  0.92425000  0.62151000  1.0
  C  C89  1  0.04466000  0.07575000  0.37849000  1.0
  C  C90  1  0.94216000  0.95797000  0.53374000  1.0
  C  C91  1  0.05784000  0.04203000  0.46625000  1.0
  C  C92  1  0.81474000  0.90743000  0.51251000  1.0
  C  C93  1  0.18526000  0.09257000  0.48748000  1.0
  C  C94  1  0.71198000  0.82201000  0.57632000  1.0
  C  C95  1  0.28802000  0.17799000  0.42368000  1.0
  C  C96  1  0.49924000  0.95210000  0.96806000  1.0
  C  C97  1  0.50075000  0.04790000  0.03195000  1.0
  C  C98  1  0.48188000  0.01179000  0.88241000  1.0
  C  C99  1  0.51812000  0.98821000  0.11759000  1.0
  C  C100  1  0.48682000  0.91734000  0.82394000  1.0
  C  C101  1  0.51318000  0.08266000  0.17606000  1.0
  C  C102  1  0.52477000  0.71014000  0.92779000  1.0
  C  C103  1  0.47522000  0.28986000  0.07221000  1.0
  C  C104  1  0.51551000  0.79676000  0.99066000  1.0
  C  C105  1  0.48449000  0.20324000  0.00935000  1.0
  N  N106  1  0.72866000  0.78737000  0.65989000  1.0
  N  N107  1  0.27135000  0.21263000  0.34011000  1.0
  N  N108  1  0.51201000  0.76900000  0.84556000  1.0
  N  N109  1  0.48799000  0.23100000  0.15444000  1.0
  O  O110  1  0.65235000  0.44934000  0.80551000  1.0
  O  O111  1  0.34764000  0.55066000  0.19449000  1.0
  O  O112  1  0.82599000  0.58554000  0.83452000  1.0
  O  O113  1  0.17401000  0.41446000  0.16548000  1.0
  O  O114  1  0.79742000  0.43728000  0.01431000  1.0
  O  O115  1  0.20258000  0.56272000  0.98569000  1.0
  O  O116  1  0.41502000  0.71596000  0.48302000  1.0
  O  O117  1  0.58498000  0.28404000  0.51698000  1.0
  O  O118  1  0.44086000  0.59589000  0.68637000  1.0
  O  O119  1  0.55914000  0.40411000  0.31363000  1.0
  O  O120  1  0.32871000  0.82700000  0.67694000  1.0
  O  O121  1  0.67129000  0.17300000  0.32307000  1.0
