# generated using pymatgen
data_CdH14C14(NO2)3
_symmetry_space_group_name_H-M   'P 1'
_cell_length_a   8.44021000
_cell_length_b   9.58978000
_cell_length_c   10.33210000
_cell_angle_alpha   78.89510000
_cell_angle_beta   74.73400000
_cell_angle_gamma   74.07300000
_symmetry_Int_Tables_number   1
_chemical_formula_structural   CdH14C14(NO2)3
_chemical_formula_sum   'Cd2 H28 C28 N6 O12'
_cell_volume   769.24194324
_cell_formula_units_Z   2
loop_
 _symmetry_equiv_pos_site_id
 _symmetry_equiv_pos_as_xyz
  1  'x, y, z'
loop_
 _atom_site_type_symbol
 _atom_site_label
 _atom_site_symmetry_multiplicity
 _atom_site_fract_x
 _atom_site_fract_y
 _atom_site_fract_z
 _atom_site_occupancy
  Cd  Cd0  1  0.79268000  0.96941000  0.12218000  1.0
  Cd  Cd1  1  0.20731000  0.03060000  0.87782000  1.0
  H  H2  1  0.50339000  0.06498000  0.29535000  1.0
  H  H3  1  0.49663000  0.93502000  0.70464000  1.0
  H  H4  1  0.42983000  0.05016000  0.17182000  1.0
  H  H5  1  0.57017000  0.94985000  0.82818000  1.0
  H  H6  1  0.73706000  0.99222000  0.63926000  1.0
  H  H7  1  0.26293000  0.00780000  0.36075000  1.0
  H  H8  1  0.94073000  0.31741000  0.73261000  1.0
  H  H9  1  0.05931000  0.68258000  0.26737000  1.0
  H  H10  1  0.93146000  0.30037000  0.32055000  1.0
  H  H11  1  0.06856000  0.69962000  0.67944000  1.0
  H  H12  1  0.64562000  0.33582000  0.16196000  1.0
  H  H13  1  0.35437000  0.66419000  0.83806000  1.0
  H  H14  1  0.82533000  0.35780000  0.03501000  1.0
  H  H15  1  0.17467000  0.64219000  0.96500000  1.0
  H  H16  1  0.76017000  0.71391000  0.86871000  1.0
  H  H17  1  0.23982000  0.28608000  0.13127000  1.0
  H  H18  1  0.92949000  0.56497000  0.89819000  1.0
  H  H19  1  0.07051000  0.43502000  0.10179000  1.0
  H  H20  1  0.93533000  0.74664000  0.91113000  1.0
  H  H21  1  0.06466000  0.25335000  0.08884000  1.0
  H  H22  1  0.56759000  0.48180000  0.34534000  1.0
  H  H23  1  0.43243000  0.51821000  0.65466000  1.0
  H  H24  1  0.63258000  0.74290000  0.37877000  1.0
  H  H25  1  0.36743000  0.25712000  0.62120000  1.0
  H  H26  1  0.65095000  0.51900000  0.88198000  1.0
  H  H27  1  0.34904000  0.48097000  0.11803000  1.0
  H  H28  1  0.58604000  0.35437000  0.94254000  1.0
  H  H29  1  0.41395000  0.64560000  0.05749000  1.0
  C  C30  1  0.82386000  0.14206000  0.47095000  1.0
  C  C31  1  0.17613000  0.85795000  0.52905000  1.0
  C  C32  1  0.78933000  0.08833000  0.60821000  1.0
  C  C33  1  0.21066000  0.91168000  0.39180000  1.0
  C  C34  1  0.93680000  0.32440000  0.52238000  1.0
  C  C35  1  0.06321000  0.67559000  0.47763000  1.0
  C  C36  1  0.83159000  0.15091000  0.70230000  1.0
  C  C37  1  0.16842000  0.84910000  0.29770000  1.0
  C  C38  1  0.78824000  0.06878000  0.36911000  1.0
  C  C39  1  0.21173000  0.93122000  0.63091000  1.0
  C  C40  1  0.90595000  0.27041000  0.65961000  1.0
  C  C41  1  0.09407000  0.72960000  0.34039000  1.0
  C  C42  1  0.80339000  0.08746000  0.84779000  1.0
  C  C43  1  0.19660000  0.91256000  0.15222000  1.0
  C  C44  1  0.89944000  0.26045000  0.42753000  1.0
  C  C45  1  0.10056000  0.73955000  0.57247000  1.0
  C  C46  1  0.77142000  0.65152000  0.07744000  1.0
  C  C47  1  0.22858000  0.34848000  0.92254000  1.0
  C  C48  1  0.69582000  0.41354000  0.07943000  1.0
  C  C49  1  0.30418000  0.58644000  0.92058000  1.0
  C  C50  1  0.85378000  0.66994000  0.93166000  1.0
  C  C51  1  0.14621000  0.33005000  0.06832000  1.0
  C  C52  1  0.63219000  0.55882000  0.27527000  1.0
  C  C53  1  0.36782000  0.44118000  0.72472000  1.0
  C  C54  1  0.66407000  0.68685000  0.29035000  1.0
  C  C55  1  0.33595000  0.31317000  0.70964000  1.0
  C  C56  1  0.58938000  0.45694000  0.97333000  1.0
  C  C57  1  0.41061000  0.54304000  0.02669000  1.0
  N  N58  1  0.02414000  0.44036000  0.46813000  1.0
  N  N59  1  0.97589000  0.55963000  0.53187000  1.0
  N  N60  1  0.75074000  0.74326000  0.16679000  1.0
  N  N61  1  0.24927000  0.25675000  0.83318000  1.0
  N  N62  1  0.70096000  0.53736000  0.14126000  1.0
  N  N63  1  0.29904000  0.46264000  0.85873000  1.0
  O  O64  1  0.88737000  0.11632000  0.92303000  1.0
  O  O65  1  0.11262000  0.88370000  0.07698000  1.0
  O  O66  1  0.85303000  0.10946000  0.24438000  1.0
  O  O67  1  0.14697000  0.89052000  0.75563000  1.0
  O  O68  1  0.70159000  0.97429000  0.40821000  1.0
  O  O69  1  0.29834000  0.02575000  0.59181000  1.0
  O  O70  1  0.69900000  0.00734000  0.89536000  1.0
  O  O71  1  0.30099000  0.99268000  0.10464000  1.0
  O  O72  1  0.50782000  0.09599000  0.19858000  1.0
  O  O73  1  0.49218000  0.90402000  0.80141000  1.0
  O  O74  1  0.13917000  0.42896000  0.35976000  1.0
  O  O75  1  0.86089000  0.57101000  0.64026000  1.0
