# generated using pymatgen
data_Zn2H24C36S5Br4(N2O3)5
_symmetry_space_group_name_H-M   'P 1'
_cell_length_a   20.01940000
_cell_length_b   20.23230000
_cell_length_c   20.28960000
_cell_angle_alpha   108.44500000
_cell_angle_beta   104.69000000
_cell_angle_gamma   113.03600000
_symmetry_Int_Tables_number   1
_chemical_formula_structural   Zn2H24C36S5Br4(N2O3)5
_chemical_formula_sum   'Zn4 H48 C72 S10 Br8 N20 O30'
_cell_volume   6469.19961023
_cell_formula_units_Z   2
loop_
 _symmetry_equiv_pos_site_id
 _symmetry_equiv_pos_as_xyz
  1  'x, y, z'
loop_
 _atom_site_type_symbol
 _atom_site_label
 _atom_site_symmetry_multiplicity
 _atom_site_fract_x
 _atom_site_fract_y
 _atom_site_fract_z
 _atom_site_occupancy
  Zn  Zn0  1  0.61060000  0.60622000  0.49265000  1.0
  Zn  Zn1  1  0.39377000  0.40356000  0.51021000  1.0
  Zn  Zn2  1  0.50288000  0.60941000  0.60205000  1.0
  Zn  Zn3  1  0.50373000  0.40045000  0.41869000  1.0
  H  H4  1  0.76443000  0.79687000  0.60686000  1.0
  H  H5  1  0.08883000  0.61233000  0.60798000  1.0
  H  H6  1  0.04408000  0.52417000  0.51857000  1.0
  H  H7  1  0.92499000  0.39478000  0.64095000  1.0
  H  H8  1  0.87028000  0.36994000  0.54507000  1.0
  H  H9  1  0.09317000  0.51299000  0.73301000  1.0
  H  H10  1  0.98046000  0.39303000  0.51482000  1.0
  H  H11  1  0.64429000  0.63455000  0.75010000  1.0
  H  H12  1  0.49625000  0.04765000  0.52504000  1.0
  H  H13  1  0.40216000  0.94096000  0.31901000  1.0
  H  H14  1  0.40506000  0.83381000  0.32596000  1.0
  H  H15  1  0.22212000  0.37363000  0.53582000  1.0
  H  H16  1  0.26603000  0.90889000  0.41822000  1.0
  H  H17  1  0.28574000  0.80710000  0.43184000  1.0
  H  H18  1  0.39555000  0.90413000  0.54232000  1.0
  H  H19  1  0.62113000  0.37326000  0.52909000  1.0
  H  H20  1  0.28820000  0.77523000  0.34115000  1.0
  H  H21  1  0.65553000  0.61131000  0.86671000  1.0
  H  H22  1  0.76745000  0.60001000  0.17207000  1.0
  H  H23  1  0.74076000  0.60138000  0.28529000  1.0
  H  H24  1  0.60838000  0.37428000  0.72193000  1.0
  H  H25  1  0.57104000  0.34256000  0.15116000  1.0
  H  H26  1  0.35787000  0.61186000  0.49660000  1.0
  H  H27  1  0.23594000  0.35961000  0.15651000  1.0
  H  H28  1  0.49796000  0.37134000  0.62665000  1.0
  H  H29  1  0.11015000  0.26379000  0.03385000  1.0
  H  H30  1  0.83954000  0.04818000  0.93821000  1.0
  H  H31  1  0.71879000  0.92586000  0.82521000  1.0
  H  H32  1  0.85560000  0.93332000  0.69060000  1.0
  H  H33  1  0.47486000  0.21555000  0.37598000  1.0
  H  H34  1  0.61313000  0.80030000  0.72606000  1.0
  H  H35  1  0.66928000  0.60913000  0.35506000  1.0
  H  H36  1  0.53420000  0.77151000  0.35855000  1.0
  H  H37  1  0.38920000  0.36665000  0.25598000  1.0
  H  H38  1  0.29669000  0.69462000  0.63555000  1.0
  H  H39  1  0.02784000  0.34700000  0.69957000  1.0
  H  H40  1  0.48890000  0.00651000  0.67338000  1.0
  H  H41  1  0.13669000  0.74140000  0.23456000  1.0
  H  H42  1  0.31622000  0.05269000  0.49990000  1.0
  H  H43  1  0.59173000  0.59830000  0.02490000  1.0
  H  H44  1  0.58050000  0.35434000  0.94478000  1.0
  H  H45  1  0.18078000  0.06193000  0.20014000  1.0
  H  H46  1  0.05115000  0.15322000  0.90721000  1.0
  H  H47  1  0.23212000  0.34851000  0.37068000  1.0
  H  H48  1  0.13782000  0.60801000  0.73412000  1.0
  H  H49  1  0.91303000  0.48467000  0.50954000  1.0
  H  H50  1  0.32468000  0.21568000  0.49704000  1.0
  H  H51  1  0.95682000  0.58650000  0.57897000  1.0
  C  C52  1  0.71835000  0.78456000  0.62769000  1.0
  C  C53  1  0.50305000  0.66756000  0.44307000  1.0
  C  C54  1  0.57890000  0.41507000  0.30386000  1.0
  C  C55  1  0.36468000  0.22914000  0.46954000  1.0
  C  C56  1  0.34658000  0.57010000  0.62470000  1.0
  C  C57  1  0.62509000  0.47601000  0.28768000  1.0
  C  C58  1  0.26875000  0.50693000  0.60255000  1.0
  C  C59  1  0.43925000  0.67750000  0.45212000  1.0
  C  C60  1  0.28079000  0.33833000  0.28155000  1.0
  C  C61  1  0.00984000  0.55476000  0.70555000  1.0
  C  C62  1  0.96006000  0.53145000  0.56771000  1.0
  C  C63  1  0.39199000  0.18114000  0.43210000  1.0
  C  C64  1  0.04386000  0.54703000  0.57530000  1.0
  C  C65  1  0.20419000  0.51211000  0.61339000  1.0
  C  C66  1  0.93787000  0.49945000  0.62423000  1.0
  C  C67  1  0.60109000  0.57078000  0.70996000  1.0
  C  C68  1  0.08330000  0.54771000  0.70376000  1.0
  C  C69  1  0.07035000  0.50464000  0.61936000  1.0
  C  C70  1  0.99800000  0.41525000  0.57710000  1.0
  C  C71  1  0.92780000  0.41363000  0.59614000  1.0
  C  C72  1  0.14408000  0.51002000  0.61773000  1.0
  C  C73  1  0.86336000  0.49610000  0.62146000  1.0
  C  C74  1  0.59116000  0.50086000  0.71707000  1.0
  C  C75  1  0.79947000  0.49400000  0.60535000  1.0
  C  C76  1  0.43463000  0.00070000  0.50914000  1.0
  C  C77  1  0.43388000  0.95778000  0.37946000  1.0
  C  C78  1  0.44153000  0.88561000  0.38391000  1.0
  C  C79  1  0.64801000  0.43683000  0.54264000  1.0
  C  C80  1  0.42010000  0.73465000  0.44262000  1.0
  C  C81  1  0.38409000  0.97572000  0.42333000  1.0
  C  C82  1  0.43683000  0.92918000  0.51845000  1.0
  C  C83  1  0.40615000  0.85872000  0.43722000  1.0
  C  C84  1  0.31462000  0.82802000  0.39739000  1.0
  C  C85  1  0.72970000  0.49836000  0.58139000  1.0
  C  C86  1  0.30180000  0.89556000  0.38895000  1.0
  C  C87  1  0.41359000  0.79117000  0.44023000  1.0
  C  C88  1  0.37503000  0.04216000  0.41911000  1.0
  C  C89  1  0.37921000  0.10551000  0.42487000  1.0
  C  C90  1  0.65022000  0.47280000  0.22615000  1.0
  C  C91  1  0.52692000  0.43636000  0.64637000  1.0
  C  C92  1  0.61450000  0.40008000  0.15747000  1.0
  C  C93  1  0.63114000  0.39883000  0.09497000  1.0
  C  C94  1  0.68465000  0.47289000  0.09839000  1.0
  C  C95  1  0.72540000  0.54418000  0.16973000  1.0
  C  C96  1  0.63866000  0.54717000  0.34582000  1.0
  C  C97  1  0.70910000  0.54455000  0.23205000  1.0
  C  C98  1  0.67096000  0.54236000  0.92356000  1.0
  C  C99  1  0.65318000  0.55460000  0.85907000  1.0
  C  C100  1  0.66106000  0.46615000  0.91577000  1.0
  C  C101  1  0.62609000  0.49344000  0.78477000  1.0
  C  C102  1  0.62459000  0.42148000  0.77774000  1.0
  C  C103  1  0.72709000  0.56692000  0.58031000  1.0
  C  C104  1  0.64131000  0.40852000  0.84160000  1.0
  C  C105  1  0.77942000  0.91682000  0.75081000  1.0
  C  C106  1  0.85109000  0.95725000  0.74449000  1.0
  C  C107  1  0.26992000  0.43668000  0.56271000  1.0
  C  C108  1  0.91854000  0.02569000  0.80774000  1.0
  C  C109  1  0.91605000  0.05678000  0.87957000  1.0
  C  C110  1  0.84185000  0.02188000  0.88356000  1.0
  C  C111  1  0.77501000  0.95367000  0.82038000  1.0
  C  C112  1  0.12218000  0.24825000  0.08060000  1.0
  C  C113  1  0.19253000  0.30081000  0.14819000  1.0
  C  C114  1  0.06261000  0.17644000  0.07329000  1.0
  C  C115  1  0.44172000  0.22932000  0.40763000  1.0
  C  C116  1  0.20891000  0.28080000  0.20832000  1.0
  C  C117  1  0.15237000  0.20406000  0.19767000  1.0
  C  C118  1  0.40713000  0.62313000  0.48006000  1.0
  C  C119  1  0.07655000  0.15622000  0.13417000  1.0
  C  C120  1  0.64155000  0.78644000  0.68901000  1.0
  C  C121  1  0.71553000  0.83627000  0.69111000  1.0
  C  C122  1  0.36224000  0.37146000  0.29620000  1.0
  C  C123  1  0.28220000  0.36147000  0.35517000  1.0
  S  S124  1  0.58335000  0.73018000  0.43059000  1.0
  S  S125  1  0.01071000  0.06081000  0.79736000  1.0
  S  S126  1  0.39215000  0.67489000  0.67793000  1.0
  S  S127  1  0.01673000  0.33774000  0.58909000  1.0
  S  S128  1  0.53681000  0.96695000  0.59597000  1.0
  S  S129  1  0.23952000  0.86094000  0.28844000  1.0
  S  S130  1  0.41173000  0.05864000  0.58085000  1.0
  S  S131  1  0.69948000  0.62825000  0.01113000  1.0
  S  S132  1  0.58542000  0.29966000  0.01576000  1.0
  S  S133  1  0.18419000  0.16906000  0.26471000  1.0
  Br  Br134  1  0.53503000  0.30211000  0.25637000  1.0
  Br  Br135  1  0.03603000  0.66871000  0.74100000  1.0
  Br  Br136  1  0.97982000  0.52239000  0.78114000  1.0
  Br  Br137  1  0.53484000  0.05826000  0.41522000  1.0
  Br  Br138  1  0.54935000  0.90077000  0.40705000  1.0
  Br  Br139  1  0.63764000  0.31009000  0.82852000  1.0
  Br  Br140  1  0.99031000  0.06487000  0.12583000  1.0
  Br  Br141  1  0.81570000  0.67052000  0.61928000  1.0
  N  N142  1  0.65268000  0.71058000  0.59195000  1.0
  N  N143  1  0.65615000  0.43842000  0.97050000  1.0
  N  N144  1  0.98903000  0.11579000  0.94444000  1.0
  N  N145  1  0.39620000  0.29998000  0.46770000  1.0
  N  N146  1  0.98865000  0.12165000  0.00862000  1.0
  N  N147  1  0.54625000  0.54859000  0.64080000  1.0
  N  N148  1  0.60218000  0.46684000  0.52019000  1.0
  N  N149  1  0.50029000  0.46606000  0.60210000  1.0
  N  N150  1  0.65098000  0.54756000  0.54388000  1.0
  N  N151  1  0.44384000  0.30014000  0.42944000  1.0
  N  N152  1  0.60436000  0.71180000  0.62973000  1.0
  N  N153  1  0.34241000  0.45808000  0.56194000  1.0
  N  N154  1  0.60391000  0.52989000  0.39116000  1.0
  N  N155  1  0.44962000  0.58566000  0.48825000  1.0
  N  N156  1  0.40806000  0.40894000  0.37294000  1.0
  N  N157  1  0.35855000  0.40315000  0.40894000  1.0
  N  N158  1  0.50709000  0.61151000  0.46333000  1.0
  N  N159  1  0.56722000  0.44752000  0.36541000  1.0
  N  N160  1  0.38982000  0.54031000  0.59965000  1.0
  N  N161  1  0.69938000  0.49098000  0.04100000  1.0
  O  O162  1  0.62204000  0.81248000  0.48893000  1.0
  O  O163  1  0.55882000  0.90639000  0.58238000  1.0
  O  O164  1  0.59029000  0.04760000  0.60964000  1.0
  O  O165  1  0.51366000  0.97215000  0.66650000  1.0
  O  O166  1  0.22615000  0.92323000  0.28082000  1.0
  O  O167  1  0.26671000  0.82043000  0.23855000  1.0
  O  O168  1  0.15770000  0.79139000  0.28141000  1.0
  O  O169  1  0.41262000  0.02946000  0.63742000  1.0
  O  O170  1  0.46037000  0.14328000  0.60419000  1.0
  O  O171  1  0.31841000  0.02839000  0.53533000  1.0
  O  O172  1  0.77824000  0.65880000  0.06717000  1.0
  O  O173  1  0.62943000  0.69064000  0.42167000  1.0
  O  O174  1  0.67972000  0.68178000  0.98897000  1.0
  O  O175  1  0.63569000  0.58881000  0.04315000  1.0
  O  O176  1  0.65059000  0.29128000  0.00460000  1.0
  O  O177  1  0.52878000  0.24173000  0.02953000  1.0
  O  O178  1  0.53608000  0.30655000  0.94715000  1.0
  O  O179  1  0.26905000  0.19880000  0.28898000  1.0
  O  O180  1  0.15105000  0.18105000  0.31940000  1.0
  O  O181  1  0.14013000  0.07239000  0.21168000  1.0
  O  O182  1  0.04726000  0.01774000  0.81969000  1.0
  O  O183  1  0.99454000  0.05710000  0.72272000  1.0
  O  O184  1  0.54113000  0.72353000  0.34885000  1.0
  O  O185  1  0.06098000  0.15351000  0.85975000  1.0
  O  O186  1  0.38187000  0.69600000  0.74753000  1.0
  O  O187  1  0.47070000  0.70918000  0.67839000  1.0
  O  O188  1  0.34141000  0.69743000  0.62260000  1.0
  O  O189  1  0.93980000  0.26790000  0.56453000  1.0
  O  O190  1  0.07173000  0.33079000  0.55776000  1.0
  O  O191  1  0.06460000  0.37726000  0.68206000  1.0
