# generated using pymatgen
data_PrH27C27SN5Cl3
_symmetry_space_group_name_H-M   'P 1'
_cell_length_a   9.17223000
_cell_length_b   18.35010000
_cell_length_c   18.55410000
_cell_angle_alpha   106.97300000
_cell_angle_beta   89.97230000
_cell_angle_gamma   104.47600000
_symmetry_Int_Tables_number   1
_chemical_formula_structural   PrH27C27SN5Cl3
_chemical_formula_sum   'Pr4 H108 C108 S4 N20 Cl12'
_cell_volume   2883.14260665
_cell_formula_units_Z   4
loop_
 _symmetry_equiv_pos_site_id
 _symmetry_equiv_pos_as_xyz
  1  'x, y, z'
loop_
 _atom_site_type_symbol
 _atom_site_label
 _atom_site_symmetry_multiplicity
 _atom_site_fract_x
 _atom_site_fract_y
 _atom_site_fract_z
 _atom_site_occupancy
  Pr  Pr0  1  0.43016000  0.72969000  0.61611000  1.0
  Pr  Pr1  1  0.70038000  0.27029000  0.88385000  1.0
  Pr  Pr2  1  0.56983000  0.27031000  0.38388000  1.0
  Pr  Pr3  1  0.29962000  0.72971000  0.11615000  1.0
  H  H4  1  0.28869000  0.85746000  0.91955000  1.0
  H  H5  1  0.43130000  0.14255000  0.58040000  1.0
  H  H6  1  0.71130000  0.14254000  0.08045000  1.0
  H  H7  1  0.56870000  0.85745000  0.41960000  1.0
  H  H8  1  0.25131000  0.77317000  0.78443000  1.0
  H  H9  1  0.47796000  0.22687000  0.71551000  1.0
  H  H10  1  0.74869000  0.22683000  0.21557000  1.0
  H  H11  1  0.52204000  0.77312000  0.28449000  1.0
  H  H12  1  0.05673000  0.73437000  0.63821000  1.0
  H  H13  1  0.32234000  0.26558000  0.86184000  1.0
  H  H14  1  0.94327000  0.26563000  0.36179000  1.0
  H  H15  1  0.67766000  0.73442000  0.13816000  1.0
  H  H16  1  0.36651000  0.74764000  0.44384000  1.0
  H  H17  1  0.61912000  0.25245000  0.05609000  1.0
  H  H18  1  0.63349000  0.25236000  0.55616000  1.0
  H  H19  1  0.38088000  0.74755000  0.94391000  1.0
  H  H20  1  0.73560000  0.97054000  0.87476000  1.0
  H  H21  1  0.76501000  0.02949000  0.62521000  1.0
  H  H22  1  0.26440000  0.02946000  0.12524000  1.0
  H  H23  1  0.23499000  0.97051000  0.37479000  1.0
  H  H24  1  0.25896000  0.01678000  0.66874000  1.0
  H  H25  1  0.24204000  0.98314000  0.83125000  1.0
  H  H26  1  0.74103000  0.98322000  0.33126000  1.0
  H  H27  1  0.75796000  0.01686000  0.16875000  1.0
  H  H28  1  0.41931000  0.92186000  0.63860000  1.0
  H  H29  1  0.49727000  0.07808000  0.86156000  1.0
  H  H30  1  0.58069000  0.07814000  0.36140000  1.0
  H  H31  1  0.50273000  0.92192000  0.13844000  1.0
  H  H32  1  0.68107000  0.88107000  0.74143000  1.0
  H  H33  1  0.79961000  0.11893000  0.75851000  1.0
  H  H34  1  0.31893000  0.11893000  0.25857000  1.0
  H  H35  1  0.20039000  0.88107000  0.24149000  1.0
  H  H36  1  0.52018000  0.93076000  0.02531000  1.0
  H  H37  1  0.58950000  0.06918000  0.47460000  1.0
  H  H38  1  0.47982000  0.06924000  0.97469000  1.0
  H  H39  1  0.41050000  0.93082000  0.52540000  1.0
  H  H40  1  0.66861000  0.00116000  0.00189000  1.0
  H  H41  1  0.66743000  0.99875000  0.49802000  1.0
  H  H42  1  0.33139000  0.99884000  0.99811000  1.0
  H  H43  1  0.33257000  0.00125000  0.50198000  1.0
  H  H44  1  0.88379000  0.82085000  0.67245000  1.0
  H  H45  1  0.06304000  0.17910000  0.82749000  1.0
  H  H46  1  0.11621000  0.17915000  0.32755000  1.0
  H  H47  1  0.93697000  0.82090000  0.17251000  1.0
  H  H48  1  0.90878000  0.53228000  0.41828000  1.0
  H  H49  1  0.37640000  0.46772000  0.08179000  1.0
  H  H50  1  0.09122000  0.46772000  0.58172000  1.0
  H  H51  1  0.62360000  0.53228000  0.91821000  1.0
  H  H52  1  0.22880000  0.68115000  0.31677000  1.0
  H  H53  1  0.54812000  0.31906000  0.18326000  1.0
  H  H54  1  0.77120000  0.31885000  0.68323000  1.0
  H  H55  1  0.45188000  0.68094000  0.81674000  1.0
  H  H56  1  0.99323000  0.03341000  0.68257000  1.0
  H  H57  1  0.95969000  0.96658000  0.81739000  1.0
  H  H58  1  0.00677000  0.96659000  0.31743000  1.0
  H  H59  1  0.04031000  0.03342000  0.18261000  1.0
  H  H60  1  0.84287000  0.95266000  0.68732000  1.0
  H  H61  1  0.89022000  0.04738000  0.81268000  1.0
  H  H62  1  0.15713000  0.04734000  0.31267000  1.0
  H  H63  1  0.10977000  0.95262000  0.18732000  1.0
  H  H64  1  0.92222000  0.54807000  0.12515000  1.0
  H  H65  1  0.37448000  0.45191000  0.37486000  1.0
  H  H66  1  0.07778000  0.45193000  0.87485000  1.0
  H  H67  1  0.62552000  0.54809000  0.62514000  1.0
  H  H68  1  0.06269000  0.60385000  0.54190000  1.0
  H  H69  1  0.45858000  0.39606000  0.95809000  1.0
  H  H70  1  0.93731000  0.39615000  0.45810000  1.0
  H  H71  1  0.54142000  0.60393000  0.04191000  1.0
  H  H72  1  0.81047000  0.46110000  0.99796000  1.0
  H  H73  1  0.34933000  0.53893000  0.50200000  1.0
  H  H74  1  0.18953000  0.53890000  0.00204000  1.0
  H  H75  1  0.65066000  0.46107000  0.49799000  1.0
  H  H76  1  0.06731000  0.35182000  0.15634000  1.0
  H  H77  1  0.71554000  0.64821000  0.34353000  1.0
  H  H78  1  0.93270000  0.64818000  0.84365000  1.0
  H  H79  1  0.28446000  0.35179000  0.65647000  1.0
  H  H80  1  0.95462000  0.27362000  0.02618000  1.0
  H  H81  1  0.68101000  0.72640000  0.47375000  1.0
  H  H82  1  0.04539000  0.72638000  0.97382000  1.0
  H  H83  1  0.31899000  0.27360000  0.52625000  1.0
  H  H84  1  0.86941000  0.51436000  0.28752000  1.0
  H  H85  1  0.35548000  0.48583000  0.21265000  1.0
  H  H86  1  0.13059000  0.48563000  0.71247000  1.0
  H  H87  1  0.64452000  0.51417000  0.78735000  1.0
  H  H88  1  0.95015000  0.59562000  0.25263000  1.0
  H  H89  1  0.35485000  0.40451000  0.24744000  1.0
  H  H90  1  0.04985000  0.40438000  0.74737000  1.0
  H  H91  1  0.64515000  0.59549000  0.75256000  1.0
  H  H92  1  0.10507000  0.46761000  0.26026000  1.0
  H  H93  1  0.63796000  0.53237000  0.23971000  1.0
  H  H94  1  0.89494000  0.53239000  0.73974000  1.0
  H  H95  1  0.36204000  0.46763000  0.76029000  1.0
  H  H96  1  0.17906000  0.54740000  0.22372000  1.0
  H  H97  1  0.63192000  0.45253000  0.27623000  1.0
  H  H98  1  0.82095000  0.45260000  0.77628000  1.0
  H  H99  1  0.36808000  0.54747000  0.72377000  1.0
  H  H100  1  0.97588000  0.73854000  0.32895000  1.0
  H  H101  1  0.23759000  0.26143000  0.17096000  1.0
  H  H102  1  0.02413000  0.26147000  0.67105000  1.0
  H  H103  1  0.76241000  0.73857000  0.82904000  1.0
  H  H104  1  0.82254000  0.83495000  0.30437000  1.0
  H  H105  1  0.98786000  0.16505000  0.19566000  1.0
  H  H106  1  0.17746000  0.16505000  0.69563000  1.0
  H  H107  1  0.01213000  0.83496000  0.80434000  1.0
  H  H108  1  0.95939000  0.94190000  0.53563000  1.0
  H  H109  1  0.01765000  0.05809000  0.96434000  1.0
  H  H110  1  0.04060000  0.05810000  0.46437000  1.0
  H  H111  1  0.98235000  0.94191000  0.03566000  1.0
  C  C112  1  0.51760000  0.92047000  0.90856000  1.0
  C  C113  1  0.59721000  0.07957000  0.59136000  1.0
  C  C114  1  0.48240000  0.07953000  0.09144000  1.0
  C  C115  1  0.40279000  0.92043000  0.40864000  1.0
  C  C116  1  0.37867000  0.86471000  0.88175000  1.0
  C  C117  1  0.51399000  0.13532000  0.61819000  1.0
  C  C118  1  0.62133000  0.13529000  0.11825000  1.0
  C  C119  1  0.48601000  0.86468000  0.38181000  1.0
  C  C120  1  0.35705000  0.81811000  0.80665000  1.0
  C  C121  1  0.53878000  0.18192000  0.69329000  1.0
  C  C122  1  0.64295000  0.18189000  0.19335000  1.0
  C  C123  1  0.46122000  0.81808000  0.30671000  1.0
  C  C124  1  0.09836000  0.79760000  0.64640000  1.0
  C  C125  1  0.30075000  0.20234000  0.85364000  1.0
  C  C126  1  0.90164000  0.20240000  0.35360000  1.0
  C  C127  1  0.69925000  0.79766000  0.14636000  1.0
  C  C128  1  0.26456000  0.69931000  0.43606000  1.0
  C  C129  1  0.56549000  0.30078000  0.06391000  1.0
  C  C130  1  0.73543000  0.30069000  0.56394000  1.0
  C  C131  1  0.43451000  0.69922000  0.93609000  1.0
  C  C132  1  0.62693000  0.92736000  0.85675000  1.0
  C  C133  1  0.69954000  0.07269000  0.64319000  1.0
  C  C134  1  0.37306000  0.07264000  0.14325000  1.0
  C  C135  1  0.30046000  0.92731000  0.35681000  1.0
  C  C136  1  0.21006000  0.95500000  0.66447000  1.0
  C  C137  1  0.25496000  0.04493000  0.83553000  1.0
  C  C138  1  0.78994000  0.04500000  0.33553000  1.0
  C  C139  1  0.74504000  0.95507000  0.16447000  1.0
  C  C140  1  0.29951000  0.90220000  0.64637000  1.0
  C  C141  1  0.39719000  0.09773000  0.85372000  1.0
  C  C142  1  0.70048000  0.09780000  0.35363000  1.0
  C  C143  1  0.60281000  0.90227000  0.14628000  1.0
  C  C144  1  0.59678000  0.87816000  0.78266000  1.0
  C  C145  1  0.71836000  0.12187000  0.71728000  1.0
  C  C146  1  0.40322000  0.12184000  0.21734000  1.0
  C  C147  1  0.28164000  0.87813000  0.28272000  1.0
  C  C148  1  0.54813000  0.97003000  0.98969000  1.0
  C  C149  1  0.57814000  0.02994000  0.51025000  1.0
  C  C150  1  0.45187000  0.02997000  0.01031000  1.0
  C  C151  1  0.42186000  0.97006000  0.48975000  1.0
  C  C152  1  0.00210000  0.84682000  0.66621000  1.0
  C  C153  1  0.15532000  0.15312000  0.83376000  1.0
  C  C154  1  0.99790000  0.15318000  0.33379000  1.0
  C  C155  1  0.84468000  0.84688000  0.16624000  1.0
  C  C156  1  0.00947000  0.58015000  0.42189000  1.0
  C  C157  1  0.42931000  0.41987000  0.07814000  1.0
  C  C158  1  0.99053000  0.41985000  0.57811000  1.0
  C  C159  1  0.57069000  0.58013000  0.92186000  1.0
  C  C160  1  0.05835000  0.92798000  0.67730000  1.0
  C  C161  1  0.13035000  0.07196000  0.82265000  1.0
  C  C162  1  0.94165000  0.07202000  0.32270000  1.0
  C  C163  1  0.86965000  0.92804000  0.17735000  1.0
  C  C164  1  0.05708000  0.59985000  0.35670000  1.0
  C  C165  1  0.45749000  0.40026000  0.14333000  1.0
  C  C166  1  0.94292000  0.40015000  0.64330000  1.0
  C  C167  1  0.54251000  0.59974000  0.85667000  1.0
  C  C168  1  0.18726000  0.66220000  0.36524000  1.0
  C  C169  1  0.52546000  0.33795000  0.13478000  1.0
  C  C170  1  0.81274000  0.33780000  0.63476000  1.0
  C  C171  1  0.47454000  0.66205000  0.86522000  1.0
  C  C172  1  0.00267000  0.45688000  0.15317000  1.0
  C  C173  1  0.54608000  0.54312000  0.34680000  1.0
  C  C174  1  0.99733000  0.54312000  0.84684000  1.0
  C  C175  1  0.45391000  0.45688000  0.65320000  1.0
  C  C176  1  0.96175000  0.98366000  0.70607000  1.0
  C  C177  1  0.97806000  0.01633000  0.79390000  1.0
  C  C178  1  0.03825000  0.01634000  0.29394000  1.0
  C  C179  1  0.02194000  0.98367000  0.20610000  1.0
  C  C180  1  0.92973000  0.48703000  0.10646000  1.0
  C  C181  1  0.44297000  0.51295000  0.39353000  1.0
  C  C182  1  0.07028000  0.51297000  0.89354000  1.0
  C  C183  1  0.55703000  0.48705000  0.60647000  1.0
  C  C184  1  0.09437000  0.61973000  0.49064000  1.0
  C  C185  1  0.47450000  0.38024000  0.00936000  1.0
  C  C186  1  0.90563000  0.38027000  0.50936000  1.0
  C  C187  1  0.52549000  0.61976000  0.99064000  1.0
  C  C188  1  0.86913000  0.43884000  0.03471000  1.0
  C  C189  1  0.43037000  0.56117000  0.46526000  1.0
  C  C190  1  0.13087000  0.56116000  0.96529000  1.0
  C  C191  1  0.56963000  0.43883000  0.53474000  1.0
  C  C192  1  0.01224000  0.37889000  0.12306000  1.0
  C  C193  1  0.63344000  0.62113000  0.37685000  1.0
  C  C194  1  0.98777000  0.62111000  0.87694000  1.0
  C  C195  1  0.36656000  0.37887000  0.62315000  1.0
  C  C196  1  0.94975000  0.33472000  0.05035000  1.0
  C  C197  1  0.61505000  0.66530000  0.44957000  1.0
  C  C198  1  0.05026000  0.66528000  0.94965000  1.0
  C  C199  1  0.38495000  0.33470000  0.55043000  1.0
  C  C200  1  0.97543000  0.55435000  0.28056000  1.0
  C  C201  1  0.42145000  0.44577000  0.21951000  1.0
  C  C202  1  0.02457000  0.44565000  0.71944000  1.0
  C  C203  1  0.57855000  0.55423000  0.78049000  1.0
  C  C204  1  0.07360000  0.50605000  0.23074000  1.0
  C  C205  1  0.56797000  0.49395000  0.26924000  1.0
  C  C206  1  0.92640000  0.49395000  0.76926000  1.0
  C  C207  1  0.43202000  0.50605000  0.73076000  1.0
  C  C208  1  0.95305000  0.78906000  0.37051000  1.0
  C  C209  1  0.16426000  0.21088000  0.12943000  1.0
  C  C210  1  0.04695000  0.21094000  0.62950000  1.0
  C  C211  1  0.83574000  0.78912000  0.87057000  1.0
  C  C212  1  0.87669000  0.84051000  0.35855000  1.0
  C  C213  1  0.03646000  0.15946000  0.14145000  1.0
  C  C214  1  0.12331000  0.15949000  0.64145000  1.0
  C  C215  1  0.96354000  0.84054000  0.85855000  1.0
  C  C216  1  0.94504000  0.89887000  0.47997000  1.0
  C  C217  1  0.04637000  0.10110000  0.02001000  1.0
  C  C218  1  0.05496000  0.10113000  0.52003000  1.0
  C  C219  1  0.95363000  0.89890000  0.97999000  1.0
  S  S220  1  0.02126000  0.81907000  0.46327000  1.0
  S  S221  1  0.20239000  0.18088000  0.03663000  1.0
  S  S222  1  0.97875000  0.18093000  0.53673000  1.0
  S  S223  1  0.79761000  0.81912000  0.96337000  1.0
  N  N224  1  0.46448000  0.82376000  0.75736000  1.0
  N  N225  1  0.64045000  0.17628000  0.74259000  1.0
  N  N226  1  0.53552000  0.17624000  0.24264000  1.0
  N  N227  1  0.35955000  0.82372000  0.25741000  1.0
  N  N228  1  0.22201000  0.67781000  0.49813000  1.0
  N  N229  1  0.54419000  0.32220000  0.00183000  1.0
  N  N230  1  0.77799000  0.32219000  0.50187000  1.0
  N  N231  1  0.45581000  0.67780000  0.99817000  1.0
  N  N232  1  0.24624000  0.82453000  0.63783000  1.0
  N  N233  1  0.42163000  0.17541000  0.86228000  1.0
  N  N234  1  0.75377000  0.17547000  0.36217000  1.0
  N  N235  1  0.57837000  0.82459000  0.13773000  1.0
  N  N236  1  0.87683000  0.36344000  0.00640000  1.0
  N  N237  1  0.51340000  0.63657000  0.49355000  1.0
  N  N238  1  0.12317000  0.63656000  0.99361000  1.0
  N  N239  1  0.48660000  0.36343000  0.50645000  1.0
  N  N240  1  0.87325000  0.90316000  0.42070000  1.0
  N  N241  1  0.97031000  0.09683000  0.07933000  1.0
  N  N242  1  0.12675000  0.09684000  0.57930000  1.0
  N  N243  1  0.02968000  0.90317000  0.92067000  1.0
  Cl  Cl244  1  0.61354000  0.85108000  0.57414000  1.0
  Cl  Cl245  1  0.76238000  0.14892000  0.92583000  1.0
  Cl  Cl246  1  0.38646000  0.14892000  0.42587000  1.0
  Cl  Cl247  1  0.23762000  0.85108000  0.07417000  1.0
  Cl  Cl248  1  0.67138000  0.69893000  0.67795000  1.0
  Cl  Cl249  1  0.97246000  0.30103000  0.82199000  1.0
  Cl  Cl250  1  0.32862000  0.30107000  0.32205000  1.0
  Cl  Cl251  1  0.02754000  0.69897000  0.17800000  1.0
  Cl  Cl252  1  0.21813000  0.62830000  0.66952000  1.0
  Cl  Cl253  1  0.58987000  0.37171000  0.83050000  1.0
  Cl  Cl254  1  0.78187000  0.37170000  0.33048000  1.0
  Cl  Cl255  1  0.41013000  0.62829000  0.16950000  1.0
