# generated using pymatgen
data_Zn4H24C32O13
_symmetry_space_group_name_H-M   'P 1'
_cell_length_a   19.62230000
_cell_length_b   19.63230000
_cell_length_c   22.75039084
_cell_angle_alpha   115.43507923
_cell_angle_beta   115.55433148
_cell_angle_gamma   89.95330000
_symmetry_Int_Tables_number   1
_chemical_formula_structural   Zn4H24C32O13
_chemical_formula_sum   'Zn8 H48 C64 O26'
_cell_volume   6955.02776881
_cell_formula_units_Z   2
loop_
 _symmetry_equiv_pos_site_id
 _symmetry_equiv_pos_as_xyz
  1  'x, y, z'
loop_
 _atom_site_type_symbol
 _atom_site_label
 _atom_site_symmetry_multiplicity
 _atom_site_fract_x
 _atom_site_fract_y
 _atom_site_fract_z
 _atom_site_occupancy
  Zn  Zn0  1  0.88677000  0.46817000  0.43577000  1.0
  Zn  Zn1  1  0.46794000  0.88667000  0.43578000  1.0
  Zn  Zn2  1  0.03191000  0.45021000  0.56378000  1.0
  Zn  Zn3  1  0.45093000  0.03191000  0.56423000  1.0
  Zn  Zn4  1  0.03236000  0.61315000  0.56444000  1.0
  Zn  Zn5  1  0.61338000  0.03173000  0.56355000  1.0
  Zn  Zn6  1  0.04978000  0.46849000  0.43635000  1.0
  Zn  Zn7  1  0.46834000  0.04964000  0.43622000  1.0
  H  H8  1  0.62517000  0.16636000  0.93971000  1.0
  H  H9  1  0.16265000  0.63214000  0.94251000  1.0
  H  H10  1  0.10744000  0.87336000  0.95892000  1.0
  H  H11  1  0.19591000  0.87993000  0.95801000  1.0
  H  H12  1  0.89970000  0.04975000  0.84426000  1.0
  H  H13  1  0.96175000  0.07362000  0.93799000  1.0
  H  H14  1  0.91018000  0.97648000  0.87148000  1.0
  H  H15  1  0.84683000  0.04021000  0.95070000  1.0
  H  H16  1  0.78417000  0.01331000  0.85733000  1.0
  H  H17  1  0.80823000  0.14298000  0.87610000  1.0
  H  H18  1  0.88473000  0.17763000  0.96672000  1.0
  H  H19  1  0.01083000  0.13550000  0.16152000  1.0
  H  H20  1  0.24989000  0.68406000  0.06962000  1.0
  H  H21  1  0.02142000  0.23391000  0.22291000  1.0
  H  H22  1  0.99478000  0.15933000  0.23846000  1.0
  H  H23  1  0.87879000  0.20918000  0.18302000  1.0
  H  H24  1  0.86679000  0.11107000  0.12242000  1.0
  H  H25  1  0.90619000  0.14569000  0.04870000  1.0
  H  H26  1  0.92778000  0.24491000  0.10962000  1.0
  H  H27  1  0.13810000  0.00901000  0.16933000  1.0
  H  H28  1  0.09951000  0.00213000  0.08016000  1.0
  H  H29  1  0.03672000  0.97555000  0.10810000  1.0
  H  H30  1  0.06006000  0.85739000  0.02080000  1.0
  H  H31  1  0.68152000  0.24593000  0.06830000  1.0
  H  H32  1  0.09467000  0.86194000  0.10797000  1.0
  H  H33  1  0.22757000  0.90936000  0.14579000  1.0
  H  H34  1  0.20298000  0.92723000  0.07081000  1.0
  H  H35  1  0.01981000  0.89422000  0.85466000  1.0
  H  H36  1  0.10745000  0.92857000  0.86065000  1.0
  H  H37  1  0.03184000  0.85710000  0.77425000  1.0
  H  H38  1  0.13271000  0.79263000  0.82431000  1.0
  H  H39  1  0.04830000  0.76200000  0.82346000  1.0
  H  H40  1  0.76757000  0.16017000  0.05173000  1.0
  H  H41  1  0.16125000  0.76628000  0.05059000  1.0
  H  H42  1  0.09832000  0.73657000  0.93002000  1.0
  H  H43  1  0.72853000  0.10058000  0.93069000  1.0
  H  H44  1  0.81764000  0.38338000  0.07075000  1.0
  H  H45  1  0.38339000  0.82273000  0.07030000  1.0
  H  H46  1  0.32319000  0.73415000  0.94344000  1.0
  H  H47  1  0.73455000  0.32438000  0.94276000  1.0
  H  H48  1  0.88163000  0.32176000  0.05995000  1.0
  H  H49  1  0.31888000  0.88406000  0.05772000  1.0
  H  H50  1  0.27890000  0.80835000  0.93054000  1.0
  H  H51  1  0.80848000  0.27753000  0.93239000  1.0
  H  H52  1  0.69139000  0.33042000  0.06022000  1.0
  H  H53  1  0.33112000  0.69377000  0.05663000  1.0
  H  H54  1  0.24497000  0.61874000  0.92950000  1.0
  H  H55  1  0.61800000  0.25194000  0.93179000  1.0
  C  C56  1  0.10086000  0.59889000  0.70110000  1.0
  C  C57  1  0.60106000  0.09902000  0.70082000  1.0
  C  C58  1  0.68173000  0.81828000  0.50014000  1.0
  C  C59  1  0.18130000  0.31782000  0.49936000  1.0
  C  C60  1  0.31825000  0.18135000  0.49978000  1.0
  C  C61  1  0.81869000  0.68179000  0.50054000  1.0
  C  C62  1  0.90017000  0.39914000  0.29909000  1.0
  C  C63  1  0.22536000  0.27377000  0.49936000  1.0
  C  C64  1  0.27405000  0.22526000  0.49951000  1.0
  C  C65  1  0.77461000  0.72583000  0.50048000  1.0
  C  C66  1  0.72592000  0.77436000  0.50035000  1.0
  C  C67  1  0.39825000  0.90004000  0.29909000  1.0
  C  C68  1  0.87059000  0.62986000  0.50051000  1.0
  C  C69  1  0.62981000  0.87020000  0.49992000  1.0
  C  C70  1  0.12955000  0.36990000  0.49953000  1.0
  C  C71  1  0.37039000  0.12967000  0.50000000  1.0
  C  C72  1  0.12991000  0.63013000  0.50038000  1.0
  C  C73  1  0.62988000  0.12989000  0.49996000  1.0
  C  C74  1  0.87010000  0.37015000  0.49960000  1.0
  C  C75  1  0.37029000  0.87035000  0.50004000  1.0
  C  C76  1  0.81812000  0.31835000  0.49960000  1.0
  C  C77  1  0.31830000  0.81849000  0.50001000  1.0
  C  C78  1  0.77417000  0.27437000  0.49973000  1.0
  C  C79  1  0.80358000  0.19281000  0.04205000  1.0
  C  C80  1  0.27427000  0.77447000  0.50003000  1.0
  C  C81  1  0.72566000  0.22584000  0.49986000  1.0
  C  C82  1  0.22570000  0.72596000  0.50013000  1.0
  C  C83  1  0.19288000  0.80500000  0.04247000  1.0
  C  C84  1  0.68172000  0.18184000  0.49996000  1.0
  C  C85  1  0.18172000  0.68206000  0.50030000  1.0
  C  C86  1  0.15550000  0.77470000  0.95621000  1.0
  C  C87  1  0.70175000  0.27159000  0.04260000  1.0
  C  C88  1  0.27247000  0.70448000  0.04204000  1.0
  C  C89  1  0.21938000  0.66260000  0.95764000  1.0
  C  C90  1  0.65905000  0.22256000  0.95752000  1.0
  C  C91  1  0.76923000  0.15568000  0.95549000  1.0
  C  C92  1  0.88818000  0.18933000  0.08572000  1.0
  C  C93  1  0.90127000  0.16989000  0.14769000  1.0
  C  C94  1  0.98666000  0.17481000  0.19520000  1.0
  C  C95  1  0.18595000  0.88723000  0.08679000  1.0
  C  C96  1  0.10471000  0.89087000  0.07932000  1.0
  C  C97  1  0.09402000  0.97379000  0.11096000  1.0
  C  C98  1  0.14097000  0.83908000  0.93357000  1.0
  C  C99  1  0.09562000  0.81264000  0.85029000  1.0
  C  C100  1  0.06186000  0.87661000  0.83410000  1.0
  C  C101  1  0.82826000  0.13633000  0.92623000  1.0
  C  C102  1  0.83870000  0.05318000  0.90581000  1.0
  C  C103  1  0.90616000  0.03728000  0.88891000  1.0
  C  C104  1  0.64148000  0.13725000  0.78031000  1.0
  C  C105  1  0.13961000  0.63878000  0.78053000  1.0
  C  C106  1  0.35638000  0.86134000  0.21962000  1.0
  C  C107  1  0.86103000  0.35754000  0.21967000  1.0
  C  C108  1  0.79005000  0.27722000  0.07226000  1.0
  C  C109  1  0.27789000  0.79270000  0.07221000  1.0
  C  C110  1  0.20596000  0.72171000  0.92755000  1.0
  C  C111  1  0.71829000  0.20778000  0.92788000  1.0
  C  C112  1  0.77119000  0.28638000  0.95849000  1.0
  C  C113  1  0.28584000  0.77254000  0.95794000  1.0
  C  C114  1  0.32181000  0.82336000  0.04264000  1.0
  C  C115  1  0.82023000  0.32250000  0.04340000  1.0
  C  C116  1  0.67715000  0.16943000  0.84760000  1.0
  C  C117  1  0.16885000  0.67826000  0.84738000  1.0
  C  C118  1  0.31986000  0.83095000  0.15242000  1.0
  C  C119  1  0.82934000  0.31940000  0.15252000  1.0
  O  O120  1  0.00009000  0.50005000  0.50006000  1.0
  O  O121  1  0.52695000  0.08425000  0.66950000  1.0
  O  O122  1  0.41485000  0.97410000  0.33104000  1.0
  O  O123  1  0.08538000  0.64165000  0.66958000  1.0
  O  O124  1  0.64330000  0.08333000  0.66888000  1.0
  O  O125  1  0.97434000  0.41509000  0.33098000  1.0
  O  O126  1  0.85743000  0.41600000  0.33049000  1.0
  O  O127  1  0.41484000  0.85718000  0.33040000  1.0
  O  O128  1  0.08504000  0.52488000  0.66924000  1.0
  O  O129  1  0.50003000  0.99985000  0.49994000  1.0
  O  O130  1  0.94230000  0.66116000  0.54581000  1.0
  O  O131  1  0.66138000  0.94184000  0.54457000  1.0
  O  O132  1  0.11657000  0.39724000  0.45497000  1.0
  O  O133  1  0.39729000  0.11646000  0.45513000  1.0
  O  O134  1  0.10291000  0.66145000  0.54520000  1.0
  O  O135  1  0.66143000  0.10288000  0.54482000  1.0
  O  O136  1  0.11673000  0.55850000  0.45559000  1.0
  O  O137  1  0.55810000  0.11660000  0.45509000  1.0
  O  O138  1  0.94181000  0.38341000  0.54461000  1.0
  O  O139  1  0.38376000  0.94198000  0.54498000  1.0
  O  O140  1  0.83872000  0.39707000  0.45463000  1.0
  O  O141  1  0.39714000  0.83890000  0.45512000  1.0
  O  O142  1  0.83913000  0.55833000  0.45521000  1.0
  O  O143  1  0.55805000  0.83884000  0.45514000  1.0
  O  O144  1  0.10247000  0.38295000  0.54423000  1.0
  O  O145  1  0.38389000  0.10281000  0.54498000  1.0
