# generated using pymatgen
data_CdH8C10(S2N5)2
_symmetry_space_group_name_H-M   'P 1'
_cell_length_a   7.60246491
_cell_length_b   7.60234000
_cell_length_c   24.97630000
_cell_angle_alpha   90.00010000
_cell_angle_beta   89.99990000
_cell_angle_gamma   59.99963053
_symmetry_Int_Tables_number   1
_chemical_formula_structural   CdH8C10(S2N5)2
_chemical_formula_sum   'Cd3 H24 C30 S12 N30'
_cell_volume   1250.14051441
_cell_formula_units_Z   3
loop_
 _symmetry_equiv_pos_site_id
 _symmetry_equiv_pos_as_xyz
  1  'x, y, z'
loop_
 _atom_site_type_symbol
 _atom_site_label
 _atom_site_symmetry_multiplicity
 _atom_site_fract_x
 _atom_site_fract_y
 _atom_site_fract_z
 _atom_site_occupancy
  Cd  Cd0  1  0.06600000  0.00000000  0.00000000  1.0
  Cd  Cd1  1  0.99999000  0.93400000  0.66666667  1.0
  Cd  Cd2  1  0.93399000  0.06600000  0.33333333  1.0
  H  H3  1  0.85302000  0.14339000  0.12755000  1.0
  H  H4  1  0.14339000  0.00359000  0.79422000  1.0
  H  H5  1  0.00359000  0.85302000  0.46089000  1.0
  H  H6  1  0.99641000  0.85661000  0.87245000  1.0
  H  H7  1  0.14698000  0.99642000  0.20578000  1.0
  H  H8  1  0.85661000  0.14698000  0.53911000  1.0
  H  H9  1  0.81609000  0.71615000  0.02687000  1.0
  H  H10  1  0.71614000  0.46777000  0.69353000  1.0
  H  H11  1  0.46774000  0.81609000  0.36020000  1.0
  H  H12  1  0.53224000  0.28384000  0.97314000  1.0
  H  H13  1  0.18392000  0.53222000  0.30647000  1.0
  H  H14  1  0.28383000  0.18391000  0.63980000  1.0
  H  H15  1  0.65455000  0.58512000  0.09467000  1.0
  H  H16  1  0.58513000  0.76035000  0.76133000  1.0
  H  H17  1  0.76032000  0.65456000  0.42800000  1.0
  H  H18  1  0.23967000  0.41488000  0.90533000  1.0
  H  H19  1  0.34547000  0.23966000  0.23867000  1.0
  H  H20  1  0.41488000  0.34544000  0.57200000  1.0
  H  H21  1  0.46615000  0.80009000  0.13019000  1.0
  H  H22  1  0.80010000  0.73376000  0.79686000  1.0
  H  H23  1  0.73376000  0.46615000  0.46352000  1.0
  H  H24  1  0.26624000  0.19991000  0.86981000  1.0
  H  H25  1  0.53386000  0.26624000  0.20314000  1.0
  H  H26  1  0.19991000  0.53385000  0.53648000  1.0
  C  C27  1  0.82302000  0.02696000  0.11245000  1.0
  C  C28  1  0.02696000  0.15002000  0.77912000  1.0
  C  C29  1  0.15001000  0.82303000  0.44579000  1.0
  C  C30  1  0.84997000  0.97305000  0.88755000  1.0
  C  C31  1  0.17699000  0.84996000  0.22088000  1.0
  C  C32  1  0.97304000  0.17698000  0.55421000  1.0
  C  C33  1  0.80383000  0.81410000  0.06010000  1.0
  C  C34  1  0.81410000  0.38207000  0.72676000  1.0
  C  C35  1  0.38206000  0.80384000  0.39343000  1.0
  C  C36  1  0.61793000  0.18590000  0.93991000  1.0
  C  C37  1  0.19617000  0.61793000  0.27324000  1.0
  C  C38  1  0.18590000  0.19616000  0.60657000  1.0
  C  C39  1  0.63049000  0.69628000  0.12587000  1.0
  C  C40  1  0.69629000  0.67324000  0.79254000  1.0
  C  C41  1  0.67322000  0.63049000  0.45920000  1.0
  C  C42  1  0.32677000  0.30372000  0.87413000  1.0
  C  C43  1  0.36953000  0.32676000  0.20746000  1.0
  C  C44  1  0.30371000  0.36951000  0.54080000  1.0
  C  C45  1  0.71765000  0.58650000  0.17741000  1.0
  C  C46  1  0.58650000  0.69586000  0.84407000  1.0
  C  C47  1  0.69585000  0.71765000  0.51074000  1.0
  C  C48  1  0.30415000  0.41350000  0.82259000  1.0
  C  C49  1  0.28236000  0.30414000  0.15593000  1.0
  C  C50  1  0.41350000  0.28235000  0.48926000  1.0
  C  C51  1  0.82717000  0.46194000  0.26715000  1.0
  C  C52  1  0.46193000  0.71090000  0.93381000  1.0
  C  C53  1  0.71089000  0.82718000  0.60048000  1.0
  C  C54  1  0.28910000  0.53807000  0.73285000  1.0
  C  C55  1  0.17283000  0.28910000  0.06619000  1.0
  C  C56  1  0.53806000  0.17283000  0.39952000  1.0
  S  S57  1  0.74230000  0.69673000  0.23568000  1.0
  S  S58  1  0.69673000  0.56099000  0.90235000  1.0
  S  S59  1  0.56097000  0.74230000  0.56901000  1.0
  S  S60  1  0.43902000  0.30328000  0.76432000  1.0
  S  S61  1  0.25771000  0.43902000  0.09766000  1.0
  S  S62  1  0.30327000  0.25770000  0.43099000  1.0
  S  S63  1  0.90811000  0.41383000  0.33255000  1.0
  S  S64  1  0.41383000  0.67806000  0.99921000  1.0
  S  S65  1  0.67806000  0.90811000  0.66588000  1.0
  S  S66  1  0.32193000  0.58618000  0.66745000  1.0
  S  S67  1  0.09189000  0.32194000  0.00079000  1.0
  S  S68  1  0.58617000  0.09190000  0.33412000  1.0
  N  N69  1  0.86979000  0.94779000  0.06190000  1.0
  N  N70  1  0.94779000  0.18242000  0.72857000  1.0
  N  N71  1  0.18241000  0.86979000  0.39524000  1.0
  N  N72  1  0.81758000  0.05221000  0.93810000  1.0
  N  N73  1  0.13021000  0.81758000  0.27143000  1.0
  N  N74  1  0.05220000  0.13021000  0.60476000  1.0
  N  N75  1  0.73198000  0.94986000  0.14157000  1.0
  N  N76  1  0.94987000  0.31817000  0.80823000  1.0
  N  N77  1  0.31816000  0.73198000  0.47490000  1.0
  N  N78  1  0.68184000  0.05014000  0.85843000  1.0
  N  N79  1  0.26803000  0.68184000  0.19177000  1.0
  N  N80  1  0.05013000  0.26803000  0.52510000  1.0
  N  N81  1  0.72233000  0.81434000  0.10783000  1.0
  N  N82  1  0.81434000  0.46333000  0.77450000  1.0
  N  N83  1  0.46332000  0.72234000  0.44117000  1.0
  N  N84  1  0.53667000  0.18566000  0.89217000  1.0
  N  N85  1  0.27767000  0.53667000  0.22550000  1.0
  N  N86  1  0.18565000  0.27767000  0.55883000  1.0
  N  N87  1  0.76689000  0.39624000  0.18360000  1.0
  N  N88  1  0.39623000  0.83688000  0.85026000  1.0
  N  N89  1  0.83687000  0.76689000  0.51693000  1.0
  N  N90  1  0.16312000  0.60377000  0.81640000  1.0
  N  N91  1  0.23311000  0.16312000  0.14974000  1.0
  N  N92  1  0.60376000  0.23311000  0.48307000  1.0
  N  N93  1  0.82870000  0.32404000  0.23405000  1.0
  N  N94  1  0.32404000  0.84726000  0.90071000  1.0
  N  N95  1  0.84726000  0.82870000  0.56738000  1.0
  N  N96  1  0.15274000  0.67596000  0.76595000  1.0
  N  N97  1  0.17130000  0.15274000  0.09929000  1.0
  N  N98  1  0.67595000  0.17131000  0.43262000  1.0
