# generated using pymatgen
data_CuPH8C8N3O4
_symmetry_space_group_name_H-M   'P 1'
_cell_length_a   7.03185000
_cell_length_b   10.92640000
_cell_length_c   12.97160000
_cell_angle_alpha   108.91600000
_cell_angle_beta   89.99990000
_cell_angle_gamma   89.99970000
_symmetry_Int_Tables_number   1
_chemical_formula_structural   CuPH8C8N3O4
_chemical_formula_sum   'Cu4 P4 H32 C32 N12 O16'
_cell_volume   942.82050966
_cell_formula_units_Z   4
loop_
 _symmetry_equiv_pos_site_id
 _symmetry_equiv_pos_as_xyz
  1  'x, y, z'
loop_
 _atom_site_type_symbol
 _atom_site_label
 _atom_site_symmetry_multiplicity
 _atom_site_fract_x
 _atom_site_fract_y
 _atom_site_fract_z
 _atom_site_occupancy
  Cu  Cu0  1  0.96693000  0.98730000  0.21189000  1.0
  Cu  Cu1  1  0.46694000  0.01270000  0.28811000  1.0
  Cu  Cu2  1  0.03307000  0.01270000  0.78811000  1.0
  Cu  Cu3  1  0.53306000  0.98730000  0.71189000  1.0
  P  P4  1  0.78484000  0.21179000  0.43099000  1.0
  P  P5  1  0.28485000  0.78821000  0.06901000  1.0
  P  P6  1  0.21515000  0.78821000  0.56901000  1.0
  P  P7  1  0.71515000  0.21179000  0.93098000  1.0
  H  H8  1  0.90629000  0.29845000  0.25345000  1.0
  H  H9  1  0.40630000  0.70154000  0.24655000  1.0
  H  H10  1  0.09371000  0.70155000  0.74655000  1.0
  H  H11  1  0.59371000  0.29845000  0.75345000  1.0
  H  H12  1  0.90115000  0.51065000  0.22321000  1.0
  H  H13  1  0.40115000  0.48936000  0.27679000  1.0
  H  H14  1  0.09885000  0.48936000  0.77679000  1.0
  H  H15  1  0.59885000  0.51064000  0.72321000  1.0
  H  H16  1  0.68294000  0.68989000  0.54794000  1.0
  H  H17  1  0.18294000  0.31011000  0.95206000  1.0
  H  H18  1  0.31706000  0.31011000  0.45206000  1.0
  H  H19  1  0.81706000  0.68989000  0.04794000  1.0
  H  H20  1  0.70178000  0.47580000  0.57935000  1.0
  H  H21  1  0.20178000  0.52421000  0.92066000  1.0
  H  H22  1  0.29822000  0.52420000  0.42065000  1.0
  H  H23  1  0.79822000  0.47580000  0.07935000  1.0
  H  H24  1  0.50161000  0.80890000  0.43077000  1.0
  H  H25  1  0.00162000  0.19109000  0.06922000  1.0
  H  H26  1  0.49838000  0.19110000  0.56922000  1.0
  H  H27  1  0.99838000  0.80890000  0.93077000  1.0
  H  H28  1  0.03028000  0.72495000  0.26410000  1.0
  H  H29  1  0.53027000  0.27505000  0.23590000  1.0
  H  H30  1  0.96972000  0.27505000  0.73590000  1.0
  H  H31  1  0.46973000  0.72495000  0.76410000  1.0
  H  H32  1  0.62460000  0.95501000  0.09942000  1.0
  H  H33  1  0.12460000  0.04500000  0.40058000  1.0
  H  H34  1  0.37540000  0.04499000  0.90058000  1.0
  H  H35  1  0.87540000  0.95500000  0.59942000  1.0
  H  H36  1  0.71184000  0.08341000  0.07905000  1.0
  H  H37  1  0.21185000  0.91659000  0.42094000  1.0
  H  H38  1  0.28816000  0.91659000  0.92094000  1.0
  H  H39  1  0.78815000  0.08341000  0.57906000  1.0
  C  C40  1  0.80408000  0.37270000  0.41873000  1.0
  C  C41  1  0.30409000  0.62730000  0.08127000  1.0
  C  C42  1  0.19592000  0.62730000  0.58127000  1.0
  C  C43  1  0.69592000  0.37270000  0.91873000  1.0
  C  C44  1  0.86204000  0.38426000  0.31895000  1.0
  C  C45  1  0.36204000  0.61574000  0.18105000  1.0
  C  C46  1  0.13796000  0.61574000  0.68105000  1.0
  C  C47  1  0.63796000  0.38426000  0.81895000  1.0
  C  C48  1  0.85760000  0.50295000  0.30138000  1.0
  C  C49  1  0.35761000  0.49705000  0.19862000  1.0
  C  C50  1  0.14240000  0.49705000  0.69862000  1.0
  C  C51  1  0.64240000  0.50295000  0.80138000  1.0
  C  C52  1  0.79080000  0.61175000  0.38375000  1.0
  C  C53  1  0.29080000  0.38825000  0.11625000  1.0
  C  C54  1  0.20920000  0.38825000  0.61625000  1.0
  C  C55  1  0.70920000  0.61175000  0.88375000  1.0
  C  C56  1  0.73491000  0.60403000  0.48462000  1.0
  C  C57  1  0.23491000  0.39597000  0.01539000  1.0
  C  C58  1  0.26509000  0.39597000  0.51538000  1.0
  C  C59  1  0.76509000  0.60403000  0.98461000  1.0
  C  C60  1  0.74333000  0.48404000  0.50109000  1.0
  C  C61  1  0.24333000  0.51596000  0.99892000  1.0
  C  C62  1  0.25667000  0.51596000  0.49892000  1.0
  C  C63  1  0.75667000  0.48404000  0.00108000  1.0
  C  C64  1  0.62474000  0.81440000  0.38157000  1.0
  C  C65  1  0.12474000  0.18560000  0.11843000  1.0
  C  C66  1  0.37526000  0.18560000  0.61842000  1.0
  C  C67  1  0.87526000  0.81440000  0.88158000  1.0
  C  C68  1  0.89438000  0.76879000  0.29340000  1.0
  C  C69  1  0.39438000  0.23121000  0.20660000  1.0
  C  C70  1  0.10561000  0.23121000  0.70660000  1.0
  C  C71  1  0.60562000  0.76879000  0.79339000  1.0
  N  N72  1  0.82136000  0.87099000  0.27542000  1.0
  N  N73  1  0.32135000  0.12900000  0.22458000  1.0
  N  N74  1  0.17864000  0.12901000  0.72458000  1.0
  N  N75  1  0.67865000  0.87099000  0.77542000  1.0
  N  N76  1  0.65198000  0.89913000  0.32997000  1.0
  N  N77  1  0.15197000  0.10087000  0.17002000  1.0
  N  N78  1  0.34802000  0.10087000  0.67003000  1.0
  N  N79  1  0.84803000  0.89913000  0.82997000  1.0
  N  N80  1  0.77392000  0.72948000  0.35904000  1.0
  N  N81  1  0.27391000  0.27052000  0.14096000  1.0
  N  N82  1  0.22608000  0.27052000  0.64096000  1.0
  N  N83  1  0.72609000  0.72948000  0.85904000  1.0
  O  O84  1  0.58193000  0.17230000  0.38585000  1.0
  O  O85  1  0.08194000  0.82770000  0.11415000  1.0
  O  O86  1  0.41806000  0.82770000  0.61415000  1.0
  O  O87  1  0.91807000  0.17230000  0.88585000  1.0
  O  O88  1  0.94320000  0.12820000  0.35815000  1.0
  O  O89  1  0.44320000  0.87181000  0.14185000  1.0
  O  O90  1  0.05680000  0.87180000  0.64184000  1.0
  O  O91  1  0.55680000  0.12819000  0.85815000  1.0
  O  O92  1  0.74304000  0.00333000  0.09742000  1.0
  O  O93  1  0.24305000  0.99667000  0.40257000  1.0
  O  O94  1  0.25696000  0.99667000  0.90258000  1.0
  O  O95  1  0.75695000  0.00333000  0.59743000  1.0
  O  O96  1  0.80426000  0.22173000  0.55020000  1.0
  O  O97  1  0.30427000  0.77827000  0.94980000  1.0
  O  O98  1  0.19574000  0.77827000  0.44980000  1.0
  O  O99  1  0.69574000  0.22173000  0.05020000  1.0
