# generated using pymatgen
data_AlH4C8ClO5
_symmetry_space_group_name_H-M   'P 1'
_cell_length_a   6.64599000
_cell_length_b   13.75070000
_cell_length_c   16.18730000
_cell_angle_alpha   90.01260000
_cell_angle_beta   90.47480000
_cell_angle_gamma   90.52140000
_symmetry_Int_Tables_number   1
_chemical_formula_structural   AlH4C8ClO5
_chemical_formula_sum   'Al4 H16 C32 Cl4 O20'
_cell_volume   1479.19691534
_cell_formula_units_Z   4
loop_
 _symmetry_equiv_pos_site_id
 _symmetry_equiv_pos_as_xyz
  1  'x, y, z'
loop_
 _atom_site_type_symbol
 _atom_site_label
 _atom_site_symmetry_multiplicity
 _atom_site_fract_x
 _atom_site_fract_y
 _atom_site_fract_z
 _atom_site_occupancy
  Al  Al0  1  0.99731000  0.00022000  0.50287000  1.0
  Al  Al1  1  0.49673000  0.00321000  0.50048000  1.0
  Al  Al2  1  0.00496000  0.50374000  0.99885000  1.0
  Al  Al3  1  0.50470000  0.50059000  0.99952000  1.0
  H  H4  1  0.25143000  0.87970000  0.53041000  1.0
  H  H5  1  0.75551000  0.12082000  0.46770000  1.0
  H  H6  1  0.26213000  0.62331000  0.03145000  1.0
  H  H7  1  0.75885000  0.38199000  0.03510000  1.0
  H  H8  1  0.03834000  0.73840000  0.83926000  1.0
  H  H9  1  0.45236000  0.62960000  0.76977000  1.0
  H  H10  1  0.02768000  0.85367000  0.71887000  1.0
  H  H11  1  0.55003000  0.35796000  0.23050000  1.0
  H  H12  1  0.96257000  0.26080000  0.15102000  1.0
  H  H13  1  0.53669000  0.23897000  0.34722000  1.0
  H  H14  1  0.94348000  0.34777000  0.77855000  1.0
  H  H15  1  0.53824000  0.26143000  0.85319000  1.0
  H  H16  1  0.95383000  0.22684000  0.66235000  1.0
  H  H17  1  0.05464000  0.65595000  0.22539000  1.0
  H  H18  1  0.46924000  0.74908000  0.14405000  1.0
  H  H19  1  0.03886000  0.77445000  0.34283000  1.0
  C  C20  1  0.74777000  0.89063000  0.38560000  1.0
  C  C21  1  0.73822000  0.88117000  0.60987000  1.0
  C  C22  1  0.24664000  0.11275000  0.61722000  1.0
  C  C23  1  0.24837000  0.11739000  0.38901000  1.0
  C  C24  1  0.76605000  0.62328000  0.10850000  1.0
  C  C25  1  0.74420000  0.61140000  0.88450000  1.0
  C  C26  1  0.24085000  0.38479000  0.89040000  1.0
  C  C27  1  0.26160000  0.38730000  0.11347000  1.0
  C  C28  1  0.73547000  0.80724000  0.67742000  1.0
  C  C29  1  0.74447000  0.67858000  0.81211000  1.0
  C  C30  1  0.57400000  0.74230000  0.69140000  1.0
  C  C31  1  0.90870000  0.74059000  0.79773000  1.0
  C  C32  1  0.57787000  0.67923000  0.75872000  1.0
  C  C33  1  0.90257000  0.80415000  0.73109000  1.0
  C  C34  1  0.24305000  0.18434000  0.31619000  1.0
  C  C35  1  0.25554000  0.31766000  0.18434000  1.0
  C  C36  1  0.08112000  0.19036000  0.25962000  1.0
  C  C37  1  0.41886000  0.31124000  0.23929000  1.0
  C  C38  1  0.08758000  0.25708000  0.19474000  1.0
  C  C39  1  0.41097000  0.24533000  0.30410000  1.0
  C  C40  1  0.25107000  0.17817000  0.69119000  1.0
  C  C41  1  0.24247000  0.31312000  0.82134000  1.0
  C  C42  1  0.41491000  0.18649000  0.74671000  1.0
  C  C43  1  0.07553000  0.30313000  0.76849000  1.0
  C  C44  1  0.41112000  0.25443000  0.81066000  1.0
  C  C45  1  0.08160000  0.23639000  0.70422000  1.0
  C  C46  1  0.74603000  0.82638000  0.31079000  1.0
  C  C47  1  0.76098000  0.69398000  0.17844000  1.0
  C  C48  1  0.58632000  0.82022000  0.25307000  1.0
  C  C49  1  0.92350000  0.70169000  0.23384000  1.0
  C  C50  1  0.59351000  0.75363000  0.18813000  1.0
  C  C51  1  0.91439000  0.76705000  0.29903000  1.0
  Cl  Cl52  1  0.36827000  0.73195000  0.62501000  1.0
  Cl  Cl53  1  0.87317000  0.11398000  0.26398000  1.0
  Cl  Cl54  1  0.62149000  0.11123000  0.74173000  1.0
  Cl  Cl55  1  0.38042000  0.89607000  0.25630000  1.0
  O  O56  1  0.92053000  0.91932000  0.41047000  1.0
  O  O57  1  0.57209000  0.91913000  0.58929000  1.0
  O  O58  1  0.41103000  0.09886000  0.57966000  1.0
  O  O59  1  0.08428000  0.09841000  0.42552000  1.0
  O  O60  1  0.07415000  0.07965000  0.59603000  1.0
  O  O61  1  0.42096000  0.08655000  0.41061000  1.0
  O  O62  1  0.58076000  0.90808000  0.41990000  1.0
  O  O63  1  0.90906000  0.90229000  0.57924000  1.0
  O  O64  1  0.24716000  0.94183000  0.50195000  1.0
  O  O65  1  0.74919000  0.06195000  0.50057000  1.0
  O  O66  1  0.93601000  0.58620000  0.09145000  1.0
  O  O67  1  0.57737000  0.57099000  0.90262000  1.0
  O  O68  1  0.40532000  0.39905000  0.92978000  1.0
  O  O69  1  0.09647000  0.40336000  0.07539000  1.0
  O  O70  1  0.07475000  0.42611000  0.90591000  1.0
  O  O71  1  0.43248000  0.42456000  0.09613000  1.0
  O  O72  1  0.60049000  0.60546000  0.07067000  1.0
  O  O73  1  0.90966000  0.60030000  0.92341000  1.0
  O  O74  1  0.25715000  0.56298000  0.00048000  1.0
  O  O75  1  0.75508000  0.44168000  0.00334000  1.0
