# generated using pymatgen
data_ZnH6C17N3O4
_symmetry_space_group_name_H-M   'P 1'
_cell_length_a   9.65920000
_cell_length_b   10.97170000
_cell_length_c   15.34880000
_cell_angle_alpha   90.83770000
_cell_angle_beta   92.13350000
_cell_angle_gamma   90.12400000
_symmetry_Int_Tables_number   1
_chemical_formula_structural   ZnH6C17N3O4
_chemical_formula_sum   'Zn2 H12 C34 N6 O8'
_cell_volume   1625.32545242
_cell_formula_units_Z   2
loop_
 _symmetry_equiv_pos_site_id
 _symmetry_equiv_pos_as_xyz
  1  'x, y, z'
loop_
 _atom_site_type_symbol
 _atom_site_label
 _atom_site_symmetry_multiplicity
 _atom_site_fract_x
 _atom_site_fract_y
 _atom_site_fract_z
 _atom_site_occupancy
  Zn  Zn0  1  0.35519000  0.50040000  0.49551000  1.0
  Zn  Zn1  1  0.64481000  0.49959000  0.50448000  1.0
  H  H2  1  0.34366000  0.63559000  0.21988000  1.0
  H  H3  1  0.65634000  0.36441000  0.78012000  1.0
  H  H4  1  0.26723000  0.73383000  0.91798000  1.0
  H  H5  1  0.73277000  0.26618000  0.08201000  1.0
  H  H6  1  0.72230000  0.88710000  0.51575000  1.0
  H  H7  1  0.27768000  0.11289000  0.48426000  1.0
  H  H8  1  0.72156000  0.11581000  0.51310000  1.0
  H  H9  1  0.27843000  0.88418000  0.48691000  1.0
  H  H10  1  0.86001000  0.35814000  0.40916000  1.0
  H  H11  1  0.13998000  0.64186000  0.59084000  1.0
  H  H12  1  0.87574000  0.64125000  0.59277000  1.0
  H  H13  1  0.12426000  0.35875000  0.40723000  1.0
  C  C14  1  0.50046000  0.73653000  0.50281000  1.0
  C  C15  1  0.49954000  0.26346000  0.49719000  1.0
  C  C16  1  0.33087000  0.66813000  0.95385000  1.0
  C  C17  1  0.66914000  0.33189000  0.04615000  1.0
  C  C18  1  0.62559000  0.93749000  0.50894000  1.0
  C  C19  1  0.37439000  0.06250000  0.49107000  1.0
  C  C20  1  0.62525000  0.06410000  0.50735000  1.0
  C  C21  1  0.37474000  0.93590000  0.49265000  1.0
  C  C22  1  0.49962000  0.12731000  0.49838000  1.0
  C  C23  1  0.50038000  0.87269000  0.50163000  1.0
  C  C24  1  0.92332000  0.42076000  0.44972000  1.0
  C  C25  1  0.07667000  0.57923000  0.55028000  1.0
  C  C26  1  0.93264000  0.57855000  0.55170000  1.0
  C  C27  1  0.06736000  0.42145000  0.44830000  1.0
  C  C28  1  0.50508000  0.50129000  0.67158000  1.0
  C  C29  1  0.49493000  0.49872000  0.32842000  1.0
  C  C30  1  0.58778000  0.41798000  0.18601000  1.0
  C  C31  1  0.41223000  0.58203000  0.81399000  1.0
  C  C32  1  0.49838000  0.49670000  0.23047000  1.0
  C  C33  1  0.50163000  0.50330000  0.76953000  1.0
  C  C34  1  0.41222000  0.57601000  0.18389000  1.0
  C  C35  1  0.58778000  0.42399000  0.81611000  1.0
  C  C36  1  0.41410000  0.58143000  0.09280000  1.0
  C  C37  1  0.58590000  0.41858000  0.90720000  1.0
  C  C38  1  0.49991000  0.49937000  0.04637000  1.0
  C  C39  1  0.50009000  0.50064000  0.95363000  1.0
  C  C40  1  0.58649000  0.41558000  0.09334000  1.0
  C  C41  1  0.41352000  0.58443000  0.90666000  1.0
  C  C42  1  0.33096000  0.66749000  0.04354000  1.0
  C  C43  1  0.66905000  0.33252000  0.95646000  1.0
  C  C44  1  0.68038000  0.33922000  0.23277000  1.0
  C  C45  1  0.31964000  0.66080000  0.76723000  1.0
  C  C46  1  0.24896000  0.75338000  0.08941000  1.0
  C  C47  1  0.75103000  0.24664000  0.91059000  1.0
  N  N48  1  0.14230000  0.50042000  0.49836000  1.0
  N  N49  1  0.85769000  0.49957000  0.50164000  1.0
  N  N50  1  0.75946000  0.27359000  0.26736000  1.0
  N  N51  1  0.24056000  0.72642000  0.73264000  1.0
  N  N52  1  0.18341000  0.82314000  0.12860000  1.0
  N  N53  1  0.81659000  0.17687000  0.87139000  1.0
  O  O54  1  0.38299000  0.68313000  0.49756000  1.0
  O  O55  1  0.61699000  0.31686000  0.50243000  1.0
  O  O56  1  0.38233000  0.31694000  0.49145000  1.0
  O  O57  1  0.61766000  0.68305000  0.50856000  1.0
  O  O58  1  0.38843000  0.50151000  0.63090000  1.0
  O  O59  1  0.61157000  0.49849000  0.36910000  1.0
  O  O60  1  0.37565000  0.50187000  0.36021000  1.0
  O  O61  1  0.62435000  0.49812000  0.63979000  1.0
