# generated using pymatgen
data_AgH14C10S2NO3
_symmetry_space_group_name_H-M   'P 1'
_cell_length_a   7.67052000
_cell_length_b   9.28894000
_cell_length_c   9.28891000
_cell_angle_alpha   70.45300000
_cell_angle_beta   89.99930000
_cell_angle_gamma   89.99970000
_symmetry_Int_Tables_number   1
_chemical_formula_structural   AgH14C10S2NO3
_chemical_formula_sum   'Ag2 H28 C20 S4 N2 O6'
_cell_volume   623.70029631
_cell_formula_units_Z   2
loop_
 _symmetry_equiv_pos_site_id
 _symmetry_equiv_pos_as_xyz
  1  'x, y, z'
loop_
 _atom_site_type_symbol
 _atom_site_label
 _atom_site_symmetry_multiplicity
 _atom_site_fract_x
 _atom_site_fract_y
 _atom_site_fract_z
 _atom_site_occupancy
  Ag  Ag0  1  0.49954000  0.41447000  0.41447000  1.0
  Ag  Ag1  1  0.99955000  0.58552000  0.58552000  1.0
  H  H2  1  0.50738000  0.91217000  0.70125000  1.0
  H  H3  1  0.00737000  0.08782000  0.29876000  1.0
  H  H4  1  0.00737000  0.29876000  0.08783000  1.0
  H  H5  1  0.50738000  0.70124000  0.91217000  1.0
  H  H6  1  0.35615000  0.02629000  0.56399000  1.0
  H  H7  1  0.85615000  0.97370000  0.43601000  1.0
  H  H8  1  0.85615000  0.43601000  0.97370000  1.0
  H  H9  1  0.35615000  0.56399000  0.02629000  1.0
  H  H10  1  0.39257000  0.06641000  0.73736000  1.0
  H  H11  1  0.89257000  0.93358000  0.26265000  1.0
  H  H12  1  0.89257000  0.26265000  0.93359000  1.0
  H  H13  1  0.39257000  0.73735000  0.06641000  1.0
  H  H14  1  0.84701000  0.26442000  0.64997000  1.0
  H  H15  1  0.34701000  0.73558000  0.35002000  1.0
  H  H16  1  0.34701000  0.35003000  0.73557000  1.0
  H  H17  1  0.84700000  0.64998000  0.26443000  1.0
  H  H18  1  0.66609000  0.22022000  0.77805000  1.0
  H  H19  1  0.16609000  0.77979000  0.22194000  1.0
  H  H20  1  0.16609000  0.22195000  0.77979000  1.0
  H  H21  1  0.66608000  0.77805000  0.22022000  1.0
  H  H22  1  0.04105000  0.04098000  0.63890000  1.0
  H  H23  1  0.54105000  0.95902000  0.36110000  1.0
  H  H24  1  0.54105000  0.36111000  0.95902000  1.0
  H  H25  1  0.04104000  0.63890000  0.04098000  1.0
  H  H26  1  0.17493000  0.79383000  0.79383000  1.0
  H  H27  1  0.67493000  0.20618000  0.20618000  1.0
  H  H28  1  0.64587000  0.98283000  0.98282000  1.0
  H  H29  1  0.14589000  0.01717000  0.01717000  1.0
  C  C30  1  0.45337000  0.02749000  0.65019000  1.0
  C  C31  1  0.95337000  0.97250000  0.34981000  1.0
  C  C32  1  0.95337000  0.34981000  0.97251000  1.0
  C  C33  1  0.45337000  0.65019000  0.02749000  1.0
  C  C34  1  0.75122000  0.17596000  0.70764000  1.0
  C  C35  1  0.25123000  0.82404000  0.29236000  1.0
  C  C36  1  0.25123000  0.29236000  0.82404000  1.0
  C  C37  1  0.75121000  0.70764000  0.17596000  1.0
  C  C38  1  0.83478000  0.02835000  0.80067000  1.0
  C  C39  1  0.33479000  0.97165000  0.19933000  1.0
  C  C40  1  0.33479000  0.19933000  0.97165000  1.0
  C  C41  1  0.83478000  0.80067000  0.02835000  1.0
  C  C42  1  0.98408000  0.97405000  0.74852000  1.0
  C  C43  1  0.48409000  0.02595000  0.25148000  1.0
  C  C44  1  0.48409000  0.25148000  0.02595000  1.0
  C  C45  1  0.98408000  0.74852000  0.97405000  1.0
  C  C46  1  0.05860000  0.83501000  0.83501000  1.0
  C  C47  1  0.55860000  0.16499000  0.16499000  1.0
  C  C48  1  0.76142000  0.94069000  0.94069000  1.0
  C  C49  1  0.26144000  0.05931000  0.05931000  1.0
  S  S50  1  0.62254000  0.15683000  0.54960000  1.0
  S  S51  1  0.12254000  0.84317000  0.45040000  1.0
  S  S52  1  0.12254000  0.45040000  0.84317000  1.0
  S  S53  1  0.62254000  0.54960000  0.15683000  1.0
  N  N54  1  0.10587000  0.37509000  0.37509000  1.0
  N  N55  1  0.60587000  0.62490000  0.62490000  1.0
  O  O56  1  0.18395000  0.30226000  0.30226000  1.0
  O  O57  1  0.68395000  0.69773000  0.69773000  1.0
  O  O58  1  0.94219000  0.38098000  0.38098000  1.0
  O  O59  1  0.44219000  0.61902000  0.61902000  1.0
  O  O60  1  0.19688000  0.44744000  0.44744000  1.0
  O  O61  1  0.69687000  0.55255000  0.55255000  1.0
