# generated using pymatgen
data_AlH7C10NO5F
_symmetry_space_group_name_H-M   'P 1'
_cell_length_a   6.67284000
_cell_length_b   8.78506000
_cell_length_c   16.89670000
_cell_angle_alpha   102.95200000
_cell_angle_beta   95.57000000
_cell_angle_gamma   105.17900000
_symmetry_Int_Tables_number   1
_chemical_formula_structural   AlH7C10NO5F
_chemical_formula_sum   'Al2 H14 C20 N2 O10 F2'
_cell_volume   918.76750325
_cell_formula_units_Z   2
loop_
 _symmetry_equiv_pos_site_id
 _symmetry_equiv_pos_as_xyz
  1  'x, y, z'
loop_
 _atom_site_type_symbol
 _atom_site_label
 _atom_site_symmetry_multiplicity
 _atom_site_fract_x
 _atom_site_fract_y
 _atom_site_fract_z
 _atom_site_occupancy
  Al  Al0  1  0.00002000  0.50000000  0.49998000  1.0
  Al  Al1  1  0.50004000  0.50002000  0.50002000  1.0
  H  H2  1  0.17799000  0.36492000  0.40063000  1.0
  H  H3  1  0.82211000  0.63495000  0.59940000  1.0
  H  H4  1  0.61175000  0.44894000  0.72726000  1.0
  H  H5  1  0.67725000  0.44432000  0.87481000  1.0
  H  H6  1  0.08717000  0.54482000  0.90673000  1.0
  H  H7  1  0.91273000  0.45522000  0.09327000  1.0
  H  H8  1  0.32256000  0.55551000  0.12519000  1.0
  H  H9  1  0.38813000  0.55100000  0.27274000  1.0
  H  H10  1  0.81738000  0.00457000  0.40537000  1.0
  H  H11  1  0.62652000  0.81647000  0.40188000  1.0
  H  H12  1  0.82897000  0.90972000  0.48706000  1.0
  H  H13  1  0.17116000  0.09031000  0.51293000  1.0
  H  H14  1  0.37358000  0.18353000  0.59812000  1.0
  H  H15  1  0.18267000  0.99541000  0.59459000  1.0
  C  C16  1  0.64852000  0.20791000  0.48408000  1.0
  C  C17  1  0.70983000  0.49781000  0.35550000  1.0
  C  C18  1  0.35157000  0.79211000  0.51589000  1.0
  C  C19  1  0.29019000  0.50223000  0.64452000  1.0
  C  C20  1  0.31510000  0.49858000  0.73292000  1.0
  C  C21  1  0.49811000  0.46920000  0.76742000  1.0
  C  C22  1  0.53561000  0.46742000  0.84909000  1.0
  C  C23  1  0.38771000  0.49656000  0.90009000  1.0
  C  C24  1  0.20220000  0.52280000  0.86743000  1.0
  C  C25  1  0.16927000  0.52417000  0.78522000  1.0
  C  C26  1  0.79771000  0.47722000  0.13257000  1.0
  C  C27  1  0.61216000  0.50342000  0.09991000  1.0
  C  C28  1  0.46424000  0.53249000  0.15091000  1.0
  C  C29  1  0.50179000  0.53074000  0.23258000  1.0
  C  C30  1  0.68485000  0.50143000  0.26709000  1.0
  C  C31  1  0.83068000  0.47587000  0.21479000  1.0
  C  C32  1  0.58456000  0.03071000  0.48265000  1.0
  C  C33  1  0.41553000  0.96930000  0.51732000  1.0
  C  C34  1  0.72130000  0.93523000  0.44181000  1.0
  C  C35  1  0.27879000  0.06477000  0.55816000  1.0
  N  N36  1  0.41007000  0.50138000  0.98469000  1.0
  N  N37  1  0.58978000  0.49858000  0.01531000  1.0
  O  O38  1  0.84562000  0.27660000  0.49105000  1.0
  O  O39  1  0.55313000  0.51017000  0.39128000  1.0
  O  O40  1  0.49515000  0.72256000  0.52337000  1.0
  O  O41  1  0.11977000  0.51777000  0.61164000  1.0
  O  O42  1  0.15448000  0.72340000  0.50891000  1.0
  O  O43  1  0.44695000  0.48990000  0.60877000  1.0
  O  O44  1  0.50496000  0.27749000  0.47666000  1.0
  O  O45  1  0.88026000  0.48227000  0.38836000  1.0
  O  O46  1  0.21383000  0.42550000  0.45802000  1.0
  O  O47  1  0.78627000  0.57454000  0.54199000  1.0
  F  F48  1  0.98863000  0.55364000  0.75747000  1.0
  F  F49  1  0.01131000  0.44643000  0.24253000  1.0
