# generated using pymatgen
data_ZnH14C18(N2O)3
_symmetry_space_group_name_H-M   'P 1'
_cell_length_a   8.85951000
_cell_length_b   10.55250000
_cell_length_c   12.37110721
_cell_angle_alpha   65.68116409
_cell_angle_beta   76.93109087
_cell_angle_gamma   67.24540000
_symmetry_Int_Tables_number   1
_chemical_formula_structural   ZnH14C18(N2O)3
_chemical_formula_sum   'Zn2 H28 C36 N12 O6'
_cell_volume   968.84115203
_cell_formula_units_Z   2
loop_
 _symmetry_equiv_pos_site_id
 _symmetry_equiv_pos_as_xyz
  1  'x, y, z'
loop_
 _atom_site_type_symbol
 _atom_site_label
 _atom_site_symmetry_multiplicity
 _atom_site_fract_x
 _atom_site_fract_y
 _atom_site_fract_z
 _atom_site_occupancy
  Zn  Zn0  1  0.05591000  0.41795000  0.69978000  1.0
  Zn  Zn1  1  0.94409000  0.58205000  0.30022000  1.0
  H  H2  1  0.14575000  0.60431000  0.49533000  1.0
  H  H3  1  0.85425000  0.39570000  0.50467000  1.0
  H  H4  1  0.43583000  0.02323000  0.65049000  1.0
  H  H5  1  0.56416000  0.97677000  0.34951000  1.0
  H  H6  1  0.97257000  0.01248000  0.60926000  1.0
  H  H7  1  0.02744000  0.98751000  0.39074000  1.0
  H  H8  1  0.11442000  0.77572000  0.57654000  1.0
  H  H9  1  0.88558000  0.22427000  0.42347000  1.0
  H  H10  1  0.41856000  0.66365000  0.57717000  1.0
  H  H11  1  0.58145000  0.33637000  0.42281000  1.0
  H  H12  1  0.30631000  0.52684000  0.73893000  1.0
  H  H13  1  0.69367000  0.47320000  0.26106000  1.0
  H  H14  1  0.75054000  0.29969000  0.76711000  1.0
  H  H15  1  0.24946000  0.70031000  0.23289000  1.0
  H  H16  1  0.63621000  0.13154000  0.95032000  1.0
  H  H17  1  0.36379000  0.86847000  0.04968000  1.0
  H  H18  1  0.75431000  0.04703000  0.14511000  1.0
  H  H19  1  0.24569000  0.95295000  0.85490000  1.0
  H  H20  1  0.97018000  0.13854000  0.15115000  1.0
  H  H21  1  0.02985000  0.86143000  0.84885000  1.0
  H  H22  1  0.13422000  0.24210000  0.14401000  1.0
  H  H23  1  0.86579000  0.75789000  0.85599000  1.0
  H  H24  1  0.43505000  0.50069000  0.91092000  1.0
  H  H25  1  0.56491000  0.49936000  0.08907000  1.0
  H  H26  1  0.26059000  0.44656000  0.50387000  1.0
  H  H27  1  0.73942000  0.55344000  0.49613000  1.0
  H  H28  1  0.34642000  0.34944000  0.11870000  1.0
  H  H29  1  0.65356000  0.65059000  0.88129000  1.0
  C  C30  1  0.44711000  0.83376000  0.61759000  1.0
  C  C31  1  0.55290000  0.16624000  0.38241000  1.0
  C  C32  1  0.36608000  0.96852000  0.63411000  1.0
  C  C33  1  0.63393000  0.03147000  0.36589000  1.0
  C  C34  1  0.19592000  0.03370000  0.62902000  1.0
  C  C35  1  0.80408000  0.96630000  0.37098000  1.0
  C  C36  1  0.10544000  0.96241000  0.61023000  1.0
  C  C37  1  0.89456000  0.03759000  0.38977000  1.0
  C  C38  1  0.18596000  0.82976000  0.59154000  1.0
  C  C39  1  0.81405000  0.17023000  0.40846000  1.0
  C  C40  1  0.35595000  0.76656000  0.59332000  1.0
  C  C41  1  0.64406000  0.23345000  0.40667000  1.0
  C  C42  1  0.62295000  0.76254000  0.63134000  1.0
  C  C43  1  0.37706000  0.23747000  0.36865000  1.0
  C  C44  1  0.11076000  0.17904000  0.64387000  1.0
  C  C45  1  0.88924000  0.82096000  0.35612000  1.0
  C  C46  1  0.27173000  0.46480000  0.83005000  1.0
  C  C47  1  0.72825000  0.53523000  0.16994000  1.0
  C  C48  1  0.79410000  0.26182000  0.85439000  1.0
  C  C49  1  0.20590000  0.73817000  0.14562000  1.0
  C  C50  1  0.73267000  0.16788000  0.95615000  1.0
  C  C51  1  0.26734000  0.83211000  0.04386000  1.0
  C  C52  1  0.79773000  0.12189000  0.06398000  1.0
  C  C53  1  0.20228000  0.87809000  0.93603000  1.0
  C  C54  1  0.92011000  0.17246000  0.06709000  1.0
  C  C55  1  0.07991000  0.82753000  0.93291000  1.0
  C  C56  1  0.97627000  0.26617000  0.96107000  1.0
  C  C57  1  0.02374000  0.73382000  0.03893000  1.0
  C  C58  1  0.10660000  0.32568000  0.95406000  1.0
  C  C59  1  0.89341000  0.67432000  0.04594000  1.0
  C  C60  1  0.17438000  0.30405000  0.05460000  1.0
  C  C61  1  0.82562000  0.69595000  0.94540000  1.0
  C  C62  1  0.29369000  0.36657000  0.04028000  1.0
  C  C63  1  0.70629000  0.63344000  0.95972000  1.0
  C  C64  1  0.34288000  0.44920000  0.92633000  1.0
  C  C65  1  0.65710000  0.55082000  0.07367000  1.0
  N  N66  1  0.71573000  0.63373000  0.61686000  1.0
  N  N67  1  0.28427000  0.36628000  0.38313000  1.0
  N  N68  1  0.86385000  0.60771000  0.64772000  1.0
  N  N69  1  0.13614000  0.39228000  0.35229000  1.0
  N  N70  1  0.86200000  0.71503000  0.67878000  1.0
  N  N71  1  0.13800000  0.28496000  0.32123000  1.0
  N  N72  1  0.71193000  0.81382000  0.66924000  1.0
  N  N73  1  0.28808000  0.18619000  0.33075000  1.0
  N  N74  1  0.91357000  0.30824000  0.85713000  1.0
  N  N75  1  0.08643000  0.69175000  0.14287000  1.0
  N  N76  1  0.15699000  0.40484000  0.84354000  1.0
  N  N77  1  0.84301000  0.59517000  0.15646000  1.0
  O  O78  1  0.21414000  0.51069000  0.55204000  1.0
  O  O79  1  0.78586000  0.48931000  0.44796000  1.0
  O  O80  1  0.96492000  0.25248000  0.61576000  1.0
  O  O81  1  0.03507000  0.74749000  0.38424000  1.0
  O  O82  1  0.19330000  0.22153000  0.68767000  1.0
  O  O83  1  0.80668000  0.77846000  0.31233000  1.0
