# generated using pymatgen
data_CdH10C5(NO3)2
_symmetry_space_group_name_H-M   'P 1'
_cell_length_a   8.67996000
_cell_length_b   8.85222000
_cell_length_c   13.47000000
_cell_angle_alpha   72.40030000
_cell_angle_beta   86.20520000
_cell_angle_gamma   89.49930000
_symmetry_Int_Tables_number   1
_chemical_formula_structural   CdH10C5(NO3)2
_chemical_formula_sum   'Cd4 H40 C20 N8 O24'
_cell_volume   984.31537703
_cell_formula_units_Z   4
loop_
 _symmetry_equiv_pos_site_id
 _symmetry_equiv_pos_as_xyz
  1  'x, y, z'
loop_
 _atom_site_type_symbol
 _atom_site_label
 _atom_site_symmetry_multiplicity
 _atom_site_fract_x
 _atom_site_fract_y
 _atom_site_fract_z
 _atom_site_occupancy
  Cd  Cd0  1  0.07462000  0.72942000  0.66986000  1.0
  Cd  Cd1  1  0.92539000  0.27058000  0.33014000  1.0
  Cd  Cd2  1  0.61083000  0.76512000  0.32682000  1.0
  Cd  Cd3  1  0.38917000  0.23488000  0.67318000  1.0
  H  H4  1  0.35107000  0.68912000  0.51887000  1.0
  H  H5  1  0.64893000  0.31089000  0.48112000  1.0
  H  H6  1  0.50686000  0.85378000  0.73737000  1.0
  H  H7  1  0.49314000  0.14623000  0.26263000  1.0
  H  H8  1  0.85299000  0.80521000  0.47664000  1.0
  H  H9  1  0.14702000  0.19479000  0.52336000  1.0
  H  H10  1  0.94796000  0.35243000  0.74784000  1.0
  H  H11  1  0.05204000  0.64757000  0.25217000  1.0
  H  H12  1  0.68601000  0.52794000  0.93832000  1.0
  H  H13  1  0.31399000  0.47206000  0.06168000  1.0
  H  H14  1  0.54519000  0.63043000  0.99585000  1.0
  H  H15  1  0.45481000  0.36958000  0.00415000  1.0
  H  H16  1  0.73343000  0.50032000  0.12565000  1.0
  H  H17  1  0.26657000  0.49968000  0.87435000  1.0
  H  H18  1  0.75318000  0.70960000  0.09316000  1.0
  H  H19  1  0.24682000  0.29040000  0.90684000  1.0
  H  H20  1  0.89042000  0.59757000  0.03973000  1.0
  H  H21  1  0.10958000  0.40243000  0.96027000  1.0
  H  H22  1  0.04758000  0.03244000  0.70279000  1.0
  H  H23  1  0.95242000  0.96756000  0.29721000  1.0
  H  H24  1  0.92452000  0.02956000  0.61320000  1.0
  H  H25  1  0.07548000  0.97045000  0.38680000  1.0
  H  H26  1  0.75142000  0.00871000  0.74026000  1.0
  H  H27  1  0.24858000  0.99129000  0.25974000  1.0
  H  H28  1  0.26678000  0.98344000  0.04940000  1.0
  H  H29  1  0.73321000  0.01656000  0.95060000  1.0
  H  H30  1  0.39293000  0.90229000  0.97028000  1.0
  H  H31  1  0.60707000  0.09772000  0.02972000  1.0
  H  H32  1  0.14389000  0.98798000  0.88491000  1.0
  H  H33  1  0.85611000  0.01200000  0.11508000  1.0
  H  H34  1  0.16459000  0.77890000  0.91496000  1.0
  H  H35  1  0.83543000  0.22109000  0.08504000  1.0
  H  H36  1  0.03814000  0.85897000  0.99524000  1.0
  H  H37  1  0.96185000  0.14101000  0.00475000  1.0
  H  H38  1  0.43689000  0.47615000  0.38382000  1.0
  H  H39  1  0.56311000  0.52385000  0.61618000  1.0
  H  H40  1  0.57672000  0.45960000  0.29690000  1.0
  H  H41  1  0.42328000  0.54040000  0.70310000  1.0
  H  H42  1  0.29328000  0.50259000  0.25192000  1.0
  H  H43  1  0.70672000  0.49741000  0.74808000  1.0
  C  C44  1  0.28910000  0.78282000  0.46189000  1.0
  C  C45  1  0.71090000  0.21719000  0.53811000  1.0
  C  C46  1  0.38721000  0.85463000  0.71300000  1.0
  C  C47  1  0.61279000  0.14537000  0.28701000  1.0
  C  C48  1  0.78178000  0.71132000  0.53415000  1.0
  C  C49  1  0.21822000  0.28868000  0.46585000  1.0
  C  C50  1  0.07092000  0.35005000  0.72045000  1.0
  C  C51  1  0.92908000  0.64995000  0.27956000  1.0
  C  C52  1  0.82498000  0.78550000  0.82768000  1.0
  C  C53  1  0.17502000  0.21450000  0.17232000  1.0
  C  C54  1  0.66796000  0.62505000  0.97250000  1.0
  C  C55  1  0.33204000  0.37495000  0.02750000  1.0
  C  C56  1  0.76825000  0.60835000  0.06266000  1.0
  C  C57  1  0.23174000  0.39165000  0.93734000  1.0
  C  C58  1  0.39509000  0.71957000  0.16476000  1.0
  C  C59  1  0.60491000  0.28043000  0.83523000  1.0
  C  C60  1  0.28030000  0.88655000  0.01458000  1.0
  C  C61  1  0.71970000  0.11345000  0.98542000  1.0
  C  C62  1  0.14899000  0.87665000  0.94886000  1.0
  C  C63  1  0.85101000  0.12334000  0.05114000  1.0
  N  N64  1  0.96754000  0.96251000  0.68332000  1.0
  N  N65  1  0.03246000  0.03750000  0.31668000  1.0
  N  N66  1  0.84312000  0.93326000  0.75962000  1.0
  N  N67  1  0.15688000  0.06674000  0.24038000  1.0
  N  N68  1  0.49692000  0.53725000  0.31373000  1.0
  N  N69  1  0.50308000  0.46275000  0.68627000  1.0
  N  N70  1  0.39057000  0.57311000  0.23552000  1.0
  N  N71  1  0.60943000  0.42690000  0.76448000  1.0
  O  O72  1  0.16204000  0.83050000  0.49432000  1.0
  O  O73  1  0.83796000  0.16950000  0.50568000  1.0
  O  O74  1  0.34868000  0.83465000  0.36940000  1.0
  O  O75  1  0.65132000  0.16535000  0.63061000  1.0
  O  O76  1  0.32402000  0.72001000  0.72607000  1.0
  O  O77  1  0.67598000  0.27999000  0.27393000  1.0
  O  O78  1  0.32211000  0.98555000  0.67495000  1.0
  O  O79  1  0.67790000  0.01445000  0.32505000  1.0
  O  O80  1  0.82373000  0.66058000  0.62650000  1.0
  O  O81  1  0.17628000  0.33942000  0.37350000  1.0
  O  O82  1  0.66229000  0.66237000  0.50234000  1.0
  O  O83  1  0.33771000  0.33762000  0.49766000  1.0
  O  O84  1  0.13150000  0.21426000  0.73529000  1.0
  O  O85  1  0.86850000  0.78574000  0.26471000  1.0
  O  O86  1  0.14315000  0.47900000  0.67728000  1.0
  O  O87  1  0.85685000  0.52100000  0.32272000  1.0
  O  O88  1  0.91683000  0.67459000  0.83447000  1.0
  O  O89  1  0.08317000  0.32541000  0.16553000  1.0
  O  O90  1  0.69453000  0.77530000  0.88975000  1.0
  O  O91  1  0.30547000  0.22470000  0.11025000  1.0
  O  O92  1  0.28065000  0.73643000  0.09957000  1.0
  O  O93  1  0.71934000  0.26357000  0.90043000  1.0
  O  O94  1  0.49446000  0.82348000  0.15810000  1.0
  O  O95  1  0.50554000  0.17652000  0.84190000  1.0
