# generated using pymatgen
data_AgH13C11SN2O5
_symmetry_space_group_name_H-M   'P 1'
_cell_length_a   6.94737000
_cell_length_b   11.52890000
_cell_length_c   17.10070000
_cell_angle_alpha   104.96000000
_cell_angle_beta   90.00000000
_cell_angle_gamma   90.00000000
_symmetry_Int_Tables_number   1
_chemical_formula_structural   AgH13C11SN2O5
_chemical_formula_sum   'Ag4 H52 C44 S4 N8 O20'
_cell_volume   1323.26581995
_cell_formula_units_Z   4
loop_
 _symmetry_equiv_pos_site_id
 _symmetry_equiv_pos_as_xyz
  1  'x, y, z'
loop_
 _atom_site_type_symbol
 _atom_site_label
 _atom_site_symmetry_multiplicity
 _atom_site_fract_x
 _atom_site_fract_y
 _atom_site_fract_z
 _atom_site_occupancy
  Ag  Ag0  1  0.33879000  0.05564000  0.77096000  1.0
  Ag  Ag1  1  0.83879000  0.94436000  0.72904000  1.0
  Ag  Ag2  1  0.66121000  0.94436000  0.22905000  1.0
  Ag  Ag3  1  0.16121000  0.05564000  0.27096000  1.0
  H  H4  1  0.19593000  0.74419000  0.04097000  1.0
  H  H5  1  0.69592000  0.25581000  0.45903000  1.0
  H  H6  1  0.80408000  0.25580000  0.95903000  1.0
  H  H7  1  0.30408000  0.74419000  0.54097000  1.0
  H  H8  1  0.33312000  0.95166000  0.05987000  1.0
  H  H9  1  0.83311000  0.04834000  0.44013000  1.0
  H  H10  1  0.66689000  0.04833000  0.94013000  1.0
  H  H11  1  0.16688000  0.95166000  0.55987000  1.0
  H  H12  1  0.20228000  0.49236000  0.90178000  1.0
  H  H13  1  0.70228000  0.50764000  0.59822000  1.0
  H  H14  1  0.79772000  0.50764000  0.09822000  1.0
  H  H15  1  0.29773000  0.49236000  0.40177000  1.0
  H  H16  1  0.24204000  0.47549000  0.00147000  1.0
  H  H17  1  0.74204000  0.52451000  0.49853000  1.0
  H  H18  1  0.75796000  0.52451000  0.99853000  1.0
  H  H19  1  0.25797000  0.47549000  0.50147000  1.0
  H  H20  1  0.06667000  0.38167000  0.93530000  1.0
  H  H21  1  0.56667000  0.61833000  0.56470000  1.0
  H  H22  1  0.93333000  0.61833000  0.06470000  1.0
  H  H23  1  0.43334000  0.38167000  0.43530000  1.0
  H  H24  1  0.27606000  0.59426000  0.67084000  1.0
  H  H25  1  0.77607000  0.40574000  0.82916000  1.0
  H  H26  1  0.72393000  0.40574000  0.32916000  1.0
  H  H27  1  0.22393000  0.59426000  0.17084000  1.0
  H  H28  1  0.54258000  0.57508000  0.89618000  1.0
  H  H29  1  0.04258000  0.42492000  0.60382000  1.0
  H  H30  1  0.45742000  0.42491000  0.10382000  1.0
  H  H31  1  0.95742000  0.57508000  0.39618000  1.0
  H  H32  1  0.36992000  0.46984000  0.76864000  1.0
  H  H33  1  0.86992000  0.53016000  0.73136000  1.0
  H  H34  1  0.63008000  0.53015000  0.23136000  1.0
  H  H35  1  0.13008000  0.46984000  0.26864000  1.0
  H  H36  1  0.98498000  0.66078000  0.91884000  1.0
  H  H37  1  0.48498000  0.33923000  0.58116000  1.0
  H  H38  1  0.01502000  0.33922000  0.08116000  1.0
  H  H39  1  0.51502000  0.66078000  0.41884000  1.0
  H  H40  1  0.38116000  0.80886000  0.70143000  1.0
  H  H41  1  0.88117000  0.19114000  0.79857000  1.0
  H  H42  1  0.61883000  0.19113000  0.29857000  1.0
  H  H43  1  0.11883000  0.80886000  0.20143000  1.0
  H  H44  1  0.26661000  0.06273000  0.95225000  1.0
  H  H45  1  0.76661000  0.93727000  0.54775000  1.0
  H  H46  1  0.73338000  0.93727000  0.04775000  1.0
  H  H47  1  0.23338000  0.06273000  0.45225000  1.0
  H  H48  1  0.94301000  0.78152000  0.81605000  1.0
  H  H49  1  0.44301000  0.21849000  0.68394000  1.0
  H  H50  1  0.05699000  0.21849000  0.18395000  1.0
  H  H51  1  0.55699000  0.78152000  0.31606000  1.0
  H  H52  1  0.62238000  0.79331000  0.92030000  1.0
  H  H53  1  0.12237000  0.20669000  0.57970000  1.0
  H  H54  1  0.37762000  0.20669000  0.07970000  1.0
  H  H55  1  0.87763000  0.79331000  0.42030000  1.0
  C  C56  1  0.16448000  0.79612000  0.99761000  1.0
  C  C57  1  0.66447000  0.20388000  0.50239000  1.0
  C  C58  1  0.83553000  0.20387000  0.00239000  1.0
  C  C59  1  0.33553000  0.79612000  0.49761000  1.0
  C  C60  1  0.24454000  0.91012000  0.00748000  1.0
  C  C61  1  0.74453000  0.08988000  0.49252000  1.0
  C  C62  1  0.75547000  0.08988000  0.99252000  1.0
  C  C63  1  0.25547000  0.91012000  0.50749000  1.0
  C  C64  1  0.20499000  0.42827000  0.93916000  1.0
  C  C65  1  0.70499000  0.57173000  0.56084000  1.0
  C  C66  1  0.79500000  0.57173000  0.06084000  1.0
  C  C67  1  0.29502000  0.42827000  0.43916000  1.0
  C  C68  1  0.35911000  0.63139000  0.72561000  1.0
  C  C69  1  0.85911000  0.36861000  0.77439000  1.0
  C  C70  1  0.64089000  0.36861000  0.27439000  1.0
  C  C71  1  0.14089000  0.63139000  0.22561000  1.0
  C  C72  1  0.50525000  0.62255000  0.85085000  1.0
  C  C73  1  0.00525000  0.37744000  0.64915000  1.0
  C  C74  1  0.49475000  0.37744000  0.14915000  1.0
  C  C75  1  0.99475000  0.62255000  0.35085000  1.0
  C  C76  1  0.40817000  0.56450000  0.78005000  1.0
  C  C77  1  0.90817000  0.43550000  0.71995000  1.0
  C  C78  1  0.59183000  0.43549000  0.21995000  1.0
  C  C79  1  0.09183000  0.56450000  0.28005000  1.0
  C  C80  1  0.05162000  0.74895000  0.92938000  1.0
  C  C81  1  0.55162000  0.25105000  0.57062000  1.0
  C  C82  1  0.94838000  0.25105000  0.07062000  1.0
  C  C83  1  0.44838000  0.74896000  0.42938000  1.0
  C  C84  1  0.41120000  0.75104000  0.74123000  1.0
  C  C85  1  0.91120000  0.24896000  0.75878000  1.0
  C  C86  1  0.58880000  0.24896000  0.25877000  1.0
  C  C87  1  0.08880000  0.75104000  0.24123000  1.0
  C  C88  1  0.21128000  0.97354000  0.95026000  1.0
  C  C89  1  0.71128000  0.02646000  0.54975000  1.0
  C  C90  1  0.78872000  0.02646000  0.04975000  1.0
  C  C91  1  0.28872000  0.97355000  0.45026000  1.0
  C  C92  1  0.02290000  0.81351000  0.87231000  1.0
  C  C93  1  0.52290000  0.18649000  0.62769000  1.0
  C  C94  1  0.97709000  0.18648000  0.12769000  1.0
  C  C95  1  0.47710000  0.81352000  0.37231000  1.0
  C  C96  1  0.55216000  0.74283000  0.86539000  1.0
  C  C97  1  0.05216000  0.25717000  0.63460000  1.0
  C  C98  1  0.44784000  0.25717000  0.13460000  1.0
  C  C99  1  0.94784000  0.74283000  0.36539000  1.0
  S  S100  1  0.38790000  0.31950000  0.90122000  1.0
  S  S101  1  0.88790000  0.68050000  0.59878000  1.0
  S  S102  1  0.61209000  0.68050000  0.09878000  1.0
  S  S103  1  0.11210000  0.31950000  0.40122000  1.0
  N  N104  1  0.10207000  0.92446000  0.88380000  1.0
  N  N105  1  0.60208000  0.07555000  0.61621000  1.0
  N  N106  1  0.89792000  0.07554000  0.11621000  1.0
  N  N107  1  0.39793000  0.92446000  0.38380000  1.0
  N  N108  1  0.50770000  0.80575000  0.81035000  1.0
  N  N109  1  0.00771000  0.19425000  0.68965000  1.0
  N  N110  1  0.49230000  0.19424000  0.18965000  1.0
  N  N111  1  0.99230000  0.80575000  0.31035000  1.0
  O  O112  1  0.34648000  0.27415000  0.81326000  1.0
  O  O113  1  0.84648000  0.72586000  0.68674000  1.0
  O  O114  1  0.65352000  0.72586000  0.18674000  1.0
  O  O115  1  0.15352000  0.27415000  0.31326000  1.0
  O  O116  1  0.57281000  0.38336000  0.91663000  1.0
  O  O117  1  0.07281000  0.61665000  0.58337000  1.0
  O  O118  1  0.42719000  0.61665000  0.08337000  1.0
  O  O119  1  0.92720000  0.38336000  0.41663000  1.0
  O  O120  1  0.36675000  0.22630000  0.94510000  1.0
  O  O121  1  0.86676000  0.77370000  0.55490000  1.0
  O  O122  1  0.63324000  0.77370000  0.05490000  1.0
  O  O123  1  0.13325000  0.22630000  0.44510000  1.0
  O  O124  1  0.55988000  0.91944000  0.82447000  1.0
  O  O125  1  0.05988000  0.08055000  0.67553000  1.0
  O  O126  1  0.44012000  0.08055000  0.17553000  1.0
  O  O127  1  0.94012000  0.91945000  0.32447000  1.0
  O  O128  1  0.07338000  0.98780000  0.82986000  1.0
  O  O129  1  0.57338000  0.01221000  0.67015000  1.0
  O  O130  1  0.92662000  0.01220000  0.17015000  1.0
  O  O131  1  0.42662000  0.98781000  0.32986000  1.0
