# generated using pymatgen
data_CdH11C19NO4
_symmetry_space_group_name_H-M   'P 1'
_cell_length_a   10.67460000
_cell_length_b   12.51420000
_cell_length_c   12.51420000
_cell_angle_alpha   92.19810000
_cell_angle_beta   92.73740000
_cell_angle_gamma   92.73750000
_symmetry_Int_Tables_number   1
_chemical_formula_structural   CdH11C19NO4
_chemical_formula_sum   'Cd4 H44 C76 N4 O16'
_cell_volume   1666.50088981
_cell_formula_units_Z   4
loop_
 _symmetry_equiv_pos_site_id
 _symmetry_equiv_pos_as_xyz
  1  'x, y, z'
loop_
 _atom_site_type_symbol
 _atom_site_label
 _atom_site_symmetry_multiplicity
 _atom_site_fract_x
 _atom_site_fract_y
 _atom_site_fract_z
 _atom_site_occupancy
  Cd  Cd0  1  0.75000000  0.85938000  0.14062000  1.0
  Cd  Cd1  1  0.25000000  0.14062000  0.85938000  1.0
  Cd  Cd2  1  0.00000000  0.00000000  0.00000000  1.0
  Cd  Cd3  1  0.50000000  0.00000000  0.00000000  1.0
  H  H4  1  0.95988000  0.77378000  0.85062000  1.0
  H  H5  1  0.54012000  0.14938000  0.22623000  1.0
  H  H6  1  0.04012000  0.22622000  0.14938000  1.0
  H  H7  1  0.45988000  0.85062000  0.77377000  1.0
  H  H8  1  0.63131000  0.89054000  0.69646000  1.0
  H  H9  1  0.86869000  0.30354000  0.10946000  1.0
  H  H10  1  0.36870000  0.10946000  0.30354000  1.0
  H  H11  1  0.13131000  0.69646000  0.89054000  1.0
  H  H12  1  0.02389000  0.69685000  0.67532000  1.0
  H  H13  1  0.47611000  0.32468000  0.30315000  1.0
  H  H14  1  0.97611000  0.30315000  0.32468000  1.0
  H  H15  1  0.52389000  0.67532000  0.69685000  1.0
  H  H16  1  0.88930000  0.71370000  0.51125000  1.0
  H  H17  1  0.61070000  0.48876000  0.28630000  1.0
  H  H18  1  0.11070000  0.28630000  0.48875000  1.0
  H  H19  1  0.38930000  0.51124000  0.71370000  1.0
  H  H20  1  0.49794000  0.82703000  0.57585000  1.0
  H  H21  1  0.00206000  0.42415000  0.17297000  1.0
  H  H22  1  0.50206000  0.17297000  0.42415000  1.0
  H  H23  1  0.99794000  0.57585000  0.82703000  1.0
  H  H24  1  0.81849000  0.81477000  0.38070000  1.0
  H  H25  1  0.68151000  0.61930000  0.18523000  1.0
  H  H26  1  0.18151000  0.18523000  0.61930000  1.0
  H  H27  1  0.31849000  0.38070000  0.81477000  1.0
  H  H28  1  0.48336000  0.90479000  0.24293000  1.0
  H  H29  1  0.01665000  0.75707000  0.09521000  1.0
  H  H30  1  0.51664000  0.09521000  0.75707000  1.0
  H  H31  1  0.98335000  0.24293000  0.90479000  1.0
  H  H32  1  0.33778000  0.88897000  0.59161000  1.0
  H  H33  1  0.16222000  0.40839000  0.11103000  1.0
  H  H34  1  0.66222000  0.11103000  0.40839000  1.0
  H  H35  1  0.83778000  0.59161000  0.88897000  1.0
  H  H36  1  0.29048000  0.89116000  0.24513000  1.0
  H  H37  1  0.20952000  0.75487000  0.10884000  1.0
  H  H38  1  0.70952000  0.10884000  0.75487000  1.0
  H  H39  1  0.79048000  0.24513000  0.89116000  1.0
  H  H40  1  0.11228000  0.90804000  0.60543000  1.0
  H  H41  1  0.38772000  0.39457000  0.09196000  1.0
  H  H42  1  0.88772000  0.09196000  0.39457000  1.0
  H  H43  1  0.61228000  0.60543000  0.90804000  1.0
  H  H44  1  0.97424000  0.92012000  0.43953000  1.0
  H  H45  1  0.52576000  0.56047000  0.07988000  1.0
  H  H46  1  0.02576000  0.07988000  0.56047000  1.0
  H  H47  1  0.47424000  0.43953000  0.92012000  1.0
  C  C48  1  0.74568000  0.87601000  0.88900000  1.0
  C  C49  1  0.75432000  0.11100000  0.12400000  1.0
  C  C50  1  0.25432000  0.12399000  0.11100000  1.0
  C  C51  1  0.24568000  0.88900000  0.87600000  1.0
  C  C52  1  0.78798000  0.83180000  0.78408000  1.0
  C  C53  1  0.71202000  0.21592000  0.16820000  1.0
  C  C54  1  0.21202000  0.16820000  0.21592000  1.0
  C  C55  1  0.28798000  0.78408000  0.83180000  1.0
  C  C56  1  0.90013000  0.77884000  0.77827000  1.0
  C  C57  1  0.59987000  0.22173000  0.22116000  1.0
  C  C58  1  0.09987000  0.22116000  0.22173000  1.0
  C  C59  1  0.40013000  0.77827000  0.77884000  1.0
  C  C60  1  0.71448000  0.84415000  0.69058000  1.0
  C  C61  1  0.78552000  0.30942000  0.15585000  1.0
  C  C62  1  0.28552000  0.15585000  0.30942000  1.0
  C  C63  1  0.21448000  0.69058000  0.84415000  1.0
  C  C64  1  0.93582000  0.73714000  0.67995000  1.0
  C  C65  1  0.56418000  0.32005000  0.26286000  1.0
  C  C66  1  0.06418000  0.26286000  0.32005000  1.0
  C  C67  1  0.43582000  0.67995000  0.73714000  1.0
  C  C68  1  0.74869000  0.80259000  0.59114000  1.0
  C  C69  1  0.75131000  0.40886000  0.19741000  1.0
  C  C70  1  0.25131000  0.19742000  0.40886000  1.0
  C  C71  1  0.24869000  0.59114000  0.80259000  1.0
  C  C72  1  0.86050000  0.74781000  0.58716000  1.0
  C  C73  1  0.63950000  0.41284000  0.25219000  1.0
  C  C74  1  0.13951000  0.25219000  0.41284000  1.0
  C  C75  1  0.36050000  0.58716000  0.74781000  1.0
  C  C76  1  0.66980000  0.82172000  0.49429000  1.0
  C  C77  1  0.83020000  0.50571000  0.17828000  1.0
  C  C78  1  0.33020000  0.17828000  0.50571000  1.0
  C  C79  1  0.16980000  0.49429000  0.82172000  1.0
  C  C80  1  0.54166000  0.83853000  0.50017000  1.0
  C  C81  1  0.95834000  0.49983000  0.16147000  1.0
  C  C82  1  0.45834000  0.16147000  0.49983000  1.0
  C  C83  1  0.04166000  0.50017000  0.83853000  1.0
  C  C84  1  0.72023000  0.82858000  0.39328000  1.0
  C  C85  1  0.77977000  0.60672000  0.17143000  1.0
  C  C86  1  0.27977000  0.17142000  0.60672000  1.0
  C  C87  1  0.22023000  0.39328000  0.82858000  1.0
  C  C88  1  0.46888000  0.86811000  0.41092000  1.0
  C  C89  1  0.03112000  0.58908000  0.13189000  1.0
  C  C90  1  0.53113000  0.13189000  0.58908000  1.0
  C  C91  1  0.96888000  0.41092000  0.86811000  1.0
  C  C92  1  0.53142000  0.87889000  0.31541000  1.0
  C  C93  1  0.96859000  0.68459000  0.12111000  1.0
  C  C94  1  0.46859000  0.12111000  0.68459000  1.0
  C  C95  1  0.03141000  0.31541000  0.87889000  1.0
  C  C96  1  0.33298000  0.88499000  0.41740000  1.0
  C  C97  1  0.16702000  0.58260000  0.11501000  1.0
  C  C98  1  0.66702000  0.11501000  0.58260000  1.0
  C  C99  1  0.83298000  0.41740000  0.88499000  1.0
  C  C100  1  0.27948000  0.89151000  0.51806000  1.0
  C  C101  1  0.22052000  0.48194000  0.10849000  1.0
  C  C102  1  0.72052000  0.10849000  0.48194000  1.0
  C  C103  1  0.77948000  0.51806000  0.89151000  1.0
  C  C104  1  0.25414000  0.89410000  0.32511000  1.0
  C  C105  1  0.24586000  0.67489000  0.10590000  1.0
  C  C106  1  0.74586000  0.10590000  0.67489000  1.0
  C  C107  1  0.75414000  0.32511000  0.89410000  1.0
  C  C108  1  0.15137000  0.90278000  0.52659000  1.0
  C  C109  1  0.34863000  0.47341000  0.09722000  1.0
  C  C110  1  0.84863000  0.09722000  0.47341000  1.0
  C  C111  1  0.65137000  0.52659000  0.90278000  1.0
  C  C112  1  0.12540000  0.90750000  0.33348000  1.0
  C  C113  1  0.37460000  0.66652000  0.09250000  1.0
  C  C114  1  0.87460000  0.09250000  0.66652000  1.0
  C  C115  1  0.62540000  0.33348000  0.90750000  1.0
  C  C116  1  0.07422000  0.90959000  0.43439000  1.0
  C  C117  1  0.42578000  0.56560000  0.09041000  1.0
  C  C118  1  0.92578000  0.09041000  0.56561000  1.0
  C  C119  1  0.57422000  0.43439000  0.90959000  1.0
  C  C120  1  0.03998000  0.92084000  0.23602000  1.0
  C  C121  1  0.46002000  0.76397000  0.07916000  1.0
  C  C122  1  0.96002000  0.07916000  0.76397000  1.0
  C  C123  1  0.53998000  0.23603000  0.92084000  1.0
  N  N124  1  0.65241000  0.85638000  0.30674000  1.0
  N  N125  1  0.84759000  0.69325000  0.14362000  1.0
  N  N126  1  0.34759000  0.14362000  0.69326000  1.0
  N  N127  1  0.15241000  0.30674000  0.85638000  1.0
  O  O128  1  0.82425000  0.87281000  0.97074000  1.0
  O  O129  1  0.67575000  0.02926000  0.12719000  1.0
  O  O130  1  0.17575000  0.12719000  0.02926000  1.0
  O  O131  1  0.32425000  0.97074000  0.87281000  1.0
  O  O132  1  0.92327000  0.92367000  0.25021000  1.0
  O  O133  1  0.57673000  0.74979000  0.07633000  1.0
  O  O134  1  0.07673000  0.07633000  0.74979000  1.0
  O  O135  1  0.42327000  0.25021000  0.92367000  1.0
  O  O136  1  0.63642000  0.90941000  0.89069000  1.0
  O  O137  1  0.86358000  0.10931000  0.09059000  1.0
  O  O138  1  0.36358000  0.09059000  0.10931000  1.0
  O  O139  1  0.13642000  0.89069000  0.90941000  1.0
  O  O140  1  0.09097000  0.92764000  0.14590000  1.0
  O  O141  1  0.40903000  0.85410000  0.07236000  1.0
  O  O142  1  0.90903000  0.07236000  0.85410000  1.0
  O  O143  1  0.59097000  0.14590000  0.92763000  1.0
