# generated using pymatgen
data_ZnH28C26(N3O2)2
_symmetry_space_group_name_H-M   'P 1'
_cell_length_a   7.65104000
_cell_length_b   10.93430000
_cell_length_c   16.06000000
_cell_angle_alpha   86.35270000
_cell_angle_beta   79.52400000
_cell_angle_gamma   69.52100000
_symmetry_Int_Tables_number   1
_chemical_formula_structural   ZnH28C26(N3O2)2
_chemical_formula_sum   'Zn2 H56 C52 N12 O8'
_cell_volume   1237.66726588
_cell_formula_units_Z   2
loop_
 _symmetry_equiv_pos_site_id
 _symmetry_equiv_pos_as_xyz
  1  'x, y, z'
loop_
 _atom_site_type_symbol
 _atom_site_label
 _atom_site_symmetry_multiplicity
 _atom_site_fract_x
 _atom_site_fract_y
 _atom_site_fract_z
 _atom_site_occupancy
  Zn  Zn0  1  0.23814000  0.52321000  0.24999000  1.0
  Zn  Zn1  1  0.76186000  0.47679000  0.75001000  1.0
  H  H2  1  0.51402000  0.72375000  0.41025000  1.0
  H  H3  1  0.76133000  0.72320000  0.08966000  1.0
  H  H4  1  0.48597000  0.27625000  0.58975000  1.0
  H  H5  1  0.23866000  0.27680000  0.91034000  1.0
  H  H6  1  0.73149000  0.65111000  0.34473000  1.0
  H  H7  1  0.61639000  0.65087000  0.15537000  1.0
  H  H8  1  0.26851000  0.34889000  0.65528000  1.0
  H  H9  1  0.38360000  0.34913000  0.84463000  1.0
  H  H10  1  0.37236000  0.94299000  0.39934000  1.0
  H  H11  1  0.68512000  0.94252000  0.10045000  1.0
  H  H12  1  0.62763000  0.05701000  0.60066000  1.0
  H  H13  1  0.31488000  0.05747000  0.89955000  1.0
  H  H14  1  0.34001000  0.15285000  0.32423000  1.0
  H  H15  1  0.50898000  0.15259000  0.17549000  1.0
  H  H16  1  0.65999000  0.84715000  0.67577000  1.0
  H  H17  1  0.49102000  0.84741000  0.82450000  1.0
  H  H18  1  0.39959000  0.38779000  0.41539000  1.0
  H  H19  1  0.21262000  0.38786000  0.08453000  1.0
  H  H20  1  0.60042000  0.61221000  0.58461000  1.0
  H  H21  1  0.78738000  0.61214000  0.91547000  1.0
  H  H22  1  0.88544000  0.41647000  0.34072000  1.0
  H  H23  1  0.69797000  0.41640000  0.15955000  1.0
  H  H24  1  0.11456000  0.58352000  0.65928000  1.0
  H  H25  1  0.30203000  0.58361000  0.84045000  1.0
  H  H26  1  0.74125000  0.32835000  0.47527000  1.0
  H  H27  1  0.93051000  0.32833000  0.02504000  1.0
  H  H28  1  0.25875000  0.67165000  0.52473000  1.0
  H  H29  1  0.06949000  0.67168000  0.97496000  1.0
  H  H30  1  0.84529000  0.32048000  0.56630000  1.0
  H  H31  1  0.83450000  0.32055000  0.93394000  1.0
  H  H32  1  0.15471000  0.67952000  0.43370000  1.0
  H  H33  1  0.16550000  0.67945000  0.06606000  1.0
  H  H34  1  0.10001000  0.22420000  0.61190000  1.0
  H  H35  1  0.67552000  0.22460000  0.88841000  1.0
  H  H36  1  0.89999000  0.77580000  0.38810000  1.0
  H  H37  1  0.32447000  0.77541000  0.11159000  1.0
  H  H38  1  0.19045000  0.07497000  0.66345000  1.0
  H  H39  1  0.73429000  0.07550000  0.83668000  1.0
  H  H40  1  0.80955000  0.92503000  0.33655000  1.0
  H  H41  1  0.26571000  0.92450000  0.16332000  1.0
  H  H42  1  0.94441000  0.16449000  0.68403000  1.0
  H  H43  1  0.89080000  0.16504000  0.81619000  1.0
  H  H44  1  0.05560000  0.83551000  0.31597000  1.0
  H  H45  1  0.10920000  0.83497000  0.18381000  1.0
  H  H46  1  0.76649000  0.24963000  0.36617000  1.0
  H  H47  1  0.98435000  0.24927000  0.13394000  1.0
  H  H48  1  0.23352000  0.75036000  0.63383000  1.0
  H  H49  1  0.01564000  0.75073000  0.86606000  1.0
  H  H50  1  0.66000000  0.12910000  0.37132000  1.0
  H  H51  1  0.21129000  0.12864000  0.12867000  1.0
  H  H52  1  0.34001000  0.87090000  0.62867000  1.0
  H  H53  1  0.78870000  0.87137000  0.87133000  1.0
  H  H54  1  0.87691000  0.10703000  0.30469000  1.0
  H  H55  1  0.01651000  0.10664000  0.19543000  1.0
  H  H56  1  0.12310000  0.89296000  0.69531000  1.0
  H  H57  1  0.98348000  0.89336000  0.80456000  1.0
  C  C58  1  0.50391000  0.59724000  0.31838000  1.0
  C  C59  1  0.89804000  0.59690000  0.18155000  1.0
  C  C60  1  0.49609000  0.40275000  0.68162000  1.0
  C  C61  1  0.10196000  0.40310000  0.81845000  1.0
  C  C62  1  0.57949000  0.69894000  0.34370000  1.0
  C  C63  1  0.72066000  0.69864000  0.15625000  1.0
  C  C64  1  0.42051000  0.30106000  0.65630000  1.0
  C  C65  1  0.27933000  0.30136000  0.84374000  1.0
  C  C66  1  0.54637000  0.82320000  0.29296000  1.0
  C  C67  1  0.62979000  0.82306000  0.20688000  1.0
  C  C68  1  0.45362000  0.17680000  0.70704000  1.0
  C  C69  1  0.37021000  0.17693000  0.79312000  1.0
  C  C70  1  0.44081000  0.94274000  0.33342000  1.0
  C  C71  1  0.61676000  0.94247000  0.16636000  1.0
  C  C72  1  0.55919000  0.05726000  0.66658000  1.0
  C  C73  1  0.38324000  0.05753000  0.83363000  1.0
  C  C74  1  0.42352000  0.06112000  0.29148000  1.0
  C  C75  1  0.51649000  0.06098000  0.20827000  1.0
  C  C76  1  0.57648000  0.93888000  0.70852000  1.0
  C  C77  1  0.48351000  0.93902000  0.79173000  1.0
  C  C78  1  0.26256000  0.37847000  0.41633000  1.0
  C  C79  1  0.35896000  0.37857000  0.08366000  1.0
  C  C80  1  0.73745000  0.62153000  0.58367000  1.0
  C  C81  1  0.64105000  0.62143000  0.91634000  1.0
  C  C82  1  0.00427000  0.39428000  0.37462000  1.0
  C  C83  1  0.60135000  0.39426000  0.12560000  1.0
  C  C84  1  0.99574000  0.60572000  0.62538000  1.0
  C  C85  1  0.39864000  0.60574000  0.87440000  1.0
  C  C86  1  0.87167000  0.28408000  0.50160000  1.0
  C  C87  1  0.84437000  0.28412000  0.99865000  1.0
  C  C88  1  0.12833000  0.71592000  0.49840000  1.0
  C  C89  1  0.15563000  0.71588000  0.00135000  1.0
  C  C90  1  0.93885000  0.13622000  0.50019000  1.0
  C  C91  1  0.92488000  0.13626000  0.00000000  1.0
  C  C92  1  0.06115000  0.86378000  0.49981000  1.0
  C  C93  1  0.07512000  0.86374000  0.00000000  1.0
  C  C94  1  0.03773000  0.06593000  0.56398000  1.0
  C  C95  1  0.89620000  0.06615000  0.93613000  1.0
  C  C96  1  0.96228000  0.93407000  0.43602000  1.0
  C  C97  1  0.10379000  0.93385000  0.06387000  1.0
  C  C98  1  0.07056000  0.13567000  0.63420000  1.0
  C  C99  1  0.79350000  0.13613000  0.86601000  1.0
  C  C100  1  0.92945000  0.86433000  0.36580000  1.0
  C  C101  1  0.20649000  0.86387000  0.13399000  1.0
  C  C102  1  0.90076000  0.07167000  0.43618000  1.0
  C  C103  1  0.02768000  0.07147000  0.06390000  1.0
  C  C104  1  0.09924000  0.92832000  0.56382000  1.0
  C  C105  1  0.97231000  0.92853000  0.93610000  1.0
  C  C106  1  0.79603000  0.14441000  0.36708000  1.0
  C  C107  1  0.05988000  0.14402000  0.13302000  1.0
  C  C108  1  0.20398000  0.85559000  0.63292000  1.0
  C  C109  1  0.94012000  0.85598000  0.86698000  1.0
  N  N110  1  0.16376000  0.42217000  0.35088000  1.0
  N  N111  1  0.41391000  0.42215000  0.14921000  1.0
  N  N112  1  0.83625000  0.57783000  0.64912000  1.0
  N  N113  1  0.58609000  0.57785000  0.85079000  1.0
  N  N114  1  0.17339000  0.32563000  0.47843000  1.0
  N  N115  1  0.50114000  0.32577000  0.02162000  1.0
  N  N116  1  0.82662000  0.67437000  0.52157000  1.0
  N  N117  1  0.49886000  0.67423000  0.97838000  1.0
  N  N118  1  0.01002000  0.33667000  0.45092000  1.0
  N  N119  1  0.65336000  0.33676000  0.04926000  1.0
  N  N120  1  0.98999000  0.66333000  0.54909000  1.0
  N  N121  1  0.34664000  0.66324000  0.95074000  1.0
  O  O122  1  0.58532000  0.47857000  0.33322000  1.0
  O  O123  1  0.93519000  0.47823000  0.16671000  1.0
  O  O124  1  0.41468000  0.52143000  0.66678000  1.0
  O  O125  1  0.06480000  0.52177000  0.83328000  1.0
  O  O126  1  0.35190000  0.64314000  0.28509000  1.0
  O  O127  1  0.00419000  0.64275000  0.21483000  1.0
  O  O128  1  0.64810000  0.35686000  0.71491000  1.0
  O  O129  1  0.99580000  0.35725000  0.78517000  1.0
