# generated using pymatgen
data_ZnH19C24N6O5
_symmetry_space_group_name_H-M   'P 1'
_cell_length_a   9.51946000
_cell_length_b   11.93350000
_cell_length_c   11.97400000
_cell_angle_alpha   115.72100000
_cell_angle_beta   90.20970000
_cell_angle_gamma   102.47800000
_symmetry_Int_Tables_number   1
_chemical_formula_structural   ZnH19C24N6O5
_chemical_formula_sum   'Zn2 H38 C48 N12 O10'
_cell_volume   1189.16652718
_cell_formula_units_Z   2
loop_
 _symmetry_equiv_pos_site_id
 _symmetry_equiv_pos_as_xyz
  1  'x, y, z'
loop_
 _atom_site_type_symbol
 _atom_site_label
 _atom_site_symmetry_multiplicity
 _atom_site_fract_x
 _atom_site_fract_y
 _atom_site_fract_z
 _atom_site_occupancy
  Zn  Zn0  1  0.40050000  0.65922000  0.24125000  1.0
  Zn  Zn1  1  0.59951000  0.34078000  0.75875000  1.0
  H  H2  1  0.96284000  0.67949000  0.21355000  1.0
  H  H3  1  0.03716000  0.32051000  0.78645000  1.0
  H  H4  1  0.19418000  0.07485000  0.40146000  1.0
  H  H5  1  0.80582000  0.92515000  0.59854000  1.0
  H  H6  1  0.72752000  0.97458000  0.32403000  1.0
  H  H7  1  0.27248000  0.02542000  0.67597000  1.0
  H  H8  1  0.15933000  0.24518000  0.39271000  1.0
  H  H9  1  0.84067000  0.75482000  0.60729000  1.0
  H  H10  1  0.12668000  0.26976000  0.54807000  1.0
  H  H11  1  0.87333000  0.73025000  0.45194000  1.0
  H  H12  1  0.88778000  0.37758000  0.61395000  1.0
  H  H13  1  0.11222000  0.62242000  0.38605000  1.0
  H  H14  1  0.18428000  0.42533000  0.35769000  1.0
  H  H15  1  0.81572000  0.57467000  0.64231000  1.0
  H  H16  1  0.54063000  0.41595000  0.13511000  1.0
  H  H17  1  0.45937000  0.58404000  0.86488000  1.0
  H  H18  1  0.10716000  0.19500000  0.01714000  1.0
  H  H19  1  0.89284000  0.80500000  0.98287000  1.0
  H  H20  1  0.38561000  0.11655000  0.90547000  1.0
  H  H21  1  0.61439000  0.88345000  0.09452000  1.0
  H  H22  1  0.30979000  0.07049000  0.01932000  1.0
  H  H23  1  0.69020000  0.92951000  0.98069000  1.0
  H  H24  1  0.62737000  0.20323000  0.91055000  1.0
  H  H25  1  0.37263000  0.79677000  0.08945000  1.0
  H  H26  1  0.88359000  0.25371000  0.99211000  1.0
  H  H27  1  0.11641000  0.74629000  0.00789000  1.0
  H  H28  1  0.94299000  0.24194000  0.19175000  1.0
  H  H29  1  0.05701000  0.75806000  0.80825000  1.0
  H  H30  1  0.74824000  0.18085000  0.30194000  1.0
  H  H31  1  0.25176000  0.81915000  0.69805000  1.0
  H  H32  1  0.35038000  0.12240000  0.21194000  1.0
  H  H33  1  0.64962000  0.87760000  0.78806000  1.0
  H  H34  1  0.45152000  0.02849000  0.24062000  1.0
  H  H35  1  0.54849000  0.97150000  0.75938000  1.0
  H  H36  1  0.52141000  0.09908000  0.46940000  1.0
  H  H37  1  0.47860000  0.90092000  0.53060000  1.0
  H  H38  1  0.48128000  0.39552000  0.37422000  1.0
  H  H39  1  0.51873000  0.60448000  0.62578000  1.0
  C  C40  1  0.69006000  0.71617000  0.22395000  1.0
  C  C41  1  0.30994000  0.28383000  0.77605000  1.0
  C  C42  1  0.83050000  0.81681000  0.26268000  1.0
  C  C43  1  0.16950000  0.18319000  0.73732000  1.0
  C  C44  1  0.96210000  0.78054000  0.25505000  1.0
  C  C45  1  0.03790000  0.21947000  0.74495000  1.0
  C  C46  1  0.09165000  0.87455000  0.30363000  1.0
  C  C47  1  0.90835000  0.12545000  0.69637000  1.0
  C  C48  1  0.23295000  0.83714000  0.30038000  1.0
  C  C49  1  0.76705000  0.16286000  0.69962000  1.0
  C  C50  1  0.09151000  0.00504000  0.35947000  1.0
  C  C51  1  0.90849000  0.99496000  0.64053000  1.0
  C  C52  1  0.96051000  0.04086000  0.36363000  1.0
  C  C53  1  0.03949000  0.95914000  0.63637000  1.0
  C  C54  1  0.82994000  0.94651000  0.31551000  1.0
  C  C55  1  0.17005000  0.05349000  0.68449000  1.0
  C  C56  1  0.08002000  0.26570000  0.46148000  1.0
  C  C57  1  0.91998000  0.73430000  0.53852000  1.0
  C  C58  1  0.04033000  0.38781000  0.48315000  1.0
  C  C59  1  0.95966000  0.61219000  0.51685000  1.0
  C  C60  1  0.93666000  0.43074000  0.56354000  1.0
  C  C61  1  0.06333000  0.56926000  0.43645000  1.0
  C  C62  1  0.10315000  0.45795000  0.42027000  1.0
  C  C63  1  0.89685000  0.54205000  0.57973000  1.0
  C  C64  1  0.42332000  0.38608000  0.11696000  1.0
  C  C65  1  0.57668000  0.61392000  0.88303000  1.0
  C  C66  1  0.20003000  0.27623000  0.05852000  1.0
  C  C67  1  0.79997000  0.72377000  0.94149000  1.0
  C  C68  1  0.38894000  0.14425000  0.00593000  1.0
  C  C69  1  0.61106000  0.85575000  0.99407000  1.0
  C  C70  1  0.54106000  0.16358000  0.05894000  1.0
  C  C71  1  0.45893000  0.83642000  0.94106000  1.0
  C  C72  1  0.65409000  0.19596000  0.99540000  1.0
  C  C73  1  0.34591000  0.80404000  0.00460000  1.0
  C  C74  1  0.79858000  0.22379000  0.04123000  1.0
  C  C75  1  0.20141000  0.77621000  0.95877000  1.0
  C  C76  1  0.83114000  0.21743000  0.15184000  1.0
  C  C77  1  0.16886000  0.78257000  0.84816000  1.0
  C  C78  1  0.71981000  0.18365000  0.21502000  1.0
  C  C79  1  0.28019000  0.81636000  0.78498000  1.0
  C  C80  1  0.57419000  0.15722000  0.17052000  1.0
  C  C81  1  0.42581000  0.84278000  0.82948000  1.0
  C  C82  1  0.45854000  0.12358000  0.24517000  1.0
  C  C83  1  0.54147000  0.87642000  0.75483000  1.0
  C  C84  1  0.52177000  0.19242000  0.47545000  1.0
  C  C85  1  0.47823000  0.80758000  0.52455000  1.0
  C  C86  1  0.49906000  0.34411000  0.42682000  1.0
  C  C87  1  0.50094000  0.65588000  0.57318000  1.0
  N  N88  1  0.33757000  0.46638000  0.14561000  1.0
  N  N89  1  0.66243000  0.53362000  0.85439000  1.0
  N  N90  1  0.19547000  0.39764000  0.10902000  1.0
  N  N91  1  0.80453000  0.60237000  0.89098000  1.0
  N  N92  1  0.33987000  0.26429000  0.06273000  1.0
  N  N93  1  0.66013000  0.73571000  0.93727000  1.0
  N  N94  1  0.48900000  0.21507000  0.37760000  1.0
  N  N95  1  0.51100000  0.78493000  0.62240000  1.0
  N  N96  1  0.53436000  0.39861000  0.54826000  1.0
  N  N97  1  0.46564000  0.60139000  0.45174000  1.0
  N  N98  1  0.54893000  0.30237000  0.57821000  1.0
  N  N99  1  0.45108000  0.69762000  0.42178000  1.0
  O  O100  1  0.68730000  0.60945000  0.21989000  1.0
  O  O101  1  0.31270000  0.39055000  0.78011000  1.0
  O  O102  1  0.57630000  0.75194000  0.20260000  1.0
  O  O103  1  0.42370000  0.24806000  0.79739000  1.0
  O  O104  1  0.22568000  0.71650000  0.23119000  1.0
  O  O105  1  0.77433000  0.28350000  0.76881000  1.0
  O  O106  1  0.34642000  0.91949000  0.36088000  1.0
  O  O107  1  0.65358000  0.08051000  0.63914000  1.0
  O  O108  1  0.94836000  0.16481000  0.41314000  1.0
  O  O109  1  0.05164000  0.83519000  0.58686000  1.0
