# generated using pymatgen
data_CuH12C15N2O5
_symmetry_space_group_name_H-M   'P 1'
_cell_length_a   7.44432000
_cell_length_b   9.28254000
_cell_length_c   24.83030000
_cell_angle_alpha   100.01200000
_cell_angle_beta   89.99990000
_cell_angle_gamma   89.99940000
_symmetry_Int_Tables_number   1
_chemical_formula_structural   CuH12C15N2O5
_chemical_formula_sum   'Cu4 H48 C60 N8 O20'
_cell_volume   1689.69858403
_cell_formula_units_Z   4
loop_
 _symmetry_equiv_pos_site_id
 _symmetry_equiv_pos_as_xyz
  1  'x, y, z'
loop_
 _atom_site_type_symbol
 _atom_site_label
 _atom_site_symmetry_multiplicity
 _atom_site_fract_x
 _atom_site_fract_y
 _atom_site_fract_z
 _atom_site_occupancy
  Cu  Cu0  1  0.49975000  0.25222000  0.28078000  1.0
  Cu  Cu1  1  0.99975000  0.74778000  0.21922000  1.0
  Cu  Cu2  1  0.50025000  0.74777000  0.71922000  1.0
  Cu  Cu3  1  0.00026000  0.25223000  0.78078000  1.0
  H  H4  1  0.50912000  0.15166000  0.39171000  1.0
  H  H5  1  0.00913000  0.84834000  0.10830000  1.0
  H  H6  1  0.49087000  0.84835000  0.60830000  1.0
  H  H7  1  0.99086000  0.15166000  0.89170000  1.0
  H  H8  1  0.61457000  0.26891000  0.48585000  1.0
  H  H9  1  0.11455000  0.73109000  0.01414000  1.0
  H  H10  1  0.38543000  0.73110000  0.51415000  1.0
  H  H11  1  0.88541000  0.26891000  0.98585000  1.0
  H  H12  1  0.74438000  0.52275000  0.49880000  1.0
  H  H13  1  0.24436000  0.47725000  0.00120000  1.0
  H  H14  1  0.25562000  0.47726000  0.50120000  1.0
  H  H15  1  0.75561000  0.52276000  0.99880000  1.0
  H  H16  1  0.75817000  0.65135000  0.41721000  1.0
  H  H17  1  0.25816000  0.34865000  0.08279000  1.0
  H  H18  1  0.24183000  0.34865000  0.58280000  1.0
  H  H19  1  0.74184000  0.65136000  0.91720000  1.0
  H  H20  1  0.70231000  0.63997000  0.31405000  1.0
  H  H21  1  0.20231000  0.36002000  0.18595000  1.0
  H  H22  1  0.29771000  0.36002000  0.68595000  1.0
  H  H23  1  0.79771000  0.63999000  0.81404000  1.0
  H  H24  1  0.69602000  0.29371000  0.17419000  1.0
  H  H25  1  0.19600000  0.70629000  0.32580000  1.0
  H  H26  1  0.30400000  0.70629000  0.82580000  1.0
  H  H27  1  0.80400000  0.29372000  0.67419000  1.0
  H  H28  1  0.71847000  0.39021000  0.08589000  1.0
  H  H29  1  0.21847000  0.60978000  0.41411000  1.0
  H  H30  1  0.28153000  0.60979000  0.91411000  1.0
  H  H31  1  0.78154000  0.39022000  0.58589000  1.0
  H  H32  1  0.49341000  0.80126000  0.16570000  1.0
  H  H33  1  0.99343000  0.19873000  0.33430000  1.0
  H  H34  1  0.50659000  0.19873000  0.83431000  1.0
  H  H35  1  0.00660000  0.80128000  0.66569000  1.0
  H  H36  1  0.48392000  0.70948000  0.25250000  1.0
  H  H37  1  0.98392000  0.29050000  0.24749000  1.0
  H  H38  1  0.51609000  0.29051000  0.74750000  1.0
  H  H39  1  0.01609000  0.70949000  0.75250000  1.0
  H  H40  1  0.44873000  0.82452000  0.07931000  1.0
  H  H41  1  0.94875000  0.17548000  0.42069000  1.0
  H  H42  1  0.55124000  0.17546000  0.92069000  1.0
  H  H43  1  0.05127000  0.82452000  0.57931000  1.0
  H  H44  1  0.62161000  0.81425000  0.02816000  1.0
  H  H45  1  0.12162000  0.18575000  0.47183000  1.0
  H  H46  1  0.37836000  0.18573000  0.97183000  1.0
  H  H47  1  0.87841000  0.81426000  0.52816000  1.0
  H  H48  1  0.67482000  0.87162000  0.09948000  1.0
  H  H49  1  0.17485000  0.12839000  0.40052000  1.0
  H  H50  1  0.32514000  0.12838000  0.90052000  1.0
  H  H51  1  0.82517000  0.87163000  0.59948000  1.0
  C  C52  1  0.56180000  0.26275000  0.40024000  1.0
  C  C53  1  0.06181000  0.73726000  0.09976000  1.0
  C  C54  1  0.43819000  0.73726000  0.59977000  1.0
  C  C55  1  0.93820000  0.26275000  0.90023000  1.0
  C  C56  1  0.62293000  0.32868000  0.45185000  1.0
  C  C57  1  0.12293000  0.67131000  0.04815000  1.0
  C  C58  1  0.37706000  0.67133000  0.54815000  1.0
  C  C59  1  0.87707000  0.32869000  0.95185000  1.0
  C  C60  1  0.69401000  0.46990000  0.45903000  1.0
  C  C61  1  0.19400000  0.53010000  0.04097000  1.0
  C  C62  1  0.30598000  0.53011000  0.54098000  1.0
  C  C63  1  0.80600000  0.46991000  0.95903000  1.0
  C  C64  1  0.70128000  0.54197000  0.41421000  1.0
  C  C65  1  0.20129000  0.45802000  0.08579000  1.0
  C  C66  1  0.29871000  0.45804000  0.58579000  1.0
  C  C67  1  0.79873000  0.54198000  0.91421000  1.0
  C  C68  1  0.63719000  0.46988000  0.36381000  1.0
  C  C69  1  0.13721000  0.53012000  0.13618000  1.0
  C  C70  1  0.36281000  0.53013000  0.63619000  1.0
  C  C71  1  0.86282000  0.46989000  0.86381000  1.0
  C  C72  1  0.64571000  0.53069000  0.31388000  1.0
  C  C73  1  0.14572000  0.46931000  0.18612000  1.0
  C  C74  1  0.35430000  0.46931000  0.68612000  1.0
  C  C75  1  0.85430000  0.53070000  0.81388000  1.0
  C  C76  1  0.59821000  0.49845000  0.21921000  1.0
  C  C77  1  0.09820000  0.50154000  0.28078000  1.0
  C  C78  1  0.40179000  0.50154000  0.78079000  1.0
  C  C79  1  0.90180000  0.49846000  0.71921000  1.0
  C  C80  1  0.65676000  0.40542000  0.17158000  1.0
  C  C81  1  0.15676000  0.59457000  0.32842000  1.0
  C  C82  1  0.34325000  0.59458000  0.82842000  1.0
  C  C83  1  0.84325000  0.40543000  0.67158000  1.0
  C  C84  1  0.66802000  0.45901000  0.12289000  1.0
  C  C85  1  0.16804000  0.54098000  0.37711000  1.0
  C  C86  1  0.33198000  0.54099000  0.87711000  1.0
  C  C87  1  0.83198000  0.45902000  0.62289000  1.0
  C  C88  1  0.61470000  0.60341000  0.12079000  1.0
  C  C89  1  0.11471000  0.39659000  0.37921000  1.0
  C  C90  1  0.38530000  0.39660000  0.87921000  1.0
  C  C91  1  0.88530000  0.60341000  0.62078000  1.0
  C  C92  1  0.54664000  0.69315000  0.16750000  1.0
  C  C93  1  0.04664000  0.30686000  0.33250000  1.0
  C  C94  1  0.45336000  0.30685000  0.83251000  1.0
  C  C95  1  0.95337000  0.69315000  0.66749000  1.0
  C  C96  1  0.54119000  0.64089000  0.21657000  1.0
  C  C97  1  0.04118000  0.35911000  0.28342000  1.0
  C  C98  1  0.45881000  0.35911000  0.78343000  1.0
  C  C99  1  0.95882000  0.64090000  0.71657000  1.0
  C  C100  1  0.59071000  0.79914000  0.06996000  1.0
  C  C101  1  0.09073000  0.20086000  0.43003000  1.0
  C  C102  1  0.40926000  0.20085000  0.93004000  1.0
  C  C103  1  0.90929000  0.79914000  0.56996000  1.0
  C  C104  1  0.31331000  0.99655000  0.25618000  1.0
  C  C105  1  0.81333000  0.00346000  0.24383000  1.0
  C  C106  1  0.68667000  0.00344000  0.74383000  1.0
  C  C107  1  0.18668000  0.99654000  0.75618000  1.0
  C  C108  1  0.32111000  0.06240000  0.20240000  1.0
  C  C109  1  0.82112000  0.93759000  0.29761000  1.0
  C  C110  1  0.67888000  0.93757000  0.79760000  1.0
  C  C111  1  0.17887000  0.06240000  0.70240000  1.0
  N  N112  1  0.59564000  0.44664000  0.26902000  1.0
  N  N113  1  0.09565000  0.55335000  0.23098000  1.0
  N  N114  1  0.40436000  0.55334000  0.73098000  1.0
  N  N115  1  0.90437000  0.44666000  0.76902000  1.0
  N  N116  1  0.56814000  0.33264000  0.35763000  1.0
  N  N117  1  0.06816000  0.66736000  0.14237000  1.0
  N  N118  1  0.43187000  0.66736000  0.64237000  1.0
  N  N119  1  0.93187000  0.33265000  0.85763000  1.0
  O  O120  1  0.38057000  0.07823000  0.29872000  1.0
  O  O121  1  0.88059000  0.92178000  0.20128000  1.0
  O  O122  1  0.61940000  0.92178000  0.70128000  1.0
  O  O123  1  0.11942000  0.07823000  0.79872000  1.0
  O  O124  1  0.37867000  0.19665000  0.20960000  1.0
  O  O125  1  0.87868000  0.80333000  0.29040000  1.0
  O  O126  1  0.62132000  0.80331000  0.79039000  1.0
  O  O127  1  0.12130000  0.19665000  0.70960000  1.0
  O  O128  1  0.27563000  0.98966000  0.15789000  1.0
  O  O129  1  0.77564000  0.01033000  0.34212000  1.0
  O  O130  1  0.72434000  0.01031000  0.84212000  1.0
  O  O131  1  0.22434000  0.98966000  0.65789000  1.0
  O  O132  1  0.24726000  0.87338000  0.25708000  1.0
  O  O133  1  0.74729000  0.12663000  0.24293000  1.0
  O  O134  1  0.75272000  0.12661000  0.74293000  1.0
  O  O135  1  0.25272000  0.87337000  0.75707000  1.0
  O  O136  1  0.63010000  0.64805000  0.07136000  1.0
  O  O137  1  0.13012000  0.35195000  0.42864000  1.0
  O  O138  1  0.36989000  0.35195000  0.92864000  1.0
  O  O139  1  0.86990000  0.64805000  0.57136000  1.0
