# generated using pymatgen
data_Ag2H12C13SN3O7
_symmetry_space_group_name_H-M   'P 1'
_cell_length_a   7.58828000
_cell_length_b   10.07390000
_cell_length_c   10.99210000
_cell_angle_alpha   78.29420000
_cell_angle_beta   71.40550000
_cell_angle_gamma   84.61520000
_symmetry_Int_Tables_number   1
_chemical_formula_structural   Ag2H12C13SN3O7
_chemical_formula_sum   'Ag4 H24 C26 S2 N6 O14'
_cell_volume   779.46389025
_cell_formula_units_Z   2
loop_
 _symmetry_equiv_pos_site_id
 _symmetry_equiv_pos_as_xyz
  1  'x, y, z'
loop_
 _atom_site_type_symbol
 _atom_site_label
 _atom_site_symmetry_multiplicity
 _atom_site_fract_x
 _atom_site_fract_y
 _atom_site_fract_z
 _atom_site_occupancy
  Ag  Ag0  1  0.29901000  0.18399000  0.70517000  1.0
  Ag  Ag1  1  0.70098000  0.81601000  0.29484000  1.0
  Ag  Ag2  1  0.31889000  0.44061000  0.25513000  1.0
  Ag  Ag3  1  0.68112000  0.55939000  0.74487000  1.0
  H  H4  1  0.71281000  0.15280000  0.77834000  1.0
  H  H5  1  0.28719000  0.84719000  0.22166000  1.0
  H  H6  1  0.93631000  0.05228000  0.89635000  1.0
  H  H7  1  0.06369000  0.94771000  0.10365000  1.0
  H  H8  1  0.08641000  0.73849000  0.66216000  1.0
  H  H9  1  0.91359000  0.26150000  0.33784000  1.0
  H  H10  1  0.42471000  0.09406000  0.94287000  1.0
  H  H11  1  0.57529000  0.90594000  0.05713000  1.0
  H  H12  1  0.43805000  0.18444000  0.13595000  1.0
  H  H13  1  0.56195000  0.81556000  0.86406000  1.0
  H  H14  1  0.20256000  0.55306000  0.99965000  1.0
  H  H15  1  0.79743000  0.44695000  0.00035000  1.0
  H  H16  1  0.20018000  0.46408000  0.80360000  1.0
  H  H17  1  0.79980000  0.53592000  0.19642000  1.0
  H  H18  1  0.57764000  0.29249000  0.41054000  1.0
  H  H19  1  0.42236000  0.70751000  0.58946000  1.0
  H  H20  1  0.71892000  0.33791000  0.57529000  1.0
  H  H21  1  0.28108000  0.66209000  0.42471000  1.0
  H  H22  1  0.65892000  0.00390000  0.52539000  1.0
  H  H23  1  0.34108000  0.99610000  0.47461000  1.0
  H  H24  1  0.07981000  0.68387000  0.17615000  1.0
  H  H25  1  0.92020000  0.31613000  0.82385000  1.0
  H  H26  1  0.01705000  0.66110000  0.33279000  1.0
  H  H27  1  0.98296000  0.33890000  0.66721000  1.0
  C  C28  1  0.87696000  0.88401000  0.62223000  1.0
  C  C29  1  0.12303000  0.11598000  0.37778000  1.0
  C  C30  1  0.77168000  0.00313000  0.65499000  1.0
  C  C31  1  0.22833000  0.99687000  0.34501000  1.0
  C  C32  1  0.79393000  0.06119000  0.75487000  1.0
  C  C33  1  0.20606000  0.93880000  0.24513000  1.0
  C  C34  1  0.92068000  0.00532000  0.81950000  1.0
  C  C35  1  0.07932000  0.99468000  0.18050000  1.0
  C  C36  1  0.02786000  0.88917000  0.78558000  1.0
  C  C37  1  0.97214000  0.11082000  0.21442000  1.0
  C  C38  1  0.00496000  0.82892000  0.68882000  1.0
  C  C39  1  0.99505000  0.17108000  0.31118000  1.0
  C  C40  1  0.85853000  0.82044000  0.51548000  1.0
  C  C41  1  0.14148000  0.17956000  0.48451000  1.0
  C  C42  1  0.38019000  0.19788000  0.95441000  1.0
  C  C43  1  0.61980000  0.80213000  0.04559000  1.0
  C  C44  1  0.38340000  0.24736000  0.06268000  1.0
  C  C45  1  0.61660000  0.75265000  0.93732000  1.0
  C  C46  1  0.25508000  0.45078000  0.98710000  1.0
  C  C47  1  0.74492000  0.54923000  0.01291000  1.0
  C  C48  1  0.25488000  0.40184000  0.87739000  1.0
  C  C49  1  0.74510000  0.59816000  0.12262000  1.0
  C  C50  1  0.54149000  0.38444000  0.45181000  1.0
  C  C51  1  0.45851000  0.61556000  0.54820000  1.0
  C  C52  1  0.61901000  0.40994000  0.54351000  1.0
  C  C53  1  0.38099000  0.59006000  0.45650000  1.0
  S  S54  1  0.19696000  0.82629000  0.86573000  1.0
  S  S55  1  0.80305000  0.17371000  0.13426000  1.0
  N  N56  1  0.31697000  0.27513000  0.86106000  1.0
  N  N57  1  0.68302000  0.72488000  0.13894000  1.0
  N  N58  1  0.31987000  0.37363000  0.07969000  1.0
  N  N59  1  0.68012000  0.62638000  0.92032000  1.0
  N  N60  1  0.42301000  0.47480000  0.40771000  1.0
  N  N61  1  0.57699000  0.52520000  0.59229000  1.0
  O  O62  1  0.31451000  0.72672000  0.79241000  1.0
  O  O63  1  0.68552000  0.27329000  0.20757000  1.0
  O  O64  1  0.09320000  0.76450000  0.00112000  1.0
  O  O65  1  0.90683000  0.23548000  0.99887000  1.0
  O  O66  1  0.29776000  0.94606000  0.86201000  1.0
  O  O67  1  0.70223000  0.05395000  0.13799000  1.0
  O  O68  1  0.65279000  0.06462000  0.59102000  1.0
  O  O69  1  0.34721000  0.93538000  0.40898000  1.0
  O  O70  1  0.95723000  0.71873000  0.48272000  1.0
  O  O71  1  0.04277000  0.28126000  0.51728000  1.0
  O  O72  1  0.73402000  0.87924000  0.46115000  1.0
  O  O73  1  0.26598000  0.12075000  0.53885000  1.0
  O  O74  1  0.06185000  0.61486000  0.25603000  1.0
  O  O75  1  0.93815000  0.38514000  0.74396000  1.0
