# generated using pymatgen
data_AgH18C13N4O3
_symmetry_space_group_name_H-M   'P 1'
_cell_length_a   6.62385000
_cell_length_b   10.63820000
_cell_length_c   10.73289395
_cell_angle_alpha   92.74465463
_cell_angle_beta   107.88885637
_cell_angle_gamma   90.00490000
_symmetry_Int_Tables_number   1
_chemical_formula_structural   AgH18C13N4O3
_chemical_formula_sum   'Ag2 H36 C26 N8 O6'
_cell_volume   718.82560861
_cell_formula_units_Z   2
loop_
 _symmetry_equiv_pos_site_id
 _symmetry_equiv_pos_as_xyz
  1  'x, y, z'
loop_
 _atom_site_type_symbol
 _atom_site_label
 _atom_site_symmetry_multiplicity
 _atom_site_fract_x
 _atom_site_fract_y
 _atom_site_fract_z
 _atom_site_occupancy
  Ag  Ag0  1  0.19656000  0.86688000  0.39268000  1.0
  Ag  Ag1  1  0.80346000  0.13312000  0.60733000  1.0
  H  H2  1  0.75889000  0.22859000  0.16514000  1.0
  H  H3  1  0.59331000  0.77057000  0.83444000  1.0
  H  H4  1  0.24109000  0.77141000  0.83487000  1.0
  H  H5  1  0.40666000  0.22942000  0.16557000  1.0
  H  H6  1  0.69773000  0.42428000  0.04766000  1.0
  H  H7  1  0.65013000  0.57485000  0.95200000  1.0
  H  H8  1  0.30225000  0.57570000  0.95234000  1.0
  H  H9  1  0.34985000  0.42514000  0.04801000  1.0
  H  H10  1  0.96291000  0.70772000  0.56367000  1.0
  H  H11  1  0.39940000  0.29224000  0.43624000  1.0
  H  H12  1  0.03712000  0.29228000  0.43632000  1.0
  H  H13  1  0.60062000  0.70775000  0.56376000  1.0
  H  H14  1  0.04326000  0.60049000  0.45522000  1.0
  H  H15  1  0.58785000  0.39955000  0.54452000  1.0
  H  H16  1  0.95676000  0.39951000  0.54477000  1.0
  H  H17  1  0.41217000  0.60045000  0.45547000  1.0
  H  H18  1  0.65174000  0.90230000  0.30303000  1.0
  H  H19  1  0.34829000  0.09771000  0.69698000  1.0
  H  H20  1  0.73792000  0.88382000  0.47600000  1.0
  H  H21  1  0.26211000  0.11618000  0.52401000  1.0
  H  H22  1  0.92725000  0.62919000  0.22384000  1.0
  H  H23  1  0.70276000  0.37081000  0.77598000  1.0
  H  H24  1  0.07277000  0.37082000  0.77615000  1.0
  H  H25  1  0.29725000  0.62920000  0.22401000  1.0
  H  H26  1  0.76277000  0.75910000  0.15950000  1.0
  H  H27  1  0.60240000  0.24097000  0.84044000  1.0
  H  H28  1  0.23724000  0.24092000  0.84049000  1.0
  H  H29  1  0.39762000  0.75904000  0.15956000  1.0
  H  H30  1  0.52029000  0.45743000  0.30936000  1.0
  H  H31  1  0.21061000  0.54258000  0.69077000  1.0
  H  H32  1  0.47973000  0.54258000  0.69063000  1.0
  H  H33  1  0.78941000  0.45742000  0.30922000  1.0
  H  H34  1  0.21286000  0.88168000  0.66678000  1.0
  H  H35  1  0.54649333  0.11849000  0.33333333  1.0
  H  H36  1  0.78713000  0.11832000  0.33323000  1.0
  H  H37  1  0.45348667  0.88151000  0.66666667  1.0
  C  C38  1  0.12341000  0.09535000  0.24627000  1.0
  C  C39  1  0.87657000  0.90465000  0.75374000  1.0
  C  C40  1  0.08646000  0.21428000  0.17274000  1.0
  C  C41  1  0.91353000  0.78572000  0.82727000  1.0
  C  C42  1  0.88768000  0.27168000  0.13826000  1.0
  C  C43  1  0.74918000  0.72783000  0.86144000  1.0
  C  C44  1  0.11229000  0.72831000  0.86174000  1.0
  C  C45  1  0.25079000  0.27217000  0.13857000  1.0
  C  C46  1  0.85435000  0.38269000  0.07188000  1.0
  C  C47  1  0.78243000  0.61682000  0.92780000  1.0
  C  C48  1  0.14561000  0.61730000  0.92811000  1.0
  C  C49  1  0.21754000  0.38317000  0.07220000  1.0
  C  C50  1  0.01806000  0.44135000  0.03624000  1.0
  C  C51  1  0.98191000  0.55863000  0.96377000  1.0
  C  C52  1  0.91291000  0.65936000  0.46626000  1.0
  C  C53  1  0.44659000  0.34064000  0.53363000  1.0
  C  C54  1  0.08710000  0.34064000  0.53373000  1.0
  C  C55  1  0.55343000  0.65937000  0.46636000  1.0
  C  C56  1  0.68982000  0.83353000  0.37940000  1.0
  C  C57  1  0.31021000  0.16648000  0.62061000  1.0
  C  C58  1  0.79752000  0.68879000  0.23460000  1.0
  C  C59  1  0.56231000  0.31126000  0.76532000  1.0
  C  C60  1  0.20249000  0.31123000  0.76539000  1.0
  C  C61  1  0.43771000  0.68875000  0.23468000  1.0
  C  C62  1  0.66060000  0.51723000  0.32083000  1.0
  C  C63  1  0.33941000  0.48277000  0.67916000  1.0
  N  N64  1  0.86819000  0.75554000  0.36575000  1.0
  N  N65  1  0.50219000  0.24448000  0.63416000  1.0
  N  N66  1  0.13184000  0.24446000  0.63425000  1.0
  N  N67  1  0.49783000  0.75552000  0.36584000  1.0
  N  N68  1  0.72660000  0.57926000  0.45311000  1.0
  N  N69  1  0.27341000  0.42074000  0.54688000  1.0
  N  N70  1  0.60888000  0.60910000  0.21712000  1.0
  N  N71  1  0.39113000  0.39091000  0.78287000  1.0
  O  O72  1  0.97009000  0.04692000  0.27692000  1.0
  O  O73  1  0.69249000  0.95273000  0.72320000  1.0
  O  O74  1  0.02989000  0.95307000  0.72309000  1.0
  O  O75  1  0.30747000  0.04726000  0.27680000  1.0
  O  O76  1  0.31356000  0.83776000  0.62753000  1.0
  O  O77  1  0.68643000  0.16224000  0.37248000  1.0
