# generated using pymatgen
data_CdH6C10(Br3N)2
_symmetry_space_group_name_H-M   'P 1'
_cell_length_a   3.95837000
_cell_length_b   14.29130000
_cell_length_c   14.29150000
_cell_angle_alpha   89.99900000
_cell_angle_beta   90.00150000
_cell_angle_gamma   89.99990000
_symmetry_Int_Tables_number   1
_chemical_formula_structural   CdH6C10(Br3N)2
_chemical_formula_sum   'Cd2 H12 C20 Br12 N4'
_cell_volume   808.47377293
_cell_formula_units_Z   2
loop_
 _symmetry_equiv_pos_site_id
 _symmetry_equiv_pos_as_xyz
  1  'x, y, z'
loop_
 _atom_site_type_symbol
 _atom_site_label
 _atom_site_symmetry_multiplicity
 _atom_site_fract_x
 _atom_site_fract_y
 _atom_site_fract_z
 _atom_site_occupancy
  Cd  Cd0  1  0.50000000  0.50000000  0.00000000  1.0
  Cd  Cd1  1  0.50000000  0.00000000  0.50000000  1.0
  H  H2  1  0.70970000  0.52942000  0.21797000  1.0
  H  H3  1  0.70967000  0.47058000  0.78202000  1.0
  H  H4  1  0.29031000  0.21797000  0.47058000  1.0
  H  H5  1  0.29033000  0.78203000  0.52943000  1.0
  H  H6  1  0.70968000  0.02943000  0.28203000  1.0
  H  H7  1  0.70969000  0.97057000  0.71798000  1.0
  H  H8  1  0.29030000  0.71797000  0.02942000  1.0
  H  H9  1  0.29029000  0.28203000  0.97057000  1.0
  H  H10  1  0.49999000  0.81191000  0.31192000  1.0
  H  H11  1  0.50004000  0.18808000  0.68808000  1.0
  H  H12  1  0.50000000  0.31193000  0.18808000  1.0
  H  H13  1  0.50000000  0.68807000  0.81193000  1.0
  C  C14  1  0.61568000  0.60017000  0.20611000  1.0
  C  C15  1  0.61567000  0.39983000  0.79387000  1.0
  C  C16  1  0.38433000  0.20611000  0.39983000  1.0
  C  C17  1  0.38434000  0.79389000  0.60018000  1.0
  C  C18  1  0.61568000  0.10018000  0.29389000  1.0
  C  C19  1  0.61568000  0.89982000  0.70612000  1.0
  C  C20  1  0.38433000  0.70610000  0.10017000  1.0
  C  C21  1  0.38433000  0.29391000  0.89983000  1.0
  C  C22  1  0.61820000  0.66794000  0.27635000  1.0
  C  C23  1  0.61821000  0.33206000  0.72365000  1.0
  C  C24  1  0.38182000  0.27636000  0.33205000  1.0
  C  C25  1  0.38182000  0.72364000  0.66795000  1.0
  C  C26  1  0.61820000  0.16796000  0.22365000  1.0
  C  C27  1  0.61818000  0.83204000  0.77636000  1.0
  C  C28  1  0.38180000  0.77635000  0.16795000  1.0
  C  C29  1  0.38183000  0.22365000  0.83203000  1.0
  C  C30  1  0.49999000  0.75809000  0.25808000  1.0
  C  C31  1  0.50000000  0.24190000  0.74192000  1.0
  C  C32  1  0.50001000  0.25810000  0.24192000  1.0
  C  C33  1  0.50000000  0.74191000  0.75809000  1.0
  Br  Br34  1  0.00000000  0.40433000  0.09566000  1.0
  Br  Br35  1  0.00000000  0.59567000  0.90433000  1.0
  Br  Br36  1  0.00001000  0.09567000  0.59567000  1.0
  Br  Br37  1  0.00000000  0.90433000  0.40434000  1.0
  Br  Br38  1  0.78299000  0.63596000  0.39709000  1.0
  Br  Br39  1  0.78294000  0.36404000  0.60289000  1.0
  Br  Br40  1  0.21704000  0.39711000  0.36403000  1.0
  Br  Br41  1  0.21704000  0.60289000  0.63597000  1.0
  Br  Br42  1  0.78296000  0.13598000  0.10291000  1.0
  Br  Br43  1  0.78291000  0.86403000  0.89711000  1.0
  Br  Br44  1  0.21699000  0.89709000  0.13596000  1.0
  Br  Br45  1  0.21704000  0.10290000  0.86403000  1.0
  N  N46  1  0.50000000  0.62010000  0.12010000  1.0
  N  N47  1  0.49996000  0.37989000  0.87990000  1.0
  N  N48  1  0.49999000  0.12011000  0.37990000  1.0
  N  N49  1  0.50002000  0.87989000  0.62011000  1.0
