# generated using pymatgen
data_MnH10C15SN3O4
_symmetry_space_group_name_H-M   'P 1'
_cell_length_a   8.42170000
_cell_length_b   9.40828000
_cell_length_c   10.29750000
_cell_angle_alpha   62.89030000
_cell_angle_beta   72.58610000
_cell_angle_gamma   67.86370000
_symmetry_Int_Tables_number   1
_chemical_formula_structural   MnH10C15SN3O4
_chemical_formula_sum   'Mn2 H20 C30 S2 N6 O8'
_cell_volume   664.63687840
_cell_formula_units_Z   2
loop_
 _symmetry_equiv_pos_site_id
 _symmetry_equiv_pos_as_xyz
  1  'x, y, z'
loop_
 _atom_site_type_symbol
 _atom_site_label
 _atom_site_symmetry_multiplicity
 _atom_site_fract_x
 _atom_site_fract_y
 _atom_site_fract_z
 _atom_site_occupancy
  Mn  Mn0  1  0.40370000  0.64240000  0.13377000  1.0
  Mn  Mn1  1  0.59630000  0.35760000  0.86623000  1.0
  H  H2  1  0.18196000  0.59136000  0.96958000  1.0
  H  H3  1  0.81804000  0.40864000  0.03042000  1.0
  H  H4  1  0.87911000  0.71888000  0.90057000  1.0
  H  H5  1  0.12089000  0.28112000  0.09943000  1.0
  H  H6  1  0.66407000  0.91779000  0.01143000  1.0
  H  H7  1  0.33593000  0.08221000  0.98857000  1.0
  H  H8  1  0.74956000  0.98008000  0.18716000  1.0
  H  H9  1  0.25044000  0.01992000  0.81284000  1.0
  H  H10  1  0.83586000  0.98137000  0.35953000  1.0
  H  H11  1  0.16413000  0.01862000  0.64047000  1.0
  H  H12  1  0.30069000  0.90037000  0.51474000  1.0
  H  H13  1  0.69931000  0.09963000  0.48526000  1.0
  H  H14  1  0.56136000  0.77972000  0.51160000  1.0
  H  H15  1  0.43864000  0.22028000  0.48840000  1.0
  H  H16  1  0.85776000  0.58982000  0.52511000  1.0
  H  H17  1  0.14224000  0.41018000  0.47489000  1.0
  H  H18  1  0.97531000  0.40861000  0.37286000  1.0
  H  H19  1  0.02469000  0.59139000  0.62714000  1.0
  H  H20  1  0.77752000  0.42578000  0.22626000  1.0
  H  H21  1  0.22248000  0.57422000  0.77374000  1.0
  C  C22  1  0.08161000  0.67924000  0.01334000  1.0
  C  C23  1  0.91839000  0.32076000  0.98666000  1.0
  C  C24  1  0.91520000  0.74926000  0.97627000  1.0
  C  C25  1  0.08481000  0.25073000  0.02373000  1.0
  C  C26  1  0.79509000  0.86027000  0.03853000  1.0
  C  C27  1  0.20491000  0.13973000  0.96147000  1.0
  C  C28  1  0.84341000  0.89576000  0.13607000  1.0
  C  C29  1  0.15659000  0.10424000  0.86394000  1.0
  C  C30  1  0.01316000  0.82028000  0.16748000  1.0
  C  C31  1  0.98684000  0.17972000  0.83252000  1.0
  C  C32  1  0.07910000  0.84895000  0.26886000  1.0
  C  C33  1  0.92090000  0.15104000  0.73114000  1.0
  C  C34  1  0.97528000  0.93361000  0.36019000  1.0
  C  C35  1  0.02472000  0.06639000  0.63981000  1.0
  C  C36  1  0.05272000  0.95569000  0.45071000  1.0
  C  C37  1  0.94727000  0.04431000  0.54928000  1.0
  C  C38  1  0.23304000  0.88827000  0.44699000  1.0
  C  C39  1  0.76696000  0.11173000  0.55301000  1.0
  C  C40  1  0.32731000  0.79851000  0.35819000  1.0
  C  C41  1  0.67269000  0.20149000  0.64181000  1.0
  C  C42  1  0.51173000  0.70216000  0.36241000  1.0
  C  C43  1  0.48827000  0.29784000  0.63759000  1.0
  C  C44  1  0.61243000  0.69980000  0.44961000  1.0
  C  C45  1  0.38757000  0.30020000  0.55039000  1.0
  C  C46  1  0.78043000  0.59302000  0.45560000  1.0
  C  C47  1  0.21957000  0.40698000  0.54440000  1.0
  C  C48  1  0.84446000  0.49312000  0.37406000  1.0
  C  C49  1  0.15554000  0.50688000  0.62594000  1.0
  C  C50  1  0.73594000  0.50371000  0.28931000  1.0
  C  C51  1  0.26406000  0.49629000  0.71069000  1.0
  S  S52  1  0.44403000  0.25141000  0.20623000  1.0
  S  S53  1  0.55597000  0.74859000  0.79378000  1.0
  N  N54  1  0.13071000  0.71467000  0.10518000  1.0
  N  N55  1  0.86929000  0.28533000  0.89482000  1.0
  N  N56  1  0.25131000  0.78277000  0.26947000  1.0
  N  N57  1  0.74869000  0.21723000  0.73053000  1.0
  N  N58  1  0.57409000  0.60557000  0.28278000  1.0
  N  N59  1  0.42591000  0.39443000  0.71722000  1.0
  O  O60  1  0.25684000  0.28988000  0.25947000  1.0
  O  O61  1  0.74316000  0.71012000  0.74053000  1.0
  O  O62  1  0.50960000  0.39909000  0.16447000  1.0
  O  O63  1  0.49040000  0.60091000  0.83552000  1.0
  O  O64  1  0.54658000  0.10471000  0.31399000  1.0
  O  O65  1  0.45342000  0.89529000  0.68601000  1.0
  O  O66  1  0.51987000  0.77669000  0.93631000  1.0
  O  O67  1  0.48013000  0.22331000  0.06369000  1.0
