# generated using pymatgen
data_ZnH13C13NO5
_symmetry_space_group_name_H-M   'P 1'
_cell_length_a   9.69494000
_cell_length_b   11.05450000
_cell_length_c   11.27090000
_cell_angle_alpha   89.65630000
_cell_angle_beta   79.97200000
_cell_angle_gamma   66.28700000
_symmetry_Int_Tables_number   1
_chemical_formula_structural   ZnH13C13NO5
_chemical_formula_sum   'Zn2 H26 C26 N2 O10'
_cell_volume   1086.30319206
_cell_formula_units_Z   2
loop_
 _symmetry_equiv_pos_site_id
 _symmetry_equiv_pos_as_xyz
  1  'x, y, z'
loop_
 _atom_site_type_symbol
 _atom_site_label
 _atom_site_symmetry_multiplicity
 _atom_site_fract_x
 _atom_site_fract_y
 _atom_site_fract_z
 _atom_site_occupancy
  Zn  Zn0  1  0.35087000  0.54999000  0.49585000  1.0
  Zn  Zn1  1  0.66945000  0.43238000  0.48658000  1.0
  H  H2  1  0.65981000  0.81877000  0.33593000  1.0
  H  H3  1  0.70179000  0.40586000  0.07909000  1.0
  H  H4  1  0.16295000  0.39392000  0.53386000  1.0
  H  H5  1  0.85110000  0.59248000  0.46132000  1.0
  H  H6  1  0.05179000  0.66496000  0.45794000  1.0
  H  H7  1  0.96903000  0.31705000  0.52504000  1.0
  H  H8  1  0.30822000  0.84760000  0.70475000  1.0
  H  H9  1  0.17091000  0.01715000  0.87494000  1.0
  H  H10  1  0.19230000  0.23512000  0.86970000  1.0
  H  H11  1  0.35223000  0.28183000  0.69622000  1.0
  H  H12  1  0.64525000  0.47565000  0.88299000  1.0
  H  H13  1  0.29483000  0.59678000  0.89796000  1.0
  H  H14  1  0.71082000  0.16966000  0.18777000  1.0
  H  H15  1  0.52358000  0.20703000  0.27099000  1.0
  H  H16  1  0.70376000  0.97622000  0.07843000  1.0
  H  H17  1  0.51997000  0.00881000  0.16430000  1.0
  H  H18  1  0.41014000  0.22981000  0.07483000  1.0
  H  H19  1  0.50028000  0.09998000  0.95864000  1.0
  H  H20  1  0.59390000  0.20131000  0.99047000  1.0
  H  H21  1  0.18789000  0.79435000  0.03581000  1.0
  H  H22  1  0.38006000  0.78141000  0.00573000  1.0
  H  H23  1  0.17387000  0.84096000  0.25688000  1.0
  H  H24  1  0.36093000  0.83514000  0.22543000  1.0
  H  H25  1  0.27174000  0.02916000  0.09300000  1.0
  H  H26  1  0.16344000  0.07118000  0.24238000  1.0
  H  H27  1  0.08351000  0.03345000  0.12539000  1.0
  C  C28  1  0.56372000  0.47924000  0.25875000  1.0
  C  C29  1  0.41133000  0.96558000  0.60104000  1.0
  C  C30  1  0.49783000  0.86801000  0.50334000  1.0
  C  C31  1  0.59329000  0.89360000  0.40999000  1.0
  C  C32  1  0.60414000  0.01705000  0.40586000  1.0
  C  C33  1  0.52170000  0.11455000  0.49888000  1.0
  C  C34  1  0.58957000  0.47569000  0.12588000  1.0
  C  C35  1  0.48689000  0.54834000  0.05688000  1.0
  C  C36  1  0.41629000  0.55285000  0.85708000  1.0
  C  C37  1  0.52450000  0.52481000  0.92575000  1.0
  C  C38  1  0.93311000  0.49830000  0.48676000  1.0
  C  C39  1  0.49050000  0.73538000  0.49711000  1.0
  C  C40  1  0.08338000  0.48729000  0.50538000  1.0
  C  C41  1  0.45194000  0.52127000  0.72508000  1.0
  C  C42  1  0.53081000  0.24702000  0.49469000  1.0
  C  C43  1  0.31824000  0.94221000  0.70289000  1.0
  C  C44  1  0.24110000  0.03734000  0.79734000  1.0
  C  C45  1  0.25301000  0.16069000  0.79425000  1.0
  C  C46  1  0.34259000  0.18682000  0.69708000  1.0
  C  C47  1  0.42462000  0.09062000  0.59824000  1.0
  C  C48  1  0.62941000  0.12626000  0.22359000  1.0
  C  C49  1  0.59571000  0.05626000  0.12355000  1.0
  C  C50  1  0.52097000  0.15184000  0.03191000  1.0
  C  C51  1  0.29149000  0.77044000  0.07515000  1.0
  C  C52  1  0.25601000  0.86073000  0.18781000  1.0
  C  C53  1  0.19039000  0.00653000  0.16044000  1.0
  N  N54  1  0.89011000  0.40269000  0.49943000  1.0
  N  N55  1  0.12925000  0.58067000  0.48668000  1.0
  O  O56  1  0.42882000  0.54520000  0.31812000  1.0
  O  O57  1  0.68192000  0.41302000  0.30496000  1.0
  O  O58  1  0.35955000  0.73073000  0.52236000  1.0
  O  O59  1  0.61806000  0.63621000  0.46466000  1.0
  O  O60  1  0.33786000  0.53101000  0.67691000  1.0
  O  O61  1  0.58924000  0.48845000  0.66915000  1.0
  O  O62  1  0.41116000  0.34299000  0.47466000  1.0
  O  O63  1  0.65355000  0.25401000  0.51141000  1.0
  O  O64  1  0.70161000  0.03444000  0.30949000  1.0
  O  O65  1  0.34177000  0.63392000  0.10732000  1.0
