# generated using pymatgen
data_ZnH10C17NO4
_symmetry_space_group_name_H-M   'P 1'
_cell_length_a   10.33000000
_cell_length_b   11.38620000
_cell_length_c   13.78460000
_cell_angle_alpha   102.74100000
_cell_angle_beta   97.82760000
_cell_angle_gamma   111.62500000
_symmetry_Int_Tables_number   1
_chemical_formula_structural   ZnH10C17NO4
_chemical_formula_sum   'Zn4 H40 C68 N4 O16'
_cell_volume   1427.19889178
_cell_formula_units_Z   4
loop_
 _symmetry_equiv_pos_site_id
 _symmetry_equiv_pos_as_xyz
  1  'x, y, z'
loop_
 _atom_site_type_symbol
 _atom_site_label
 _atom_site_symmetry_multiplicity
 _atom_site_fract_x
 _atom_site_fract_y
 _atom_site_fract_z
 _atom_site_occupancy
  Zn  Zn0  1  0.79868000  0.47290000  0.78919000  1.0
  Zn  Zn1  1  0.20134000  0.52715000  0.21082000  1.0
  Zn  Zn2  1  0.68239000  0.26315000  0.52394000  1.0
  Zn  Zn3  1  0.31763000  0.73682000  0.47604000  1.0
  H  H4  1  0.85128000  0.90944000  0.54517000  1.0
  H  H5  1  0.14870000  0.09055000  0.45482000  1.0
  H  H6  1  0.87767000  0.75256000  0.63964000  1.0
  H  H7  1  0.12231000  0.24742000  0.36036000  1.0
  H  H8  1  0.73776000  0.87222000  0.94945000  1.0
  H  H9  1  0.26223000  0.12777000  0.05058000  1.0
  H  H10  1  0.62534000  0.02131000  0.01629000  1.0
  H  H11  1  0.37463000  0.97867000  0.98372000  1.0
  H  H12  1  0.54991000  0.14245000  0.90528000  1.0
  H  H13  1  0.45009000  0.85752000  0.09471000  1.0
  H  H14  1  0.60902000  0.13096000  0.73648000  1.0
  H  H15  1  0.39101000  0.86904000  0.26354000  1.0
  H  H16  1  0.11794000  0.44224000  0.52861000  1.0
  H  H17  1  0.88206000  0.55773000  0.47137000  1.0
  H  H18  1  0.35126000  0.42907000  0.51696000  1.0
  H  H19  1  0.64874000  0.57090000  0.48304000  1.0
  H  H20  1  0.44097000  0.22056000  0.77030000  1.0
  H  H21  1  0.55904000  0.77945000  0.22970000  1.0
  H  H22  1  0.30728000  0.12319000  0.88796000  1.0
  H  H23  1  0.69269000  0.87678000  0.11204000  1.0
  H  H24  1  0.06846000  0.12887000  0.89513000  1.0
  H  H25  1  0.93151000  0.87111000  0.10485000  1.0
  H  H26  1  0.96962000  0.23434000  0.78611000  1.0
  H  H27  1  0.03036000  0.76565000  0.21389000  1.0
  H  H28  1  0.86473000  0.22696000  0.38840000  1.0
  H  H29  1  0.13527000  0.77303000  0.61158000  1.0
  H  H30  1  0.91241000  0.28315000  0.22881000  1.0
  H  H31  1  0.08757000  0.71683000  0.77117000  1.0
  H  H32  1  0.51247000  0.33408000  0.19085000  1.0
  H  H33  1  0.48751000  0.66591000  0.80913000  1.0
  H  H34  1  0.49306000  0.28923000  0.35674000  1.0
  H  H35  1  0.50692000  0.71076000  0.64325000  1.0
  H  H36  1  0.90261000  0.28036000  0.07615000  1.0
  H  H37  1  0.09735000  0.71963000  0.92383000  1.0
  H  H38  1  0.93316000  0.35033000  0.91963000  1.0
  H  H39  1  0.06684000  0.64968000  0.08036000  1.0
  H  H40  1  0.64209000  0.51896000  0.94506000  1.0
  H  H41  1  0.35794000  0.48109000  0.05494000  1.0
  H  H42  1  0.59547000  0.45444000  0.10290000  1.0
  H  H43  1  0.40452000  0.54557000  0.89708000  1.0
  C  C44  1  0.74867000  0.98959000  0.64838000  1.0
  C  C45  1  0.25136000  0.01042000  0.35165000  1.0
  C  C46  1  0.81606000  0.90814000  0.61604000  1.0
  C  C47  1  0.18397000  0.09185000  0.38396000  1.0
  C  C48  1  0.83458000  0.82287000  0.67069000  1.0
  C  C49  1  0.16543000  0.17713000  0.32932000  1.0
  C  C50  1  0.79301000  0.82201000  0.76214000  1.0
  C  C51  1  0.20702000  0.17800000  0.23787000  1.0
  C  C52  1  0.71008000  0.92968000  0.90357000  1.0
  C  C53  1  0.28993000  0.07031000  0.09645000  1.0
  C  C54  1  0.64521000  0.01088000  0.93976000  1.0
  C  C55  1  0.35477000  0.98910000  0.06024000  1.0
  C  C56  1  0.60416000  0.08041000  0.87755000  1.0
  C  C57  1  0.39584000  0.91957000  0.12246000  1.0
  C  C58  1  0.63651000  0.07450000  0.78336000  1.0
  C  C59  1  0.36350000  0.92550000  0.21665000  1.0
  C  C60  1  0.70694000  0.99457000  0.74413000  1.0
  C  C61  1  0.29310000  0.00543000  0.25589000  1.0
  C  C62  1  0.73776000  0.91503000  0.80439000  1.0
  C  C63  1  0.26227000  0.08498000  0.19564000  1.0
  C  C64  1  0.78742000  0.70998000  0.80440000  1.0
  C  C65  1  0.21261000  0.29004000  0.19561000  1.0
  C  C66  1  0.73323000  0.07381000  0.58085000  1.0
  C  C67  1  0.26680000  0.92619000  0.41918000  1.0
  C  C68  1  0.09411000  0.35703000  0.65228000  1.0
  C  C69  1  0.90589000  0.64297000  0.34773000  1.0
  C  C70  1  0.16373000  0.39852000  0.57892000  1.0
  C  C71  1  0.83627000  0.60147000  0.42108000  1.0
  C  C72  1  0.29545000  0.39151000  0.57261000  1.0
  C  C73  1  0.70455000  0.60848000  0.42739000  1.0
  C  C74  1  0.35950000  0.34329000  0.63980000  1.0
  C  C75  1  0.64049000  0.65669000  0.36019000  1.0
  C  C76  1  0.33958000  0.22674000  0.77523000  1.0
  C  C77  1  0.66043000  0.77328000  0.22478000  1.0
  C  C78  1  0.26420000  0.17196000  0.84089000  1.0
  C  C79  1  0.73580000  0.82803000  0.15911000  1.0
  C  C80  1  0.13018000  0.17569000  0.84541000  1.0
  C  C81  1  0.86980000  0.82429000  0.15458000  1.0
  C  C82  1  0.07478000  0.23549000  0.78475000  1.0
  C  C83  1  0.92522000  0.76451000  0.21526000  1.0
  C  C84  1  0.15029000  0.29587000  0.71756000  1.0
  C  C85  1  0.84971000  0.70413000  0.28245000  1.0
  C  C86  1  0.28629000  0.29012000  0.71191000  1.0
  C  C87  1  0.71372000  0.70988000  0.28810000  1.0
  C  C88  1  0.96508000  0.38464000  0.66293000  1.0
  C  C89  1  0.03492000  0.61536000  0.33707000  1.0
  C  C90  1  0.50751000  0.35342000  0.63665000  1.0
  C  C91  1  0.49248000  0.64656000  0.36334000  1.0
  C  C92  1  0.79194000  0.25317000  0.34164000  1.0
  C  C93  1  0.20807000  0.74683000  0.65833000  1.0
  C  C94  1  0.81494000  0.28220000  0.25128000  1.0
  C  C95  1  0.18504000  0.71780000  0.74870000  1.0
  C  C96  1  0.71779000  0.31725000  0.19551000  1.0
  C  C97  1  0.28219000  0.68275000  0.80448000  1.0
  C  C98  1  0.59660000  0.31446000  0.23175000  1.0
  C  C99  1  0.40337000  0.68554000  0.76824000  1.0
  C  C100  1  0.58226000  0.28665000  0.32368000  1.0
  C  C101  1  0.41774000  0.71336000  0.67631000  1.0
  C  C102  1  0.74318000  0.35866000  0.10306000  1.0
  C  C103  1  0.25680000  0.64134000  0.89693000  1.0
  C  C104  1  0.84161000  0.33273000  0.05071000  1.0
  C  C105  1  0.15837000  0.66728000  0.94928000  1.0
  C  C106  1  0.85973000  0.37140000  0.96309000  1.0
  C  C107  1  0.14027000  0.62862000  0.03690000  1.0
  C  C108  1  0.69439000  0.46371000  0.97678000  1.0
  C  C109  1  0.30562000  0.53632000  0.02321000  1.0
  C  C110  1  0.66986000  0.42711000  0.06433000  1.0
  C  C111  1  0.33014000  0.57291000  0.93566000  1.0
  N  N112  1  0.67926000  0.25878000  0.37860000  1.0
  N  N113  1  0.32074000  0.74122000  0.62138000  1.0
  N  N114  1  0.78717000  0.43544000  0.92613000  1.0
  N  N115  1  0.21283000  0.56460000  0.07387000  1.0
  O  O116  1  0.86924000  0.65166000  0.77489000  1.0
  O  O117  1  0.13076000  0.34834000  0.22510000  1.0
  O  O118  1  0.70144000  0.66958000  0.85783000  1.0
  O  O119  1  0.29859000  0.33046000  0.14218000  1.0
  O  O120  1  0.80776000  0.09107000  0.51682000  1.0
  O  O121  1  0.19227000  0.90894000  0.48320000  1.0
  O  O122  1  0.64400000  0.12933000  0.59492000  1.0
  O  O123  1  0.35604000  0.87068000  0.40511000  1.0
  O  O124  1  0.89090000  0.39429000  0.58571000  1.0
  O  O125  1  0.10910000  0.60572000  0.41429000  1.0
  O  O126  1  0.93853000  0.40184000  0.75199000  1.0
  O  O127  1  0.06146000  0.59816000  0.24802000  1.0
  O  O128  1  0.54052000  0.34163000  0.55002000  1.0
  O  O129  1  0.45949000  0.65834000  0.44997000  1.0
  O  O130  1  0.59217000  0.37548000  0.72138000  1.0
  O  O131  1  0.40783000  0.62456000  0.27862000  1.0
