# generated using pymatgen
data_Zr3H14C36(Br3O8)2
_symmetry_space_group_name_H-M   'P 1'
_cell_length_a   17.01960000
_cell_length_b   17.01957427
_cell_length_c   17.01957427
_cell_angle_alpha   60.00010000
_cell_angle_beta   60.00005000
_cell_angle_gamma   60.00005000
_symmetry_Int_Tables_number   1
_chemical_formula_structural   Zr3H14C36(Br3O8)2
_chemical_formula_sum   'Zr6 H28 C72 Br12 O32'
_cell_volume   3486.04021283
_cell_formula_units_Z   2
loop_
 _symmetry_equiv_pos_site_id
 _symmetry_equiv_pos_as_xyz
  1  'x, y, z'
loop_
 _atom_site_type_symbol
 _atom_site_label
 _atom_site_symmetry_multiplicity
 _atom_site_fract_x
 _atom_site_fract_y
 _atom_site_fract_z
 _atom_site_occupancy
  Zr  Zr0  1  0.89622000  0.39622000  0.10378000  1.0
  Zr  Zr1  1  0.10379000  0.60377000  0.89622000  1.0
  Zr  Zr2  1  0.10378000  0.39622000  0.89622000  1.0
  Zr  Zr3  1  0.89622000  0.60378000  0.10378000  1.0
  Zr  Zr4  1  0.10377000  0.39622000  0.10378000  1.0
  Zr  Zr5  1  0.89622000  0.60378000  0.89622000  1.0
  H  H6  1  0.08187000  0.25438000  0.08188000  1.0
  H  H7  1  0.08186000  0.58187000  0.08188000  1.0
  H  H8  1  0.08187000  0.58187000  0.75439000  1.0
  H  H9  1  0.75439000  0.58187000  0.08187000  1.0
  H  H10  1  0.89197000  0.12640000  0.37622000  1.0
  H  H11  1  0.14205000  0.15768000  0.34578000  1.0
  H  H12  1  0.10541000  0.87621000  0.62640000  1.0
  H  H13  1  0.85448000  0.84578000  0.65768000  1.0
  H  H14  1  0.62639000  0.39198000  0.10542000  1.0
  H  H15  1  0.65768000  0.64205000  0.85449000  1.0
  H  H16  1  0.37621000  0.60541000  0.89198000  1.0
  H  H17  1  0.34578000  0.35448000  0.14206000  1.0
  H  H18  1  0.10541000  0.39198000  0.37621000  1.0
  H  H19  1  0.85449000  0.64205000  0.34578000  1.0
  H  H20  1  0.89198000  0.60541000  0.62640000  1.0
  H  H21  1  0.14205000  0.35449000  0.65768000  1.0
  H  H22  1  0.62640000  0.87621000  0.89198000  1.0
  H  H23  1  0.65767000  0.84578000  0.14206000  1.0
  H  H24  1  0.37621000  0.12640000  0.10541000  1.0
  H  H25  1  0.34578000  0.15768000  0.85449000  1.0
  H  H26  1  0.10541000  0.12640000  0.89198000  1.0
  H  H27  1  0.85448000  0.15768000  0.14206000  1.0
  H  H28  1  0.89198000  0.87621000  0.10541000  1.0
  H  H29  1  0.14205000  0.84578000  0.85449000  1.0
  H  H30  1  0.62640000  0.60541000  0.37621000  1.0
  H  H31  1  0.65767000  0.35449000  0.34578000  1.0
  H  H32  1  0.37622000  0.39197000  0.62640000  1.0
  H  H33  1  0.34578000  0.64205000  0.65768000  1.0
  C  C34  1  0.00516000  0.23777000  0.26716000  1.0
  C  C35  1  0.26716000  0.48991000  0.00516000  1.0
  C  C36  1  0.98990000  0.76716000  0.73778000  1.0
  C  C37  1  0.73777000  0.50516000  0.98991000  1.0
  C  C38  1  0.98991000  0.23777000  0.00516000  1.0
  C  C39  1  0.73777000  0.48991000  0.26716000  1.0
  C  C40  1  0.00516000  0.76716000  0.98991000  1.0
  C  C41  1  0.26716000  0.50516000  0.73777000  1.0
  C  C42  1  0.26716000  0.23777000  0.98991000  1.0
  C  C43  1  0.00516000  0.48991000  0.73777000  1.0
  C  C44  1  0.73777000  0.76716000  0.00516000  1.0
  C  C45  1  0.98991000  0.50516000  0.26716000  1.0
  C  C46  1  0.95046000  0.10073000  0.40199000  1.0
  C  C47  1  0.09222000  0.11775000  0.38538000  1.0
  C  C48  1  0.10321000  0.03692000  0.46461000  1.0
  C  C49  1  0.03806000  0.98401000  0.51788000  1.0
  C  C50  1  0.04682000  0.90199000  0.60074000  1.0
  C  C51  1  0.90465000  0.88537000  0.61775000  1.0
  C  C52  1  0.89526000  0.96461000  0.53692000  1.0
  C  C53  1  0.96005000  0.01787000  0.48401000  1.0
  C  C54  1  0.01475000  0.15005000  0.35400000  1.0
  C  C55  1  0.98120000  0.85399000  0.65005000  1.0
  C  C56  1  0.60073000  0.45045000  0.04683000  1.0
  C  C57  1  0.61774000  0.59223000  0.90465000  1.0
  C  C58  1  0.53691000  0.60321000  0.89527000  1.0
  C  C59  1  0.48400000  0.53807000  0.96005000  1.0
  C  C60  1  0.40199000  0.54682000  0.95045000  1.0
  C  C61  1  0.38538000  0.40464000  0.09223000  1.0
  C  C62  1  0.46461000  0.39526000  0.10321000  1.0
  C  C63  1  0.51786000  0.46005000  0.03808000  1.0
  C  C64  1  0.65005000  0.51476000  0.98120000  1.0
  C  C65  1  0.35399000  0.48120000  0.01476000  1.0
  C  C66  1  0.04682000  0.45045000  0.40199000  1.0
  C  C67  1  0.90464000  0.59223000  0.38538000  1.0
  C  C68  1  0.89526000  0.60321000  0.46461000  1.0
  C  C69  1  0.96004000  0.53807000  0.51788000  1.0
  C  C70  1  0.95045000  0.54682000  0.60074000  1.0
  C  C71  1  0.09222000  0.40465000  0.61775000  1.0
  C  C72  1  0.10321000  0.39526000  0.53692000  1.0
  C  C73  1  0.03806000  0.46005000  0.48401000  1.0
  C  C74  1  0.98119000  0.51476000  0.35400000  1.0
  C  C75  1  0.01476000  0.48120000  0.65005000  1.0
  C  C76  1  0.60073000  0.90199000  0.95045000  1.0
  C  C77  1  0.61775000  0.88537000  0.09223000  1.0
  C  C78  1  0.53692000  0.96461000  0.10321000  1.0
  C  C79  1  0.48401000  0.01787000  0.03808000  1.0
  C  C80  1  0.40199000  0.10073000  0.04683000  1.0
  C  C81  1  0.38537000  0.11775000  0.90465000  1.0
  C  C82  1  0.46461000  0.03692000  0.89526000  1.0
  C  C83  1  0.51787000  0.98401000  0.96005000  1.0
  C  C84  1  0.65005000  0.85399000  0.01476000  1.0
  C  C85  1  0.35399000  0.15005000  0.98120000  1.0
  C  C86  1  0.04683000  0.10073000  0.95045000  1.0
  C  C87  1  0.90464000  0.11775000  0.09223000  1.0
  C  C88  1  0.89526000  0.03692000  0.10321000  1.0
  C  C89  1  0.96004000  0.98401000  0.03807000  1.0
  C  C90  1  0.95044000  0.90199000  0.04683000  1.0
  C  C91  1  0.09223000  0.88537000  0.90465000  1.0
  C  C92  1  0.10320000  0.96461000  0.89527000  1.0
  C  C93  1  0.03807000  0.01787000  0.96005000  1.0
  C  C94  1  0.98119000  0.15005000  0.01476000  1.0
  C  C95  1  0.01476000  0.85399000  0.98120000  1.0
  C  C96  1  0.60074000  0.54682000  0.40199000  1.0
  C  C97  1  0.61774000  0.40465000  0.38538000  1.0
  C  C98  1  0.53692000  0.39526000  0.46461000  1.0
  C  C99  1  0.48401000  0.46004000  0.51788000  1.0
  C  C100  1  0.40199000  0.45045000  0.60074000  1.0
  C  C101  1  0.38537000  0.59223000  0.61775000  1.0
  C  C102  1  0.46460000  0.60321000  0.53693000  1.0
  C  C103  1  0.51787000  0.53807000  0.48401000  1.0
  C  C104  1  0.65004000  0.48120000  0.35400000  1.0
  C  C105  1  0.35399000  0.51476000  0.65005000  1.0
  Br  Br106  1  0.79199000  0.00275000  0.49572000  1.0
  Br  Br107  1  0.20953000  0.99572000  0.50275000  1.0
  Br  Br108  1  0.50276000  0.29199000  0.20953000  1.0
  Br  Br109  1  0.49572000  0.70953000  0.79200000  1.0
  Br  Br110  1  0.20953000  0.29200000  0.49572000  1.0
  Br  Br111  1  0.79200000  0.70953000  0.50275000  1.0
  Br  Br112  1  0.50275000  0.99572000  0.79200000  1.0
  Br  Br113  1  0.49572000  0.00275000  0.20953000  1.0
  Br  Br114  1  0.20953000  0.00275000  0.79200000  1.0
  Br  Br115  1  0.79199000  0.99572000  0.20954000  1.0
  Br  Br116  1  0.50275000  0.70953000  0.49572000  1.0
  Br  Br117  1  0.49572000  0.29199000  0.50275000  1.0
  O  O118  1  0.93737000  0.26762000  0.23644000  1.0
  O  O119  1  0.23644000  0.55857000  0.93737000  1.0
  O  O120  1  0.05857000  0.73644000  0.76762000  1.0
  O  O121  1  0.76762000  0.43737000  0.05857000  1.0
  O  O122  1  0.05857000  0.26762000  0.93737000  1.0
  O  O123  1  0.76761000  0.55857000  0.23645000  1.0
  O  O124  1  0.93737000  0.73644000  0.05857000  1.0
  O  O125  1  0.23644000  0.43737000  0.76762000  1.0
  O  O126  1  0.23644000  0.26762000  0.05857000  1.0
  O  O127  1  0.93737000  0.55857000  0.76762000  1.0
  O  O128  1  0.76762000  0.73644000  0.93737000  1.0
  O  O129  1  0.05856000  0.43737000  0.23645000  1.0
  O  O130  1  0.07019000  0.42491000  0.77620000  1.0
  O  O131  1  0.77620000  0.72870000  0.07019000  1.0
  O  O132  1  0.92490000  0.57019000  0.22871000  1.0
  O  O133  1  0.22870000  0.27620000  0.92491000  1.0
  O  O134  1  0.92491000  0.27620000  0.07019000  1.0
  O  O135  1  0.22870000  0.57019000  0.77620000  1.0
  O  O136  1  0.07019000  0.72870000  0.92491000  1.0
  O  O137  1  0.77619000  0.42491000  0.22871000  1.0
  O  O138  1  0.77620000  0.57019000  0.92491000  1.0
  O  O139  1  0.07018000  0.27620000  0.22871000  1.0
  O  O140  1  0.22870000  0.42491000  0.07019000  1.0
  O  O141  1  0.92491000  0.72870000  0.77620000  1.0
  O  O142  1  0.82415000  0.55861000  0.05862000  1.0
  O  O143  1  0.05860000  0.55862000  0.82416000  1.0
  O  O144  1  0.05861000  0.55861000  0.05862000  1.0
  O  O145  1  0.05861000  0.32415000  0.05862000  1.0
  O  O146  1  0.12949000  0.45683000  0.95684000  1.0
  O  O147  1  0.95684000  0.45683000  0.12950000  1.0
  O  O148  1  0.95683000  0.62950000  0.95684000  1.0
  O  O149  1  0.95683000  0.45683000  0.95684000  1.0
