# generated using pymatgen
data_Ag3H12C7S(NO2)3
_symmetry_space_group_name_H-M   'P 1'
_cell_length_a   6.16479000
_cell_length_b   8.33379000
_cell_length_c   12.83150000
_cell_angle_alpha   90.37310000
_cell_angle_beta   100.98470000
_cell_angle_gamma   96.08480000
_symmetry_Int_Tables_number   1
_chemical_formula_structural   Ag3H12C7S(NO2)3
_chemical_formula_sum   'Ag6 H24 C14 S2 N6 O12'
_cell_volume   643.26665737
_cell_formula_units_Z   2
loop_
 _symmetry_equiv_pos_site_id
 _symmetry_equiv_pos_as_xyz
  1  'x, y, z'
loop_
 _atom_site_type_symbol
 _atom_site_label
 _atom_site_symmetry_multiplicity
 _atom_site_fract_x
 _atom_site_fract_y
 _atom_site_fract_z
 _atom_site_occupancy
  Ag  Ag0  1  0.00000000  0.00000000  0.50000000  1.0
  Ag  Ag1  1  0.66391000  0.11561000  0.62081000  1.0
  Ag  Ag2  1  0.33610000  0.88439000  0.37919000  1.0
  Ag  Ag3  1  0.49999000  0.00000000  1.00000000  1.0
  Ag  Ag4  1  0.45443000  0.32792000  0.97081000  1.0
  Ag  Ag5  1  0.54558000  0.67208000  0.02919000  1.0
  H  H6  1  0.28254000  0.21292000  0.41613000  1.0
  H  H7  1  0.71746000  0.78708000  0.58387000  1.0
  H  H8  1  0.21157000  0.30955000  0.51602000  1.0
  H  H9  1  0.78843000  0.69045000  0.48398000  1.0
  H  H10  1  0.03556000  0.27731000  0.40261000  1.0
  H  H11  1  0.96444000  0.72269000  0.59739000  1.0
  H  H12  1  0.73415000  0.42991000  0.65376000  1.0
  H  H13  1  0.26585000  0.57009000  0.34624000  1.0
  H  H14  1  0.79946000  0.38636000  0.53805000  1.0
  H  H15  1  0.20054000  0.61364000  0.46195000  1.0
  H  H16  1  0.97745000  0.36418000  0.65254000  1.0
  H  H17  1  0.02255000  0.63581000  0.34746000  1.0
  H  H18  1  0.74482000  0.44499000  0.85706000  1.0
  H  H19  1  0.25517000  0.55502000  0.14294000  1.0
  H  H20  1  0.73709000  0.24411000  0.85691000  1.0
  H  H21  1  0.26290000  0.75589000  0.14309000  1.0
  H  H22  1  0.89453000  0.34803000  0.95780000  1.0
  H  H23  1  0.10547000  0.65198000  0.04220000  1.0
  H  H24  1  0.32740000  0.13743000  0.71074000  1.0
  H  H25  1  0.67260000  0.86258000  0.28926000  1.0
  H  H26  1  0.04633000  0.12084000  0.82366000  1.0
  H  H27  1  0.95366000  0.87916000  0.17634000  1.0
  H  H28  1  0.06365000  0.60643000  0.84029000  1.0
  H  H29  1  0.93636000  0.39357000  0.15971000  1.0
  C  C30  1  0.27484000  0.73006000  0.74556000  1.0
  C  C31  1  0.72516000  0.26993000  0.25444000  1.0
  C  C32  1  0.35592000  0.88035000  0.70577000  1.0
  C  C33  1  0.64408000  0.11965000  0.29423000  1.0
  C  C34  1  0.26658000  0.01963000  0.73736000  1.0
  C  C35  1  0.73343000  0.98037000  0.26264000  1.0
  C  C36  1  0.10941000  0.01079000  0.80170000  1.0
  C  C37  1  0.89061000  0.98921000  0.19830000  1.0
  C  C38  1  0.03235000  0.86181000  0.84031000  1.0
  C  C39  1  0.96765000  0.13819000  0.15969000  1.0
  C  C40  1  0.12019000  0.72323000  0.81209000  1.0
  C  C41  1  0.87982000  0.27677000  0.18791000  1.0
  C  C42  1  0.85900000  0.85153000  0.90596000  1.0
  C  C43  1  0.14100000  0.14847000  0.09404000  1.0
  S  S44  1  0.36561000  0.54671000  0.70870000  1.0
  S  S45  1  0.63439000  0.45329000  0.29129000  1.0
  N  N46  1  0.15332000  0.22584000  0.45516000  1.0
  N  N47  1  0.84668000  0.77416000  0.54485000  1.0
  N  N48  1  0.81357000  0.35122000  0.61549000  1.0
  N  N49  1  0.18643000  0.64878000  0.38451000  1.0
  N  N50  1  0.74744000  0.34540000  0.90393000  1.0
  N  N51  1  0.25256000  0.65460000  0.09607000  1.0
  O  O52  1  0.61000000  0.56579000  0.73561000  1.0
  O  O53  1  0.39000000  0.43421000  0.26439000  1.0
  O  O54  1  0.28156000  0.52242000  0.59319000  1.0
  O  O55  1  0.71844000  0.47757000  0.40681000  1.0
  O  O56  1  0.26199000  0.41906000  0.76842000  1.0
  O  O57  1  0.73801000  0.58094000  0.23158000  1.0
  O  O58  1  0.50053000  0.88791000  0.64271000  1.0
  O  O59  1  0.49948000  0.11209000  0.35729000  1.0
  O  O60  1  0.82962000  0.72111000  0.95727000  1.0
  O  O61  1  0.17038000  0.27889000  0.04273000  1.0
  O  O62  1  0.74962000  0.97314000  0.90695000  1.0
  O  O63  1  0.25037000  0.02685000  0.09305000  1.0
