# generated using pymatgen
data_Ni4H30C30N4O17
_symmetry_space_group_name_H-M   'P 1'
_cell_length_a   12.86830000
_cell_length_b   14.25410000
_cell_length_c   30.64560000
_cell_angle_alpha   89.99980000
_cell_angle_beta   96.03260000
_cell_angle_gamma   89.99960000
_symmetry_Int_Tables_number   1
_chemical_formula_structural   Ni4H30C30N4O17
_chemical_formula_sum   'Ni16 H120 C120 N16 O68'
_cell_volume   5590.07215022
_cell_formula_units_Z   4
loop_
 _symmetry_equiv_pos_site_id
 _symmetry_equiv_pos_as_xyz
  1  'x, y, z'
loop_
 _atom_site_type_symbol
 _atom_site_label
 _atom_site_symmetry_multiplicity
 _atom_site_fract_x
 _atom_site_fract_y
 _atom_site_fract_z
 _atom_site_occupancy
  Ni  Ni0  1  0.12574000  0.78304000  0.93375000  1.0
  Ni  Ni1  1  0.87426000  0.28304000  0.56625000  1.0
  Ni  Ni2  1  0.87424000  0.21696000  0.06625000  1.0
  Ni  Ni3  1  0.12576000  0.71696000  0.43376000  1.0
  Ni  Ni4  1  0.80625000  0.91000000  0.89089000  1.0
  Ni  Ni5  1  0.19375000  0.41000000  0.60911000  1.0
  Ni  Ni6  1  0.19374000  0.08999000  0.10911000  1.0
  Ni  Ni7  1  0.80626000  0.58999000  0.39089000  1.0
  Ni  Ni8  1  0.86790000  0.70440000  0.88277000  1.0
  Ni  Ni9  1  0.13210000  0.20440000  0.61723000  1.0
  Ni  Ni10  1  0.13209000  0.29560000  0.11722000  1.0
  Ni  Ni11  1  0.86791000  0.79559000  0.38277000  1.0
  Ni  Ni12  1  0.02475000  0.81086000  0.83866000  1.0
  Ni  Ni13  1  0.97525000  0.31085000  0.66134000  1.0
  Ni  Ni14  1  0.97525000  0.18915000  0.16134000  1.0
  Ni  Ni15  1  0.02476000  0.68914000  0.33867000  1.0
  H  H16  1  0.05790000  0.65326000  0.88210000  1.0
  H  H17  1  0.94211000  0.15326000  0.61790000  1.0
  H  H18  1  0.94211000  0.34674000  0.11790000  1.0
  H  H19  1  0.05790000  0.84674000  0.38210000  1.0
  H  H20  1  0.82874000  0.82293000  0.81921000  1.0
  H  H21  1  0.17126000  0.32292000  0.68079000  1.0
  H  H22  1  0.17127000  0.17709000  0.18079000  1.0
  H  H23  1  0.82875000  0.67708000  0.31921000  1.0
  H  H24  1  0.74502000  0.07276000  0.86684000  1.0
  H  H25  1  0.25497000  0.57275000  0.63316000  1.0
  H  H26  1  0.25495000  0.92725000  0.13315000  1.0
  H  H27  1  0.74503000  0.42725000  0.36685000  1.0
  H  H28  1  0.67557000  0.99961000  0.83999000  1.0
  H  H29  1  0.32444000  0.49960000  0.66001000  1.0
  H  H30  1  0.32442000  0.00039000  0.16000000  1.0
  H  H31  1  0.67557000  0.50040000  0.34000000  1.0
  H  H32  1  0.76160000  0.03377000  0.96491000  1.0
  H  H33  1  0.23839000  0.53376000  0.53510000  1.0
  H  H34  1  0.23839000  0.96624000  0.03509000  1.0
  H  H35  1  0.76162000  0.46623000  0.46490000  1.0
  H  H36  1  0.66901000  0.96919000  0.94616000  1.0
  H  H37  1  0.33100000  0.46920000  0.55384000  1.0
  H  H38  1  0.33099000  0.03080000  0.05385000  1.0
  H  H39  1  0.66902000  0.53081000  0.44615000  1.0
  H  H40  1  0.28574000  0.87858000  0.96608000  1.0
  H  H41  1  0.71427000  0.37855000  0.53392000  1.0
  H  H42  1  0.71425000  0.12145000  0.03392000  1.0
  H  H43  1  0.28574000  0.62144000  0.46608000  1.0
  H  H44  1  0.24051000  0.81399000  0.00274000  1.0
  H  H45  1  0.75950000  0.31398000  0.49725000  1.0
  H  H46  1  0.75949000  0.18602000  0.99725000  1.0
  H  H47  1  0.24052000  0.68602000  0.50275000  1.0
  H  H48  1  0.75955000  0.52942000  0.86735000  1.0
  H  H49  1  0.24045000  0.02941000  0.63265000  1.0
  H  H50  1  0.24040000  0.47059000  0.13265000  1.0
  H  H51  1  0.75957000  0.97059000  0.36735000  1.0
  H  H52  1  0.90342000  0.49771000  0.02146000  1.0
  H  H53  1  0.09659000  0.99770000  0.47854000  1.0
  H  H54  1  0.09662000  0.50228000  0.97853000  1.0
  H  H55  1  0.90342000  0.00230000  0.52146000  1.0
  H  H56  1  0.01354000  0.92493000  0.02696000  1.0
  H  H57  1  0.98647000  0.42492000  0.47305000  1.0
  H  H58  1  0.98645000  0.07509000  0.97304000  1.0
  H  H59  1  0.01355000  0.57508000  0.52696000  1.0
  H  H60  1  0.06032000  0.50431000  0.67357000  1.0
  H  H61  1  0.93968000  0.00432000  0.82642000  1.0
  H  H62  1  0.93969000  0.49568000  0.32643000  1.0
  H  H63  1  0.06031000  0.99569000  0.17358000  1.0
  H  H64  1  0.03720000  0.64024000  0.72399000  1.0
  H  H65  1  0.96281000  0.14025000  0.77601000  1.0
  H  H66  1  0.96279000  0.35975000  0.27600000  1.0
  H  H67  1  0.03723000  0.85977000  0.22400000  1.0
  H  H68  1  0.94166000  0.63673000  0.97512000  1.0
  H  H69  1  0.05835000  0.13672000  0.52488000  1.0
  H  H70  1  0.05836000  0.36326000  0.02487000  1.0
  H  H71  1  0.94165000  0.86327000  0.47512000  1.0
  H  H72  1  0.45174000  0.81206000  0.88834000  1.0
  H  H73  1  0.54826000  0.31207000  0.61166000  1.0
  H  H74  1  0.54825000  0.18795000  0.11166000  1.0
  H  H75  1  0.45175000  0.68793000  0.38834000  1.0
  H  H76  1  0.88149000  0.33039000  0.74361000  1.0
  H  H77  1  0.11850000  0.83039000  0.75639000  1.0
  H  H78  1  0.11849000  0.66961000  0.25639000  1.0
  H  H79  1  0.88148000  0.16961000  0.24361000  1.0
  H  H80  1  0.85571000  0.45857000  0.79852000  1.0
  H  H81  1  0.14429000  0.95855000  0.70148000  1.0
  H  H82  1  0.14425000  0.54145000  0.20147000  1.0
  H  H83  1  0.85570000  0.04143000  0.29852000  1.0
  H  H84  1  0.67711000  0.93917000  0.12336000  1.0
  H  H85  1  0.32286000  0.43910000  0.37662000  1.0
  H  H86  1  0.32286000  0.06088000  0.87662000  1.0
  H  H87  1  0.67713000  0.56085000  0.62337000  1.0
  H  H88  1  0.72583000  0.05308000  0.11162000  1.0
  H  H89  1  0.27415000  0.55302000  0.38836000  1.0
  H  H90  1  0.27414000  0.94697000  0.88836000  1.0
  H  H91  1  0.72585000  0.44694000  0.61163000  1.0
  H  H92  1  0.80275000  0.97905000  0.14754000  1.0
  H  H93  1  0.19721000  0.47900000  0.35245000  1.0
  H  H94  1  0.19722000  0.02099000  0.85245000  1.0
  H  H95  1  0.80277000  0.52096000  0.64754000  1.0
  H  H96  1  0.61984000  0.76772000  0.00980000  1.0
  H  H97  1  0.38017000  0.26773000  0.49020000  1.0
  H  H98  1  0.38016000  0.23227000  0.99021000  1.0
  H  H99  1  0.61984000  0.73228000  0.50979000  1.0
  H  H100  1  0.72378000  0.70565000  0.98791000  1.0
  H  H101  1  0.27625000  0.20565000  0.51209000  1.0
  H  H102  1  0.27623000  0.29435000  0.01209000  1.0
  H  H103  1  0.72377000  0.79436000  0.48791000  1.0
  H  H104  1  0.66743000  0.80202000  0.95910000  1.0
  H  H105  1  0.33258000  0.30203000  0.54091000  1.0
  H  H106  1  0.33255000  0.19796000  0.04091000  1.0
  H  H107  1  0.66744000  0.69797000  0.45910000  1.0
  H  H108  1  0.27351000  0.56698000  0.76355000  1.0
  H  H109  1  0.72650000  0.06699000  0.73646000  1.0
  H  H110  1  0.72647000  0.43300000  0.23646000  1.0
  H  H111  1  0.27353000  0.93301000  0.26355000  1.0
  H  H112  1  0.20332000  0.67498000  0.76313000  1.0
  H  H113  1  0.79668000  0.17499000  0.73687000  1.0
  H  H114  1  0.79666000  0.32500000  0.23688000  1.0
  H  H115  1  0.20333000  0.82501000  0.26313000  1.0
  H  H116  1  0.20220000  0.60039000  0.80851000  1.0
  H  H117  1  0.79781000  0.10040000  0.69150000  1.0
  H  H118  1  0.79780000  0.39960000  0.19151000  1.0
  H  H119  1  0.20220000  0.89961000  0.30850000  1.0
  H  H120  1  0.72260000  0.38128000  0.90853000  1.0
  H  H121  1  0.27741000  0.88127000  0.59147000  1.0
  H  H122  1  0.27734000  0.61875000  0.09147000  1.0
  H  H123  1  0.72265000  0.11876000  0.40852000  1.0
  H  H124  1  0.59129000  0.63418000  0.74637000  1.0
  H  H125  1  0.40870000  0.13419000  0.75363000  1.0
  H  H126  1  0.40867000  0.36581000  0.25363000  1.0
  H  H127  1  0.59131000  0.86582000  0.24638000  1.0
  H  H128  1  0.66807000  0.60308000  0.79629000  1.0
  H  H129  1  0.33194000  0.10308000  0.70371000  1.0
  H  H130  1  0.33192000  0.39691000  0.20371000  1.0
  H  H131  1  0.66806000  0.89692000  0.29630000  1.0
  H  H132  1  0.67434000  0.71831000  0.77638000  1.0
  H  H133  1  0.32566000  0.21831000  0.72362000  1.0
  H  H134  1  0.32562000  0.28169000  0.22362000  1.0
  H  H135  1  0.67437000  0.78170000  0.27638000  1.0
  C  C136  1  0.35105000  0.73375000  0.84092000  1.0
  C  C137  1  0.64895000  0.23375000  0.65908000  1.0
  C  C138  1  0.64894000  0.26624000  0.15908000  1.0
  C  C139  1  0.35105000  0.76624000  0.34092000  1.0
  C  C140  1  0.79048000  0.51856000  0.90140000  1.0
  C  C141  1  0.20953000  0.01855000  0.59861000  1.0
  C  C142  1  0.20949000  0.48145000  0.09860000  1.0
  C  C143  1  0.79049000  0.98146000  0.40140000  1.0
  C  C144  1  0.89707000  0.95827000  0.06976000  1.0
  C  C145  1  0.10293000  0.45826000  0.43024000  1.0
  C  C146  1  0.10292000  0.04174000  0.93023000  1.0
  C  C147  1  0.89708000  0.54173000  0.56976000  1.0
  C  C148  1  0.87065000  0.50269000  0.98734000  1.0
  C  C149  1  0.12937000  0.00268000  0.51266000  1.0
  C  C150  1  0.12937000  0.49730000  0.01265000  1.0
  C  C151  1  0.87066000  0.99732000  0.48734000  1.0
  C  C152  1  0.53886000  0.74220000  0.84140000  1.0
  C  C153  1  0.46114000  0.24220000  0.65860000  1.0
  C  C154  1  0.46112000  0.25779000  0.15860000  1.0
  C  C155  1  0.53887000  0.75779000  0.34140000  1.0
  C  C156  1  0.93373000  0.91304000  0.03436000  1.0
  C  C157  1  0.06627000  0.41304000  0.46565000  1.0
  C  C158  1  0.06625000  0.08697000  0.96564000  1.0
  C  C159  1  0.93374000  0.58696000  0.53436000  1.0
  C  C160  1  0.01399000  0.49778000  0.70115000  1.0
  C  C161  1  0.98601000  0.99779000  0.79884000  1.0
  C  C162  1  0.98602000  0.50221000  0.29884000  1.0
  C  C163  1  0.01398000  0.00222000  0.20116000  1.0
  C  C164  1  0.96880000  0.02762000  0.09333000  1.0
  C  C165  1  0.03120000  0.52762000  0.40668000  1.0
  C  C166  1  0.03119000  0.97239000  0.90667000  1.0
  C  C167  1  0.96881000  0.47238000  0.59333000  1.0
  C  C168  1  0.91497000  0.81551000  0.96882000  1.0
  C  C169  1  0.08504000  0.31551000  0.53118000  1.0
  C  C170  1  0.08503000  0.18448000  0.03117000  1.0
  C  C171  1  0.91498000  0.68449000  0.46883000  1.0
  C  C172  1  0.64401000  0.77018000  0.86296000  1.0
  C  C173  1  0.35600000  0.27018000  0.63704000  1.0
  C  C174  1  0.35598000  0.22982000  0.13703000  1.0
  C  C175  1  0.64402000  0.72982000  0.36297000  1.0
  C  C176  1  0.93363000  0.63756000  0.79724000  1.0
  C  C177  1  0.06637000  0.13756000  0.70276000  1.0
  C  C178  1  0.06635000  0.36244000  0.20275000  1.0
  C  C179  1  0.93364000  0.86244000  0.29724000  1.0
  C  C180  1  0.00173000  0.57247000  0.72923000  1.0
  C  C181  1  0.99827000  0.07247000  0.77076000  1.0
  C  C182  1  0.99826000  0.42755000  0.27076000  1.0
  C  C183  1  0.00175000  0.92755000  0.22924000  1.0
  C  C184  1  0.76607000  0.83891000  0.01820000  1.0
  C  C185  1  0.23393000  0.33890000  0.48180000  1.0
  C  C186  1  0.23392000  0.16109000  0.98180000  1.0
  C  C187  1  0.76608000  0.66109000  0.51820000  1.0
  C  C188  1  0.25286000  0.76349000  0.85931000  1.0
  C  C189  1  0.74715000  0.26348000  0.64069000  1.0
  C  C190  1  0.74714000  0.23653000  0.14069000  1.0
  C  C191  1  0.25286000  0.73652000  0.35931000  1.0
  C  C192  1  0.86865000  0.85473000  0.00733000  1.0
  C  C193  1  0.13135000  0.35473000  0.49267000  1.0
  C  C194  1  0.13134000  0.14527000  0.99267000  1.0
  C  C195  1  0.86866000  0.64528000  0.50734000  1.0
  C  C196  1  0.81074000  0.42889000  0.96812000  1.0
  C  C197  1  0.18928000  0.92888000  0.53188000  1.0
  C  C198  1  0.18925000  0.57112000  0.03187000  1.0
  C  C199  1  0.81076000  0.07113000  0.46812000  1.0
  C  C200  1  0.94401000  0.55939000  0.76494000  1.0
  C  C201  1  0.05599000  0.05939000  0.73505000  1.0
  C  C202  1  0.05596000  0.44061000  0.23505000  1.0
  C  C203  1  0.94403000  0.94061000  0.26495000  1.0
  C  C204  1  0.89064000  0.58017000  0.96196000  1.0
  C  C205  1  0.10936000  0.08017000  0.53805000  1.0
  C  C206  1  0.10937000  0.41982000  0.03803000  1.0
  C  C207  1  0.89065000  0.91983000  0.46196000  1.0
  C  C208  1  0.34913000  0.67257000  0.80453000  1.0
  C  C209  1  0.65088000  0.17257000  0.69547000  1.0
  C  C210  1  0.65086000  0.32742000  0.19548000  1.0
  C  C211  1  0.34913000  0.82742000  0.30453000  1.0
  C  C212  1  0.79419000  0.93834000  0.07925000  1.0
  C  C213  1  0.20580000  0.43831000  0.42074000  1.0
  C  C214  1  0.20579000  0.06168000  0.92073000  1.0
  C  C215  1  0.79420000  0.56167000  0.57926000  1.0
  C  C216  1  0.44775000  0.76714000  0.85941000  1.0
  C  C217  1  0.55225000  0.26714000  0.64059000  1.0
  C  C218  1  0.55224000  0.23286000  0.14059000  1.0
  C  C219  1  0.44775000  0.73285000  0.35941000  1.0
  C  C220  1  0.91494000  0.40006000  0.74098000  1.0
  C  C221  1  0.08506000  0.90006000  0.75902000  1.0
  C  C222  1  0.08506000  0.59996000  0.25902000  1.0
  C  C223  1  0.91491000  0.09995000  0.24098000  1.0
  C  C224  1  0.90024000  0.47105000  0.77077000  1.0
  C  C225  1  0.09976000  0.97103000  0.72923000  1.0
  C  C226  1  0.09975000  0.52896000  0.22921000  1.0
  C  C227  1  0.90022000  0.02895000  0.27078000  1.0
  C  C228  1  0.79711000  0.33899000  0.99273000  1.0
  C  C229  1  0.20291000  0.83899000  0.50727000  1.0
  C  C230  1  0.20288000  0.66101000  0.00727000  1.0
  C  C231  1  0.79712000  0.16102000  0.49273000  1.0
  C  C232  1  0.74719000  0.97921000  0.11780000  1.0
  C  C233  1  0.25278000  0.47915000  0.38218000  1.0
  C  C234  1  0.25277000  0.02083000  0.88218000  1.0
  C  C235  1  0.74721000  0.52080000  0.61781000  1.0
  C  C236  1  0.68953000  0.77515000  0.99240000  1.0
  C  C237  1  0.31049000  0.27516000  0.50760000  1.0
  C  C238  1  0.31047000  0.22484000  0.00760000  1.0
  C  C239  1  0.68953000  0.72485000  0.49241000  1.0
  C  C240  1  0.25168000  0.62552000  0.78389000  1.0
  C  C241  1  0.74833000  0.12553000  0.71611000  1.0
  C  C242  1  0.74831000  0.37446000  0.21612000  1.0
  C  C243  1  0.25169000  0.87447000  0.28389000  1.0
  C  C244  1  0.76951000  0.43783000  0.92427000  1.0
  C  C245  1  0.23050000  0.93782000  0.57573000  1.0
  C  C246  1  0.23044000  0.56219000  0.07573000  1.0
  C  C247  1  0.76956000  0.06219000  0.42426000  1.0
  C  C248  1  0.52979000  0.68489000  0.80352000  1.0
  C  C249  1  0.47021000  0.18489000  0.69648000  1.0
  C  C250  1  0.47019000  0.31510000  0.19649000  1.0
  C  C251  1  0.52980000  0.81510000  0.30352000  1.0
  C  C252  1  0.62108000  0.65888000  0.77917000  1.0
  C  C253  1  0.37892000  0.15889000  0.72083000  1.0
  C  C254  1  0.37890000  0.34110000  0.22083000  1.0
  C  C255  1  0.62109000  0.84111000  0.27918000  1.0
  N  N256  1  0.97061000  0.41311000  0.70662000  1.0
  N  N257  1  0.02939000  0.91312000  0.79338000  1.0
  N  N258  1  0.02938000  0.58688000  0.29338000  1.0
  N  N259  1  0.97060000  0.08688000  0.20662000  1.0
  N  N260  1  0.73254000  0.87911000  0.05396000  1.0
  N  N261  1  0.26745000  0.37908000  0.44604000  1.0
  N  N262  1  0.26744000  0.12091000  0.94603000  1.0
  N  N263  1  0.73254000  0.62090000  0.55396000  1.0
  N  N264  1  0.85126000  0.58834000  0.91962000  1.0
  N  N265  1  0.14876000  0.08832000  0.58038000  1.0
  N  N266  1  0.14873000  0.41167000  0.08037000  1.0
  N  N267  1  0.85125000  0.91167000  0.41962000  1.0
  N  N268  1  0.43694000  0.65121000  0.78651000  1.0
  N  N269  1  0.56307000  0.15121000  0.71349000  1.0
  N  N270  1  0.56305000  0.34877000  0.21350000  1.0
  N  N271  1  0.43694000  0.84878000  0.28651000  1.0
  O  O272  1  0.85314000  0.79922000  0.93349000  1.0
  O  O273  1  0.14687000  0.29922000  0.56652000  1.0
  O  O274  1  0.14686000  0.20078000  0.06651000  1.0
  O  O275  1  0.85315000  0.70078000  0.43349000  1.0
  O  O276  1  0.92730000  0.09987000  0.10949000  1.0
  O  O277  1  0.07272000  0.59986000  0.39051000  1.0
  O  O278  1  0.07270000  0.90014000  0.89051000  1.0
  O  O279  1  0.92730000  0.40013000  0.60949000  1.0
  O  O280  1  0.02714000  0.71333000  0.88859000  1.0
  O  O281  1  0.97286000  0.21332000  0.61141000  1.0
  O  O282  1  0.97286000  0.28667000  0.11141000  1.0
  O  O283  1  0.02715000  0.78667000  0.38859000  1.0
  O  O284  1  0.71001000  0.70429000  0.86785000  1.0
  O  O285  1  0.29000000  0.20429000  0.63215000  1.0
  O  O286  1  0.28999000  0.29571000  0.13214000  1.0
  O  O287  1  0.71001000  0.79570000  0.36786000  1.0
  O  O288  1  0.98220000  0.71304000  0.79047000  1.0
  O  O289  1  0.01780000  0.21304000  0.70953000  1.0
  O  O290  1  0.01780000  0.28695000  0.20953000  1.0
  O  O291  1  0.98220000  0.78695000  0.29047000  1.0
  O  O292  1  0.87930000  0.61980000  0.82865000  1.0
  O  O293  1  0.12070000  0.11979000  0.67135000  1.0
  O  O294  1  0.12069000  0.38020000  0.17134000  1.0
  O  O295  1  0.87930000  0.88020000  0.32865000  1.0
  O  O296  1  0.87081000  0.82862000  0.84735000  1.0
  O  O297  1  0.12920000  0.32861000  0.65265000  1.0
  O  O298  1  0.12919000  0.17138000  0.15265000  1.0
  O  O299  1  0.87082000  0.67137000  0.34735000  1.0
  O  O300  1  0.06615000  0.01088000  0.09420000  1.0
  O  O301  1  0.93385000  0.51089000  0.40581000  1.0
  O  O302  1  0.93384000  0.98912000  0.90580000  1.0
  O  O303  1  0.06616000  0.48912000  0.59420000  1.0
  O  O304  1  0.83806000  0.33727000  0.03251000  1.0
  O  O305  1  0.16195000  0.83727000  0.46749000  1.0
  O  O306  1  0.16195000  0.66273000  0.96748000  1.0
  O  O307  1  0.83806000  0.16273000  0.53251000  1.0
  O  O308  1  0.01247000  0.80290000  0.97367000  1.0
  O  O309  1  0.98754000  0.30289000  0.52633000  1.0
  O  O310  1  0.98752000  0.19710000  0.02632000  1.0
  O  O311  1  0.01248000  0.69710000  0.47368000  1.0
  O  O312  1  0.17496000  0.77818000  0.83110000  1.0
  O  O313  1  0.82504000  0.27816000  0.66889000  1.0
  O  O314  1  0.82504000  0.22185000  0.16889000  1.0
  O  O315  1  0.17496000  0.72183000  0.33111000  1.0
  O  O316  1  0.25584000  0.77199000  0.90098000  1.0
  O  O317  1  0.74416000  0.27198000  0.59901000  1.0
  O  O318  1  0.74416000  0.22803000  0.09902000  1.0
  O  O319  1  0.25584000  0.72802000  0.40099000  1.0
  O  O320  1  0.65927000  0.85634000  0.87465000  1.0
  O  O321  1  0.34074000  0.35634000  0.62535000  1.0
  O  O322  1  0.34072000  0.14366000  0.12534000  1.0
  O  O323  1  0.65927000  0.64365000  0.37466000  1.0
  O  O324  1  0.74792000  0.02086000  0.84617000  1.0
  O  O325  1  0.25209000  0.52085000  0.65383000  1.0
  O  O326  1  0.25207000  0.97914000  0.15383000  1.0
  O  O327  1  0.74792000  0.47914000  0.34618000  1.0
  O  O328  1  0.73088000  0.00134000  0.93809000  1.0
  O  O329  1  0.26912000  0.50133000  0.56192000  1.0
  O  O330  1  0.26911000  0.99867000  0.06191000  1.0
  O  O331  1  0.73090000  0.49867000  0.43809000  1.0
  O  O332  1  0.22475000  0.87282000  0.98226000  1.0
  O  O333  1  0.77526000  0.37281000  0.51774000  1.0
  O  O334  1  0.77524000  0.12719000  0.01774000  1.0
  O  O335  1  0.22475000  0.62718000  0.48227000  1.0
  O  O336  1  0.74992000  0.27233000  0.97153000  1.0
  O  O337  1  0.25011000  0.77234000  0.52847000  1.0
  O  O338  1  0.25006000  0.72767000  0.02847000  1.0
  O  O339  1  0.74993000  0.22767000  0.47153000  1.0
