# generated using pymatgen
data_CuH10C12N2(ClO2)2
_symmetry_space_group_name_H-M   'P 1'
_cell_length_a   3.75696000
_cell_length_b   7.25629000
_cell_length_c   12.58980000
_cell_angle_alpha   76.37720000
_cell_angle_beta   89.39940000
_cell_angle_gamma   83.63160000
_symmetry_Int_Tables_number   1
_chemical_formula_structural   CuH10C12N2(ClO2)2
_chemical_formula_sum   'Cu1 H10 C12 N2 Cl2 O4'
_cell_volume   331.46054111
_cell_formula_units_Z   1
loop_
 _symmetry_equiv_pos_site_id
 _symmetry_equiv_pos_as_xyz
  1  'x, y, z'
loop_
 _atom_site_type_symbol
 _atom_site_label
 _atom_site_symmetry_multiplicity
 _atom_site_fract_x
 _atom_site_fract_y
 _atom_site_fract_z
 _atom_site_occupancy
  Cu  Cu0  1  0.00000000  0.00000000  0.00000000  1.0
  H  H1  1  0.84991000  0.64478000  0.94567000  1.0
  H  H2  1  0.15010000  0.35520000  0.05433000  1.0
  H  H3  1  0.97513000  0.48465000  0.79326000  1.0
  H  H4  1  0.02491000  0.51535000  0.20674000  1.0
  H  H5  1  0.35063000  0.00726000  0.60776000  1.0
  H  H6  1  0.64936000  0.99275000  0.39224000  1.0
  H  H7  1  0.20192000  0.14767000  0.76950000  1.0
  H  H8  1  0.79804000  0.85234000  0.23050000  1.0
  H  H9  1  0.35405000  0.39331000  0.55823000  1.0
  H  H10  1  0.64596000  0.60671000  0.44177000  1.0
  C  C11  1  0.96247000  0.71909000  0.86964000  1.0
  C  C12  1  0.03754000  0.28090000  0.13037000  1.0
  C  C13  1  0.03183000  0.63138000  0.78349000  1.0
  C  C14  1  0.96819000  0.36860000  0.21651000  1.0
  C  C15  1  0.18315000  0.73277000  0.68883000  1.0
  C  C16  1  0.81684000  0.26723000  0.31117000  1.0
  C  C17  1  0.23789000  0.92318000  0.68103000  1.0
  C  C18  1  0.76208000  0.07682000  0.31898000  1.0
  C  C19  1  0.15662000  0.00180000  0.77019000  1.0
  C  C20  1  0.84337000  0.99820000  0.22981000  1.0
  C  C21  1  0.30680000  0.63672000  0.60091000  1.0
  C  C22  1  0.69320000  0.36329000  0.39908000  1.0
  N  N23  1  0.03215000  0.89895000  0.86394000  1.0
  N  N24  1  0.96785000  0.10104000  0.13606000  1.0
  Cl  Cl25  1  0.41131000  0.75303000  0.08446000  1.0
  Cl  Cl26  1  0.58867000  0.24697000  0.91554000  1.0
  O  O27  1  0.23383000  0.45894000  0.61640000  1.0
  O  O28  1  0.76619000  0.54106000  0.38359000  1.0
  O  O29  1  0.47607000  0.71939000  0.52109000  1.0
  O  O30  1  0.52394000  0.28062000  0.47891000  1.0
