# generated using pymatgen
data_H10Pb(C2O)5
_symmetry_space_group_name_H-M   'P 1'
_cell_length_a   8.00789000
_cell_length_b   9.92712000
_cell_length_c   18.28940000
_cell_angle_alpha   89.99710000
_cell_angle_beta   89.99790000
_cell_angle_gamma   73.35700000
_symmetry_Int_Tables_number   1
_chemical_formula_structural   H10Pb(C2O)5
_chemical_formula_sum   'H40 Pb4 C40 O20'
_cell_volume   1393.01325318
_cell_formula_units_Z   4
loop_
 _symmetry_equiv_pos_site_id
 _symmetry_equiv_pos_as_xyz
  1  'x, y, z'
loop_
 _atom_site_type_symbol
 _atom_site_label
 _atom_site_symmetry_multiplicity
 _atom_site_fract_x
 _atom_site_fract_y
 _atom_site_fract_z
 _atom_site_occupancy
  H  H0  1  0.19468000  0.78172000  0.70333000  1.0
  H  H1  1  0.30531000  0.71828000  0.20333000  1.0
  H  H2  1  0.80532000  0.21827000  0.29666000  1.0
  H  H3  1  0.69471000  0.28171000  0.79667000  1.0
  H  H4  1  0.27482000  0.70496000  0.83132000  1.0
  H  H5  1  0.22516000  0.79504000  0.33132000  1.0
  H  H6  1  0.72519000  0.29503000  0.16867000  1.0
  H  H7  1  0.77483000  0.20498000  0.66868000  1.0
  H  H8  1  0.70311000  0.83459000  0.66976000  1.0
  H  H9  1  0.79688000  0.66545000  0.16977000  1.0
  H  H10  1  0.29691000  0.16538000  0.33024000  1.0
  H  H11  1  0.20313000  0.33456000  0.83023000  1.0
  H  H12  1  0.78445000  0.75866000  0.79758000  1.0
  H  H13  1  0.71551000  0.74138000  0.29759000  1.0
  H  H14  1  0.21557000  0.24129000  0.20242000  1.0
  H  H15  1  0.28447000  0.25865000  0.70241000  1.0
  H  H16  1  0.07594000  0.30105000  0.09392000  1.0
  H  H17  1  0.42410000  0.19892000  0.59392000  1.0
  H  H18  1  0.92407000  0.69893000  0.90608000  1.0
  H  H19  1  0.57595000  0.80108000  0.40609000  1.0
  H  H20  1  0.83068000  0.15113000  0.05780000  1.0
  H  H21  1  0.66932000  0.34888000  0.55779000  1.0
  H  H22  1  0.16932000  0.84886000  0.94220000  1.0
  H  H23  1  0.33067000  0.65116000  0.44221000  1.0
  H  H24  1  0.98164000  0.05013000  0.17512000  1.0
  H  H25  1  0.51831000  0.44987000  0.67510000  1.0
  H  H26  1  0.01832000  0.94986000  0.82489000  1.0
  H  H27  1  0.48166000  0.55017000  0.32490000  1.0
  H  H28  1  0.03638000  0.13568000  0.01649000  1.0
  H  H29  1  0.46364000  0.36428000  0.51648000  1.0
  H  H30  1  0.96363000  0.86428000  0.98352000  1.0
  H  H31  1  0.53637000  0.63571000  0.48352000  1.0
  H  H32  1  0.18807000  0.03364000  0.13334000  1.0
  H  H33  1  0.31189000  0.46634000  0.63331000  1.0
  H  H34  1  0.81190000  0.96633000  0.86668000  1.0
  H  H35  1  0.68809000  0.53367000  0.36667000  1.0
  H  H36  1  0.05387000  0.93255000  0.10085000  1.0
  H  H37  1  0.44608000  0.56744000  0.60083000  1.0
  H  H38  1  0.94608000  0.06743000  0.89916000  1.0
  H  H39  1  0.55389000  0.43258000  0.39916000  1.0
  Pb  Pb40  1  0.74205000  0.50049000  0.03166000  1.0
  Pb  Pb41  1  0.75796000  0.99947000  0.53167000  1.0
  Pb  Pb42  1  0.25796000  0.49948000  0.96835000  1.0
  Pb  Pb43  1  0.24200000  0.00054000  0.46834000  1.0
  C  C44  1  0.53411000  0.72870000  0.82331000  1.0
  C  C45  1  0.96590000  0.77128000  0.32333000  1.0
  C  C46  1  0.46589000  0.27129000  0.17669000  1.0
  C  C47  1  0.03410000  0.22873000  0.67667000  1.0
  C  C48  1  0.36846000  0.73424000  0.79619000  1.0
  C  C49  1  0.13153000  0.76575000  0.29620000  1.0
  C  C50  1  0.63154000  0.26576000  0.20380000  1.0
  C  C51  1  0.86847000  0.23426000  0.70380000  1.0
  C  C52  1  0.32306000  0.77716000  0.72479000  1.0
  C  C53  1  0.17693000  0.72284000  0.22480000  1.0
  C  C54  1  0.67694000  0.22285000  0.27520000  1.0
  C  C55  1  0.82307000  0.27717000  0.77520000  1.0
  C  C56  1  0.44279000  0.81442000  0.67888000  1.0
  C  C57  1  0.05718000  0.68559000  0.17888000  1.0
  C  C58  1  0.55721000  0.18559000  0.32112000  1.0
  C  C59  1  0.94282000  0.31441000  0.82112000  1.0
  C  C60  1  0.60921000  0.80717000  0.70561000  1.0
  C  C61  1  0.89077000  0.69286000  0.20562000  1.0
  C  C62  1  0.39080000  0.19283000  0.29438000  1.0
  C  C63  1  0.10923000  0.30713000  0.79438000  1.0
  C  C64  1  0.65472000  0.76470000  0.77719000  1.0
  C  C65  1  0.84526000  0.73530000  0.27720000  1.0
  C  C66  1  0.34528000  0.23528000  0.22280000  1.0
  C  C67  1  0.15475000  0.26469000  0.72280000  1.0
  C  C68  1  0.58087000  0.68291000  0.90062000  1.0
  C  C69  1  0.91913000  0.81709000  0.40063000  1.0
  C  C70  1  0.41915000  0.31707000  0.09937000  1.0
  C  C71  1  0.08087000  0.18295000  0.59936000  1.0
  C  C72  1  0.39094000  0.86107000  0.60248000  1.0
  C  C73  1  0.10905000  0.63893000  0.10249000  1.0
  C  C74  1  0.60906000  0.13894000  0.39751000  1.0
  C  C75  1  0.89095000  0.36107000  0.89751000  1.0
  C  C76  1  0.96573000  0.15060000  0.06895000  1.0
  C  C77  1  0.53427000  0.34939000  0.56893000  1.0
  C  C78  1  0.03426000  0.84938000  0.93106000  1.0
  C  C79  1  0.46574000  0.65062000  0.43106000  1.0
  C  C80  1  0.05223000  0.03574000  0.12288000  1.0
  C  C81  1  0.44772000  0.46426000  0.62286000  1.0
  C  C82  1  0.94773000  0.96424000  0.87713000  1.0
  C  C83  1  0.55225000  0.53577000  0.37713000  1.0
  O  O84  1  0.73290000  0.67724000  0.92460000  1.0
  O  O85  1  0.76709000  0.82280000  0.42461000  1.0
  O  O86  1  0.26711000  0.32273000  0.07539000  1.0
  O  O87  1  0.23293000  0.17723000  0.57540000  1.0
  O  O88  1  0.46950000  0.64900000  0.94089000  1.0
  O  O89  1  0.03050000  0.85103000  0.44089000  1.0
  O  O90  1  0.53051000  0.35100000  0.05911000  1.0
  O  O91  1  0.96950000  0.14904000  0.55910000  1.0
  O  O92  1  0.23835000  0.86496000  0.58054000  1.0
  O  O93  1  0.26164000  0.63503000  0.08055000  1.0
  O  O94  1  0.76166000  0.13502000  0.41945000  1.0
  O  O95  1  0.73836000  0.36497000  0.91945000  1.0
  O  O96  1  0.49800000  0.89765000  0.56029000  1.0
  O  O97  1  0.00199000  0.60236000  0.06030000  1.0
  O  O98  1  0.50199000  0.10237000  0.43971000  1.0
  O  O99  1  0.99800000  0.39764000  0.93970000  1.0
  O  O100  1  0.95611000  0.28887000  0.09710000  1.0
  O  O101  1  0.54392000  0.21111000  0.59710000  1.0
  O  O102  1  0.04391000  0.71111000  0.90290000  1.0
  O  O103  1  0.45612000  0.78891000  0.40291000  1.0
