# generated using pymatgen
data_CdH16C22(N3O2)2
_symmetry_space_group_name_H-M   'P 1'
_cell_length_a   8.04704000
_cell_length_b   10.44890000
_cell_length_c   13.77290000
_cell_angle_alpha   68.28070000
_cell_angle_beta   74.04070000
_cell_angle_gamma   70.85360000
_symmetry_Int_Tables_number   1
_chemical_formula_structural   CdH16C22(N3O2)2
_chemical_formula_sum   'Cd2 H32 C44 N12 O8'
_cell_volume   1000.65424955
_cell_formula_units_Z   2
loop_
 _symmetry_equiv_pos_site_id
 _symmetry_equiv_pos_as_xyz
  1  'x, y, z'
loop_
 _atom_site_type_symbol
 _atom_site_label
 _atom_site_symmetry_multiplicity
 _atom_site_fract_x
 _atom_site_fract_y
 _atom_site_fract_z
 _atom_site_occupancy
  Cd  Cd0  1  0.73987000  0.03592000  0.44889000  1.0
  Cd  Cd1  1  0.26014000  0.96408000  0.55112000  1.0
  H  H2  1  0.70625000  0.70155000  0.17236000  1.0
  H  H3  1  0.29374000  0.29846000  0.82764000  1.0
  H  H4  1  0.78462000  0.06720000  0.21101000  1.0
  H  H5  1  0.21537000  0.93280000  0.78899000  1.0
  H  H6  1  0.89483000  0.78853000  0.00630000  1.0
  H  H7  1  0.10517000  0.21147000  0.99370000  1.0
  H  H8  1  0.87901000  0.91193000  0.81654000  1.0
  H  H9  1  0.12098000  0.08807000  0.18346000  1.0
  H  H10  1  0.56941000  0.29745000  0.89041000  1.0
  H  H11  1  0.43060000  0.70255000  0.10959000  1.0
  H  H12  1  0.58413000  0.17407000  0.08029000  1.0
  H  H13  1  0.41587000  0.82593000  0.91971000  1.0
  H  H14  1  0.66381000  0.01736000  0.69256000  1.0
  H  H15  1  0.33619000  0.98264000  0.30745000  1.0
  H  H16  1  0.77760000  0.37851000  0.71709000  1.0
  H  H17  1  0.22241000  0.62148000  0.28292000  1.0
  H  H18  1  0.48489000  0.58134000  0.84342000  1.0
  H  H19  1  0.51511000  0.41866000  0.15659000  1.0
  H  H20  1  0.67981000  0.41550000  0.97604000  1.0
  H  H21  1  0.32020000  0.58450000  0.02396000  1.0
  H  H22  1  0.98845000  0.43914000  0.95141000  1.0
  H  H23  1  0.01155000  0.56086000  0.04859000  1.0
  H  H24  1  0.09521000  0.63032000  0.79734000  1.0
  H  H25  1  0.90480000  0.36968000  0.20265000  1.0
  H  H26  1  0.78687000  0.56966000  0.50944000  1.0
  H  H27  1  0.21313000  0.43034000  0.49055000  1.0
  H  H28  1  0.84581000  0.71765000  0.51823000  1.0
  H  H29  1  0.15419000  0.28235000  0.48177000  1.0
  H  H30  1  0.70234000  0.49823000  0.38235000  1.0
  H  H31  1  0.29766000  0.50177000  0.61765000  1.0
  H  H32  1  0.64454000  0.35292000  0.37172000  1.0
  H  H33  1  0.35546000  0.64708000  0.62829000  1.0
  C  C34  1  0.77774000  0.74802000  0.37881000  1.0
  C  C35  1  0.22226000  0.25198000  0.62119000  1.0
  C  C36  1  0.73501000  0.75538000  0.21819000  1.0
  C  C37  1  0.26498000  0.24462000  0.78181000  1.0
  C  C38  1  0.75206000  0.89592000  0.17017000  1.0
  C  C39  1  0.24794000  0.10408000  0.82983000  1.0
  C  C40  1  0.77473000  0.95712000  0.23891000  1.0
  C  C41  1  0.22527000  0.04288000  0.76109000  1.0
  C  C42  1  0.74185000  0.97183000  0.05761000  1.0
  C  C43  1  0.25815000  0.02817000  0.94239000  1.0
  C  C44  1  0.82036000  0.89974000  0.98147000  1.0
  C  C45  1  0.17964000  0.10026000  0.01853000  1.0
  C  C46  1  0.81068000  0.96851000  0.87472000  1.0
  C  C47  1  0.18931000  0.03148000  0.12528000  1.0
  C  C48  1  0.72189000  0.11346000  0.83958000  1.0
  C  C49  1  0.27811000  0.88654000  0.16042000  1.0
  C  C50  1  0.64289000  0.18590000  0.91551000  1.0
  C  C51  1  0.35711000  0.81410000  0.08448000  1.0
  C  C52  1  0.65234000  0.11659000  0.02254000  1.0
  C  C53  1  0.34766000  0.88342000  0.97746000  1.0
  C  C54  1  0.71491000  0.18679000  0.72620000  1.0
  C  C55  1  0.28509000  0.81321000  0.27380000  1.0
  C  C56  1  0.68627000  0.12373000  0.66053000  1.0
  C  C57  1  0.31373000  0.87627000  0.33947000  1.0
  C  C58  1  0.70029000  0.32435000  0.51550000  1.0
  C  C59  1  0.29971000  0.67565000  0.48450000  1.0
  C  C60  1  0.74402000  0.32312000  0.67422000  1.0
  C  C61  1  0.25599000  0.67688000  0.32578000  1.0
  C  C62  1  0.54495000  0.78958000  0.67385000  1.0
  C  C63  1  0.45505000  0.21042000  0.32615000  1.0
  C  C64  1  0.67988000  0.69533000  0.74528000  1.0
  C  C65  1  0.32012000  0.30467000  0.25473000  1.0
  C  C66  1  0.62032000  0.58928000  0.83440000  1.0
  C  C67  1  0.37968000  0.41072000  0.16560000  1.0
  C  C68  1  0.72870000  0.49767000  0.90845000  1.0
  C  C69  1  0.27131000  0.50233000  0.09155000  1.0
  C  C70  1  0.90133000  0.51094000  0.89470000  1.0
  C  C71  1  0.09867000  0.48906000  0.10530000  1.0
  C  C72  1  0.96175000  0.61689000  0.80846000  1.0
  C  C73  1  0.03825000  0.38311000  0.19154000  1.0
  C  C74  1  0.85420000  0.70922000  0.73264000  1.0
  C  C75  1  0.14580000  0.29078000  0.26736000  1.0
  C  C76  1  0.94172000  0.81451000  0.64160000  1.0
  C  C77  1  0.05828000  0.18549000  0.35839000  1.0
  N  N78  1  0.78500000  0.88748000  0.34122000  1.0
  N  N79  1  0.21500000  0.11252000  0.65878000  1.0
  N  N80  1  0.74710000  0.68209000  0.31895000  1.0
  N  N81  1  0.25289000  0.31791000  0.68105000  1.0
  N  N82  1  0.80070000  0.67312000  0.47819000  1.0
  N  N83  1  0.19929000  0.32689000  0.52181000  1.0
  N  N84  1  0.68142000  0.18768000  0.55706000  1.0
  N  N85  1  0.31858000  0.81231000  0.44294000  1.0
  N  N86  1  0.73645000  0.39125000  0.57225000  1.0
  N  N87  1  0.26355000  0.60875000  0.42776000  1.0
  N  N88  1  0.68372000  0.39643000  0.41460000  1.0
  N  N89  1  0.31628000  0.60357000  0.58541000  1.0
  O  O90  1  0.56478000  0.90781000  0.60560000  1.0
  O  O91  1  0.43522000  0.09219000  0.39440000  1.0
  O  O92  1  0.40406000  0.74913000  0.68929000  1.0
  O  O93  1  0.59594000  0.25087000  0.31071000  1.0
  O  O94  1  0.93238000  0.83126000  0.54691000  1.0
  O  O95  1  0.06762000  0.16874000  0.45309000  1.0
  O  O96  1  0.02765000  0.87572000  0.66754000  1.0
  O  O97  1  0.97235000  0.12428000  0.33246000  1.0
