# generated using pymatgen
data_CuH12C8(NO4)2
_symmetry_space_group_name_H-M   'P 1'
_cell_length_a   4.65074000
_cell_length_b   10.50690000
_cell_length_c   11.94640000
_cell_angle_alpha   76.14440000
_cell_angle_beta   78.80180000
_cell_angle_gamma   77.21690000
_symmetry_Int_Tables_number   1
_chemical_formula_structural   CuH12C8(NO4)2
_chemical_formula_sum   'Cu2 H24 C16 N4 O16'
_cell_volume   546.54336519
_cell_formula_units_Z   2
loop_
 _symmetry_equiv_pos_site_id
 _symmetry_equiv_pos_as_xyz
  1  'x, y, z'
loop_
 _atom_site_type_symbol
 _atom_site_label
 _atom_site_symmetry_multiplicity
 _atom_site_fract_x
 _atom_site_fract_y
 _atom_site_fract_z
 _atom_site_occupancy
  Cu  Cu0  1  0.00000000  0.00000000  0.50000000  1.0
  Cu  Cu1  1  0.50000000  0.50000000  0.00000000  1.0
  H  H2  1  0.44062000  0.59268000  0.31298000  1.0
  H  H3  1  0.34625000  0.90731000  0.18696000  1.0
  H  H4  1  0.55938000  0.40732000  0.68702000  1.0
  H  H5  1  0.65375000  0.09269000  0.81304000  1.0
  H  H6  1  0.77189000  0.47330000  0.32069000  1.0
  H  H7  1  0.56578000  0.02667000  0.17937000  1.0
  H  H8  1  0.22811000  0.52670000  0.67931000  1.0
  H  H9  1  0.43422000  0.97333000  0.82063000  1.0
  H  H10  1  0.36362000  0.37688000  0.28421000  1.0
  H  H11  1  0.02434000  0.12299000  0.21569000  1.0
  H  H12  1  0.63638000  0.62312000  0.71579000  1.0
  H  H13  1  0.97566000  0.87701000  0.78431000  1.0
  H  H14  1  0.09943000  0.31882000  0.40486000  1.0
  H  H15  1  0.82320000  0.18140000  0.09479000  1.0
  H  H16  1  0.90058000  0.68118000  0.59514000  1.0
  H  H17  1  0.17680000  0.81860000  0.90521000  1.0
  H  H18  1  0.09766000  0.17000000  0.61066000  1.0
  H  H19  1  0.87902000  0.32974000  0.88957000  1.0
  H  H20  1  0.90234000  0.83000000  0.38934000  1.0
  H  H21  1  0.12098000  0.67026000  0.11043000  1.0
  H  H22  1  0.28395000  0.01780000  0.63969000  1.0
  H  H23  1  0.94175000  0.48207000  0.86040000  1.0
  H  H24  1  0.71605000  0.98220000  0.36031000  1.0
  H  H25  1  0.05825000  0.51793000  0.13960000  1.0
  C  C26  1  0.57679000  0.52028000  0.37433000  1.0
  C  C27  1  0.47136000  0.97969000  0.12566000  1.0
  C  C28  1  0.42321000  0.47972000  0.62567000  1.0
  C  C29  1  0.52864000  0.02031000  0.87434000  1.0
  C  C30  1  0.31758000  0.40082000  0.55682000  1.0
  C  C31  1  0.27519000  0.09916000  0.94310000  1.0
  C  C32  1  0.68242000  0.59918000  0.44318000  1.0
  C  C33  1  0.72481000  0.90084000  0.05690000  1.0
  C  C34  1  0.33207000  0.33205000  0.37754000  1.0
  C  C35  1  0.04161000  0.16793000  0.12238000  1.0
  C  C36  1  0.66793000  0.66795000  0.62246000  1.0
  C  C37  1  0.95839000  0.83207000  0.87762000  1.0
  C  C38  1  0.52238000  0.19228000  0.39468000  1.0
  C  C39  1  0.10944000  0.30765000  0.10557000  1.0
  C  C40  1  0.47762000  0.80772000  0.60532000  1.0
  C  C41  1  0.89056000  0.69235000  0.89443000  1.0
  N  N42  1  0.40448000  0.41959000  0.44105000  1.0
  N  N43  1  0.26506000  0.08044000  0.05890000  1.0
  N  N44  1  0.59553000  0.58041000  0.55895000  1.0
  N  N45  1  0.73494000  0.91956000  0.94110000  1.0
  O  O46  1  0.15473000  0.31901000  0.61140000  1.0
  O  O47  1  0.08516000  0.18092000  0.88843000  1.0
  O  O48  1  0.84527000  0.68099000  0.38860000  1.0
  O  O49  1  0.91483000  0.81908000  0.11157000  1.0
  O  O50  1  0.44512000  0.10733000  0.35296000  1.0
  O  O51  1  0.90580000  0.39241000  0.14759000  1.0
  O  O52  1  0.55488000  0.89267000  0.64704000  1.0
  O  O53  1  0.09420000  0.60759000  0.85241000  1.0
  O  O54  1  0.74264000  0.17243000  0.45029000  1.0
  O  O55  1  0.36525000  0.32754000  0.04992000  1.0
  O  O56  1  0.25736000  0.82757000  0.54972000  1.0
  O  O57  1  0.63475000  0.67246000  0.95008000  1.0
  O  O58  1  0.08149000  0.07339000  0.62568000  1.0
  O  O59  1  0.78107000  0.42636000  0.87475000  1.0
  O  O60  1  0.91851000  0.92661000  0.37432000  1.0
  O  O61  1  0.21893000  0.57364000  0.12525000  1.0
