# generated using pymatgen
data_CuH8C14N4Cl
_symmetry_space_group_name_H-M   'P 1'
_cell_length_a   3.69540000
_cell_length_b   12.04730000
_cell_length_c   12.80460000
_cell_angle_alpha   89.99950000
_cell_angle_beta   93.43510000
_cell_angle_gamma   89.99940000
_symmetry_Int_Tables_number   1
_chemical_formula_structural   CuH8C14N4Cl
_chemical_formula_sum   'Cu2 H16 C28 N8 Cl2'
_cell_volume   569.03135927
_cell_formula_units_Z   2
loop_
 _symmetry_equiv_pos_site_id
 _symmetry_equiv_pos_as_xyz
  1  'x, y, z'
loop_
 _atom_site_type_symbol
 _atom_site_label
 _atom_site_symmetry_multiplicity
 _atom_site_fract_x
 _atom_site_fract_y
 _atom_site_fract_z
 _atom_site_occupancy
  Cu  Cu0  1  0.50001000  0.00327000  0.25000000  1.0
  Cu  Cu1  1  0.49999000  0.99673000  0.75001000  1.0
  H  H2  1  0.76073000  0.04714000  0.02146000  1.0
  H  H3  1  0.23929000  0.04713000  0.47853000  1.0
  H  H4  1  0.23929000  0.95286000  0.97855000  1.0
  H  H5  1  0.76071000  0.95286000  0.52146000  1.0
  H  H6  1  0.94386000  0.21467000  0.92658000  1.0
  H  H7  1  0.05614000  0.21467000  0.57341000  1.0
  H  H8  1  0.05615000  0.78533000  0.07342000  1.0
  H  H9  1  0.94385000  0.78533000  0.42659000  1.0
  H  H10  1  0.86860000  0.40373000  0.00986000  1.0
  H  H11  1  0.13140000  0.40373000  0.49014000  1.0
  H  H12  1  0.13140000  0.59627000  0.99014000  1.0
  H  H13  1  0.86860000  0.59627000  0.50986000  1.0
  H  H14  1  0.65060000  0.70524000  0.16577000  1.0
  H  H15  1  0.34940000  0.70524000  0.33422000  1.0
  H  H16  1  0.34942000  0.29476000  0.83423000  1.0
  H  H17  1  0.65061000  0.29477000  0.66577000  1.0
  C  C18  1  0.73639000  0.12896000  0.05678000  1.0
  C  C19  1  0.26363000  0.12895000  0.44321000  1.0
  C  C20  1  0.26361000  0.87104000  0.94322000  1.0
  C  C21  1  0.73637000  0.87105000  0.55679000  1.0
  C  C22  1  0.83906000  0.22430000  0.00381000  1.0
  C  C23  1  0.16096000  0.22430000  0.49618000  1.0
  C  C24  1  0.16094000  0.77570000  0.99619000  1.0
  C  C25  1  0.83904000  0.77570000  0.50382000  1.0
  C  C26  1  0.79571000  0.32763000  0.04938000  1.0
  C  C27  1  0.20431000  0.32763000  0.45061000  1.0
  C  C28  1  0.20429000  0.67237000  0.95062000  1.0
  C  C29  1  0.79568000  0.67238000  0.54939000  1.0
  C  C30  1  0.56672000  0.23220000  0.19800000  1.0
  C  C31  1  0.43331000  0.23220000  0.30199000  1.0
  C  C32  1  0.43328000  0.76780000  0.80200000  1.0
  C  C33  1  0.56668000  0.76780000  0.69801000  1.0
  C  C34  1  0.65131000  0.33290000  0.14849000  1.0
  C  C35  1  0.34873000  0.33290000  0.35151000  1.0
  C  C36  1  0.34869000  0.66711000  0.85151000  1.0
  C  C37  1  0.65127000  0.66710000  0.64850000  1.0
  C  C38  1  0.57941000  0.43708000  0.20078000  1.0
  C  C39  1  0.42061000  0.43708000  0.29921000  1.0
  C  C40  1  0.42059000  0.56292000  0.79922000  1.0
  C  C41  1  0.57938000  0.56292000  0.70079000  1.0
  C  C42  1  0.58276000  0.62656000  0.20196000  1.0
  C  C43  1  0.41724000  0.62655000  0.29804000  1.0
  C  C44  1  0.41724000  0.37344000  0.79803000  1.0
  C  C45  1  0.58275000  0.37344000  0.70196000  1.0
  N  N46  1  0.60278000  0.13145000  0.15167000  1.0
  N  N47  1  0.39725000  0.13145000  0.34833000  1.0
  N  N48  1  0.39723000  0.86855000  0.84833000  1.0
  N  N49  1  0.60274000  0.86855000  0.65168000  1.0
  N  N50  1  0.66206000  0.53321000  0.15308000  1.0
  N  N51  1  0.33796000  0.53321000  0.34692000  1.0
  N  N52  1  0.33794000  0.46679000  0.84692000  1.0
  N  N53  1  0.66204000  0.46679000  0.65308000  1.0
  Cl  Cl54  1  0.00001000  0.89092000  0.25000000  1.0
  Cl  Cl55  1  0.99998000  0.10909000  0.75000000  1.0
