# generated using pymatgen
data_Sm2CuH26C22(NO11)2
_symmetry_space_group_name_H-M   'P 1'
_cell_length_a   6.09664000
_cell_length_b   8.98919000
_cell_length_c   13.55310000
_cell_angle_alpha   85.05050000
_cell_angle_beta   86.00180000
_cell_angle_gamma   87.49650000
_symmetry_Int_Tables_number   1
_chemical_formula_structural   Sm2CuH26C22(NO11)2
_chemical_formula_sum   'Sm2 Cu1 H26 C22 N2 O22'
_cell_volume   737.66120000
_cell_formula_units_Z   1
loop_
 _symmetry_equiv_pos_site_id
 _symmetry_equiv_pos_as_xyz
  1  'x, y, z'
loop_
 _atom_site_type_symbol
 _atom_site_label
 _atom_site_symmetry_multiplicity
 _atom_site_fract_x
 _atom_site_fract_y
 _atom_site_fract_z
 _atom_site_occupancy
  Sm  Sm0  1  0.39057000  0.65369000  0.10774000  1.0
  Sm  Sm1  1  0.60942000  0.34631000  0.89226000  1.0
  Cu  Cu2  1  0.00001000  0.99999000  0.50000000  1.0
  H  H3  1  0.05107000  0.77164000  0.25412000  1.0
  H  H4  1  0.94893000  0.22837000  0.74589000  1.0
  H  H5  1  0.90476000  0.79732000  0.15583000  1.0
  H  H6  1  0.09524000  0.20269000  0.84417000  1.0
  H  H7  1  0.84669000  0.57740000  0.18268000  1.0
  H  H8  1  0.15330000  0.42261000  0.81732000  1.0
  H  H9  1  0.80792000  0.46382000  0.10389000  1.0
  H  H10  1  0.19207000  0.53620000  0.89610000  1.0
  H  H11  1  0.60068000  0.91008000  0.18921000  1.0
  H  H12  1  0.39930000  0.08993000  0.81080000  1.0
  H  H13  1  0.66420000  0.96016000  0.07625000  1.0
  H  H14  1  0.33578000  0.03986000  0.92375000  1.0
  H  H15  1  0.28710000  0.58948000  0.52962000  1.0
  H  H16  1  0.71291000  0.41050000  0.47038000  1.0
  H  H17  1  0.53240000  0.58108000  0.67117000  1.0
  H  H18  1  0.46760000  0.41891000  0.32883000  1.0
  H  H19  1  0.85188000  0.75065000  0.65683000  1.0
  H  H20  1  0.14813000  0.24933000  0.34317000  1.0
  H  H21  1  0.10722000  0.78633000  0.79197000  1.0
  H  H22  1  0.89278000  0.21369000  0.20803000  1.0
  H  H23  1  0.05771000  0.96524000  0.83379000  1.0
  H  H24  1  0.94227000  0.03478000  0.16622000  1.0
  H  H25  1  0.70121000  0.88322000  0.92303000  1.0
  H  H26  1  0.29877000  0.11679000  0.07697000  1.0
  H  H27  1  0.71047000  0.87238000  0.79351000  1.0
  H  H28  1  0.28952000  0.12763000  0.20648000  1.0
  C  C29  1  0.64131000  0.85742000  0.44290000  1.0
  C  C30  1  0.35871000  0.14256000  0.55710000  1.0
  C  C31  1  0.47133000  0.75878000  0.44119000  1.0
  C  C32  1  0.52868000  0.24120000  0.55881000  1.0
  C  C33  1  0.42681000  0.66177000  0.52616000  1.0
  C  C34  1  0.57321000  0.33821000  0.47384000  1.0
  C  C35  1  0.56130000  0.65737000  0.60519000  1.0
  C  C36  1  0.43870000  0.34262000  0.39481000  1.0
  C  C37  1  0.73734000  0.75251000  0.59863000  1.0
  C  C38  1  0.26267000  0.24747000  0.40137000  1.0
  C  C39  1  0.68791000  0.98347000  0.36465000  1.0
  C  C40  1  0.31211000  0.01652000  0.63535000  1.0
  C  C41  1  0.33807000  0.75245000  0.35208000  1.0
  C  C42  1  0.66194000  0.24753000  0.64792000  1.0
  C  C43  1  0.14181000  0.79292000  0.94560000  1.0
  C  C44  1  0.85818000  0.20709000  0.05441000  1.0
  C  C45  1  0.02898000  0.84704000  0.85306000  1.0
  C  C46  1  0.97100000  0.15297000  0.14694000  1.0
  C  C47  1  0.78080000  0.82379000  0.86225000  1.0
  C  C48  1  0.21918000  0.17622000  0.13775000  1.0
  C  C49  1  0.72177000  0.66205000  0.87590000  1.0
  C  C50  1  0.27822000  0.33795000  0.12410000  1.0
  N  N51  1  0.77021000  0.85225000  0.52035000  1.0
  N  N52  1  0.22980000  0.14773000  0.47965000  1.0
  O  O53  1  0.03359000  0.74243000  0.18419000  1.0
  O  O54  1  0.96641000  0.25758000  0.81581000  1.0
  O  O55  1  0.83942000  0.07091000  0.38253000  1.0
  O  O56  1  0.16061000  0.92907000  0.61747000  1.0
  O  O57  1  0.73059000  0.52338000  0.15533000  1.0
  O  O58  1  0.26940000  0.47663000  0.84466000  1.0
  O  O59  1  0.57608000  0.00144000  0.28997000  1.0
  O  O60  1  0.42392000  0.99855000  0.71003000  1.0
  O  O61  1  0.63635000  0.86877000  0.12317000  1.0
  O  O62  1  0.36363000  0.13124000  0.87683000  1.0
  O  O63  1  0.14005000  0.80007000  0.35887000  1.0
  O  O64  1  0.85996000  0.19992000  0.64113000  1.0
  O  O65  1  0.43509000  0.69052000  0.27899000  1.0
  O  O66  1  0.56492000  0.30948000  0.72101000  1.0
  O  O67  1  0.26814000  0.87622000  0.98651000  1.0
  O  O68  1  0.73184000  0.12380000  0.01349000  1.0
  O  O69  1  0.11349000  0.65838000  0.98261000  1.0
  O  O70  1  0.88651000  0.34162000  0.01739000  1.0
  O  O71  1  0.59549000  0.61501000  0.95109000  1.0
  O  O72  1  0.40449000  0.38500000  0.04891000  1.0
  O  O73  1  0.79010000  0.57193000  0.81234000  1.0
  O  O74  1  0.20990000  0.42808000  0.18766000  1.0
