# generated using pymatgen
data_Zr3H38(C9O4)4
_symmetry_space_group_name_H-M   'P 1'
_cell_length_a   15.05560000
_cell_length_b   15.05557276
_cell_length_c   15.05555449
_cell_angle_alpha   119.99995986
_cell_angle_beta   119.99990000
_cell_angle_gamma   90.00045009
_symmetry_Int_Tables_number   1
_chemical_formula_structural   Zr3H38(C9O4)4
_chemical_formula_sum   'Zr6 H76 C72 O32'
_cell_volume   2413.10556390
_cell_formula_units_Z   2
loop_
 _symmetry_equiv_pos_site_id
 _symmetry_equiv_pos_as_xyz
  1  'x, y, z'
loop_
 _atom_site_type_symbol
 _atom_site_label
 _atom_site_symmetry_multiplicity
 _atom_site_fract_x
 _atom_site_fract_y
 _atom_site_fract_z
 _atom_site_occupancy
  Zr  Zr0  1  0.61703000  0.11703000  0.50000000  1.0
  Zr  Zr1  1  0.38294000  0.88294000  0.50000000  1.0
  Zr  Zr2  1  0.38294000  0.88294000  0.26589000  1.0
  Zr  Zr3  1  0.61706000  0.11706000  0.73412000  1.0
  Zr  Zr4  1  0.61703000  0.88297000  0.50000000  1.0
  Zr  Zr5  1  0.38298000  0.11702000  0.50000000  1.0
  H  H6  1  0.59231000  0.90770000  0.31541000  1.0
  H  H7  1  0.59230000  0.90768000  0.68459000  1.0
  H  H8  1  0.22308000  0.90771000  0.31540000  1.0
  H  H9  1  0.59229000  0.27690000  0.68459000  1.0
  H  H10  1  0.02453000  0.74939000  0.41759000  1.0
  H  H11  1  0.16039000  0.82887000  0.50041000  1.0
  H  H12  1  0.10689000  0.83040000  0.58208000  1.0
  H  H13  1  0.89305000  0.16820000  0.41759000  1.0
  H  H14  1  0.84001000  0.17153000  0.50040000  1.0
  H  H15  1  0.97519000  0.25168000  0.58208000  1.0
  H  H16  1  0.97477000  0.83069000  0.58231000  1.0
  H  H17  1  0.83949000  0.82841000  0.49941000  1.0
  H  H18  1  0.89361000  0.74934000  0.41780000  1.0
  H  H19  1  0.10753000  0.25161000  0.58230000  1.0
  H  H20  1  0.15992000  0.17099000  0.49940000  1.0
  H  H21  1  0.02419000  0.16846000  0.41781000  1.0
  H  H22  1  0.33179000  0.60694000  0.58240000  1.0
  H  H23  1  0.32846000  0.65997000  0.49958000  1.0
  H  H24  1  0.24832000  0.52481000  0.41792000  1.0
  H  H25  1  0.75061000  0.47546000  0.58241000  1.0
  H  H26  1  0.67113000  0.33961000  0.49959000  1.0
  H  H27  1  0.66959000  0.39310000  0.41791000  1.0
  H  H28  1  0.24838000  0.39246000  0.41769000  1.0
  H  H29  1  0.32899000  0.34007000  0.50058000  1.0
  H  H30  1  0.33154000  0.47581000  0.58219000  1.0
  H  H31  1  0.66931000  0.52523000  0.41770000  1.0
  H  H32  1  0.67159000  0.66051000  0.50059000  1.0
  H  H33  1  0.75065000  0.60638000  0.58219000  1.0
  H  H34  1  0.02454000  0.16820000  0.27515000  1.0
  H  H35  1  0.16040000  0.17153000  0.33152000  1.0
  H  H36  1  0.10689000  0.25167000  0.27649000  1.0
  H  H37  1  0.89305000  0.74939000  0.72485000  1.0
  H  H38  1  0.84002000  0.82888000  0.66849000  1.0
  H  H39  1  0.97519000  0.83040000  0.72351000  1.0
  H  H40  1  0.97478000  0.25162000  0.14409000  1.0
  H  H41  1  0.83949000  0.17100000  0.01108000  1.0
  H  H42  1  0.89361000  0.16846000  0.14427000  1.0
  H  H43  1  0.10754000  0.83069000  0.85592000  1.0
  H  H44  1  0.15992000  0.82841000  0.98891000  1.0
  H  H45  1  0.02418000  0.74934000  0.85572000  1.0
  H  H46  1  0.75061000  0.60695000  0.27515000  1.0
  H  H47  1  0.67112000  0.65998000  0.33151000  1.0
  H  H48  1  0.66960000  0.52481000  0.27649000  1.0
  H  H49  1  0.33180000  0.47546000  0.72485000  1.0
  H  H50  1  0.32847000  0.33960000  0.66848000  1.0
  H  H51  1  0.24832000  0.39310000  0.72350000  1.0
  H  H52  1  0.66931000  0.39247000  0.14409000  1.0
  H  H53  1  0.67159000  0.34008000  0.01109000  1.0
  H  H54  1  0.75065000  0.47581000  0.14427000  1.0
  H  H55  1  0.24838000  0.52522000  0.85591000  1.0
  H  H56  1  0.32899000  0.66050000  0.98891000  1.0
  H  H57  1  0.33154000  0.60638000  0.85572000  1.0
  H  H58  1  0.75061000  0.16820000  0.14366000  1.0
  H  H59  1  0.67112000  0.17153000  0.01114000  1.0
  H  H60  1  0.66960000  0.25168000  0.14479000  1.0
  H  H61  1  0.33180000  0.74939000  0.85633000  1.0
  H  H62  1  0.32847000  0.82887000  0.98885000  1.0
  H  H63  1  0.24832000  0.83040000  0.85521000  1.0
  H  H64  1  0.66931000  0.25161000  0.27684000  1.0
  H  H65  1  0.67159000  0.17100000  0.33151000  1.0
  H  H66  1  0.75066000  0.16846000  0.27484000  1.0
  H  H67  1  0.24839000  0.83069000  0.72316000  1.0
  H  H68  1  0.32900000  0.82841000  0.66849000  1.0
  H  H69  1  0.33153000  0.74934000  0.72515000  1.0
  H  H70  1  0.02454000  0.60695000  0.85634000  1.0
  H  H71  1  0.16039000  0.65998000  0.98885000  1.0
  H  H72  1  0.10689000  0.52481000  0.85521000  1.0
  H  H73  1  0.89305000  0.47546000  0.14366000  1.0
  H  H74  1  0.84002000  0.33961000  0.01115000  1.0
  H  H75  1  0.97519000  0.39311000  0.14479000  1.0
  H  H76  1  0.97477000  0.39247000  0.72316000  1.0
  H  H77  1  0.83949000  0.34008000  0.66849000  1.0
  H  H78  1  0.89361000  0.47581000  0.72515000  1.0
  H  H79  1  0.10753000  0.52523000  0.27685000  1.0
  H  H80  1  0.15992000  0.66051000  0.33151000  1.0
  H  H81  1  0.02418000  0.60638000  0.27484000  1.0
  C  C82  1  0.80445000  0.00250000  0.50497000  1.0
  C  C83  1  0.49750000  0.69554000  0.49503000  1.0
  C  C84  1  0.20051000  0.00246000  0.50497000  1.0
  C  C85  1  0.49753000  0.29948000  0.49503000  1.0
  C  C86  1  0.49750000  0.00246000  0.19799000  1.0
  C  C87  1  0.80446000  0.29950000  0.80200000  1.0
  C  C88  1  0.49753000  0.00250000  0.80201000  1.0
  C  C89  1  0.20049000  0.69552000  0.19799000  1.0
  C  C90  1  0.49753000  0.69553000  0.19803000  1.0
  C  C91  1  0.20050000  0.00250000  0.19804000  1.0
  C  C92  1  0.49750000  0.29950000  0.80196000  1.0
  C  C93  1  0.80446000  0.00246000  0.80196000  1.0
  C  C94  1  0.09772000  0.00145000  0.50292000  1.0
  C  C95  1  0.90520000  0.00147000  0.50292000  1.0
  C  C96  1  0.04812000  0.91986000  0.50176000  1.0
  C  C97  1  0.95364000  0.08190000  0.50176000  1.0
  C  C98  1  0.95358000  0.91984000  0.50171000  1.0
  C  C99  1  0.04812000  0.08187000  0.50171000  1.0
  C  C100  1  0.49853000  0.59480000  0.49708000  1.0
  C  C101  1  0.49855000  0.40228000  0.49708000  1.0
  C  C102  1  0.41810000  0.54636000  0.49824000  1.0
  C  C103  1  0.58013000  0.45187000  0.49823000  1.0
  C  C104  1  0.41812000  0.45187000  0.49828000  1.0
  C  C105  1  0.58017000  0.54641000  0.49829000  1.0
  C  C106  1  0.09771000  0.00146000  0.09626000  1.0
  C  C107  1  0.90520000  0.00145000  0.90373000  1.0
  C  C108  1  0.04813000  0.08190000  0.12827000  1.0
  C  C109  1  0.95362000  0.91985000  0.87172000  1.0
  C  C110  1  0.95359000  0.08187000  0.03375000  1.0
  C  C111  1  0.04812000  0.91984000  0.96625000  1.0
  C  C112  1  0.49855000  0.59480000  0.09626000  1.0
  C  C113  1  0.49853000  0.40228000  0.90373000  1.0
  C  C114  1  0.58014000  0.54636000  0.12826000  1.0
  C  C115  1  0.41810000  0.45187000  0.87173000  1.0
  C  C116  1  0.58016000  0.45188000  0.03375000  1.0
  C  C117  1  0.41813000  0.54641000  0.96625000  1.0
  C  C118  1  0.49855000  0.00147000  0.90376000  1.0
  C  C119  1  0.49853000  0.00145000  0.09624000  1.0
  C  C120  1  0.58014000  0.08190000  0.03378000  1.0
  C  C121  1  0.41809000  0.91985000  0.96621000  1.0
  C  C122  1  0.58016000  0.08187000  0.12828000  1.0
  C  C123  1  0.41812000  0.91983000  0.87171000  1.0
  C  C124  1  0.09771000  0.59479000  0.09624000  1.0
  C  C125  1  0.90521000  0.40229000  0.90376000  1.0
  C  C126  1  0.04812000  0.54636000  0.96622000  1.0
  C  C127  1  0.95363000  0.45188000  0.03378000  1.0
  C  C128  1  0.95359000  0.45188000  0.87172000  1.0
  C  C129  1  0.04812000  0.54641000  0.12829000  1.0
  C  C130  1  0.08863000  0.82797000  0.50038000  1.0
  C  C131  1  0.91174000  0.17240000  0.50037000  1.0
  C  C132  1  0.91160000  0.82788000  0.50017000  1.0
  C  C133  1  0.08856000  0.17228000  0.50016000  1.0
  C  C134  1  0.32759000  0.58825000  0.49962000  1.0
  C  C135  1  0.67203000  0.41137000  0.49963000  1.0
  C  C136  1  0.32771000  0.41143000  0.49983000  1.0
  C  C137  1  0.67212000  0.58840000  0.49984000  1.0
  C  C138  1  0.08863000  0.17240000  0.26066000  1.0
  C  C139  1  0.91173000  0.82797000  0.73933000  1.0
  C  C140  1  0.91161000  0.17229000  0.08373000  1.0
  C  C141  1  0.08856000  0.82788000  0.91627000  1.0
  C  C142  1  0.67202000  0.58826000  0.26066000  1.0
  C  C143  1  0.32759000  0.41136000  0.73933000  1.0
  C  C144  1  0.67213000  0.41145000  0.08374000  1.0
  C  C145  1  0.32771000  0.58839000  0.91627000  1.0
  C  C146  1  0.67203000  0.17240000  0.08377000  1.0
  C  C147  1  0.32759000  0.82797000  0.91622000  1.0
  C  C148  1  0.67212000  0.17228000  0.26068000  1.0
  C  C149  1  0.32772000  0.82788000  0.73932000  1.0
  C  C150  1  0.08863000  0.58826000  0.91623000  1.0
  C  C151  1  0.91175000  0.41137000  0.08378000  1.0
  C  C152  1  0.91160000  0.41144000  0.73932000  1.0
  C  C153  1  0.08857000  0.58840000  0.26069000  1.0
  O  O154  1  0.76211000  0.07628000  0.50492000  1.0
  O  O155  1  0.42373000  0.73788000  0.49508000  1.0
  O  O156  1  0.24280000  0.92864000  0.50491000  1.0
  O  O157  1  0.57135000  0.25718000  0.49507000  1.0
  O  O158  1  0.42372000  0.92864000  0.16651000  1.0
  O  O159  1  0.76214000  0.25721000  0.83349000  1.0
  O  O160  1  0.57135000  0.07628000  0.83349000  1.0
  O  O161  1  0.24280000  0.73786000  0.16651000  1.0
  O  O162  1  0.57134000  0.73788000  0.31415000  1.0
  O  O163  1  0.24282000  0.07627000  0.31417000  1.0
  O  O164  1  0.42373000  0.25719000  0.68584000  1.0
  O  O165  1  0.76211000  0.92865000  0.68584000  1.0
  O  O166  1  0.24313000  0.92901000  0.16659000  1.0
  O  O167  1  0.57099000  0.25687000  0.83341000  1.0
  O  O168  1  0.76242000  0.07654000  0.83341000  1.0
  O  O169  1  0.42345000  0.73757000  0.16658000  1.0
  O  O170  1  0.57098000  0.07654000  0.31411000  1.0
  O  O171  1  0.24312000  0.73756000  0.31410000  1.0
  O  O172  1  0.42346000  0.92902000  0.68590000  1.0
  O  O173  1  0.76243000  0.25687000  0.68589000  1.0
  O  O174  1  0.42347000  0.25685000  0.49444000  1.0
  O  O175  1  0.76241000  0.92903000  0.50556000  1.0
  O  O176  1  0.57098000  0.73758000  0.49444000  1.0
  O  O177  1  0.24314000  0.07654000  0.50556000  1.0
  O  O178  1  0.56602000  0.19802000  0.63203000  1.0
  O  O179  1  0.30197000  0.93397000  0.36797000  1.0
  O  O180  1  0.56600000  0.93400000  0.63203000  1.0
  O  O181  1  0.56598000  0.93398000  0.36796000  1.0
  O  O182  1  0.45146000  0.85441000  0.40294000  1.0
  O  O183  1  0.64558000  0.04853000  0.59706000  1.0
  O  O184  1  0.45148000  0.04852000  0.59707000  1.0
  O  O185  1  0.45146000  0.04852000  0.40292000  1.0
