# generated using pymatgen
data_LiH7C8Cl2O5
_symmetry_space_group_name_H-M   'P 1'
_cell_length_a   4.91835000
_cell_length_b   13.64360000
_cell_length_c   14.76590000
_cell_angle_alpha   89.99970000
_cell_angle_beta   90.00000000
_cell_angle_gamma   90.00000000
_symmetry_Int_Tables_number   1
_chemical_formula_structural   LiH7C8Cl2O5
_chemical_formula_sum   'Li4 H28 C32 Cl8 O20'
_cell_volume   990.85095447
_cell_formula_units_Z   4
loop_
 _symmetry_equiv_pos_site_id
 _symmetry_equiv_pos_as_xyz
  1  'x, y, z'
loop_
 _atom_site_type_symbol
 _atom_site_label
 _atom_site_symmetry_multiplicity
 _atom_site_fract_x
 _atom_site_fract_y
 _atom_site_fract_z
 _atom_site_occupancy
  Li  Li0  1  0.25496000  0.56435000  0.65942000  1.0
  Li  Li1  1  0.74504000  0.43564000  0.15942000  1.0
  Li  Li2  1  0.75496000  0.93564000  0.15942000  1.0
  Li  Li3  1  0.24504000  0.06435000  0.65942000  1.0
  H  H4  1  0.18894000  0.77813000  0.71013000  1.0
  H  H5  1  0.81106000  0.22187000  0.21013000  1.0
  H  H6  1  0.68894000  0.72187000  0.21012000  1.0
  H  H7  1  0.31106000  0.27813000  0.71013000  1.0
  H  H8  1  0.15702000  0.77714000  0.59015000  1.0
  H  H9  1  0.84298000  0.22286000  0.09015000  1.0
  H  H10  1  0.65702000  0.72286000  0.09015000  1.0
  H  H11  1  0.34298000  0.27715000  0.59015000  1.0
  H  H12  1  0.69566000  0.82899000  0.72414000  1.0
  H  H13  1  0.30434000  0.17101000  0.22414000  1.0
  H  H14  1  0.19566000  0.67101000  0.22414000  1.0
  H  H15  1  0.80434000  0.32899000  0.72414000  1.0
  H  H16  1  0.88199000  0.91404000  0.65859000  1.0
  H  H17  1  0.11801000  0.08597000  0.15859000  1.0
  H  H18  1  0.38199000  0.58597000  0.15859000  1.0
  H  H19  1  0.61801000  0.41403000  0.65859000  1.0
  H  H20  1  0.66568000  0.82974000  0.60355000  1.0
  H  H21  1  0.33432000  0.17026000  0.10355000  1.0
  H  H22  1  0.16568000  0.67026000  0.10355000  1.0
  H  H23  1  0.83432000  0.32974000  0.60355000  1.0
  H  H24  1  0.26245000  0.36200000  0.08368000  1.0
  H  H25  1  0.73755000  0.63800000  0.58367000  1.0
  H  H26  1  0.76245000  0.13800000  0.58367000  1.0
  H  H27  1  0.23755000  0.86200000  0.08368000  1.0
  H  H28  1  0.82696000  0.65478000  0.70693000  1.0
  H  H29  1  0.17304000  0.34522000  0.20694000  1.0
  H  H30  1  0.32696000  0.84522000  0.20694000  1.0
  H  H31  1  0.67305000  0.15478000  0.70693000  1.0
  C  C32  1  0.28436000  0.42475000  0.91307000  1.0
  C  C33  1  0.71565000  0.57525000  0.41307000  1.0
  C  C34  1  0.78435000  0.07525000  0.41307000  1.0
  C  C35  1  0.21564000  0.92475000  0.91307000  1.0
  C  C36  1  0.53414000  0.56398000  0.82956000  1.0
  C  C37  1  0.46586000  0.43602000  0.32956000  1.0
  C  C38  1  0.03414000  0.93602000  0.32956000  1.0
  C  C39  1  0.96586000  0.06398000  0.82956000  1.0
  C  C40  1  0.04505000  0.76822000  0.65389000  1.0
  C  C41  1  0.95495000  0.23178000  0.15389000  1.0
  C  C42  1  0.54505000  0.73178000  0.15389000  1.0
  C  C43  1  0.45495000  0.26822000  0.65389000  1.0
  C  C44  1  0.45046000  0.44135000  0.98566000  1.0
  C  C45  1  0.54956000  0.55865000  0.48566000  1.0
  C  C46  1  0.95044000  0.05865000  0.48566000  1.0
  C  C47  1  0.04955000  0.94135000  0.98566000  1.0
  C  C48  1  0.80765000  0.83828000  0.66040000  1.0
  C  C49  1  0.19235000  0.16172000  0.16040000  1.0
  C  C50  1  0.30764000  0.66172000  0.16040000  1.0
  C  C51  1  0.69235000  0.33828000  0.66040000  1.0
  C  C52  1  0.67175000  0.51881000  0.98414000  1.0
  C  C53  1  0.32825000  0.48119000  0.48414000  1.0
  C  C54  1  0.17175000  0.98119000  0.48414000  1.0
  C  C55  1  0.82825000  0.01881000  0.98414000  1.0
  C  C56  1  0.31380000  0.48376000  0.83264000  1.0
  C  C57  1  0.68620000  0.51623000  0.33264000  1.0
  C  C58  1  0.81380000  0.01623000  0.33264000  1.0
  C  C59  1  0.18620000  0.98376000  0.83264000  1.0
  C  C60  1  0.69871000  0.57764000  0.90548000  1.0
  C  C61  1  0.30130000  0.42236000  0.40548000  1.0
  C  C62  1  0.19870000  0.92236000  0.40548000  1.0
  C  C63  1  0.80130000  0.07764000  0.90548000  1.0
  Cl  Cl64  1  0.94773000  0.66692000  0.90419000  1.0
  Cl  Cl65  1  0.05226000  0.33307000  0.40419000  1.0
  Cl  Cl66  1  0.44774000  0.83307000  0.40419000  1.0
  Cl  Cl67  1  0.55226000  0.16693000  0.90419000  1.0
  Cl  Cl68  1  0.04219000  0.33358000  0.91419000  1.0
  Cl  Cl69  1  0.95782000  0.66642000  0.41419000  1.0
  Cl  Cl70  1  0.54218000  0.16642000  0.41419000  1.0
  Cl  Cl71  1  0.45781000  0.83358000  0.91419000  1.0
  O  O72  1  0.17168000  0.47272000  0.76383000  1.0
  O  O73  1  0.82832000  0.52728000  0.26383000  1.0
  O  O74  1  0.67167000  0.02728000  0.26383000  1.0
  O  O75  1  0.32832000  0.97272000  0.76383000  1.0
  O  O76  1  0.44485000  0.39395000  0.06369000  1.0
  O  O77  1  0.55516000  0.60605000  0.56368000  1.0
  O  O78  1  0.94484000  0.10606000  0.56368000  1.0
  O  O79  1  0.05516000  0.89394000  0.06369000  1.0
  O  O80  1  0.81594000  0.52590000  0.05403000  1.0
  O  O81  1  0.18405000  0.47411000  0.55403000  1.0
  O  O82  1  0.31595000  0.97411000  0.55403000  1.0
  O  O83  1  0.68406000  0.02590000  0.05403000  1.0
  O  O84  1  0.54647000  0.61097000  0.75534000  1.0
  O  O85  1  0.45352000  0.38902000  0.25534000  1.0
  O  O86  1  0.04647000  0.88903000  0.25534000  1.0
  O  O87  1  0.95353000  0.11097000  0.75534000  1.0
  O  O88  1  0.95577000  0.66579000  0.65455000  1.0
  O  O89  1  0.04423000  0.33421000  0.15456000  1.0
  O  O90  1  0.45577000  0.83421000  0.15456000  1.0
  O  O91  1  0.54423000  0.16579000  0.65455000  1.0
