# generated using pymatgen
data_Co2Cu3H96(C7N2)12
_symmetry_space_group_name_H-M   'P 1'
_cell_length_a   9.17837000
_cell_length_b   15.84340000
_cell_length_c   17.32980000
_cell_angle_alpha   112.62200000
_cell_angle_beta   95.28900000
_cell_angle_gamma   101.28100000
_symmetry_Int_Tables_number   1
_chemical_formula_structural   Co2Cu3H96(C7N2)12
_chemical_formula_sum   'Co2 Cu3 H96 C84 N24'
_cell_volume   2241.85567879
_cell_formula_units_Z   1
loop_
 _symmetry_equiv_pos_site_id
 _symmetry_equiv_pos_as_xyz
  1  'x, y, z'
loop_
 _atom_site_type_symbol
 _atom_site_label
 _atom_site_symmetry_multiplicity
 _atom_site_fract_x
 _atom_site_fract_y
 _atom_site_fract_z
 _atom_site_occupancy
  Co  Co0  1  0.55417000  0.17269000  0.31503000  1.0
  Co  Co1  1  0.44582000  0.82731000  0.68497000  1.0
  Cu  Cu2  1  0.50000000  0.00000000  0.50000000  1.0
  Cu  Cu3  1  0.50000000  0.00000000  0.00001000  1.0
  Cu  Cu4  1  0.50000000  0.50000000  0.50000000  1.0
  H  H5  1  0.33963000  0.85638000  0.50990000  1.0
  H  H6  1  0.66037000  0.14362000  0.49010000  1.0
  H  H7  1  0.27483000  0.87148000  0.91723000  1.0
  H  H8  1  0.72518000  0.12853000  0.08278000  1.0
  H  H9  1  0.40560000  0.57121000  0.64127000  1.0
  H  H10  1  0.59439000  0.42879000  0.35873000  1.0
  H  H11  1  0.09339000  0.85451000  0.45458000  1.0
  H  H12  1  0.90661000  0.14550000  0.54542000  1.0
  H  H13  1  0.17798000  0.93149000  0.40745000  1.0
  H  H14  1  0.82202000  0.06851000  0.59255000  1.0
  H  H15  1  0.10661000  0.02504000  0.54403000  1.0
  H  H16  1  0.89339000  0.97496000  0.45597000  1.0
  H  H17  1  0.20960000  0.97246000  0.59706000  1.0
  H  H18  1  0.79041000  0.02754000  0.40294000  1.0
  H  H19  1  0.15331000  0.14893000  0.65051000  1.0
  H  H20  1  0.84669000  0.85107000  0.34949000  1.0
  H  H21  1  0.18834000  0.22596000  0.59826000  1.0
  H  H22  1  0.81167000  0.77404000  0.40174000  1.0
  H  H23  1  0.29191000  0.25892000  0.70071000  1.0
  H  H24  1  0.70809000  0.74108000  0.29929000  1.0
  H  H25  1  0.51696000  0.28871000  0.66563000  1.0
  H  H26  1  0.48304000  0.71129000  0.33436000  1.0
  H  H27  1  0.50022000  0.24307000  0.55498000  1.0
  H  H28  1  0.49978000  0.75692000  0.44502000  1.0
  H  H29  1  0.34544000  0.83975000  0.33561000  1.0
  H  H30  1  0.65455000  0.16025000  0.66440000  1.0
  H  H31  1  0.12262000  0.74457000  0.24134000  1.0
  H  H32  1  0.87738000  0.25543000  0.75867000  1.0
  H  H33  1  0.91342000  0.59732000  0.18291000  1.0
  H  H34  1  0.08658000  0.40268000  0.81709000  1.0
  H  H35  1  0.88958000  0.48765000  0.25534000  1.0
  H  H36  1  0.11043000  0.51234000  0.74466000  1.0
  H  H37  1  0.06353000  0.53140000  0.39076000  1.0
  H  H38  1  0.93647000  0.46860000  0.60924000  1.0
  H  H39  1  0.26643000  0.67824000  0.45059000  1.0
  H  H40  1  0.73357000  0.32176000  0.54941000  1.0
  H  H41  1  0.26767000  0.95822000  0.10121000  1.0
  H  H42  1  0.73232000  0.04179000  0.89879000  1.0
  H  H43  1  0.10422000  0.88964000  0.02070000  1.0
  H  H44  1  0.89578000  0.11036000  0.97931000  1.0
  H  H45  1  0.14312000  0.00725000  0.95740000  1.0
  H  H46  1  0.85688000  0.99275000  0.04260000  1.0
  H  H47  1  0.14306000  0.06589000  0.06933000  1.0
  H  H48  1  0.85694000  0.93411000  0.93067000  1.0
  H  H49  1  0.20280000  0.21184000  0.11706000  1.0
  H  H50  1  0.79720000  0.78816000  0.88293000  1.0
  H  H51  1  0.17210000  0.19612000  0.00875000  1.0
  H  H52  1  0.82790000  0.80388000  0.99124000  1.0
  H  H53  1  0.30321000  0.29911000  0.08658000  1.0
  H  H54  1  0.69679000  0.70089000  0.91340000  1.0
  H  H55  1  0.59270000  0.25540000  0.13014000  1.0
  H  H56  1  0.40730000  0.74460000  0.86987000  1.0
  H  H57  1  0.52832000  0.29483000  0.05526000  1.0
  H  H58  1  0.47169000  0.70518000  0.94475000  1.0
  H  H59  1  0.41871000  0.84576000  0.06247000  1.0
  H  H60  1  0.58129000  0.15424000  0.93753000  1.0
  H  H61  1  0.27911000  0.74653000  0.11269000  1.0
  H  H62  1  0.72089000  0.25347000  0.88731000  1.0
  H  H63  1  0.05689000  0.61820000  0.09627000  1.0
  H  H64  1  0.94311000  0.38180000  0.90373000  1.0
  H  H65  1  0.86592000  0.54091000  0.96181000  1.0
  H  H66  1  0.13409000  0.45909000  0.03819000  1.0
  H  H67  1  0.90417000  0.58742000  0.84262000  1.0
  H  H68  1  0.09584000  0.41259000  0.15738000  1.0
  H  H69  1  0.13004000  0.71076000  0.85618000  1.0
  H  H70  1  0.86997000  0.28925000  0.14382000  1.0
  H  H71  1  0.24734000  0.43086000  0.64112000  1.0
  H  H72  1  0.75266000  0.56913000  0.35888000  1.0
  H  H73  1  0.34480000  0.36388000  0.56424000  1.0
  H  H74  1  0.65521000  0.63612000  0.43576000  1.0
  H  H75  1  0.09932000  0.36998000  0.49377000  1.0
  H  H76  1  0.90068000  0.63001000  0.50623000  1.0
  H  H77  1  0.15762000  0.49581000  0.54170000  1.0
  H  H78  1  0.84237000  0.50419000  0.45830000  1.0
  H  H79  1  0.03277000  0.28583000  0.37644000  1.0
  H  H80  1  0.96724000  0.71416000  0.62356000  1.0
  H  H81  1  0.07489000  0.26511000  0.27395000  1.0
  H  H82  1  0.92511000  0.73489000  0.72605000  1.0
  H  H83  1  0.98421000  0.35583000  0.32446000  1.0
  H  H84  1  0.01579000  0.64417000  0.67554000  1.0
  H  H85  1  0.22341000  0.39461000  0.25123000  1.0
  H  H86  1  0.77658000  0.60539000  0.74877000  1.0
  H  H87  1  0.35292000  0.33731000  0.27554000  1.0
  H  H88  1  0.64707000  0.66269000  0.72446000  1.0
  H  H89  1  0.61067000  0.44850000  0.63320000  1.0
  H  H90  1  0.38933000  0.55150000  0.36680000  1.0
  H  H91  1  0.70253000  0.42084000  0.75248000  1.0
  H  H92  1  0.29747000  0.57916000  0.24752000  1.0
  H  H93  1  0.63571000  0.38653000  0.87451000  1.0
  H  H94  1  0.36429000  0.61346000  0.12549000  1.0
  H  H95  1  0.42320000  0.44106000  0.94225000  1.0
  H  H96  1  0.57680000  0.55895000  0.05775000  1.0
  H  H97  1  0.29102000  0.53958000  0.89260000  1.0
  H  H98  1  0.70898000  0.46042000  0.10740000  1.0
  H  H99  1  0.35703000  0.57267000  0.77006000  1.0
  H  H100  1  0.64297000  0.42733000  0.22994000  1.0
  C  C101  1  0.19052000  0.91150000  0.46134000  1.0
  C  C102  1  0.80948000  0.08850000  0.53866000  1.0
  C  C103  1  0.20556000  0.99595000  0.54495000  1.0
  C  C104  1  0.79445000  0.00405000  0.45506000  1.0
  C  C105  1  0.36331000  0.15453000  0.60027000  1.0
  C  C106  1  0.63669000  0.84547000  0.39973000  1.0
  C  C107  1  0.24190000  0.19826000  0.63984000  1.0
  C  C108  1  0.75810000  0.80174000  0.36016000  1.0
  C  C109  1  0.50885000  0.22341000  0.60963000  1.0
  C  C110  1  0.49115000  0.77659000  0.39036000  1.0
  C  C111  1  0.34369000  0.80680000  0.38117000  1.0
  C  C112  1  0.65631000  0.19320000  0.61882000  1.0
  C  C113  1  0.21054000  0.72055000  0.34873000  1.0
  C  C114  1  0.78946000  0.27945000  0.65127000  1.0
  C  C115  1  0.10904000  0.69749000  0.27401000  1.0
  C  C116  1  0.89096000  0.30251000  0.72599000  1.0
  C  C117  1  0.99248000  0.61471000  0.24092000  1.0
  C  C118  1  0.00752000  0.38529000  0.75908000  1.0
  C  C119  1  0.97720000  0.55372000  0.28185000  1.0
  C  C120  1  0.02281000  0.44627000  0.71814000  1.0
  C  C121  1  0.07556000  0.57797000  0.35775000  1.0
  C  C122  1  0.92444000  0.42203000  0.64225000  1.0
  C  C123  1  0.19050000  0.66114000  0.39157000  1.0
  C  C124  1  0.80949000  0.33886000  0.60843000  1.0
  C  C125  1  0.21655000  0.93814000  0.03474000  1.0
  C  C126  1  0.78345000  0.06187000  0.96526000  1.0
  C  C127  1  0.20408000  0.02618000  0.02205000  1.0
  C  C128  1  0.79592000  0.97383000  0.97795000  1.0
  C  C129  1  0.38132000  0.17184000  0.05169000  1.0
  C  C130  1  0.61868000  0.82816000  0.94831000  1.0
  C  C131  1  0.25818000  0.22316000  0.06689000  1.0
  C  C132  1  0.74182000  0.77684000  0.93310000  1.0
  C  C133  1  0.53797000  0.23047000  0.06296000  1.0
  C  C134  1  0.46203000  0.76954000  0.93704000  1.0
  C  C135  1  0.35787000  0.81403000  0.99613000  1.0
  C  C136  1  0.64213000  0.18598000  0.00387000  1.0
  C  C137  1  0.21915000  0.73781000  0.98623000  1.0
  C  C138  1  0.78084000  0.26220000  0.01378000  1.0
  C  C139  1  0.19690000  0.71094000  0.05316000  1.0
  C  C140  1  0.80310000  0.28907000  0.94685000  1.0
  C  C141  1  0.07123000  0.63975000  0.04432000  1.0
  C  C142  1  0.92878000  0.36025000  0.95569000  1.0
  C  C143  1  0.96482000  0.59599000  0.96886000  1.0
  C  C144  1  0.03519000  0.40401000  0.03114000  1.0
  C  C145  1  0.98624000  0.62261000  0.90189000  1.0
  C  C146  1  0.01377000  0.37740000  0.09812000  1.0
  C  C147  1  0.11305000  0.69247000  0.90997000  1.0
  C  C148  1  0.88695000  0.30753000  0.09003000  1.0
  C  C149  1  0.30515000  0.42863000  0.58790000  1.0
  C  C150  1  0.69485000  0.57136000  0.41210000  1.0
  C  C151  1  0.19806000  0.43087000  0.51680000  1.0
  C  C152  1  0.80194000  0.56912000  0.48320000  1.0
  C  C153  1  0.22297000  0.38868000  0.37019000  1.0
  C  C154  1  0.77704000  0.61132000  0.62980000  1.0
  C  C155  1  0.07115000  0.32042000  0.33545000  1.0
  C  C156  1  0.92885000  0.67957000  0.66455000  1.0
  C  C157  1  0.30815000  0.40019000  0.30324000  1.0
  C  C158  1  0.69185000  0.59981000  0.69676000  1.0
  C  C159  1  0.56797000  0.50887000  0.67120000  1.0
  C  C160  1  0.43203000  0.49113000  0.32880000  1.0
  C  C161  1  0.52951000  0.49521000  0.75008000  1.0
  C  C162  1  0.47049000  0.50479000  0.24992000  1.0
  C  C163  1  0.61069000  0.44587000  0.78243000  1.0
  C  C164  1  0.38931000  0.55413000  0.21757000  1.0
  C  C165  1  0.57344000  0.42681000  0.85142000  1.0
  C  C166  1  0.42656000  0.57319000  0.14858000  1.0
  C  C167  1  0.45545000  0.45807000  0.88997000  1.0
  C  C168  1  0.54456000  0.54193000  0.11003000  1.0
  C  C169  1  0.38003000  0.51193000  0.86127000  1.0
  C  C170  1  0.61998000  0.48807000  0.13873000  1.0
  C  C171  1  0.41681000  0.53041000  0.79186000  1.0
  C  C172  1  0.58318000  0.46960000  0.20814000  1.0
  C  C173  1  0.46304000  0.07803000  0.34784000  1.0
  C  C174  1  0.53694000  0.92197000  0.65217000  1.0
  C  C175  1  0.58227000  0.08121000  0.21421000  1.0
  C  C176  1  0.41773000  0.91879000  0.78579000  1.0
  C  C177  1  0.52744000  0.26962000  0.41178000  1.0
  C  C178  1  0.47256000  0.73038000  0.58822000  1.0
  C  C179  1  0.74162000  0.18221000  0.37566000  1.0
  C  C180  1  0.25837000  0.81779000  0.62434000  1.0
  C  C181  1  0.65249000  0.26871000  0.28727000  1.0
  C  C182  1  0.34750000  0.73129000  0.71273000  1.0
  C  C183  1  0.36388000  0.16359000  0.25754000  1.0
  C  C184  1  0.63612000  0.83641000  0.74246000  1.0
  N  N185  1  0.34700000  0.06551000  0.55833000  1.0
  N  N186  1  0.65300000  0.93449000  0.44167000  1.0
  N  N187  1  0.33191000  0.88056000  0.46274000  1.0
  N  N188  1  0.66809000  0.11944000  0.53727000  1.0
  N  N189  1  0.35680000  0.08272000  0.03203000  1.0
  N  N190  1  0.64320000  0.91728000  0.96798000  1.0
  N  N191  1  0.31830000  0.89266000  0.98043000  1.0
  N  N192  1  0.68170000  0.10735000  0.01957000  1.0
  N  N193  1  0.28120000  0.43583000  0.44977000  1.0
  N  N194  1  0.71879000  0.56416000  0.55023000  1.0
  N  N195  1  0.43865000  0.50925000  0.61402000  1.0
  N  N196  1  0.56134000  0.49074000  0.38598000  1.0
  N  N197  1  0.41131000  0.01935000  0.37041000  1.0
  N  N198  1  0.58868000  0.98065000  0.62960000  1.0
  N  N199  1  0.59452000  0.02543000  0.14827000  1.0
  N  N200  1  0.40547000  0.97457000  0.85173000  1.0
  N  N201  1  0.52075000  0.33556000  0.47213000  1.0
  N  N202  1  0.47926000  0.66444000  0.52787000  1.0
  N  N203  1  0.85720000  0.19234000  0.41780000  1.0
  N  N204  1  0.14281000  0.80766000  0.58220000  1.0
  N  N205  1  0.71825000  0.33275000  0.27500000  1.0
  N  N206  1  0.28175000  0.66724000  0.72500000  1.0
  N  N207  1  0.24470000  0.15776000  0.22173000  1.0
  N  N208  1  0.75531000  0.84225000  0.77826000  1.0
