# generated using pymatgen
data_Zn2H66(C19O8)3
_symmetry_space_group_name_H-M   'P 1'
_cell_length_a   9.71855000
_cell_length_b   20.33150000
_cell_length_c   20.33211462
_cell_angle_alpha   59.99900000
_cell_angle_beta   90.00019999
_cell_angle_gamma   89.99930000
_symmetry_Int_Tables_number   1
_chemical_formula_structural   Zn2H66(C19O8)3
_chemical_formula_sum   'Zn4 H132 C114 O48'
_cell_volume   3479.20243638
_cell_formula_units_Z   2
loop_
 _symmetry_equiv_pos_site_id
 _symmetry_equiv_pos_as_xyz
  1  'x, y, z'
loop_
 _atom_site_type_symbol
 _atom_site_label
 _atom_site_symmetry_multiplicity
 _atom_site_fract_x
 _atom_site_fract_y
 _atom_site_fract_z
 _atom_site_occupancy
  Zn  Zn0  1  0.42881000  0.66666667  0.66666667  1.0
  Zn  Zn1  1  0.07119000  0.33333333  0.33333333  1.0
  Zn  Zn2  1  0.57119000  0.33333333  0.33333333  1.0
  Zn  Zn3  1  0.92881000  0.66666667  0.66666667  1.0
  H  H4  1  0.49577000  0.64208000  0.79641000  1.0
  H  H5  1  0.49575000  0.79640000  0.56152000  1.0
  H  H6  1  0.49577000  0.56151000  0.64209000  1.0
  H  H7  1  0.00426000  0.20361000  0.35790000  1.0
  H  H8  1  0.00424000  0.43848000  0.20359000  1.0
  H  H9  1  0.00423000  0.35791000  0.43849000  1.0
  H  H10  1  0.50425000  0.35793000  0.20359000  1.0
  H  H11  1  0.50424000  0.20359000  0.43849000  1.0
  H  H12  1  0.50425000  0.43850000  0.35790000  1.0
  H  H13  1  0.99577000  0.79640000  0.64209000  1.0
  H  H14  1  0.99577000  0.56150000  0.79641000  1.0
  H  H15  1  0.99575000  0.64208000  0.56152000  1.0
  H  H16  1  0.63988000  0.65295000  0.75269000  1.0
  H  H17  1  0.63987000  0.75268000  0.59437000  1.0
  H  H18  1  0.63988000  0.59435000  0.65297000  1.0
  H  H19  1  0.86013000  0.24732000  0.34704000  1.0
  H  H20  1  0.86013000  0.40564000  0.24731000  1.0
  H  H21  1  0.86013000  0.34704000  0.40564000  1.0
  H  H22  1  0.36013000  0.34706000  0.24731000  1.0
  H  H23  1  0.36013000  0.24731000  0.40564000  1.0
  H  H24  1  0.36013000  0.40565000  0.34704000  1.0
  H  H25  1  0.13987000  0.75268000  0.65296000  1.0
  H  H26  1  0.13988000  0.59435000  0.75269000  1.0
  H  H27  1  0.13987000  0.65295000  0.59437000  1.0
  H  H28  1  0.95206000  0.81629000  0.79213000  1.0
  H  H29  1  0.95206000  0.79210000  0.39154000  1.0
  H  H30  1  0.95205000  0.39156000  0.81632000  1.0
  H  H31  1  0.54796000  0.20790000  0.18365000  1.0
  H  H32  1  0.54793000  0.60843000  0.20788000  1.0
  H  H33  1  0.54795000  0.18369000  0.60843000  1.0
  H  H34  1  0.04793000  0.18367000  0.20789000  1.0
  H  H35  1  0.04796000  0.20788000  0.60844000  1.0
  H  H36  1  0.04798000  0.60844000  0.18365000  1.0
  H  H37  1  0.45204000  0.79211000  0.81633000  1.0
  H  H38  1  0.45207000  0.39157000  0.79213000  1.0
  H  H39  1  0.45204000  0.81637000  0.39155000  1.0
  H  H40  1  0.78275000  0.86292000  0.84763000  1.0
  H  H41  1  0.78274000  0.84762000  0.28941000  1.0
  H  H42  1  0.78273000  0.28943000  0.86294000  1.0
  H  H43  1  0.71728000  0.15238000  0.13704000  1.0
  H  H44  1  0.71723000  0.71056000  0.15238000  1.0
  H  H45  1  0.71726000  0.13707000  0.71057000  1.0
  H  H46  1  0.21722000  0.13706000  0.15237000  1.0
  H  H47  1  0.21725000  0.15237000  0.71058000  1.0
  H  H48  1  0.21729000  0.71057000  0.13704000  1.0
  H  H49  1  0.28274000  0.84761000  0.86296000  1.0
  H  H50  1  0.28277000  0.28943000  0.84764000  1.0
  H  H51  1  0.28273000  0.86297000  0.28942000  1.0
  H  H52  1  0.94776000  0.71367000  0.07116000  1.0
  H  H53  1  0.94776000  0.07113000  0.21517000  1.0
  H  H54  1  0.94774000  0.21516000  0.71368000  1.0
  H  H55  1  0.55225000  0.92888000  0.28629000  1.0
  H  H56  1  0.55223000  0.78483000  0.92885000  1.0
  H  H57  1  0.55221000  0.28632000  0.78484000  1.0
  H  H58  1  0.05223000  0.28632000  0.92885000  1.0
  H  H59  1  0.05222000  0.92884000  0.78485000  1.0
  H  H60  1  0.05224000  0.78482000  0.28631000  1.0
  H  H61  1  0.44776000  0.07116000  0.71369000  1.0
  H  H62  1  0.44776000  0.21516000  0.07116000  1.0
  H  H63  1  0.44778000  0.71368000  0.21519000  1.0
  H  H64  1  0.12302000  0.66813000  0.01577000  1.0
  H  H65  1  0.12303000  0.01571000  0.31610000  1.0
  H  H66  1  0.12302000  0.31609000  0.66815000  1.0
  H  H67  1  0.37698000  0.98429000  0.33181000  1.0
  H  H68  1  0.37698000  0.68390000  0.98424000  1.0
  H  H69  1  0.37695000  0.33185000  0.68391000  1.0
  H  H70  1  0.87696000  0.33186000  0.98425000  1.0
  H  H71  1  0.87697000  0.98423000  0.68391000  1.0
  H  H72  1  0.87698000  0.68389000  0.33182000  1.0
  H  H73  1  0.62301000  0.01576000  0.66815000  1.0
  H  H74  1  0.62304000  0.31609000  0.01578000  1.0
  H  H75  1  0.62304000  0.66817000  0.31612000  1.0
  H  H76  1  0.15809000  0.80213000  0.75963000  1.0
  H  H77  1  0.15811000  0.75957000  0.43825000  1.0
  H  H78  1  0.15808000  0.43824000  0.80215000  1.0
  H  H79  1  0.34190000  0.24043000  0.19782000  1.0
  H  H80  1  0.34190000  0.56177000  0.24038000  1.0
  H  H81  1  0.34193000  0.19785000  0.56176000  1.0
  H  H82  1  0.84189000  0.19785000  0.24038000  1.0
  H  H83  1  0.84192000  0.24038000  0.56176000  1.0
  H  H84  1  0.84191000  0.56175000  0.19782000  1.0
  H  H85  1  0.65808000  0.75961000  0.80215000  1.0
  H  H86  1  0.65809000  0.43823000  0.75963000  1.0
  H  H87  1  0.65812000  0.80218000  0.43825000  1.0
  H  H88  1  0.06926000  0.71587000  0.78202000  1.0
  H  H89  1  0.06924000  0.78198000  0.50211000  1.0
  H  H90  1  0.06926000  0.50211000  0.71589000  1.0
  H  H91  1  0.43076000  0.21802000  0.28409000  1.0
  H  H92  1  0.43074000  0.49788000  0.21800000  1.0
  H  H93  1  0.43075000  0.28412000  0.49788000  1.0
  H  H94  1  0.93075000  0.28411000  0.21801000  1.0
  H  H95  1  0.93075000  0.21800000  0.49788000  1.0
  H  H96  1  0.93076000  0.49788000  0.28409000  1.0
  H  H97  1  0.56926000  0.78199000  0.71589000  1.0
  H  H98  1  0.56925000  0.50212000  0.78201000  1.0
  H  H99  1  0.56925000  0.71592000  0.50212000  1.0
  H  H100  1  0.88068000  0.79070000  0.10122000  1.0
  H  H101  1  0.88071000  0.10121000  0.10807000  1.0
  H  H102  1  0.88068000  0.10807000  0.79071000  1.0
  H  H103  1  0.61930000  0.89879000  0.20928000  1.0
  H  H104  1  0.61931000  0.89192000  0.89878000  1.0
  H  H105  1  0.61930000  0.20929000  0.89193000  1.0
  H  H106  1  0.11932000  0.20929000  0.89879000  1.0
  H  H107  1  0.11930000  0.89878000  0.89193000  1.0
  H  H108  1  0.11928000  0.89193000  0.20928000  1.0
  H  H109  1  0.38069000  0.10122000  0.79071000  1.0
  H  H110  1  0.38068000  0.10807000  0.10122000  1.0
  H  H111  1  0.38073000  0.79071000  0.10808000  1.0
  H  H112  1  0.74177000  0.85260000  0.08841000  1.0
  H  H113  1  0.74182000  0.08841000  0.05898000  1.0
  H  H114  1  0.74178000  0.05898000  0.85260000  1.0
  H  H115  1  0.75818000  0.91159000  0.14739000  1.0
  H  H116  1  0.75821000  0.94100000  0.91159000  1.0
  H  H117  1  0.75822000  0.14740000  0.94102000  1.0
  H  H118  1  0.25821000  0.14741000  0.91159000  1.0
  H  H119  1  0.25821000  0.91158000  0.94103000  1.0
  H  H120  1  0.25818000  0.94102000  0.14739000  1.0
  H  H121  1  0.24177000  0.08842000  0.85261000  1.0
  H  H122  1  0.24179000  0.05899000  0.08842000  1.0
  H  H123  1  0.24183000  0.85261000  0.05898000  1.0
  H  H124  1  0.88997000  0.88719000  0.02904000  1.0
  H  H125  1  0.89000000  0.02903000  0.08377000  1.0
  H  H126  1  0.88997000  0.08377000  0.88720000  1.0
  H  H127  1  0.61001000  0.97097000  0.11280000  1.0
  H  H128  1  0.61002000  0.91623000  0.97096000  1.0
  H  H129  1  0.61001000  0.11280000  0.91624000  1.0
  H  H130  1  0.11002000  0.11281000  0.97096000  1.0
  H  H131  1  0.11001000  0.97096000  0.91625000  1.0
  H  H132  1  0.11000000  0.91623000  0.11279000  1.0
  H  H133  1  0.38998000  0.02903000  0.88721000  1.0
  H  H134  1  0.38998000  0.08377000  0.02904000  1.0
  H  H135  1  0.39001000  0.88720000  0.08378000  1.0
  C  C136  1  0.05430000  0.74193000  0.90006000  1.0
  C  C137  1  0.05429000  0.90001000  0.35801000  1.0
  C  C138  1  0.05428000  0.35802000  0.74193000  1.0
  C  C139  1  0.44573000  0.09999000  0.25802000  1.0
  C  C140  1  0.44569000  0.64199000  0.09995000  1.0
  C  C141  1  0.44570000  0.25807000  0.64198000  1.0
  C  C142  1  0.94570000  0.25807000  0.09996000  1.0
  C  C143  1  0.94570000  0.09995000  0.64199000  1.0
  C  C144  1  0.94572000  0.64198000  0.25803000  1.0
  C  C145  1  0.55428000  0.90004000  0.74195000  1.0
  C  C146  1  0.55430000  0.35802000  0.90006000  1.0
  C  C147  1  0.55429000  0.74198000  0.35802000  1.0
  C  C148  1  0.95422000  0.79489000  0.85314000  1.0
  C  C149  1  0.95423000  0.85311000  0.35194000  1.0
  C  C150  1  0.95421000  0.35196000  0.79491000  1.0
  C  C151  1  0.54580000  0.14689000  0.20506000  1.0
  C  C152  1  0.54576000  0.64804000  0.14687000  1.0
  C  C153  1  0.54578000  0.20510000  0.64803000  1.0
  C  C154  1  0.04577000  0.20508000  0.14688000  1.0
  C  C155  1  0.04578000  0.14687000  0.64804000  1.0
  C  C156  1  0.04582000  0.64804000  0.20506000  1.0
  C  C157  1  0.45421000  0.85312000  0.79492000  1.0
  C  C158  1  0.45423000  0.35196000  0.85314000  1.0
  C  C159  1  0.45420000  0.79495000  0.35195000  1.0
  C  C160  1  0.85675000  0.82053000  0.88528000  1.0
  C  C161  1  0.85677000  0.88526000  0.29416000  1.0
  C  C162  1  0.85675000  0.29419000  0.82054000  1.0
  C  C163  1  0.64325000  0.11475000  0.17943000  1.0
  C  C164  1  0.64323000  0.70581000  0.11473000  1.0
  C  C165  1  0.64323000  0.17946000  0.70582000  1.0
  C  C166  1  0.14321000  0.17945000  0.11474000  1.0
  C  C167  1  0.14325000  0.11473000  0.70582000  1.0
  C  C168  1  0.14327000  0.70580000  0.17944000  1.0
  C  C169  1  0.35673000  0.88527000  0.82055000  1.0
  C  C170  1  0.35679000  0.29419000  0.88527000  1.0
  C  C171  1  0.35675000  0.82057000  0.29419000  1.0
  C  C172  1  0.85489000  0.79458000  0.96358000  1.0
  C  C173  1  0.85491000  0.96356000  0.24183000  1.0
  C  C174  1  0.85489000  0.24183000  0.79459000  1.0
  C  C175  1  0.64511000  0.03644000  0.20539000  1.0
  C  C176  1  0.64509000  0.75816000  0.03642000  1.0
  C  C177  1  0.64508000  0.20541000  0.75817000  1.0
  C  C178  1  0.14508000  0.20541000  0.03643000  1.0
  C  C179  1  0.14510000  0.03642000  0.75817000  1.0
  C  C180  1  0.14514000  0.75816000  0.20540000  1.0
  C  C181  1  0.35489000  0.96357000  0.79460000  1.0
  C  C182  1  0.35491000  0.24184000  0.96359000  1.0
  C  C183  1  0.35489000  0.79460000  0.24184000  1.0
  C  C184  1  0.95078000  0.73789000  0.00983000  1.0
  C  C185  1  0.95080000  0.00979000  0.25228000  1.0
  C  C186  1  0.95078000  0.25228000  0.73790000  1.0
  C  C187  1  0.54922000  0.99021000  0.26207000  1.0
  C  C188  1  0.54921000  0.74772000  0.99018000  1.0
  C  C189  1  0.54919000  0.26210000  0.74773000  1.0
  C  C190  1  0.04918000  0.26210000  0.99019000  1.0
  C  C191  1  0.04921000  0.99016000  0.74774000  1.0
  C  C192  1  0.04922000  0.74770000  0.26209000  1.0
  C  C193  1  0.45076000  0.00982000  0.73791000  1.0
  C  C194  1  0.45081000  0.25228000  0.00983000  1.0
  C  C195  1  0.45081000  0.73791000  0.25230000  1.0
  C  C196  1  0.04983000  0.71211000  0.97948000  1.0
  C  C197  1  0.04982000  0.97943000  0.30841000  1.0
  C  C198  1  0.04981000  0.30841000  0.71212000  1.0
  C  C199  1  0.45019000  0.02057000  0.28784000  1.0
  C  C200  1  0.45016000  0.69159000  0.02053000  1.0
  C  C201  1  0.45015000  0.28788000  0.69159000  1.0
  C  C202  1  0.95017000  0.28787000  0.02054000  1.0
  C  C203  1  0.95017000  0.02052000  0.69160000  1.0
  C  C204  1  0.95020000  0.69159000  0.28785000  1.0
  C  C205  1  0.54981000  0.97947000  0.71213000  1.0
  C  C206  1  0.54982000  0.30841000  0.97948000  1.0
  C  C207  1  0.54982000  0.71215000  0.30842000  1.0
  C  C208  1  0.15971000  0.73973000  0.79512000  1.0
  C  C209  1  0.15971000  0.79508000  0.46516000  1.0
  C  C210  1  0.15971000  0.46515000  0.73974000  1.0
  C  C211  1  0.34030000  0.20493000  0.26023000  1.0
  C  C212  1  0.34028000  0.53485000  0.20489000  1.0
  C  C213  1  0.34030000  0.26027000  0.53484000  1.0
  C  C214  1  0.84029000  0.26026000  0.20490000  1.0
  C  C215  1  0.84030000  0.20489000  0.53484000  1.0
  C  C216  1  0.84030000  0.53484000  0.26023000  1.0
  C  C217  1  0.65970000  0.79510000  0.73974000  1.0
  C  C218  1  0.65971000  0.46516000  0.79512000  1.0
  C  C219  1  0.65971000  0.73977000  0.46516000  1.0
  C  C220  1  0.28918000  0.70976000  0.77685000  1.0
  C  C221  1  0.28916000  0.77680000  0.51341000  1.0
  C  C222  1  0.28918000  0.51338000  0.70979000  1.0
  C  C223  1  0.21083000  0.22319000  0.29020000  1.0
  C  C224  1  0.21083000  0.48660000  0.22317000  1.0
  C  C225  1  0.21083000  0.29022000  0.48660000  1.0
  C  C226  1  0.71082000  0.29022000  0.22318000  1.0
  C  C227  1  0.71083000  0.22318000  0.48660000  1.0
  C  C228  1  0.71083000  0.48661000  0.29020000  1.0
  C  C229  1  0.78917000  0.77682000  0.70979000  1.0
  C  C230  1  0.78919000  0.51339000  0.77684000  1.0
  C  C231  1  0.78917000  0.70979000  0.51341000  1.0
  C  C232  1  0.74999000  0.82274000  0.00000000  1.0
  C  C233  1  0.75001000  0.00000000  0.17726000  1.0
  C  C234  1  0.74999000  0.17726000  0.82274000  1.0
  C  C235  1  0.25000000  0.17727000  0.00001000  1.0
  C  C236  1  0.24999000  0.00000000  0.82276000  1.0
  C  C237  1  0.25001000  0.82275000  0.17725000  1.0
  C  C238  1  0.82007000  0.83847000  0.05854000  1.0
  C  C239  1  0.82009000  0.05852000  0.10299000  1.0
  C  C240  1  0.82007000  0.10299000  0.83848000  1.0
  C  C241  1  0.67991000  0.94148000  0.16151000  1.0
  C  C242  1  0.67992000  0.89701000  0.94146000  1.0
  C  C243  1  0.67992000  0.16152000  0.89702000  1.0
  C  C244  1  0.17993000  0.16153000  0.94147000  1.0
  C  C245  1  0.17991000  0.94146000  0.89703000  1.0
  C  C246  1  0.17990000  0.89702000  0.16151000  1.0
  C  C247  1  0.32008000  0.05854000  0.83849000  1.0
  C  C248  1  0.32007000  0.10300000  0.05853000  1.0
  C  C249  1  0.32011000  0.83848000  0.10299000  1.0
  O  O250  1  0.15861000  0.71718000  0.87440000  1.0
  O  O251  1  0.15859000  0.87436000  0.40841000  1.0
  O  O252  1  0.15858000  0.40842000  0.71719000  1.0
  O  O253  1  0.34142000  0.12565000  0.28276000  1.0
  O  O254  1  0.34140000  0.59158000  0.12561000  1.0
  O  O255  1  0.34141000  0.28282000  0.59157000  1.0
  O  O256  1  0.84142000  0.28281000  0.12562000  1.0
  O  O257  1  0.84142000  0.12560000  0.59158000  1.0
  O  O258  1  0.84143000  0.59159000  0.28277000  1.0
  O  O259  1  0.65857000  0.87439000  0.71719000  1.0
  O  O260  1  0.65858000  0.40843000  0.87440000  1.0
  O  O261  1  0.65858000  0.71723000  0.40842000  1.0
  O  O262  1  0.29036000  0.72045000  0.70902000  1.0
  O  O263  1  0.29036000  0.70901000  0.57053000  1.0
  O  O264  1  0.29037000  0.57052000  0.72047000  1.0
  O  O265  1  0.20964000  0.29100000  0.27953000  1.0
  O  O266  1  0.20964000  0.42948000  0.29099000  1.0
  O  O267  1  0.20964000  0.27953000  0.42947000  1.0
  O  O268  1  0.70963000  0.27953000  0.29100000  1.0
  O  O269  1  0.70964000  0.29099000  0.42947000  1.0
  O  O270  1  0.70965000  0.42947000  0.27952000  1.0
  O  O271  1  0.79036000  0.70900000  0.72048000  1.0
  O  O272  1  0.79037000  0.57052000  0.70902000  1.0
  O  O273  1  0.79037000  0.72046000  0.57054000  1.0
  O  O274  1  0.38185000  0.67963000  0.82612000  1.0
  O  O275  1  0.38185000  0.82611000  0.49425000  1.0
  O  O276  1  0.38185000  0.49424000  0.67965000  1.0
  O  O277  1  0.11816000  0.17391000  0.32034000  1.0
  O  O278  1  0.11816000  0.50575000  0.17388000  1.0
  O  O279  1  0.11815000  0.32034000  0.50576000  1.0
  O  O280  1  0.61815000  0.32037000  0.17389000  1.0
  O  O281  1  0.61817000  0.17389000  0.50576000  1.0
  O  O282  1  0.61816000  0.50576000  0.32033000  1.0
  O  O283  1  0.88184000  0.82611000  0.67966000  1.0
  O  O284  1  0.88186000  0.49424000  0.82612000  1.0
  O  O285  1  0.88185000  0.67965000  0.49425000  1.0
  O  O286  1  0.55121000  0.62456000  0.76601000  1.0
  O  O287  1  0.55119000  0.76600000  0.60944000  1.0
  O  O288  1  0.55122000  0.60943000  0.62457000  1.0
  O  O289  1  0.94880000  0.23399000  0.37544000  1.0
  O  O290  1  0.94880000  0.39056000  0.23399000  1.0
  O  O291  1  0.94880000  0.37544000  0.39056000  1.0
  O  O292  1  0.44879000  0.37545000  0.23399000  1.0
  O  O293  1  0.44879000  0.23400000  0.39056000  1.0
  O  O294  1  0.44880000  0.39057000  0.37543000  1.0
  O  O295  1  0.05121000  0.76599000  0.62457000  1.0
  O  O296  1  0.05122000  0.60943000  0.76601000  1.0
  O  O297  1  0.05120000  0.62454000  0.60945000  1.0
