# generated using pymatgen
data_ZnH16C17(NO3)2
_symmetry_space_group_name_H-M   'P 1'
_cell_length_a   9.24918000
_cell_length_b   10.21040000
_cell_length_c   11.01410000
_cell_angle_alpha   107.86900000
_cell_angle_beta   100.94500000
_cell_angle_gamma   99.05620000
_symmetry_Int_Tables_number   1
_chemical_formula_structural   ZnH16C17(NO3)2
_chemical_formula_sum   'Zn2 H32 C34 N4 O12'
_cell_volume   945.72407518
_cell_formula_units_Z   2
loop_
 _symmetry_equiv_pos_site_id
 _symmetry_equiv_pos_as_xyz
  1  'x, y, z'
loop_
 _atom_site_type_symbol
 _atom_site_label
 _atom_site_symmetry_multiplicity
 _atom_site_fract_x
 _atom_site_fract_y
 _atom_site_fract_z
 _atom_site_occupancy
  Zn  Zn0  1  0.78637000  0.64776000  0.55282000  1.0
  Zn  Zn1  1  0.21363000  0.35224000  0.44718000  1.0
  H  H2  1  0.85825000  0.68470000  0.30596000  1.0
  H  H3  1  0.14175000  0.31530000  0.69404000  1.0
  H  H4  1  0.99625000  0.56656000  0.62833000  1.0
  H  H5  1  0.00376000  0.43343000  0.37167000  1.0
  H  H6  1  0.05813000  0.66507000  0.55454000  1.0
  H  H7  1  0.94188000  0.33493000  0.44546000  1.0
  H  H8  1  0.75352000  0.55698000  0.06318000  1.0
  H  H9  1  0.24648000  0.44302000  0.93681000  1.0
  H  H10  1  0.53934000  0.34104000  0.98293000  1.0
  H  H11  1  0.46066000  0.65895000  0.01707000  1.0
  H  H12  1  0.56262000  0.39469000  0.39081000  1.0
  H  H13  1  0.43737000  0.60532000  0.60919000  1.0
  H  H14  1  0.16918000  0.10203000  0.15675000  1.0
  H  H15  1  0.83082000  0.89798000  0.84325000  1.0
  H  H16  1  0.11822000  0.92397000  0.86589000  1.0
  H  H17  1  0.88178000  0.07602000  0.13411000  1.0
  H  H18  1  0.22786000  0.89630000  0.00244000  1.0
  H  H19  1  0.77214000  0.10370000  0.99756000  1.0
  H  H20  1  0.96763000  0.73790000  0.92295000  1.0
  H  H21  1  0.03237000  0.26210000  0.07706000  1.0
  H  H22  1  0.00121000  0.85311000  0.08805000  1.0
  H  H23  1  0.99879000  0.14689000  0.91195000  1.0
  H  H24  1  0.49061000  0.93757000  0.69755000  1.0
  H  H25  1  0.50939000  0.06243000  0.30245000  1.0
  H  H26  1  0.40128000  0.16010000  0.76063000  1.0
  H  H27  1  0.59872000  0.83990000  0.23937000  1.0
  H  H28  1  0.53459000  0.37211000  0.72361000  1.0
  H  H29  1  0.46541000  0.62790000  0.27639000  1.0
  H  H30  1  0.84836000  0.13830000  0.57014000  1.0
  H  H31  1  0.15164000  0.86169000  0.42986000  1.0
  H  H32  1  0.38167000  0.22403000  0.23473000  1.0
  H  H33  1  0.61833000  0.77597000  0.76527000  1.0
  C  C34  1  0.76875000  0.58869000  0.26692000  1.0
  C  C35  1  0.23125000  0.41131000  0.73308000  1.0
  C  C36  1  0.70877000  0.51659000  0.13251000  1.0
  C  C37  1  0.29123000  0.48341000  0.86749000  1.0
  C  C38  1  0.58953000  0.39733000  0.08751000  1.0
  C  C39  1  0.41047000  0.60267000  0.91249000  1.0
  C  C40  1  0.53145000  0.35250000  0.18081000  1.0
  C  C41  1  0.46854000  0.64750000  0.81918000  1.0
  C  C42  1  0.60232000  0.42655000  0.31476000  1.0
  C  C43  1  0.39767000  0.57345000  0.68524000  1.0
  C  C44  1  0.29204000  0.18264000  0.03830000  1.0
  C  C45  1  0.70797000  0.81736000  0.96169000  1.0
  C  C46  1  0.15312000  0.09312000  0.05270000  1.0
  C  C47  1  0.84688000  0.90688000  0.94730000  1.0
  C  C48  1  0.12863000  0.93596000  0.97023000  1.0
  C  C49  1  0.87137000  0.06404000  0.02977000  1.0
  C  C50  1  0.98661000  0.84955000  0.98534000  1.0
  C  C51  1  0.01339000  0.15045000  0.01466000  1.0
  C  C52  1  0.72944000  0.89195000  0.59132000  1.0
  C  C53  1  0.27055000  0.10805000  0.40868000  1.0
  C  C54  1  0.67536000  0.02480000  0.63052000  1.0
  C  C55  1  0.32465000  0.97521000  0.36948000  1.0
  C  C56  1  0.54971000  0.03128000  0.68434000  1.0
  C  C57  1  0.45029000  0.96872000  0.31566000  1.0
  C  C58  1  0.49876000  0.15591000  0.71864000  1.0
  C  C59  1  0.50125000  0.84409000  0.28136000  1.0
  C  C60  1  0.57309000  0.27416000  0.69846000  1.0
  C  C61  1  0.42691000  0.72584000  0.30154000  1.0
  C  C62  1  0.69932000  0.26925000  0.64516000  1.0
  C  C63  1  0.30068000  0.73075000  0.35484000  1.0
  C  C64  1  0.77699000  0.39539000  0.62143000  1.0
  C  C65  1  0.22302000  0.60461000  0.37857000  1.0
  C  C66  1  0.75086000  0.14441000  0.61203000  1.0
  C  C67  1  0.24915000  0.85559000  0.38797000  1.0
  N  N68  1  0.71663000  0.54138000  0.35595000  1.0
  N  N69  1  0.28336000  0.45862000  0.64404000  1.0
  N  N70  1  0.40577000  0.24314000  0.15289000  1.0
  N  N71  1  0.59423000  0.75686000  0.84711000  1.0
  O  O72  1  0.66342000  0.78564000  0.62019000  1.0
  O  O73  1  0.33659000  0.21436000  0.37981000  1.0
  O  O74  1  0.01005000  0.66654000  0.62865000  1.0
  O  O75  1  0.98995000  0.33346000  0.37135000  1.0
  O  O76  1  0.83412000  0.87986000  0.53431000  1.0
  O  O77  1  0.16588000  0.12014000  0.46569000  1.0
  O  O78  1  0.90626000  0.39659000  0.59625000  1.0
  O  O79  1  0.09374000  0.60341000  0.40375000  1.0
  O  O80  1  0.70926000  0.49691000  0.62733000  1.0
  O  O81  1  0.29074000  0.50309000  0.37268000  1.0
  O  O82  1  0.29929000  0.20213000  0.93392000  1.0
  O  O83  1  0.70071000  0.79787000  0.06608000  1.0
