# generated using pymatgen
data_CdH14C15N2O5
_symmetry_space_group_name_H-M   'P 1'
_cell_length_a   7.65097000
_cell_length_b   8.33260000
_cell_length_c   13.57660000
_cell_angle_alpha   77.24320000
_cell_angle_beta   73.86550000
_cell_angle_gamma   63.33040000
_symmetry_Int_Tables_number   1
_chemical_formula_structural   CdH14C15N2O5
_chemical_formula_sum   'Cd2 H28 C30 N4 O10'
_cell_volume   738.32271717
_cell_formula_units_Z   2
loop_
 _symmetry_equiv_pos_site_id
 _symmetry_equiv_pos_as_xyz
  1  'x, y, z'
loop_
 _atom_site_type_symbol
 _atom_site_label
 _atom_site_symmetry_multiplicity
 _atom_site_fract_x
 _atom_site_fract_y
 _atom_site_fract_z
 _atom_site_occupancy
  Cd  Cd0  1  0.23615000  0.83755000  0.56810000  1.0
  Cd  Cd1  1  0.76385000  0.16244000  0.43190000  1.0
  H  H2  1  0.58346000  0.84503000  0.41482000  1.0
  H  H3  1  0.41654000  0.15497000  0.58518000  1.0
  H  H4  1  0.52941000  0.68326000  0.40579000  1.0
  H  H5  1  0.47060000  0.31674000  0.59421000  1.0
  H  H6  1  0.83197000  0.50344000  0.59494000  1.0
  H  H7  1  0.16803000  0.49656000  0.40507000  1.0
  H  H8  1  0.07913000  0.46429000  0.59759000  1.0
  H  H9  1  0.92087000  0.53570000  0.40241000  1.0
  H  H10  1  0.80001000  0.80922000  0.64014000  1.0
  H  H11  1  0.19999000  0.19078000  0.35986000  1.0
  H  H12  1  0.48183000  0.33361000  0.80914000  1.0
  H  H13  1  0.51817000  0.66639000  0.19085000  1.0
  H  H14  1  0.66928000  0.25924000  0.70005000  1.0
  H  H15  1  0.33072000  0.74076000  0.29995000  1.0
  H  H16  1  0.56216000  0.36136000  0.95307000  1.0
  H  H17  1  0.43783000  0.63865000  0.04693000  1.0
  H  H18  1  0.19151000  0.39842000  0.74899000  1.0
  H  H19  1  0.80849000  0.60157000  0.25102000  1.0
  H  H20  1  0.52239000  0.84882000  0.79429000  1.0
  H  H21  1  0.47762000  0.15117000  0.20572000  1.0
  H  H22  1  0.12689000  0.92351000  0.79087000  1.0
  H  H23  1  0.87311000  0.07650000  0.20913000  1.0
  H  H24  1  0.85518000  0.97951000  0.95130000  1.0
  H  H25  1  0.14482000  0.02050000  0.04870000  1.0
  H  H26  1  0.80131000  0.36323000  0.04315000  1.0
  H  H27  1  0.19868000  0.63677000  0.95685000  1.0
  H  H28  1  0.12279000  0.37554000  0.94080000  1.0
  H  H29  1  0.87721000  0.62445000  0.05920000  1.0
  C  C30  1  0.04681000  0.22961000  0.58204000  1.0
  C  C31  1  0.95319000  0.77039000  0.41796000  1.0
  C  C32  1  0.96521000  0.40951000  0.62572000  1.0
  C  C33  1  0.03479000  0.59049000  0.37428000  1.0
  C  C34  1  0.80760000  0.84541000  0.71065000  1.0
  C  C35  1  0.19241000  0.15459000  0.28935000  1.0
  C  C36  1  0.73878000  0.38048000  0.80051000  1.0
  C  C37  1  0.26122000  0.61952000  0.19949000  1.0
  C  C38  1  0.47680000  0.53975000  0.68584000  1.0
  C  C39  1  0.52320000  0.46025000  0.31416000  1.0
  C  C40  1  0.59430000  0.36892000  0.74976000  1.0
  C  C41  1  0.40570000  0.63109000  0.25024000  1.0
  C  C42  1  0.91773000  0.39201000  0.74262000  1.0
  C  C43  1  0.08227000  0.60799000  0.25738000  1.0
  C  C44  1  0.69963000  0.37196000  0.90813000  1.0
  C  C45  1  0.30037000  0.62804000  0.09187000  1.0
  C  C46  1  0.66620000  0.92334000  0.88344000  1.0
  C  C47  1  0.33381000  0.07665000  0.11656000  1.0
  C  C48  1  0.05406000  0.38886000  0.79454000  1.0
  C  C49  1  0.94594000  0.61114000  0.20547000  1.0
  C  C50  1  0.65158000  0.87010000  0.79648000  1.0
  C  C51  1  0.34843000  0.12990000  0.20352000  1.0
  C  C52  1  0.98906000  0.91081000  0.79540000  1.0
  C  C53  1  0.01094000  0.08920000  0.20460000  1.0
  C  C54  1  0.83987000  0.94153000  0.88358000  1.0
  C  C55  1  0.16013000  0.05847000  0.11642000  1.0
  C  C56  1  0.83517000  0.37113000  0.95910000  1.0
  C  C57  1  0.16482000  0.62886000  0.04090000  1.0
  C  C58  1  0.01469000  0.37765000  0.90188000  1.0
  C  C59  1  0.98531000  0.62235000  0.09812000  1.0
  N  N60  1  0.97253000  0.86577000  0.70977000  1.0
  N  N61  1  0.02747000  0.13424000  0.29024000  1.0
  N  N62  1  0.50143000  0.95449000  0.96788000  1.0
  N  N63  1  0.49857000  0.04551000  0.03212000  1.0
  O  O64  1  0.39245000  0.51949000  0.62211000  1.0
  O  O65  1  0.60756000  0.48051000  0.37789000  1.0
  O  O66  1  0.21769000  0.10927000  0.59853000  1.0
  O  O67  1  0.78231000  0.89072000  0.40146000  1.0
  O  O68  1  0.46963000  0.81228000  0.42205000  1.0
  O  O69  1  0.53037000  0.18772000  0.57795000  1.0
  O  O70  1  0.45848000  0.69306000  0.69731000  1.0
  O  O71  1  0.54152000  0.30694000  0.30269000  1.0
  O  O72  1  0.94509000  0.20235000  0.53380000  1.0
  O  O73  1  0.05490000  0.79765000  0.46620000  1.0
