# generated using pymatgen
data_Zn4H34C36N4O13
_symmetry_space_group_name_H-M   'P 1'
_cell_length_a   18.05810000
_cell_length_b   18.16850000
_cell_length_c   18.18980000
_cell_angle_alpha   60.76680000
_cell_angle_beta   60.61050000
_cell_angle_gamma   60.71040000
_symmetry_Int_Tables_number   1
_chemical_formula_structural   Zn4H34C36N4O13
_chemical_formula_sum   'Zn8 H68 C72 N8 O26'
_cell_volume   4286.18468947
_cell_formula_units_Z   2
loop_
 _symmetry_equiv_pos_site_id
 _symmetry_equiv_pos_as_xyz
  1  'x, y, z'
loop_
 _atom_site_type_symbol
 _atom_site_label
 _atom_site_symmetry_multiplicity
 _atom_site_fract_x
 _atom_site_fract_y
 _atom_site_fract_z
 _atom_site_occupancy
  Zn  Zn0  1  0.61801000  0.79460000  0.79476000  1.0
  Zn  Zn1  1  0.38199000  0.20540000  0.20524000  1.0
  Zn  Zn2  1  0.79430000  0.79363000  0.61785000  1.0
  Zn  Zn3  1  0.20569000  0.20638000  0.38215000  1.0
  Zn  Zn4  1  0.79360000  0.61877000  0.79422000  1.0
  Zn  Zn5  1  0.20640000  0.38123000  0.20578000  1.0
  Zn  Zn6  1  0.79372000  0.79321000  0.79484000  1.0
  Zn  Zn7  1  0.20628000  0.20679000  0.20516000  1.0
  H  H8  1  0.54358000  0.92772000  0.13408000  1.0
  H  H9  1  0.59401000  0.85906000  0.46808000  1.0
  H  H10  1  0.59798000  0.07310000  0.47474000  1.0
  H  H11  1  0.40202000  0.92690000  0.52526000  1.0
  H  H12  1  0.59738000  0.03163000  0.34278000  1.0
  H  H13  1  0.40261000  0.96837000  0.65721000  1.0
  H  H14  1  0.65744000  0.98529000  0.95651000  1.0
  H  H15  1  0.34256000  0.01472000  0.04349000  1.0
  H  H16  1  0.39380000  0.54080000  0.13526000  1.0
  H  H17  1  0.60619000  0.45921000  0.86474000  1.0
  H  H18  1  0.40385000  0.65651000  0.95778000  1.0
  H  H19  1  0.45642000  0.07228000  0.86592000  1.0
  H  H20  1  0.59614000  0.34350000  0.04222000  1.0
  H  H21  1  0.14736000  0.52058000  0.92462000  1.0
  H  H22  1  0.85265000  0.47942000  0.07538000  1.0
  H  H23  1  0.97900000  0.65755000  0.96362000  1.0
  H  H24  1  0.02100000  0.34244000  0.03638000  1.0
  H  H25  1  0.89861000  0.03278000  0.82806000  1.0
  H  H26  1  0.00160000  0.94349000  0.82812000  1.0
  H  H27  1  0.99699000  0.05338000  0.80124000  1.0
  H  H28  1  0.06758000  0.01388000  0.66130000  1.0
  H  H29  1  0.96556000  0.10262000  0.66095000  1.0
  H  H30  1  0.92299000  0.14664000  0.51965000  1.0
  H  H31  1  0.88534000  0.99494000  0.71654000  1.0
  H  H32  1  0.98599000  0.90542000  0.71889000  1.0
  H  H33  1  0.99845000  0.05649000  0.17185000  1.0
  H  H34  1  0.10142000  0.96717000  0.17196000  1.0
  H  H35  1  0.00302000  0.94662000  0.19875000  1.0
  H  H36  1  0.03441000  0.89738000  0.33907000  1.0
  H  H37  1  0.93241000  0.98615000  0.33867000  1.0
  H  H38  1  0.01403000  0.09458000  0.28110000  1.0
  H  H39  1  0.11467000  0.00504000  0.28347000  1.0
  H  H40  1  0.17192000  0.86288000  0.57724000  1.0
  H  H41  1  0.07700000  0.85336000  0.48035000  1.0
  H  H42  1  0.18271000  0.96367000  0.52935000  1.0
  H  H43  1  0.82808000  0.13711000  0.42276000  1.0
  H  H44  1  0.81729000  0.03633000  0.47065000  1.0
  H  H45  1  0.68936000  0.66045000  0.41315000  1.0
  H  H46  1  0.74337000  0.74160000  0.33435000  1.0
  H  H47  1  0.74765000  0.66246000  0.30065000  1.0
  H  H48  1  0.89455000  0.61966000  0.31886000  1.0
  H  H49  1  0.84160000  0.53831000  0.39532000  1.0
  H  H50  1  0.78051000  0.60499000  0.51538000  1.0
  H  H51  1  0.83302000  0.68698000  0.43880000  1.0
  H  H52  1  0.92021000  0.41025000  0.52181000  1.0
  H  H53  1  0.25666000  0.25841000  0.66562000  1.0
  H  H54  1  0.31064000  0.33958000  0.58683000  1.0
  H  H55  1  0.25236000  0.33754000  0.69934000  1.0
  H  H56  1  0.15839000  0.46168000  0.60470000  1.0
  H  H57  1  0.10546000  0.38032000  0.68114000  1.0
  H  H58  1  0.16699000  0.31302000  0.56119000  1.0
  H  H59  1  0.21949000  0.39502000  0.48462000  1.0
  H  H60  1  0.58428000  0.16446000  0.86807000  1.0
  H  H61  1  0.47374000  0.21694000  0.89319000  1.0
  H  H62  1  0.41572000  0.83555000  0.13192000  1.0
  H  H63  1  0.07979000  0.58975000  0.47819000  1.0
  H  H64  1  0.52626000  0.78306000  0.10681000  1.0
  H  H65  1  0.38818000  0.58558000  0.86178000  1.0
  H  H66  1  0.41485000  0.47589000  0.88948000  1.0
  H  H67  1  0.61182000  0.41443000  0.13822000  1.0
  H  H68  1  0.58515000  0.52411000  0.11052000  1.0
  H  H69  1  0.86213000  0.58297000  0.16785000  1.0
  H  H70  1  0.96287000  0.53127000  0.18024000  1.0
  H  H71  1  0.13787000  0.41703000  0.83215000  1.0
  H  H72  1  0.03713000  0.46873000  0.81976000  1.0
  H  H73  1  0.04061000  0.59400000  0.34251000  1.0
  H  H74  1  0.95938000  0.40600000  0.65749000  1.0
  H  H75  1  0.40598000  0.14094000  0.53192000  1.0
  C  C76  1  0.88995000  0.89013000  0.61202000  1.0
  C  C77  1  0.55075000  0.55504000  0.94626000  1.0
  C  C78  1  0.45200000  0.51137000  0.95409000  1.0
  C  C79  1  0.54799000  0.48864000  0.04591000  1.0
  C  C80  1  0.98878000  0.58760000  0.98014000  1.0
  C  C81  1  0.01122000  0.41240000  0.01986000  1.0
  C  C82  1  0.08089000  0.51274000  0.95749000  1.0
  C  C83  1  0.91911000  0.48726000  0.04251000  1.0
  C  C84  1  0.05123000  0.44442000  0.05341000  1.0
  C  C85  1  0.94878000  0.55558000  0.94659000  1.0
  C  C86  1  0.95860000  0.51939000  0.07741000  1.0
  C  C87  1  0.11005000  0.10987000  0.38798000  1.0
  C  C88  1  0.04140000  0.48061000  0.92259000  1.0
  C  C89  1  0.98059000  0.98934000  0.58803000  1.0
  C  C90  1  0.01941000  0.01066000  0.41197000  1.0
  C  C91  1  0.60871000  0.61188000  0.89099000  1.0
  C  C92  1  0.39129000  0.38812000  0.10901000  1.0
  C  C93  1  0.95683000  0.08028000  0.51242000  1.0
  C  C94  1  0.04317000  0.91972000  0.48758000  1.0
  C  C95  1  0.05313000  0.05182000  0.44341000  1.0
  C  C96  1  0.94687000  0.94818000  0.55659000  1.0
  C  C97  1  0.07850000  0.96024000  0.51764000  1.0
  C  C98  1  0.51000000  0.08219000  0.95705000  1.0
  C  C99  1  0.92150000  0.03976000  0.48236000  1.0
  C  C100  1  0.92364000  0.55585000  0.47801000  1.0
  C  C101  1  0.07636000  0.44416000  0.52199000  1.0
  C  C102  1  0.95501000  0.45076000  0.51290000  1.0
  C  C103  1  0.04499000  0.54924000  0.48710000  1.0
  C  C104  1  0.05290000  0.44891000  0.44589000  1.0
  C  C105  1  0.94710000  0.55109000  0.55411000  1.0
  C  C106  1  0.02218000  0.55274000  0.41275000  1.0
  C  C107  1  0.97782000  0.44726000  0.58725000  1.0
  C  C108  1  0.55392000  0.04131000  0.48514000  1.0
  C  C109  1  0.49000000  0.91782000  0.04295000  1.0
  C  C110  1  0.44607000  0.95869000  0.51486000  1.0
  C  C111  1  0.44846000  0.07760000  0.51856000  1.0
  C  C112  1  0.55154000  0.92240000  0.48144000  1.0
  C  C113  1  0.44980000  0.05384000  0.44512000  1.0
  C  C114  1  0.55020000  0.94615000  0.55488000  1.0
  C  C115  1  0.60854000  0.88671000  0.61149000  1.0
  C  C116  1  0.39146000  0.11329000  0.38851000  1.0
  C  C117  1  0.55481000  0.01716000  0.41291000  1.0
  C  C118  1  0.44519000  0.98284000  0.58709000  1.0
  C  C119  1  0.89136000  0.61170000  0.88937000  1.0
  C  C120  1  0.44625000  0.58672000  0.97700000  1.0
  C  C121  1  0.10864000  0.38830000  0.11063000  1.0
  C  C122  1  0.89013000  0.60940000  0.61055000  1.0
  C  C123  1  0.10987000  0.39060000  0.38945000  1.0
  C  C124  1  0.61235000  0.89613000  0.88431000  1.0
  C  C125  1  0.38765000  0.10388000  0.11568000  1.0
  C  C126  1  0.58723000  0.99200000  0.97621000  1.0
  C  C127  1  0.41278000  0.00800000  0.02378000  1.0
  C  C128  1  0.52488000  0.95941000  0.07394000  1.0
  C  C129  1  0.47512000  0.04060000  0.92606000  1.0
  C  C130  1  0.44471000  0.04820000  0.05709000  1.0
  C  C131  1  0.55374000  0.41328000  0.02300000  1.0
  C  C132  1  0.55529000  0.95180000  0.94290000  1.0
  C  C133  1  0.95895000  0.97716000  0.68335000  1.0
  C  C134  1  0.99421000  0.03093000  0.69499000  1.0
  C  C135  1  0.97177000  0.01446000  0.79332000  1.0
  C  C136  1  0.04106000  0.02284000  0.31665000  1.0
  C  C137  1  0.00579000  0.96908000  0.30501000  1.0
  C  C138  1  0.02825000  0.98552000  0.20668000  1.0
  C  C139  1  0.83909000  0.61759000  0.45539000  1.0
  C  C140  1  0.83551000  0.60778000  0.37819000  1.0
  C  C141  1  0.74939000  0.67150000  0.35524000  1.0
  C  C142  1  0.44137000  0.52325000  0.07470000  1.0
  C  C143  1  0.16091000  0.38241000  0.54461000  1.0
  C  C144  1  0.16448000  0.39221000  0.62181000  1.0
  C  C145  1  0.25062000  0.32850000  0.64475000  1.0
  C  C146  1  0.55863000  0.47675000  0.92530000  1.0
  C  C147  1  0.44925000  0.44496000  0.05374000  1.0
  N  N148  1  0.16601000  0.92049000  0.52430000  1.0
  N  N149  1  0.83398000  0.07951000  0.47570000  1.0
  N  N150  1  0.52353000  0.16559000  0.91738000  1.0
  N  N151  1  0.47647000  0.83441000  0.08262000  1.0
  N  N152  1  0.39527000  0.52610000  0.91227000  1.0
  N  N153  1  0.60473000  0.47391000  0.08773000  1.0
  N  N154  1  0.91842000  0.52802000  0.16348000  1.0
  N  N155  1  0.08158000  0.47198000  0.83652000  1.0
  O  O156  1  0.75010000  0.74981000  0.74896000  1.0
  O  O157  1  0.30671000  0.42874000  0.13569000  1.0
  O  O158  1  0.87497000  0.85872000  0.69605000  1.0
  O  O159  1  0.12503000  0.14128000  0.30395000  1.0
  O  O160  1  0.56949000  0.69605000  0.87647000  1.0
  O  O161  1  0.43051000  0.30396000  0.12353000  1.0
  O  O162  1  0.69337000  0.86684000  0.57015000  1.0
  O  O163  1  0.30662000  0.13316000  0.42985000  1.0
  O  O164  1  0.87600000  0.57038000  0.86053000  1.0
  O  O165  1  0.12400000  0.42962000  0.13947000  1.0
  O  O166  1  0.87203000  0.69374000  0.56972000  1.0
  O  O167  1  0.24990000  0.25019000  0.25104000  1.0
  O  O168  1  0.12797000  0.30626000  0.43028000  1.0
  O  O169  1  0.69715000  0.86629000  0.86986000  1.0
  O  O170  1  0.30285000  0.13371000  0.13014000  1.0
  O  O171  1  0.86423000  0.57049000  0.69476000  1.0
  O  O172  1  0.13576000  0.42951000  0.30525000  1.0
  O  O173  1  0.57170000  0.88088000  0.85491000  1.0
  O  O174  1  0.42830000  0.11912000  0.14508000  1.0
  O  O175  1  0.56921000  0.86051000  0.69570000  1.0
  O  O176  1  0.43078000  0.13949000  0.30430000  1.0
  O  O177  1  0.86153000  0.69557000  0.87436000  1.0
  O  O178  1  0.13846000  0.30443000  0.12564000  1.0
  O  O179  1  0.86096000  0.87586000  0.56999000  1.0
  O  O180  1  0.13903000  0.12414000  0.43000000  1.0
  O  O181  1  0.69328000  0.57126000  0.86432000  1.0
