# generated using pymatgen
data_TlH4AuC17NCl10
_symmetry_space_group_name_H-M   'P 1'
_cell_length_a   8.90418000
_cell_length_b   12.10590000
_cell_length_c   12.31480000
_cell_angle_alpha   69.13470000
_cell_angle_beta   80.01220000
_cell_angle_gamma   70.01820000
_symmetry_Int_Tables_number   1
_chemical_formula_structural   TlH4AuC17NCl10
_chemical_formula_sum   'Tl2 H8 Au2 C34 N2 Cl20'
_cell_volume   1163.70246457
_cell_formula_units_Z   2
loop_
 _symmetry_equiv_pos_site_id
 _symmetry_equiv_pos_as_xyz
  1  'x, y, z'
loop_
 _atom_site_type_symbol
 _atom_site_label
 _atom_site_symmetry_multiplicity
 _atom_site_fract_x
 _atom_site_fract_y
 _atom_site_fract_z
 _atom_site_occupancy
  Tl  Tl0  1  0.94223000  0.73051000  0.57197000  1.0
  Tl  Tl1  1  0.05778000  0.26949000  0.42803000  1.0
  H  H2  1  0.94946000  0.49614000  0.87270000  1.0
  H  H3  1  0.05053000  0.50385000  0.12730000  1.0
  H  H4  1  0.77887000  0.39934000  0.03049000  1.0
  H  H5  1  0.22112000  0.60067000  0.96952000  1.0
  H  H6  1  0.36829000  0.67552000  0.84625000  1.0
  H  H7  1  0.63170000  0.32449000  0.15375000  1.0
  H  H8  1  0.55621000  0.76082000  0.69799000  1.0
  H  H9  1  0.44379000  0.23918000  0.30200000  1.0
  Au  Au10  1  0.00000000  0.00000000  0.50000000  1.0
  Au  Au11  1  0.00000000  0.50000000  0.50000000  1.0
  C  C12  1  0.06684000  0.04062000  0.32438000  1.0
  C  C13  1  0.93316000  0.95938000  0.67561000  1.0
  C  C14  1  0.21903000  0.05144000  0.27861000  1.0
  C  C15  1  0.78098000  0.94856000  0.72139000  1.0
  C  C16  1  0.26239000  0.08726000  0.15867000  1.0
  C  C17  1  0.73761000  0.91274000  0.84133000  1.0
  C  C18  1  0.14668000  0.11881000  0.07924000  1.0
  C  C19  1  0.85333000  0.88119000  0.92076000  1.0
  C  C20  1  0.99380000  0.10638000  0.12122000  1.0
  C  C21  1  0.00621000  0.89362000  0.87878000  1.0
  C  C22  1  0.95843000  0.06534000  0.24197000  1.0
  C  C23  1  0.04157000  0.93466000  0.75802000  1.0
  C  C24  1  0.22606000  0.50666000  0.43003000  1.0
  C  C25  1  0.77394000  0.49334000  0.56998000  1.0
  C  C26  1  0.25212000  0.61009000  0.33962000  1.0
  C  C27  1  0.74788000  0.38990000  0.66038000  1.0
  C  C28  1  0.40467000  0.61416000  0.28746000  1.0
  C  C29  1  0.59533000  0.38584000  0.71255000  1.0
  C  C30  1  0.53782000  0.50872000  0.32427000  1.0
  C  C31  1  0.46218000  0.49127000  0.67573000  1.0
  C  C32  1  0.51692000  0.40305000  0.41357000  1.0
  C  C33  1  0.48308000  0.59694000  0.58643000  1.0
  C  C34  1  0.36311000  0.40518000  0.46592000  1.0
  C  C35  1  0.63689000  0.59481000  0.53409000  1.0
  C  C36  1  0.81928000  0.53429000  0.87012000  1.0
  C  C37  1  0.18071000  0.46571000  0.12989000  1.0
  C  C38  1  0.72212000  0.47965000  0.95910000  1.0
  C  C39  1  0.27788000  0.52036000  0.04090000  1.0
  C  C40  1  0.55454000  0.52769000  0.95423000  1.0
  C  C41  1  0.44545000  0.47232000  0.04577000  1.0
  C  C42  1  0.49587000  0.63105000  0.85753000  1.0
  C  C43  1  0.50413000  0.36896000  0.14247000  1.0
  C  C44  1  0.60201000  0.67995000  0.77286000  1.0
  C  C45  1  0.39799000  0.32005000  0.22714000  1.0
  N  N46  1  0.76172000  0.63334000  0.77767000  1.0
  N  N47  1  0.23828000  0.36666000  0.22233000  1.0
  Cl  Cl48  1  0.36153000  0.02103000  0.37447000  1.0
  Cl  Cl49  1  0.63848000  0.97897000  0.62553000  1.0
  Cl  Cl50  1  0.45242000  0.09337000  0.10867000  1.0
  Cl  Cl51  1  0.54759000  0.90663000  0.89133000  1.0
  Cl  Cl52  1  0.19077000  0.17350000  0.93247000  1.0
  Cl  Cl53  1  0.80923000  0.82650000  0.06753000  1.0
  Cl  Cl54  1  0.85367000  0.14306000  0.02390000  1.0
  Cl  Cl55  1  0.14633000  0.85695000  0.97610000  1.0
  Cl  Cl56  1  0.77252000  0.04288000  0.29028000  1.0
  Cl  Cl57  1  0.22748000  0.95712000  0.70972000  1.0
  Cl  Cl58  1  0.08992000  0.73909000  0.28842000  1.0
  Cl  Cl59  1  0.91008000  0.26090000  0.71158000  1.0
  Cl  Cl60  1  0.43074000  0.74355000  0.17925000  1.0
  Cl  Cl61  1  0.56926000  0.25645000  0.82075000  1.0
  Cl  Cl62  1  0.72405000  0.50885000  0.25729000  1.0
  Cl  Cl63  1  0.27594000  0.49115000  0.74271000  1.0
  Cl  Cl64  1  0.67538000  0.26973000  0.45342000  1.0
  Cl  Cl65  1  0.32462000  0.73026000  0.54657000  1.0
  Cl  Cl66  1  0.34338000  0.27251000  0.57679000  1.0
  Cl  Cl67  1  0.65663000  0.72749000  0.42322000  1.0
