# generated using pymatgen
data_CdH13C18(NO)4
_symmetry_space_group_name_H-M   'P 1'
_cell_length_a   9.84599000
_cell_length_b   10.39910000
_cell_length_c   10.70130000
_cell_angle_alpha   61.28350000
_cell_angle_beta   65.06610000
_cell_angle_gamma   76.37440000
_symmetry_Int_Tables_number   1
_chemical_formula_structural   CdH13C18(NO)4
_chemical_formula_sum   'Cd2 H26 C36 N8 O8'
_cell_volume   870.62162711
_cell_formula_units_Z   2
loop_
 _symmetry_equiv_pos_site_id
 _symmetry_equiv_pos_as_xyz
  1  'x, y, z'
loop_
 _atom_site_type_symbol
 _atom_site_label
 _atom_site_symmetry_multiplicity
 _atom_site_fract_x
 _atom_site_fract_y
 _atom_site_fract_z
 _atom_site_occupancy
  Cd  Cd0  1  0.61404000  0.99389000  0.63180000  1.0
  Cd  Cd1  1  0.38596000  0.00611000  0.36820000  1.0
  H  H2  1  0.97290000  0.92003000  0.83128000  1.0
  H  H3  1  0.02709000  0.07997000  0.16872000  1.0
  H  H4  1  0.10254000  0.56772000  0.19602000  1.0
  H  H5  1  0.89745000  0.43228000  0.80398000  1.0
  H  H6  1  0.72994000  0.52524000  0.10450000  1.0
  H  H7  1  0.27006000  0.47476000  0.89551000  1.0
  H  H8  1  0.14396000  0.83031000  0.17967000  1.0
  H  H9  1  0.85604000  0.16969000  0.82033000  1.0
  H  H10  1  0.40498000  0.98062000  0.99924000  1.0
  H  H11  1  0.59502000  0.01938000  0.00077000  1.0
  H  H12  1  0.27913000  0.87496000  0.72881000  1.0
  H  H13  1  0.72087000  0.12504000  0.27119000  1.0
  H  H14  1  0.09481000  0.33912000  0.33518000  1.0
  H  H15  1  0.90519000  0.66088000  0.66482000  1.0
  H  H16  1  0.95099000  0.08717000  0.56762000  1.0
  H  H17  1  0.04901000  0.91283000  0.43238000  1.0
  H  H18  1  0.65956000  0.35024000  0.33472000  1.0
  H  H19  1  0.34044000  0.64976000  0.66528000  1.0
  H  H20  1  0.63154000  0.43251000  0.67805000  1.0
  H  H21  1  0.36846000  0.56749000  0.32195000  1.0
  H  H22  1  0.55822000  0.72927000  0.25912000  1.0
  H  H23  1  0.44178000  0.27073000  0.74088000  1.0
  H  H24  1  0.77275000  0.75723000  0.30093000  1.0
  H  H25  1  0.22725000  0.24277000  0.69907000  1.0
  H  H26  1  0.81736000  0.62819000  0.46177000  1.0
  H  H27  1  0.18264000  0.37181000  0.53822000  1.0
  C  C28  1  0.84024000  0.72820000  0.96205000  1.0
  C  C29  1  0.15975000  0.27180000  0.03795000  1.0
  C  C30  1  0.95638000  0.81064000  0.92526000  1.0
  C  C31  1  0.04362000  0.18936000  0.07474000  1.0
  C  C32  1  0.04982000  0.75041000  0.00957000  1.0
  C  C33  1  0.95018000  0.24959000  0.99043000  1.0
  C  C34  1  0.02674000  0.61204000  0.13334000  1.0
  C  C35  1  0.97326000  0.38796000  0.86666000  1.0
  C  C36  1  0.90916000  0.53139000  0.17033000  1.0
  C  C37  1  0.09083000  0.46861000  0.82967000  1.0
  C  C38  1  0.81818000  0.58794000  0.08279000  1.0
  C  C39  1  0.18182000  0.41206000  0.91720000  1.0
  C  C40  1  0.74033000  0.78934000  0.86885000  1.0
  C  C41  1  0.25967000  0.21066000  0.13115000  1.0
  C  C42  1  0.21290000  0.86009000  0.06050000  1.0
  C  C43  1  0.78709000  0.13991000  0.93950000  1.0
  C  C44  1  0.34290000  0.93470000  0.96849000  1.0
  C  C45  1  0.65710000  0.06530000  0.03152000  1.0
  C  C46  1  0.28004000  0.88595000  0.82401000  1.0
  C  C47  1  0.71996000  0.11405000  0.17599000  1.0
  C  C48  1  0.98223000  0.30764000  0.37235000  1.0
  C  C49  1  0.01777000  0.69237000  0.62765000  1.0
  C  C50  1  0.91131000  0.18096000  0.48497000  1.0
  C  C51  1  0.08869000  0.81904000  0.51503000  1.0
  C  C52  1  0.75884000  0.31211000  0.36456000  1.0
  C  C53  1  0.24116000  0.68789000  0.63544000  1.0
  C  C54  1  0.60905000  0.59298000  0.46344000  1.0
  C  C55  1  0.39095000  0.40702000  0.53656000  1.0
  C  C56  1  0.57423000  0.46295000  0.59909000  1.0
  C  C57  1  0.42578000  0.53705000  0.40091000  1.0
  C  C58  1  0.53301000  0.62844000  0.36517000  1.0
  C  C59  1  0.46699000  0.37156000  0.63483000  1.0
  C  C60  1  0.72364000  0.69205000  0.42546000  1.0
  C  C61  1  0.27636000  0.30795000  0.57454000  1.0
  C  C62  1  0.66514000  0.80274000  0.49420000  1.0
  C  C63  1  0.33487000  0.19726000  0.50579000  1.0
  N  N64  1  0.38382000  0.94955000  0.82187000  1.0
  N  N65  1  0.61618000  0.05044000  0.17813000  1.0
  N  N66  1  0.17399000  0.83005000  0.96695000  1.0
  N  N67  1  0.82601000  0.16995000  0.03305000  1.0
  N  N68  1  0.77257000  0.18540000  0.47882000  1.0
  N  N69  1  0.22743000  0.81460000  0.52118000  1.0
  N  N70  1  0.88458000  0.39062000  0.29573000  1.0
  N  N71  1  0.11542000  0.60938000  0.70427000  1.0
  O  O72  1  0.73616000  0.93054000  0.79503000  1.0
  O  O73  1  0.26384000  0.06946000  0.20497000  1.0
  O  O74  1  0.67230000  0.70263000  0.86747000  1.0
  O  O75  1  0.32770000  0.29737000  0.13253000  1.0
  O  O76  1  0.76379000  0.86459000  0.49247000  1.0
  O  O77  1  0.23621000  0.13541000  0.50752000  1.0
  O  O78  1  0.52514000  0.83076000  0.54724000  1.0
  O  O79  1  0.47486000  0.16924000  0.45276000  1.0
