# generated using pymatgen
data_MnH22C24(NO2)2
_symmetry_space_group_name_H-M   'P 1'
_cell_length_a   13.44350000
_cell_length_b   13.79250000
_cell_length_c   16.31340000
_cell_angle_alpha   108.98500000
_cell_angle_beta   89.94300000
_cell_angle_gamma   119.16900000
_symmetry_Int_Tables_number   1
_chemical_formula_structural   MnH22C24(NO2)2
_chemical_formula_sum   'Mn4 H88 C96 N8 O16'
_cell_volume   2451.66373703
_cell_formula_units_Z   4
loop_
 _symmetry_equiv_pos_site_id
 _symmetry_equiv_pos_as_xyz
  1  'x, y, z'
loop_
 _atom_site_type_symbol
 _atom_site_label
 _atom_site_symmetry_multiplicity
 _atom_site_fract_x
 _atom_site_fract_y
 _atom_site_fract_z
 _atom_site_occupancy
  Mn  Mn0  1  0.97040000  0.41160000  0.86668000  1.0
  Mn  Mn1  1  0.55840000  0.58860000  0.63344000  1.0
  Mn  Mn2  1  0.02963000  0.58852000  0.13341000  1.0
  Mn  Mn3  1  0.44153000  0.41136000  0.36654000  1.0
  H  H4  1  0.02623000  0.38190000  0.31121000  1.0
  H  H5  1  0.00538000  0.23567000  0.27815000  1.0
  H  H6  1  0.89720000  0.25715000  0.23920000  1.0
  H  H7  1  0.79210000  0.33238000  0.44812000  1.0
  H  H8  1  0.90601000  0.44029000  0.41506000  1.0
  H  H9  1  0.78162000  0.31824000  0.33556000  1.0
  H  H10  1  0.74379000  0.10712000  0.29122000  1.0
  H  H11  1  0.84720000  0.08068000  0.33235000  1.0
  H  H12  1  0.76230000  0.12089000  0.40354000  1.0
  H  H13  1  0.19896000  0.40816000  0.67161000  1.0
  H  H14  1  0.13779000  0.34805000  0.39669000  1.0
  H  H15  1  0.85734000  0.28065000  0.54192000  1.0
  H  H16  1  0.22058000  0.49493000  0.84531000  1.0
  H  H17  1  0.40247000  0.67005000  0.84261000  1.0
  H  H18  1  0.23431000  0.87666000  0.92764000  1.0
  H  H19  1  0.05852000  0.69030000  0.92403000  1.0
  H  H20  1  0.42570000  0.97814000  0.90733000  1.0
  H  H21  1  0.55057000  0.83668000  0.84627000  1.0
  H  H22  1  0.70798000  0.29924000  0.86363000  1.0
  H  H23  1  0.53670000  0.11408000  0.86591000  1.0
  H  H24  1  0.76004000  0.96894000  0.85908000  1.0
  H  H25  1  0.92335000  0.16352000  0.85845000  1.0
  H  H26  1  0.64363000  0.61827000  0.18867000  1.0
  H  H27  1  0.76908000  0.76441000  0.22161000  1.0
  H  H28  1  0.63943000  0.74316000  0.26065000  1.0
  H  H29  1  0.45943000  0.66810000  0.05192000  1.0
  H  H30  1  0.46526000  0.56013000  0.08495000  1.0
  H  H31  1  0.46301000  0.68231000  0.16451000  1.0
  H  H32  1  0.63665000  0.89334000  0.20869000  1.0
  H  H33  1  0.76641000  0.91934000  0.16735000  1.0
  H  H34  1  0.64149000  0.87952000  0.09634000  1.0
  H  H35  1  0.79044000  0.59125000  0.82811000  1.0
  H  H36  1  0.78881000  0.65156000  0.10304000  1.0
  H  H37  1  0.57648000  0.71939000  0.95786000  1.0
  H  H38  1  0.72597000  0.50588000  0.65558000  1.0
  H  H39  1  0.73267000  0.33050000  0.65793000  1.0
  H  H40  1  0.35825000  0.12380000  0.57192000  1.0
  H  H41  1  0.36888000  0.31029000  0.57587000  1.0
  H  H42  1  0.44792000  0.02235000  0.59240000  1.0
  H  H43  1  0.71406000  0.16359000  0.65379000  1.0
  H  H44  1  0.40824000  0.70120000  0.63654000  1.0
  H  H45  1  0.42241000  0.88635000  0.63396000  1.0
  H  H46  1  0.79083000  0.03096000  0.64089000  1.0
  H  H47  1  0.75928000  0.83647000  0.64190000  1.0
  H  H48  1  0.97379000  0.61807000  0.68880000  1.0
  H  H49  1  0.99463000  0.76430000  0.72186000  1.0
  H  H50  1  0.10281000  0.74282000  0.76080000  1.0
  H  H51  1  0.20789000  0.66760000  0.55186000  1.0
  H  H52  1  0.09399000  0.55968000  0.58493000  1.0
  H  H53  1  0.21839000  0.68172000  0.66441000  1.0
  H  H54  1  0.25622000  0.89287000  0.70876000  1.0
  H  H55  1  0.15279000  0.91929000  0.66764000  1.0
  H  H56  1  0.23769000  0.87908000  0.59644000  1.0
  H  H57  1  0.80099000  0.59176000  0.32840000  1.0
  H  H58  1  0.86221000  0.65191000  0.60333000  1.0
  H  H59  1  0.14262000  0.71933000  0.45808000  1.0
  H  H60  1  0.77948000  0.50512000  0.15471000  1.0
  H  H61  1  0.59757000  0.32998000  0.15738000  1.0
  H  H62  1  0.76572000  0.12337000  0.07234000  1.0
  H  H63  1  0.94154000  0.30976000  0.07601000  1.0
  H  H64  1  0.57434000  0.02190000  0.09265000  1.0
  H  H65  1  0.44949000  0.16338000  0.15375000  1.0
  H  H66  1  0.29207000  0.70082000  0.13639000  1.0
  H  H67  1  0.46333000  0.88596000  0.13408000  1.0
  H  H68  1  0.24001000  0.03111000  0.14092000  1.0
  H  H69  1  0.07671000  0.83654000  0.14157000  1.0
  H  H70  1  0.35637000  0.38170000  0.81133000  1.0
  H  H71  1  0.23091000  0.23556000  0.77839000  1.0
  H  H72  1  0.36056000  0.25681000  0.73935000  1.0
  H  H73  1  0.54056000  0.33187000  0.94807000  1.0
  H  H74  1  0.53474000  0.43984000  0.91504000  1.0
  H  H75  1  0.53699000  0.31766000  0.83548000  1.0
  H  H76  1  0.36336000  0.10665000  0.79130000  1.0
  H  H77  1  0.23360000  0.08063000  0.83264000  1.0
  H  H78  1  0.35852000  0.12046000  0.90365000  1.0
  H  H79  1  0.20955000  0.40873000  0.17189000  1.0
  H  H80  1  0.21121000  0.34847000  0.89697000  1.0
  H  H81  1  0.42347000  0.28054000  0.04211000  1.0
  H  H82  1  0.27396000  0.49412000  0.34443000  1.0
  H  H83  1  0.26732000  0.66951000  0.34206000  1.0
  H  H84  1  0.64172000  0.87616000  0.42808000  1.0
  H  H85  1  0.63105000  0.68967000  0.42416000  1.0
  H  H86  1  0.55209000  0.97764000  0.40757000  1.0
  H  H87  1  0.28595000  0.83645000  0.34618000  1.0
  H  H88  1  0.59176000  0.29883000  0.36345000  1.0
  H  H89  1  0.57762000  0.11369000  0.36604000  1.0
  H  H90  1  0.20917000  0.96903000  0.35908000  1.0
  H  H91  1  0.24071000  0.16352000  0.35807000  1.0
  C  C92  1  0.96170000  0.28721000  0.29680000  1.0
  C  C93  1  0.84170000  0.34457000  0.39501000  1.0
  C  C94  1  0.80805000  0.13675000  0.34904000  1.0
  C  C95  1  0.02211000  0.33909000  0.61330000  1.0
  C  C96  1  0.13957000  0.37928000  0.61188000  1.0
  C  C97  1  0.18009000  0.38406000  0.53370000  1.0
  C  C98  1  0.10301000  0.34589000  0.45676000  1.0
  C  C99  1  0.98587000  0.30840000  0.45738000  1.0
  C  C100  1  0.94722000  0.30664000  0.53716000  1.0
  C  C101  1  0.98019000  0.34054000  0.69836000  1.0
  C  C102  1  0.30600000  0.43093000  0.53140000  1.0
  C  C103  1  0.90094000  0.27006000  0.37500000  1.0
  C  C104  1  0.22815000  0.58190000  0.86373000  1.0
  C  C105  1  0.32949000  0.68049000  0.86240000  1.0
  C  C106  1  0.33485000  0.79101000  0.88587000  1.0
  C  C107  1  0.23503000  0.79356000  0.90876000  1.0
  C  C108  1  0.13681000  0.69005000  0.90731000  1.0
  C  C109  1  0.43573000  0.90010000  0.88668000  1.0
  C  C110  1  0.53748000  0.91285000  0.86501000  1.0
  C  C111  1  0.71534000  0.22398000  0.86387000  1.0
  C  C112  1  0.62079000  0.12067000  0.86602000  1.0
  C  C113  1  0.63368000  0.02480000  0.86478000  1.0
  C  C114  1  0.74507000  0.04075000  0.86164000  1.0
  C  C115  1  0.83574000  0.14782000  0.86041000  1.0
  C  C116  1  0.67388000  0.71297000  0.20302000  1.0
  C  C117  1  0.49673000  0.65588000  0.10501000  1.0
  C  C118  1  0.67120000  0.86353000  0.15078000  1.0
  C  C119  1  0.68270000  0.66052000  0.88645000  1.0
  C  C120  1  0.75983000  0.62019000  0.88786000  1.0
  C  C121  1  0.79544000  0.61547000  0.96605000  1.0
  C  C122  1  0.75639000  0.65374000  0.04296000  1.0
  C  C123  1  0.67692000  0.69146000  0.04237000  1.0
  C  C124  1  0.64022000  0.69321000  0.96261000  1.0
  C  C125  1  0.63970000  0.65924000  0.80143000  1.0
  C  C126  1  0.87464000  0.56875000  0.96844000  1.0
  C  C127  1  0.63044000  0.73014000  0.12484000  1.0
  C  C128  1  0.64665000  0.41880000  0.63686000  1.0
  C  C129  1  0.64936000  0.32011000  0.63800000  1.0
  C  C130  1  0.54426000  0.20953000  0.61415000  1.0
  C  C131  1  0.44200000  0.20696000  0.59107000  1.0
  C  C132  1  0.44733000  0.31054000  0.59274000  1.0
  C  C133  1  0.53597000  0.10038000  0.61320000  1.0
  C  C134  1  0.62478000  0.08750000  0.63497000  1.0
  C  C135  1  0.49094000  0.77639000  0.63632000  1.0
  C  C136  1  0.49983000  0.87966000  0.63400000  1.0
  C  C137  1  0.60872000  0.97546000  0.63522000  1.0
  C  C138  1  0.70401000  0.95930000  0.63843000  1.0
  C  C139  1  0.68745000  0.85225000  0.63984000  1.0
  C  C140  1  0.03831000  0.71276000  0.70320000  1.0
  C  C141  1  0.15830000  0.65540000  0.60498000  1.0
  C  C142  1  0.19193000  0.86322000  0.65094000  1.0
  C  C143  1  0.97782000  0.66085000  0.38670000  1.0
  C  C144  1  0.86037000  0.62065000  0.38813000  1.0
  C  C145  1  0.81985000  0.61588000  0.46632000  1.0
  C  C146  1  0.89695000  0.65406000  0.54325000  1.0
  C  C147  1  0.01410000  0.69155000  0.54261000  1.0
  C  C148  1  0.05273000  0.69331000  0.46284000  1.0
  C  C149  1  0.01977000  0.65949000  0.30165000  1.0
  C  C150  1  0.69394000  0.56905000  0.46864000  1.0
  C  C151  1  0.09906000  0.72992000  0.62500000  1.0
  C  C152  1  0.77189000  0.41813000  0.13627000  1.0
  C  C153  1  0.67055000  0.31955000  0.13760000  1.0
  C  C154  1  0.66519000  0.20903000  0.11412000  1.0
  C  C155  1  0.76501000  0.20647000  0.09124000  1.0
  C  C156  1  0.86324000  0.31000000  0.09271000  1.0
  C  C157  1  0.56432000  0.09995000  0.11331000  1.0
  C  C158  1  0.46257000  0.08720000  0.13499000  1.0
  C  C159  1  0.28470000  0.77606000  0.13614000  1.0
  C  C160  1  0.37925000  0.87937000  0.13399000  1.0
  C  C161  1  0.36637000  0.97525000  0.13523000  1.0
  C  C162  1  0.25498000  0.95930000  0.13837000  1.0
  C  C163  1  0.16431000  0.85223000  0.13960000  1.0
  C  C164  1  0.32612000  0.28701000  0.79697000  1.0
  C  C165  1  0.50326000  0.34410000  0.89499000  1.0
  C  C166  1  0.32880000  0.13645000  0.84922000  1.0
  C  C167  1  0.31728000  0.33945000  0.11355000  1.0
  C  C168  1  0.24016000  0.37980000  0.11215000  1.0
  C  C169  1  0.20457000  0.38455000  0.03396000  1.0
  C  C170  1  0.24361000  0.34626000  0.95705000  1.0
  C  C171  1  0.32306000  0.30852000  0.95763000  1.0
  C  C172  1  0.35975000  0.30675000  0.03739000  1.0
  C  C173  1  0.36028000  0.34073000  0.19857000  1.0
  C  C174  1  0.12540000  0.43131000  0.03157000  1.0
  C  C175  1  0.36955000  0.26984000  0.87516000  1.0
  C  C176  1  0.35329000  0.58118000  0.36314000  1.0
  C  C177  1  0.35060000  0.67988000  0.36198000  1.0
  C  C178  1  0.45572000  0.79046000  0.38583000  1.0
  C  C179  1  0.55796000  0.79300000  0.40893000  1.0
  C  C180  1  0.55261000  0.68941000  0.40727000  1.0
  C  C181  1  0.46404000  0.89962000  0.38677000  1.0
  C  C182  1  0.37523000  0.91251000  0.36500000  1.0
  C  C183  1  0.50907000  0.22364000  0.36368000  1.0
  C  C184  1  0.50019000  0.12037000  0.36600000  1.0
  C  C185  1  0.39130000  0.02456000  0.36476000  1.0
  C  C186  1  0.29600000  0.04070000  0.36155000  1.0
  C  C187  1  0.31254000  0.14774000  0.36014000  1.0
  N  N188  1  0.13225000  0.58495000  0.88559000  1.0
  N  N189  1  0.82167000  0.23815000  0.86081000  1.0
  N  N190  1  0.54781000  0.41573000  0.61482000  1.0
  N  N191  1  0.58301000  0.76210000  0.63957000  1.0
  N  N192  1  0.86779000  0.41508000  0.11441000  1.0
  N  N193  1  0.17836000  0.76189000  0.13920000  1.0
  N  N194  1  0.45212000  0.58423000  0.38519000  1.0
  N  N195  1  0.41698000  0.23790000  0.36042000  1.0
  O  O196  1  0.03693000  0.33406000  0.75764000  1.0
  O  O197  1  0.89394000  0.35456000  0.71212000  1.0
  O  O198  1  0.33237000  0.39030000  0.45853000  1.0
  O  O199  1  0.37826000  0.50725000  0.60334000  1.0
  O  O200  1  0.70352000  0.66692000  0.74251000  1.0
  O  O201  1  0.53898000  0.64414000  0.78736000  1.0
  O  O202  1  0.94108000  0.60910000  0.04145000  1.0
  O  O203  1  0.87125000  0.49285000  0.89645000  1.0
  O  O204  1  0.96307000  0.66604000  0.24239000  1.0
  O  O205  1  0.10602000  0.64547000  0.28785000  1.0
  O  O206  1  0.66761000  0.60968000  0.54153000  1.0
  O  O207  1  0.62166000  0.49277000  0.39670000  1.0
  O  O208  1  0.29646000  0.33306000  0.25750000  1.0
  O  O209  1  0.46099000  0.35582000  0.21264000  1.0
  O  O210  1  0.05898000  0.39099000  0.95856000  1.0
  O  O211  1  0.12879000  0.50720000  0.10356000  1.0
