# generated using pymatgen
data_Cu2H5C9SN7O4
_symmetry_space_group_name_H-M   'P 1'
_cell_length_a   12.99460000
_cell_length_b   20.24630000
_cell_length_c   20.25010000
_cell_angle_alpha   115.56300000
_cell_angle_beta   102.34700000
_cell_angle_gamma   102.33800000
_symmetry_Int_Tables_number   1
_chemical_formula_structural   Cu2H5C9SN7O4
_chemical_formula_sum   'Cu12 H30 C54 S6 N42 O24'
_cell_volume   4402.94365056
_cell_formula_units_Z   6
loop_
 _symmetry_equiv_pos_site_id
 _symmetry_equiv_pos_as_xyz
  1  'x, y, z'
loop_
 _atom_site_type_symbol
 _atom_site_label
 _atom_site_symmetry_multiplicity
 _atom_site_fract_x
 _atom_site_fract_y
 _atom_site_fract_z
 _atom_site_occupancy
  Cu  Cu0  1  0.69986000  0.31398000  0.82430000  1.0
  Cu  Cu1  1  0.54728000  0.08777000  0.61272000  1.0
  Cu  Cu2  1  0.38563000  0.51040000  0.68615000  1.0
  Cu  Cu3  1  0.45938000  0.52498000  0.91226000  1.0
  Cu  Cu4  1  0.87538000  0.17557000  0.48949000  1.0
  Cu  Cu5  1  0.93447000  0.38726000  0.47506000  1.0
  Cu  Cu6  1  0.30014000  0.68602000  0.17570000  1.0
  Cu  Cu7  1  0.45272000  0.91223000  0.38729000  1.0
  Cu  Cu8  1  0.61437000  0.48960000  0.31385000  1.0
  Cu  Cu9  1  0.54061000  0.47502000  0.08774000  1.0
  Cu  Cu10  1  0.12462000  0.82443000  0.51051000  1.0
  Cu  Cu11  1  0.06553000  0.61274000  0.52494000  1.0
  H  H12  1  0.85268000  0.48458000  0.94910000  1.0
  H  H13  1  0.02322000  0.58027000  0.96024000  1.0
  H  H14  1  0.10857000  0.53640000  0.85485000  1.0
  H  H15  1  0.02327000  0.39802000  0.74541000  1.0
  H  H16  1  0.67119000  0.99934000  0.36879000  1.0
  H  H17  1  0.36716000  0.46441000  0.51548000  1.0
  H  H18  1  0.44198000  0.37989000  0.41966000  1.0
  H  H19  1  0.57131000  0.31826000  0.46333000  1.0
  H  H20  1  0.62439000  0.34711000  0.60168000  1.0
  H  H21  1  0.67200000  0.36945000  0.00056000  1.0
  H  H22  1  0.90332000  0.05087000  0.53544000  1.0
  H  H23  1  0.06258000  0.03969000  0.62006000  1.0
  H  H24  1  0.25338000  0.14516000  0.68175000  1.0
  H  H25  1  0.27742000  0.25460000  0.65278000  1.0
  H  H26  1  0.30206000  0.63123000  0.63087000  1.0
  H  H27  1  0.14732000  0.51542000  0.05090000  1.0
  H  H28  1  0.97678000  0.41974000  0.03977000  1.0
  H  H29  1  0.89143000  0.46361000  0.14516000  1.0
  H  H30  1  0.97673000  0.60199000  0.25459000  1.0
  H  H31  1  0.32881000  0.00066000  0.63121000  1.0
  H  H32  1  0.63284000  0.53558000  0.48452000  1.0
  H  H33  1  0.55803000  0.62011000  0.58034000  1.0
  H  H34  1  0.42870000  0.68174000  0.53667000  1.0
  H  H35  1  0.37561000  0.65289000  0.39832000  1.0
  H  H36  1  0.32800000  0.63055000  0.99944000  1.0
  H  H37  1  0.09667000  0.94913000  0.46455000  1.0
  H  H38  1  0.93742000  0.96031000  0.37994000  1.0
  H  H39  1  0.74661000  0.85484000  0.31825000  1.0
  H  H40  1  0.72258000  0.74539000  0.34721000  1.0
  H  H41  1  0.69794000  0.36877000  0.36913000  1.0
  C  C42  1  0.89325000  0.46814000  0.90550000  1.0
  C  C43  1  0.98830000  0.52065000  0.91125000  1.0
  C  C44  1  0.03594000  0.49603000  0.85318000  1.0
  C  C45  1  0.98779000  0.41918000  0.79138000  1.0
  C  C46  1  0.89194000  0.37004000  0.78898000  1.0
  C  C47  1  0.82846000  0.29014000  0.72649000  1.0
  C  C48  1  0.75403000  0.18251000  0.62405000  1.0
  C  C49  1  0.71264000  0.11496000  0.54719000  1.0
  C  C50  1  0.67161000  0.03036000  0.42793000  1.0
  C  C51  1  0.42410000  0.43714000  0.53179000  1.0
  C  C52  1  0.46654000  0.39033000  0.47920000  1.0
  C  C53  1  0.53892000  0.35689000  0.50371000  1.0
  C  C54  1  0.56771000  0.37193000  0.58056000  1.0
  C  C55  1  0.52114000  0.41874000  0.62980000  1.0
  C  C56  1  0.53776000  0.43624000  0.70975000  1.0
  C  C57  1  0.57141000  0.44160000  0.81746000  1.0
  C  C58  1  0.59769000  0.43228000  0.88501000  1.0
  C  C59  1  0.64142000  0.39763000  0.96960000  1.0
  C  C60  1  0.98745000  0.09448000  0.56271000  1.0
  C  C61  1  0.07669000  0.08875000  0.60954000  1.0
  C  C62  1  0.18240000  0.14679000  0.64300000  1.0
  C  C63  1  0.19601000  0.20860000  0.62796000  1.0
  C  C64  1  0.10262000  0.21096000  0.58112000  1.0
  C  C65  1  0.10164000  0.27342000  0.56367000  1.0
  C  C66  1  0.12974000  0.37583000  0.55841000  1.0
  C  C67  1  0.16526000  0.45274000  0.56781000  1.0
  C  C68  1  0.24340000  0.57206000  0.60268000  1.0
  C  C69  1  0.10676000  0.53186000  0.09450000  1.0
  C  C70  1  0.01170000  0.47936000  0.08875000  1.0
  C  C71  1  0.96406000  0.50397000  0.14682000  1.0
  C  C72  1  0.01222000  0.58083000  0.20862000  1.0
  C  C73  1  0.10806000  0.62997000  0.21102000  1.0
  C  C74  1  0.17155000  0.70986000  0.27351000  1.0
  C  C75  1  0.24597000  0.81749000  0.37595000  1.0
  C  C76  1  0.28736000  0.88505000  0.45281000  1.0
  C  C77  1  0.32838000  0.96964000  0.57207000  1.0
  C  C78  1  0.57590000  0.56285000  0.46821000  1.0
  C  C79  1  0.53346000  0.60966000  0.52080000  1.0
  C  C80  1  0.46108000  0.64311000  0.49629000  1.0
  C  C81  1  0.43229000  0.62806000  0.41944000  1.0
  C  C82  1  0.47886000  0.58126000  0.37019000  1.0
  C  C83  1  0.46223000  0.56375000  0.29025000  1.0
  C  C84  1  0.42860000  0.55840000  0.18254000  1.0
  C  C85  1  0.40230000  0.56771000  0.11499000  1.0
  C  C86  1  0.35858000  0.60237000  0.03041000  1.0
  C  C87  1  0.01254000  0.90551000  0.43729000  1.0
  C  C88  1  0.92330000  0.91125000  0.39046000  1.0
  C  C89  1  0.81759000  0.85321000  0.35700000  1.0
  C  C90  1  0.80398000  0.79139000  0.37204000  1.0
  C  C91  1  0.89737000  0.78904000  0.41888000  1.0
  C  C92  1  0.89836000  0.72657000  0.43633000  1.0
  C  C93  1  0.87027000  0.62417000  0.44159000  1.0
  C  C94  1  0.83474000  0.54726000  0.43219000  1.0
  C  C95  1  0.75660000  0.42794000  0.39732000  1.0
  S  S96  1  0.48115000  0.18319000  0.75123000  1.0
  S  S97  1  0.29789000  0.56820000  0.81679000  1.0
  S  S98  1  0.72952000  0.24850000  0.43184000  1.0
  S  S99  1  0.51885000  0.81681000  0.24877000  1.0
  S  S100  1  0.70211000  0.43180000  0.18321000  1.0
  S  S101  1  0.27048000  0.75149000  0.56815000  1.0
  N  N102  1  0.84568000  0.39471000  0.84552000  1.0
  N  N103  1  0.73476000  0.25218000  0.73257000  1.0
  N  N104  1  0.68632000  0.18270000  0.66649000  1.0
  N  N105  1  0.84421000  0.24794000  0.65911000  1.0
  N  N106  1  0.61501000  0.06034000  0.52710000  1.0
  N  N107  1  0.58914000  0.00620000  0.45093000  1.0
  N  N108  1  0.75124000  0.09809000  0.48717000  1.0
  N  N109  1  0.45025000  0.45069000  0.60524000  1.0
  N  N110  1  0.48219000  0.48037000  0.74783000  1.0
  N  N111  1  0.50352000  0.48389000  0.81736000  1.0
  N  N112  1  0.59588000  0.41110000  0.75192000  1.0
  N  N113  1  0.55463000  0.46676000  0.93964000  1.0
  N  N114  1  0.58301000  0.44474000  0.99377000  1.0
  N  N115  1  0.65326000  0.38916000  0.90186000  1.0
  N  N116  1  0.99988000  0.15437000  0.54914000  1.0
  N  N117  1  0.00196000  0.26733000  0.51953000  1.0
  N  N118  1  0.01964000  0.33337000  0.51606000  1.0
  N  N119  1  0.18477000  0.34081000  0.58890000  1.0
  N  N120  1  0.08777000  0.47284000  0.53325000  1.0
  N  N121  1  0.13800000  0.54906000  0.55543000  1.0
  N  N122  1  0.26377000  0.51279000  0.61111000  1.0
  N  N123  1  0.15433000  0.60529000  0.15448000  1.0
  N  N124  1  0.26524000  0.74782000  0.26743000  1.0
  N  N125  1  0.31368000  0.81730000  0.33351000  1.0
  N  N126  1  0.15579000  0.75207000  0.34089000  1.0
  N  N127  1  0.38499000  0.93966000  0.47290000  1.0
  N  N128  1  0.41086000  0.99380000  0.54907000  1.0
  N  N129  1  0.24876000  0.90192000  0.51283000  1.0
  N  N130  1  0.54975000  0.54931000  0.39476000  1.0
  N  N131  1  0.51780000  0.51963000  0.25217000  1.0
  N  N132  1  0.49649000  0.51611000  0.18264000  1.0
  N  N133  1  0.40412000  0.58890000  0.24809000  1.0
  N  N134  1  0.44536000  0.53323000  0.06036000  1.0
  N  N135  1  0.41698000  0.55526000  0.00623000  1.0
  N  N136  1  0.34674000  0.61084000  0.09814000  1.0
  N  N137  1  0.00011000  0.84563000  0.45086000  1.0
  N  N138  1  0.99805000  0.73267000  0.48047000  1.0
  N  N139  1  0.98036000  0.66666667  0.48394000  1.0
  N  N140  1  0.81523000  0.65919000  0.41110000  1.0
  N  N141  1  0.91223000  0.52716000  0.46675000  1.0
  N  N142  1  0.86200000  0.45094000  0.44457000  1.0
  N  N143  1  0.73623000  0.48721000  0.38889000  1.0
  O  O144  1  0.58998000  0.23086000  0.82190000  1.0
  O  O145  1  0.46543000  0.22544000  0.70876000  1.0
  O  O146  1  0.38955000  0.16195000  0.77717000  1.0
  O  O147  1  0.49588000  0.10631000  0.69908000  1.0
  O  O148  1  0.35951000  0.59143000  0.76943000  1.0
  O  O149  1  0.23984000  0.48347000  0.77427000  1.0
  O  O150  1  0.22747000  0.61536000  0.83800000  1.0
  O  O151  1  0.38913000  0.59269000  0.89370000  1.0
  O  O152  1  0.76810000  0.17798000  0.40864000  1.0
  O  O153  1  0.75582000  0.29054000  0.51651000  1.0
  O  O154  1  0.61204000  0.22250000  0.38452000  1.0
  O  O155  1  0.79636000  0.30111000  0.40757000  1.0
  O  O156  1  0.41002000  0.76914000  0.17810000  1.0
  O  O157  1  0.53457000  0.77456000  0.29124000  1.0
  O  O158  1  0.61046000  0.83805000  0.22283000  1.0
  O  O159  1  0.50413000  0.89369000  0.30092000  1.0
  O  O160  1  0.64049000  0.40857000  0.23057000  1.0
  O  O161  1  0.76016000  0.51653000  0.22574000  1.0
  O  O162  1  0.77253000  0.38464000  0.16199000  1.0
  O  O163  1  0.61087000  0.40731000  0.10630000  1.0
  O  O164  1  0.23190000  0.82202000  0.59135000  1.0
  O  O165  1  0.24418000  0.70946000  0.48348000  1.0
  O  O166  1  0.38796000  0.77750000  0.61548000  1.0
  O  O167  1  0.20364000  0.69889000  0.59243000  1.0
