# generated using pymatgen
data_GdH8C6O7
_symmetry_space_group_name_H-M   'P 1'
_cell_length_a   7.71138000
_cell_length_b   10.75250000
_cell_length_c   12.68660000
_cell_angle_alpha   71.86800000
_cell_angle_beta   72.31440000
_cell_angle_gamma   68.98710000
_symmetry_Int_Tables_number   1
_chemical_formula_structural   GdH8C6O7
_chemical_formula_sum   'Gd4 H32 C24 O28'
_cell_volume   911.04852228
_cell_formula_units_Z   4
loop_
 _symmetry_equiv_pos_site_id
 _symmetry_equiv_pos_as_xyz
  1  'x, y, z'
loop_
 _atom_site_type_symbol
 _atom_site_label
 _atom_site_symmetry_multiplicity
 _atom_site_fract_x
 _atom_site_fract_y
 _atom_site_fract_z
 _atom_site_occupancy
  Gd  Gd0  1  0.01588000  0.30984000  0.22916000  1.0
  Gd  Gd1  1  0.55494000  0.19012000  0.27084000  1.0
  Gd  Gd2  1  0.98412000  0.69016000  0.77084000  1.0
  Gd  Gd3  1  0.44506000  0.80988000  0.72916000  1.0
  H  H4  1  0.82582000  0.58021000  0.08780000  1.0
  H  H5  1  0.49383000  0.91977000  0.41214000  1.0
  H  H6  1  0.17419000  0.41979000  0.91220000  1.0
  H  H7  1  0.50617000  0.08023000  0.58786000  1.0
  H  H8  1  0.66443000  0.49842000  0.14577000  1.0
  H  H9  1  0.30866000  0.00158000  0.35411000  1.0
  H  H10  1  0.33558000  0.50158000  0.85423000  1.0
  H  H11  1  0.69134000  0.99842000  0.64589000  1.0
  H  H12  1  0.09510000  0.83296000  0.48559000  1.0
  H  H13  1  0.41363000  0.66699000  0.01446000  1.0
  H  H14  1  0.90490000  0.16704000  0.51441000  1.0
  H  H15  1  0.58637000  0.33301000  0.98554000  1.0
  H  H16  1  0.19036000  0.79688000  0.35034000  1.0
  H  H17  1  0.33772000  0.70300000  0.14971000  1.0
  H  H18  1  0.80964000  0.20312000  0.64966000  1.0
  H  H19  1  0.66228000  0.29700000  0.85029000  1.0
  H  H20  1  0.87097000  0.75893000  0.36095000  1.0
  H  H21  1  0.99096000  0.74103000  0.13911000  1.0
  H  H22  1  0.12904000  0.24107000  0.63905000  1.0
  H  H23  1  0.00904000  0.25896000  0.86089000  1.0
  H  H24  1  0.01188000  0.63662000  0.45782000  1.0
  H  H25  1  0.10645000  0.86329000  0.04219000  1.0
  H  H26  1  0.98812000  0.36338000  0.54218000  1.0
  H  H27  1  0.89356000  0.13671000  0.95781000  1.0
  H  H28  1  0.34369000  0.13561000  0.97014000  1.0
  H  H29  1  0.44936000  0.36445000  0.52968000  1.0
  H  H30  1  0.65631000  0.86439000  0.02986000  1.0
  H  H31  1  0.55064000  0.63555000  0.47032000  1.0
  H  H32  1  0.30648000  0.99988000  0.08389000  1.0
  H  H33  1  0.39018000  0.50035000  0.41604000  1.0
  H  H34  1  0.69352000  0.00012000  0.91611000  1.0
  H  H35  1  0.60982000  0.49965000  0.58396000  1.0
  C  C36  1  0.96763000  0.98451000  0.35466000  1.0
  C  C37  1  0.30685000  0.51542000  0.14534000  1.0
  C  C38  1  0.03237000  0.01549000  0.64534000  1.0
  C  C39  1  0.69315000  0.48458000  0.85466000  1.0
  C  C40  1  0.05548000  0.83545000  0.40852000  1.0
  C  C41  1  0.29947000  0.66447000  0.09154000  1.0
  C  C42  1  0.94452000  0.16455000  0.59148000  1.0
  C  C43  1  0.70053000  0.33553000  0.90847000  1.0
  C  C44  1  0.92699000  0.74390000  0.43519000  1.0
  C  C45  1  0.10614000  0.75604000  0.06485000  1.0
  C  C46  1  0.07301000  0.25610000  0.56481000  1.0
  C  C47  1  0.89386000  0.24395000  0.93515000  1.0
  C  C48  1  0.76150000  0.76783000  0.53509000  1.0
  C  C49  1  0.06443000  0.73211000  0.96497000  1.0
  C  C50  1  0.23849000  0.23216000  0.46491000  1.0
  C  C51  1  0.93557000  0.26789000  0.03503000  1.0
  C  C52  1  0.47275000  0.10561000  0.10525000  1.0
  C  C53  1  0.68355000  0.39447000  0.39468000  1.0
  C  C54  1  0.52725000  0.89439000  0.89475000  1.0
  C  C55  1  0.31645000  0.60553000  0.60532000  1.0
  C  C56  1  0.41664000  0.04933000  0.03030000  1.0
  C  C57  1  0.49622000  0.45076000  0.46963000  1.0
  C  C58  1  0.58336000  0.95067000  0.96970000  1.0
  C  C59  1  0.50378000  0.54925000  0.53037000  1.0
  O  O60  1  0.77942000  0.51222000  0.15391000  1.0
  O  O61  1  0.44561000  0.98776000  0.34602000  1.0
  O  O62  1  0.22058000  0.48778000  0.84609000  1.0
  O  O63  1  0.55439000  0.01224000  0.65398000  1.0
  O  O64  1  0.06850000  0.06660000  0.32737000  1.0
  O  O65  1  0.46263000  0.43329000  0.17249000  1.0
  O  O66  1  0.93150000  0.93340000  0.67263000  1.0
  O  O67  1  0.53737000  0.56671000  0.82751000  1.0
  O  O68  1  0.80038000  0.01800000  0.34049000  1.0
  O  O69  1  0.15886000  0.48195000  0.15960000  1.0
  O  O70  1  0.19963000  0.98200000  0.65951000  1.0
  O  O71  1  0.84114000  0.51805000  0.84040000  1.0
  O  O72  1  0.59017000  0.81600000  0.52336000  1.0
  O  O73  1  0.92961000  0.68392000  0.97662000  1.0
  O  O74  1  0.40983000  0.18401000  0.47664000  1.0
  O  O75  1  0.07039000  0.31608000  0.02338000  1.0
  O  O76  1  0.79116000  0.73579000  0.63591000  1.0
  O  O77  1  0.16291000  0.76420000  0.86415000  1.0
  O  O78  1  0.20883000  0.26422000  0.36408000  1.0
  O  O79  1  0.83709000  0.23580000  0.13585000  1.0
  O  O80  1  0.34379000  0.19513000  0.15847000  1.0
  O  O81  1  0.69734000  0.30487000  0.34154000  1.0
  O  O82  1  0.65621000  0.80487000  0.84153000  1.0
  O  O83  1  0.30266000  0.69514000  0.65846000  1.0
  O  O84  1  0.64167000  0.06806000  0.11741000  1.0
  O  O85  1  0.82710000  0.43201000  0.38250000  1.0
  O  O86  1  0.35833000  0.93194000  0.88259000  1.0
  O  O87  1  0.17290000  0.56799000  0.61750000  1.0
