# generated using pymatgen
data_CuH24C22(NO)6
_symmetry_space_group_name_H-M   'P 1'
_cell_length_a   8.48217000
_cell_length_b   11.99310000
_cell_length_c   12.00850000
_cell_angle_alpha   67.97500000
_cell_angle_beta   89.99990000
_cell_angle_gamma   89.99990000
_symmetry_Int_Tables_number   1
_chemical_formula_structural   CuH24C22(NO)6
_chemical_formula_sum   'Cu2 H48 C44 N12 O12'
_cell_volume   1132.44323153
_cell_formula_units_Z   2
loop_
 _symmetry_equiv_pos_site_id
 _symmetry_equiv_pos_as_xyz
  1  'x, y, z'
loop_
 _atom_site_type_symbol
 _atom_site_label
 _atom_site_symmetry_multiplicity
 _atom_site_fract_x
 _atom_site_fract_y
 _atom_site_fract_z
 _atom_site_occupancy
  Cu  Cu0  1  0.00000000  0.50000000  1.00000000  1.0
  Cu  Cu1  1  0.50000000  0.50000000  0.50000000  1.0
  H  H2  1  0.94537000  0.57859000  0.20687000  1.0
  H  H3  1  0.44537000  0.42141000  0.29313000  1.0
  H  H4  1  0.05463000  0.42141000  0.79313000  1.0
  H  H5  1  0.55463000  0.57859000  0.70687000  1.0
  H  H6  1  0.11394000  0.52572000  0.18747000  1.0
  H  H7  1  0.61394000  0.47428000  0.31253000  1.0
  H  H8  1  0.88606000  0.47428000  0.81253000  1.0
  H  H9  1  0.38606000  0.52572000  0.68747000  1.0
  H  H10  1  0.79177000  0.40699000  0.21724000  1.0
  H  H11  1  0.29177000  0.59302000  0.28276000  1.0
  H  H12  1  0.20823000  0.59301000  0.78276000  1.0
  H  H13  1  0.70823000  0.40699000  0.71724000  1.0
  H  H14  1  0.07057000  0.25250000  0.03121000  1.0
  H  H15  1  0.57057000  0.74750000  0.46879000  1.0
  H  H16  1  0.92943000  0.74750000  0.96879000  1.0
  H  H17  1  0.42943000  0.25250000  0.53121000  1.0
  H  H18  1  0.72524000  0.21032000  0.37267000  1.0
  H  H19  1  0.22524000  0.78969000  0.12732000  1.0
  H  H20  1  0.27476000  0.78969000  0.62733000  1.0
  H  H21  1  0.77476000  0.21031000  0.87268000  1.0
  H  H22  1  0.02725000  0.04683000  0.18538000  1.0
  H  H23  1  0.52725000  0.95317000  0.31462000  1.0
  H  H24  1  0.97275000  0.95317000  0.81462000  1.0
  H  H25  1  0.47275000  0.04683000  0.68538000  1.0
  H  H26  1  0.69530000  0.00649000  0.53272000  1.0
  H  H27  1  0.19530000  0.99351000  0.96728000  1.0
  H  H28  1  0.30470000  0.99351000  0.46728000  1.0
  H  H29  1  0.80470000  0.00649000  0.03272000  1.0
  H  H30  1  0.76716000  0.76431000  0.64038000  1.0
  H  H31  1  0.26716000  0.23569000  0.85962000  1.0
  H  H32  1  0.23284000  0.23569000  0.35962000  1.0
  H  H33  1  0.73284000  0.76431000  0.14038000  1.0
  H  H34  1  0.93327000  0.62351000  0.58550000  1.0
  H  H35  1  0.43327000  0.37649000  0.91449000  1.0
  H  H36  1  0.06673000  0.37649000  0.41450000  1.0
  H  H37  1  0.56673000  0.62351000  0.08551000  1.0
  H  H38  1  0.10952000  0.70024000  0.51838000  1.0
  H  H39  1  0.60952000  0.29976000  0.98162000  1.0
  H  H40  1  0.89048000  0.29976000  0.48162000  1.0
  H  H41  1  0.39048000  0.70024000  0.01838000  1.0
  H  H42  1  0.05927000  0.58437000  0.40173000  1.0
  H  H43  1  0.55927000  0.41563000  0.09827000  1.0
  H  H44  1  0.94073000  0.41563000  0.59827000  1.0
  H  H45  1  0.44073000  0.58437000  0.90173000  1.0
  H  H46  1  0.98331000  0.72508000  0.31286000  1.0
  H  H47  1  0.48331000  0.27492000  0.18714000  1.0
  H  H48  1  0.01669000  0.27492000  0.68714000  1.0
  H  H49  1  0.51669000  0.72508000  0.81286000  1.0
  C  C50  1  0.84035000  0.32487000  0.21267000  1.0
  C  C51  1  0.34035000  0.67513000  0.28733000  1.0
  C  C52  1  0.15965000  0.67513000  0.78733000  1.0
  C  C53  1  0.65965000  0.32488000  0.71267000  1.0
  C  C54  1  0.99756000  0.23816000  0.10971000  1.0
  C  C55  1  0.49756000  0.76184000  0.39029000  1.0
  C  C56  1  0.00244000  0.76184000  0.89029000  1.0
  C  C57  1  0.50244000  0.23817000  0.60971000  1.0
  C  C58  1  0.80495000  0.21337000  0.30043000  1.0
  C  C59  1  0.30496000  0.78663000  0.19957000  1.0
  C  C60  1  0.19505000  0.78663000  0.69957000  1.0
  C  C61  1  0.69505000  0.21337000  0.80043000  1.0
  C  C62  1  0.97082000  0.12435000  0.19471000  1.0
  C  C63  1  0.47082000  0.87565000  0.30529000  1.0
  C  C64  1  0.02918000  0.87565000  0.80529000  1.0
  C  C65  1  0.52918000  0.12435000  0.69471000  1.0
  C  C66  1  0.87453000  0.10939000  0.29485000  1.0
  C  C67  1  0.37453000  0.89061000  0.20515000  1.0
  C  C68  1  0.12547000  0.89061000  0.70515000  1.0
  C  C69  1  0.62547000  0.10939000  0.79485000  1.0
  C  C70  1  0.85614000  0.99077000  0.38910000  1.0
  C  C71  1  0.35614000  0.00924000  0.11090000  1.0
  C  C72  1  0.14386000  0.00923000  0.61090000  1.0
  C  C73  1  0.64386000  0.99077000  0.88910000  1.0
  C  C74  1  0.76981000  0.95317000  0.49838000  1.0
  C  C75  1  0.26980000  0.04683000  0.00162000  1.0
  C  C76  1  0.23019000  0.04683000  0.50162000  1.0
  C  C77  1  0.73019000  0.95317000  0.99838000  1.0
  C  C78  1  0.80427000  0.83193000  0.55521000  1.0
  C  C79  1  0.30427000  0.16808000  0.94478000  1.0
  C  C80  1  0.19573000  0.16807000  0.44479000  1.0
  C  C81  1  0.69573000  0.83193000  0.05521000  1.0
  C  C82  1  0.98386000  0.68905000  0.50299000  1.0
  C  C83  1  0.48386000  0.31095000  0.99701000  1.0
  C  C84  1  0.01614000  0.31095000  0.49701000  1.0
  C  C85  1  0.51614000  0.68905000  0.00299000  1.0
  C  C86  1  0.96508000  0.64867000  0.39786000  1.0
  C  C87  1  0.46508000  0.35133000  0.10214000  1.0
  C  C88  1  0.03492000  0.35133000  0.60214000  1.0
  C  C89  1  0.53492000  0.64867000  0.89786000  1.0
  C  C90  1  0.80865000  0.58897000  0.39244000  1.0
  C  C91  1  0.30865000  0.41102000  0.10756000  1.0
  C  C92  1  0.19135000  0.41102000  0.60756000  1.0
  C  C93  1  0.69134000  0.58898000  0.89244000  1.0
  N  N94  1  0.93618000  0.33805000  0.11937000  1.0
  N  N95  1  0.43618000  0.66196000  0.38063000  1.0
  N  N96  1  0.06382000  0.66196000  0.88063000  1.0
  N  N97  1  0.56382000  0.33804000  0.61936000  1.0
  N  N98  1  0.93783000  0.89758000  0.38040000  1.0
  N  N99  1  0.43783000  0.10242000  0.11960000  1.0
  N  N100  1  0.06217000  0.10242000  0.61960000  1.0
  N  N101  1  0.56217000  0.89758000  0.88040000  1.0
  N  N102  1  0.90454000  0.80335000  0.48104000  1.0
  N  N103  1  0.40454000  0.19665000  0.01896000  1.0
  N  N104  1  0.09546000  0.19665000  0.51896000  1.0
  N  N105  1  0.59546000  0.80335000  0.98104000  1.0
  O  O106  1  0.22418000  0.44366000  0.01254000  1.0
  O  O107  1  0.72419000  0.55634000  0.48746000  1.0
  O  O108  1  0.77582000  0.55634000  0.98747000  1.0
  O  O109  1  0.27582000  0.44366000  0.51254000  1.0
  O  O110  1  0.03752000  0.59234000  0.15271000  1.0
  O  O111  1  0.53752000  0.40766000  0.34729000  1.0
  O  O112  1  0.96248000  0.40766000  0.84729000  1.0
  O  O113  1  0.46248000  0.59234000  0.65271000  1.0
  O  O114  1  0.77450000  0.57336000  0.29631000  1.0
  O  O115  1  0.27450000  0.42663000  0.20369000  1.0
  O  O116  1  0.22550000  0.42663000  0.70369000  1.0
  O  O117  1  0.72550000  0.57337000  0.79632000  1.0
