# generated using pymatgen
data_RbH8C7NO6
_symmetry_space_group_name_H-M   'P 1'
_cell_length_a   5.80375000
_cell_length_b   7.02399000
_cell_length_c   24.27330000
_cell_angle_alpha   89.99860000
_cell_angle_beta   94.94400000
_cell_angle_gamma   89.99880000
_symmetry_Int_Tables_number   1
_chemical_formula_structural   RbH8C7NO6
_chemical_formula_sum   'Rb4 H32 C28 N4 O24'
_cell_volume   985.83119838
_cell_formula_units_Z   4
loop_
 _symmetry_equiv_pos_site_id
 _symmetry_equiv_pos_as_xyz
  1  'x, y, z'
loop_
 _atom_site_type_symbol
 _atom_site_label
 _atom_site_symmetry_multiplicity
 _atom_site_fract_x
 _atom_site_fract_y
 _atom_site_fract_z
 _atom_site_occupancy
  Rb  Rb0  1  0.75281000  0.31311000  0.97792000  1.0
  Rb  Rb1  1  0.74717000  0.81312000  0.52208000  1.0
  Rb  Rb2  1  0.24717000  0.68688000  0.02208000  1.0
  Rb  Rb3  1  0.25282000  0.18690000  0.47792000  1.0
  H  H4  1  0.78268000  0.60887000  0.32145000  1.0
  H  H5  1  0.71734000  0.10886000  0.17855000  1.0
  H  H6  1  0.21732000  0.39114000  0.67855000  1.0
  H  H7  1  0.28267000  0.89113000  0.82145000  1.0
  H  H8  1  0.59523000  0.62979000  0.22467000  1.0
  H  H9  1  0.90478000  0.12980000  0.27533000  1.0
  H  H10  1  0.40475000  0.37020000  0.77533000  1.0
  H  H11  1  0.09523000  0.87020000  0.72467000  1.0
  H  H12  1  0.19633000  0.37345000  0.16318000  1.0
  H  H13  1  0.30370000  0.87345000  0.33683000  1.0
  H  H14  1  0.80366000  0.62655000  0.83682000  1.0
  H  H15  1  0.69631000  0.12655000  0.66318000  1.0
  H  H16  1  0.38120000  0.35075000  0.26076000  1.0
  H  H17  1  0.11883000  0.85076000  0.23925000  1.0
  H  H18  1  0.61880000  0.64926000  0.73923000  1.0
  H  H19  1  0.88118000  0.14924000  0.76076000  1.0
  H  H20  1  0.63224000  0.02672000  0.08058000  1.0
  H  H21  1  0.86778000  0.52675000  0.41941000  1.0
  H  H22  1  0.36776000  0.97327000  0.91942000  1.0
  H  H23  1  0.13223000  0.47327000  0.58058000  1.0
  H  H24  1  0.89764000  0.96894000  0.08870000  1.0
  H  H25  1  0.60239000  0.46896000  0.41130000  1.0
  H  H26  1  0.10236000  0.03105000  0.91130000  1.0
  H  H27  1  0.39762000  0.53105000  0.58870000  1.0
  H  H28  1  0.71688000  0.79121000  0.94983000  1.0
  H  H29  1  0.78311000  0.29122000  0.55017000  1.0
  H  H30  1  0.28312000  0.20878000  0.05017000  1.0
  H  H31  1  0.21688000  0.70880000  0.44983000  1.0
  H  H32  1  0.74313000  0.82277000  0.01411000  1.0
  H  H33  1  0.75689000  0.32279000  0.48589000  1.0
  H  H34  1  0.25687000  0.17722000  0.98589000  1.0
  H  H35  1  0.24312000  0.67723000  0.51411000  1.0
  C  C36  1  0.09572000  0.48203000  0.29652000  1.0
  C  C37  1  0.40429000  0.98203000  0.20348000  1.0
  C  C38  1  0.90428000  0.51797000  0.70348000  1.0
  C  C39  1  0.59571000  0.01797000  0.79652000  1.0
  C  C40  1  0.87261000  0.55813000  0.28676000  1.0
  C  C41  1  0.62740000  0.05812000  0.21324000  1.0
  C  C42  1  0.12739000  0.44188000  0.71324000  1.0
  C  C43  1  0.37260000  0.94187000  0.78676000  1.0
  C  C44  1  0.76714000  0.56963000  0.23320000  1.0
  C  C45  1  0.73289000  0.06962000  0.26680000  1.0
  C  C46  1  0.23286000  0.43037000  0.76680000  1.0
  C  C47  1  0.26713000  0.93037000  0.73320000  1.0
  C  C48  1  0.88781000  0.50433000  0.18963000  1.0
  C  C49  1  0.61221000  0.00433000  0.31038000  1.0
  C  C50  1  0.11218000  0.49566000  0.81037000  1.0
  C  C51  1  0.38780000  0.99567000  0.68963000  1.0
  C  C52  1  0.10804000  0.42364000  0.19818000  1.0
  C  C53  1  0.39199000  0.92364000  0.30183000  1.0
  C  C54  1  0.89196000  0.57636000  0.80182000  1.0
  C  C55  1  0.60802000  0.07636000  0.69818000  1.0
  C  C56  1  0.20971000  0.41194000  0.25209000  1.0
  C  C57  1  0.29032000  0.91193000  0.24792000  1.0
  C  C58  1  0.79029000  0.58807000  0.74791000  1.0
  C  C59  1  0.70969000  0.08806000  0.75209000  1.0
  C  C60  1  0.21917000  0.48325000  0.35402000  1.0
  C  C61  1  0.28085000  0.98324000  0.14599000  1.0
  C  C62  1  0.78083000  0.51676000  0.64598000  1.0
  C  C63  1  0.71915000  0.01675000  0.85401000  1.0
  N  N64  1  0.77922000  0.52048000  0.13318000  1.0
  N  N65  1  0.72081000  0.02051000  0.36682000  1.0
  N  N66  1  0.22078000  0.47950000  0.86681000  1.0
  N  N67  1  0.27920000  0.97951000  0.63318000  1.0
  O  O68  1  0.76961000  0.00277000  0.05979000  1.0
  O  O69  1  0.73041000  0.50281000  0.44021000  1.0
  O  O70  1  0.23039000  0.99721000  0.94021000  1.0
  O  O71  1  0.26960000  0.49721000  0.55979000  1.0
  O  O72  1  0.73372000  0.72033000  0.98527000  1.0
  O  O73  1  0.76628000  0.22035000  0.51473000  1.0
  O  O74  1  0.26627000  0.27965000  0.01473000  1.0
  O  O75  1  0.23372000  0.77967000  0.48527000  1.0
  O  O76  1  0.41269000  0.39946000  0.36077000  1.0
  O  O77  1  0.08733000  0.89946000  0.13924000  1.0
  O  O78  1  0.58731000  0.60055000  0.63923000  1.0
  O  O79  1  0.91267000  0.10053000  0.86076000  1.0
  O  O80  1  0.12138000  0.57319000  0.39135000  1.0
  O  O81  1  0.37864000  0.07317000  0.10865000  1.0
  O  O82  1  0.87863000  0.42682000  0.60865000  1.0
  O  O83  1  0.62136000  0.92682000  0.89135000  1.0
  O  O84  1  0.57931000  0.58526000  0.12639000  1.0
  O  O85  1  0.92070000  0.08528000  0.37361000  1.0
  O  O86  1  0.42067000  0.41472000  0.87361000  1.0
  O  O87  1  0.07931000  0.91472000  0.62639000  1.0
  O  O88  1  0.89193000  0.46724000  0.09470000  1.0
  O  O89  1  0.60809000  0.96727000  0.40531000  1.0
  O  O90  1  0.10805000  0.53274000  0.90530000  1.0
  O  O91  1  0.39191000  0.03277000  0.59469000  1.0
