# generated using pymatgen
data_ZnH10C4(NO5)2
_symmetry_space_group_name_H-M   'P 1'
_cell_length_a   7.18843000
_cell_length_b   7.78835125
_cell_length_c   9.84282000
_cell_angle_alpha   90.82585168
_cell_angle_beta   90.02720000
_cell_angle_gamma   117.45348752
_symmetry_Int_Tables_number   1
_chemical_formula_structural   ZnH10C4(NO5)2
_chemical_formula_sum   'Zn2 H20 C8 N4 O20'
_cell_volume   488.93631627
_cell_formula_units_Z   2
loop_
 _symmetry_equiv_pos_site_id
 _symmetry_equiv_pos_as_xyz
  1  'x, y, z'
loop_
 _atom_site_type_symbol
 _atom_site_label
 _atom_site_symmetry_multiplicity
 _atom_site_fract_x
 _atom_site_fract_y
 _atom_site_fract_z
 _atom_site_occupancy
  Zn  Zn0  1  0.81338000  0.00002000  0.25001000  1.0
  Zn  Zn1  1  0.18662000  0.99998000  0.74999000  1.0
  H  H2  1  0.81742000  0.34736000  0.26092000  1.0
  H  H3  1  0.47037000  0.65252000  0.23900000  1.0
  H  H4  1  0.18259000  0.65264000  0.73909000  1.0
  H  H5  1  0.52963000  0.34748000  0.76100000  1.0
  H  H6  1  0.76771000  0.88169000  0.51989000  1.0
  H  H7  1  0.88588000  0.11831000  0.98000000  1.0
  H  H8  1  0.23229000  0.11831000  0.48011000  1.0
  H  H9  1  0.11412000  0.88169000  0.02000000  1.0
  H  H10  1  0.65185000  0.33545000  0.47684000  1.0
  H  H11  1  0.31687000  0.66453000  0.02299000  1.0
  H  H12  1  0.34814000  0.66454000  0.52316000  1.0
  H  H13  1  0.68314000  0.33548000  0.97701000  1.0
  H  H14  1  0.89441000  0.32227000  0.48885000  1.0
  H  H15  1  0.57262000  0.67781000  0.01094000  1.0
  H  H16  1  0.10560000  0.67773000  0.51115000  1.0
  H  H17  1  0.42739000  0.32220000  0.98906000  1.0
  H  H18  1  0.65013000  0.06198000  0.62241000  1.0
  H  H19  1  0.58803000  0.93817000  0.87751000  1.0
  H  H20  1  0.34988000  0.93802000  0.37759000  1.0
  H  H21  1  0.41197000  0.06184000  0.12249000  1.0
  C  C22  1  0.73190000  0.24878000  0.45105000  1.0
  C  C23  1  0.48352000  0.75123000  0.04880000  1.0
  C  C24  1  0.26809000  0.75122000  0.54895000  1.0
  C  C25  1  0.51647000  0.24877000  0.95120000  1.0
  C  C26  1  0.61939000  0.04863000  0.51225000  1.0
  C  C27  1  0.57083000  0.95142000  0.98769000  1.0
  C  C28  1  0.38061000  0.95137000  0.48775000  1.0
  C  C29  1  0.42918000  0.04859000  0.01231000  1.0
  N  N30  1  0.23692000  0.31217000  0.27215000  1.0
  N  N31  1  0.92501000  0.68784000  0.22800000  1.0
  N  N32  1  0.76308000  0.68783000  0.72785000  1.0
  N  N33  1  0.07501000  0.31217000  0.77200000  1.0
  O  O34  1  0.72942000  0.22082000  0.30516000  1.0
  O  O35  1  0.50910000  0.77908000  0.19467000  1.0
  O  O36  1  0.27057000  0.77918000  0.69484000  1.0
  O  O37  1  0.49090000  0.22092000  0.80533000  1.0
  O  O38  1  0.69840000  0.92647000  0.45106000  1.0
  O  O39  1  0.77196000  0.07357000  0.04886000  1.0
  O  O40  1  0.30160000  0.07353000  0.54894000  1.0
  O  O41  1  0.22804000  0.92643000  0.95114000  1.0
  O  O42  1  0.11650000  0.16355000  0.34567000  1.0
  O  O43  1  0.95354000  0.83669000  0.15458000  1.0
  O  O44  1  0.88350000  0.83646000  0.65433000  1.0
  O  O45  1  0.04646000  0.16331000  0.84542000  1.0
  O  O46  1  0.18309000  0.31888000  0.15299000  1.0
  O  O47  1  0.86399000  0.68086000  0.34702000  1.0
  O  O48  1  0.81691000  0.68112000  0.84700000  1.0
  O  O49  1  0.13602000  0.31914000  0.65299000  1.0
  O  O50  1  0.40078000  0.44180000  0.32647000  1.0
  O  O51  1  0.95944000  0.55822000  0.17377000  1.0
  O  O52  1  0.59922000  0.55820000  0.67353000  1.0
  O  O53  1  0.04056000  0.44178000  0.82624000  1.0
