# generated using pymatgen
data_AgPH23C23N2O3
_symmetry_space_group_name_H-M   'P 1'
_cell_length_a   9.99362000
_cell_length_b   10.53700000
_cell_length_c   11.28130000
_cell_angle_alpha   87.29360000
_cell_angle_beta   77.83890000
_cell_angle_gamma   64.14240000
_symmetry_Int_Tables_number   1
_chemical_formula_structural   AgPH23C23N2O3
_chemical_formula_sum   'Ag2 P2 H46 C46 N4 O6'
_cell_volume   1043.67818793
_cell_formula_units_Z   2
loop_
 _symmetry_equiv_pos_site_id
 _symmetry_equiv_pos_as_xyz
  1  'x, y, z'
loop_
 _atom_site_type_symbol
 _atom_site_label
 _atom_site_symmetry_multiplicity
 _atom_site_fract_x
 _atom_site_fract_y
 _atom_site_fract_z
 _atom_site_occupancy
  Ag  Ag0  1  0.28005000  0.07381000  0.13059000  1.0
  Ag  Ag1  1  0.71995000  0.92620000  0.86941000  1.0
  P  P2  1  0.17219000  0.25910000  0.28120000  1.0
  P  P3  1  0.82781000  0.74091000  0.71880000  1.0
  H  H4  1  0.22822000  0.00048000  0.87148000  1.0
  H  H5  1  0.77179000  0.99952000  0.12851000  1.0
  H  H6  1  0.03313000  0.96561000  0.78236000  1.0
  H  H7  1  0.96687000  0.03439000  0.21764000  1.0
  H  H8  1  0.27924000  0.92058000  0.32942000  1.0
  H  H9  1  0.72076000  0.07942000  0.67058000  1.0
  H  H10  1  0.08505000  0.04077000  0.38131000  1.0
  H  H11  1  0.91494000  0.95923000  0.61869000  1.0
  H  H12  1  0.17803000  0.90231000  0.47310000  1.0
  H  H13  1  0.82197000  0.09769000  0.52690000  1.0
  H  H14  1  0.30621000  0.92699000  0.61036000  1.0
  H  H15  1  0.69378000  0.07300000  0.38964000  1.0
  H  H16  1  0.39596000  0.06745000  0.71477000  1.0
  H  H17  1  0.60405000  0.93255000  0.28523000  1.0
  H  H18  1  0.38082000  0.29746000  0.63334000  1.0
  H  H19  1  0.61919000  0.70253000  0.36666000  1.0
  H  H20  1  0.27900000  0.38105000  0.44767000  1.0
  H  H21  1  0.72100000  0.61895000  0.55234000  1.0
  H  H22  1  0.57365000  0.28836000  0.09885000  1.0
  H  H23  1  0.42634000  0.71164000  0.90115000  1.0
  H  H24  1  0.46236000  0.19207000  0.12836000  1.0
  H  H25  1  0.53764000  0.80794000  0.87164000  1.0
  H  H26  1  0.52421000  0.23715000  0.24815000  1.0
  H  H27  1  0.47579000  0.76285000  0.75185000  1.0
  H  H28  1  0.45901000  0.53802000  0.11571000  1.0
  H  H29  1  0.54098000  0.46198000  0.88429000  1.0
  H  H30  1  0.23594000  0.76576000  0.16147000  1.0
  H  H31  1  0.76406000  0.23424000  0.83853000  1.0
  H  H32  1  0.98027000  0.77587000  0.26392000  1.0
  H  H33  1  0.01973000  0.22413000  0.73608000  1.0
  H  H34  1  0.95944000  0.55571000  0.31662000  1.0
  H  H35  1  0.04056000  0.44429000  0.68338000  1.0
  H  H36  1  0.87855000  0.37831000  0.03676000  1.0
  H  H37  1  0.12146000  0.62168000  0.96325000  1.0
  H  H38  1  0.06558000  0.30349000  0.06770000  1.0
  H  H39  1  0.93443000  0.69651000  0.93230000  1.0
  H  H40  1  0.94795000  0.48643000  0.09236000  1.0
  H  H41  1  0.05205000  0.51357000  0.90764000  1.0
  H  H42  1  0.65754000  0.44061000  0.19020000  1.0
  H  H43  1  0.34247000  0.55939000  0.80980000  1.0
  H  H44  1  0.53073000  0.42705000  0.40122000  1.0
  H  H45  1  0.46927000  0.57295000  0.59878000  1.0
  H  H46  1  0.68275000  0.35368000  0.56420000  1.0
  H  H47  1  0.31725000  0.64632000  0.43580000  1.0
  H  H48  1  0.95782000  0.28687000  0.51107000  1.0
  H  H49  1  0.04218000  0.71313000  0.48894000  1.0
  C  C50  1  0.12649000  0.99881000  0.92865000  1.0
  C  C51  1  0.87352000  0.00119000  0.07134000  1.0
  C  C52  1  0.01810000  0.98120000  0.88008000  1.0
  C  C53  1  0.98190000  0.01880000  0.11992000  1.0
  C  C54  1  0.23655000  0.20096000  0.42281000  1.0
  C  C55  1  0.76345000  0.79905000  0.57719000  1.0
  C  C56  1  0.24279000  0.07169000  0.46940000  1.0
  C  C57  1  0.75720000  0.92832000  0.53060000  1.0
  C  C58  1  0.19297000  0.97979000  0.41018000  1.0
  C  C59  1  0.80703000  0.02021000  0.58982000  1.0
  C  C60  1  0.29992000  0.02737000  0.57496000  1.0
  C  C61  1  0.70008000  0.97263000  0.42504000  1.0
  C  C62  1  0.35104000  0.10590000  0.63343000  1.0
  C  C63  1  0.64896000  0.89409000  0.36656000  1.0
  C  C64  1  0.34388000  0.23355000  0.58737000  1.0
  C  C65  1  0.65612000  0.76644000  0.41263000  1.0
  C  C66  1  0.28669000  0.28045000  0.48277000  1.0
  C  C67  1  0.71331000  0.71955000  0.51724000  1.0
  C  C68  1  0.19742000  0.41927000  0.24695000  1.0
  C  C69  1  0.80258000  0.58073000  0.75305000  1.0
  C  C70  1  0.34112000  0.41272000  0.19005000  1.0
  C  C71  1  0.65888000  0.58727000  0.80995000  1.0
  C  C72  1  0.48266000  0.27588000  0.16433000  1.0
  C  C73  1  0.51734000  0.72412000  0.83567000  1.0
  C  C74  1  0.34994000  0.53994000  0.16015000  1.0
  C  C75  1  0.65006000  0.46005000  0.83986000  1.0
  C  C76  1  0.22250000  0.67015000  0.18571000  1.0
  C  C77  1  0.77750000  0.32985000  0.81430000  1.0
  C  C78  1  0.08173000  0.67563000  0.24244000  1.0
  C  C79  1  0.91827000  0.32437000  0.75756000  1.0
  C  C80  1  0.06978000  0.55067000  0.27254000  1.0
  C  C81  1  0.93022000  0.44933000  0.72746000  1.0
  C  C82  1  0.96582000  0.32097000  0.31977000  1.0
  C  C83  1  0.03418000  0.67904000  0.68023000  1.0
  C  C84  1  0.88032000  0.36558000  0.22751000  1.0
  C  C85  1  0.11969000  0.63442000  0.77249000  1.0
  C  C86  1  0.94728000  0.38237000  0.09930000  1.0
  C  C87  1  0.05272000  0.61763000  0.90070000  1.0
  C  C88  1  0.72402000  0.40328000  0.26031000  1.0
  C  C89  1  0.27599000  0.59671000  0.73968000  1.0
  C  C90  1  0.65240000  0.39789000  0.37935000  1.0
  C  C91  1  0.34760000  0.60211000  0.62065000  1.0
  C  C92  1  0.73674000  0.35671000  0.47011000  1.0
  C  C93  1  0.26326000  0.64329000  0.52989000  1.0
  C  C94  1  0.89244000  0.31874000  0.43996000  1.0
  C  C95  1  0.10756000  0.68126000  0.56004000  1.0
  N  N96  1  0.42182000  0.19473000  0.89685000  1.0
  N  N97  1  0.57818000  0.80527000  0.10315000  1.0
  N  N98  1  0.10873000  0.01715000  0.04889000  1.0
  N  N99  1  0.89127000  0.98285000  0.95111000  1.0
  O  O100  1  0.39921000  0.08345000  0.91661000  1.0
  O  O101  1  0.60079000  0.91655000  0.08339000  1.0
  O  O102  1  0.55947000  0.17727000  0.86126000  1.0
  O  O103  1  0.44053000  0.82273000  0.13874000  1.0
  O  O104  1  0.31413000  0.31499000  0.91171000  1.0
  O  O105  1  0.68587000  0.68501000  0.08829000  1.0
