# generated using pymatgen
data_MnCuH16C14(NO4)2
_symmetry_space_group_name_H-M   'P 1'
_cell_length_a   9.10397000
_cell_length_b   11.46280000
_cell_length_c   19.77490000
_cell_angle_alpha   89.98530000
_cell_angle_beta   82.45810000
_cell_angle_gamma   89.98910000
_symmetry_Int_Tables_number   1
_chemical_formula_structural   MnCuH16C14(NO4)2
_chemical_formula_sum   'Mn4 Cu4 H64 C56 N8 O32'
_cell_volume   2045.79656414
_cell_formula_units_Z   4
loop_
 _symmetry_equiv_pos_site_id
 _symmetry_equiv_pos_as_xyz
  1  'x, y, z'
loop_
 _atom_site_type_symbol
 _atom_site_label
 _atom_site_symmetry_multiplicity
 _atom_site_fract_x
 _atom_site_fract_y
 _atom_site_fract_z
 _atom_site_occupancy
  Mn  Mn0  1  0.56037000  0.61767000  0.84510000  1.0
  Mn  Mn1  1  0.93938000  0.11787000  0.65493000  1.0
  Mn  Mn2  1  0.43974000  0.38207000  0.15493000  1.0
  Mn  Mn3  1  0.06068000  0.88224000  0.34514000  1.0
  Cu  Cu4  1  0.25255000  0.77693000  0.07862000  1.0
  Cu  Cu5  1  0.24741000  0.27710000  0.42141000  1.0
  Cu  Cu6  1  0.74740000  0.22282000  0.92136000  1.0
  Cu  Cu7  1  0.75227000  0.72310000  0.57857000  1.0
  H  H8  1  0.44990000  0.95438000  0.95320000  1.0
  H  H9  1  0.04957000  0.45455000  0.54702000  1.0
  H  H10  1  0.55018000  0.04514000  0.04676000  1.0
  H  H11  1  0.95030000  0.54579000  0.45294000  1.0
  H  H12  1  0.42199000  0.10143000  0.93090000  1.0
  H  H13  1  0.07751000  0.60161000  0.56927000  1.0
  H  H14  1  0.57798000  0.89821000  0.06929000  1.0
  H  H15  1  0.92211000  0.39868000  0.43094000  1.0
  H  H16  1  0.46151000  0.99449000  0.86647000  1.0
  H  H17  1  0.03844000  0.49463000  0.63374000  1.0
  H  H18  1  0.53889000  0.00552000  0.13355000  1.0
  H  H19  1  0.96164000  0.50528000  0.36629000  1.0
  H  H20  1  0.26754000  0.16134000  0.80609000  1.0
  H  H21  1  0.23215000  0.66136000  0.69403000  1.0
  H  H22  1  0.73291000  0.83842000  0.19403000  1.0
  H  H23  1  0.76793000  0.33885000  0.30604000  1.0
  H  H24  1  0.29560000  0.21634000  0.88716000  1.0
  H  H25  1  0.20390000  0.71654000  0.61301000  1.0
  H  H26  1  0.70452000  0.78337000  0.11302000  1.0
  H  H27  1  0.79585000  0.28376000  0.38712000  1.0
  H  H28  1  0.12720000  0.24458000  0.85437000  1.0
  H  H29  1  0.37233000  0.74473000  0.64574000  1.0
  H  H30  1  0.87306000  0.75513000  0.14566000  1.0
  H  H31  1  0.62752000  0.25558000  0.35425000  1.0
  H  H32  1  0.70626000  0.99333000  0.92830000  1.0
  H  H33  1  0.79345000  0.49385000  0.57143000  1.0
  H  H34  1  0.29377000  0.00638000  0.07167000  1.0
  H  H35  1  0.20638000  0.50655000  0.42855000  1.0
  H  H36  1  0.72906000  0.84631000  0.95333000  1.0
  H  H37  1  0.77085000  0.34683000  0.54646000  1.0
  H  H38  1  0.27113000  0.15344000  0.04670000  1.0
  H  H39  1  0.22917000  0.65355000  0.45359000  1.0
  H  H40  1  0.75183000  0.88442000  0.86574000  1.0
  H  H41  1  0.74815000  0.38491000  0.63404000  1.0
  H  H42  1  0.24830000  0.11523000  0.13428000  1.0
  H  H43  1  0.25166000  0.61558000  0.36599000  1.0
  H  H44  1  0.88157000  0.74434000  0.01487000  1.0
  H  H45  1  0.61755000  0.24445000  0.48482000  1.0
  H  H46  1  0.11827000  0.25554000  0.98496000  1.0
  H  H47  1  0.38213000  0.75566000  0.51508000  1.0
  H  H48  1  0.05144000  0.67828000  0.98095000  1.0
  H  H49  1  0.44832000  0.17833000  0.51962000  1.0
  H  H50  1  0.94859000  0.32152000  0.01925000  1.0
  H  H51  1  0.55155000  0.82186000  0.48064000  1.0
  H  H52  1  0.90677000  0.69483000  0.92985000  1.0
  H  H53  1  0.59407000  0.19572000  0.57001000  1.0
  H  H54  1  0.09367000  0.30454000  0.07010000  1.0
  H  H55  1  0.40613000  0.80497000  0.43002000  1.0
  H  H56  1  0.75893000  0.43923000  0.82676000  1.0
  H  H57  1  0.74065000  0.93959000  0.67312000  1.0
  H  H58  1  0.24081000  0.56050000  0.17323000  1.0
  H  H59  1  0.25893000  0.06075000  0.32693000  1.0
  H  H60  1  0.47254000  0.40060000  0.89781000  1.0
  H  H61  1  0.02713000  0.90104000  0.60224000  1.0
  H  H62  1  0.52740000  0.59879000  0.10220000  1.0
  H  H63  1  0.97260000  0.09942000  0.39779000  1.0
  H  H64  1  0.84686000  0.55393000  0.79915000  1.0
  H  H65  1  0.65247000  0.05455000  0.70021000  1.0
  H  H66  1  0.15268000  0.44546000  0.20023000  1.0
  H  H67  1  0.34701000  0.94619000  0.29927000  1.0
  H  H68  1  0.43741000  0.41272000  0.82136000  1.0
  H  H69  1  0.06248000  0.91296000  0.67867000  1.0
  H  H70  1  0.56250000  0.58689000  0.17866000  1.0
  H  H71  1  0.93736000  0.08734000  0.32137000  1.0
  C  C72  1  0.36810000  0.74246000  0.94293000  1.0
  C  C73  1  0.13179000  0.24270000  0.55709000  1.0
  C  C74  1  0.63203000  0.25717000  0.05701000  1.0
  C  C75  1  0.86817000  0.75753000  0.44288000  1.0
  C  C76  1  0.47081000  0.67548000  0.98412000  1.0
  C  C77  1  0.02901000  0.17590000  0.51588000  1.0
  C  C78  1  0.52916000  0.32403000  0.01584000  1.0
  C  C79  1  0.97078000  0.82446000  0.48410000  1.0
  C  C80  1  0.90555000  0.13974000  0.80106000  1.0
  C  C81  1  0.59417000  0.64012000  0.69899000  1.0
  C  C82  1  0.09477000  0.85998000  0.19907000  1.0
  C  C83  1  0.40578000  0.36027000  0.30111000  1.0
  C  C84  1  0.80701000  0.23696000  0.77932000  1.0
  C  C85  1  0.69268000  0.73737000  0.72067000  1.0
  C  C86  1  0.19341000  0.76271000  0.22074000  1.0
  C  C87  1  0.30728000  0.26311000  0.27936000  1.0
  C  C88  1  0.17455000  0.88196000  0.94660000  1.0
  C  C89  1  0.32525000  0.38229000  0.55334000  1.0
  C  C90  1  0.82561000  0.11765000  0.05328000  1.0
  C  C91  1  0.67465000  0.61805000  0.44655000  1.0
  C  C92  1  0.23810000  0.98667000  0.91868000  1.0
  C  C93  1  0.26165000  0.48693000  0.58132000  1.0
  C  C94  1  0.76212000  0.01295000  0.08125000  1.0
  C  C95  1  0.73828000  0.51341000  0.41860000  1.0
  C  C96  1  0.14755000  0.06776000  0.89063000  1.0
  C  C97  1  0.35213000  0.56801000  0.60941000  1.0
  C  C98  1  0.85266000  0.93194000  0.10942000  1.0
  C  C99  1  0.64774000  0.43231000  0.39058000  1.0
  C  C100  1  0.99556000  0.04249000  0.89262000  1.0
  C  C101  1  0.50415000  0.54279000  0.60741000  1.0
  C  C102  1  0.00461000  0.95730000  0.10751000  1.0
  C  C103  1  0.49570000  0.45750000  0.39266000  1.0
  C  C104  1  0.93321000  0.93712000  0.91913000  1.0
  C  C105  1  0.56664000  0.43753000  0.58075000  1.0
  C  C106  1  0.06694000  0.06262000  0.08089000  1.0
  C  C107  1  0.43326000  0.56283000  0.41923000  1.0
  C  C108  1  0.02435000  0.85436000  0.94526000  1.0
  C  C109  1  0.47555000  0.35479000  0.55463000  1.0
  C  C110  1  0.97582000  0.14527000  0.05465000  1.0
  C  C111  1  0.52437000  0.64562000  0.44528000  1.0
  C  C112  1  0.40070000  0.01054000  0.91751000  1.0
  C  C113  1  0.09900000  0.51073000  0.58263000  1.0
  C  C114  1  0.59945000  0.98912000  0.08249000  1.0
  C  C115  1  0.90087000  0.48951000  0.41740000  1.0
  C  C116  1  0.21246000  0.17829000  0.85818000  1.0
  C  C117  1  0.28714000  0.67842000  0.64191000  1.0
  C  C118  1  0.78779000  0.82144000  0.14191000  1.0
  C  C119  1  0.71273000  0.32187000  0.35812000  1.0
  C  C120  1  0.77184000  0.91373000  0.91672000  1.0
  C  C121  1  0.72801000  0.41421000  0.58307000  1.0
  C  C122  1  0.22829000  0.08600000  0.08329000  1.0
  C  C123  1  0.27188000  0.58618000  0.41694000  1.0
  C  C124  1  0.96357000  0.73707000  0.96905000  1.0
  C  C125  1  0.53635000  0.23746000  0.53096000  1.0
  C  C126  1  0.03655000  0.26259000  0.03091000  1.0
  C  C127  1  0.46357000  0.76288000  0.46906000  1.0
  N  N128  1  0.26402000  0.80384000  0.97920000  1.0
  N  N129  1  0.23583000  0.30410000  0.52081000  1.0
  N  N130  1  0.73607000  0.19577000  0.02071000  1.0
  N  N131  1  0.76406000  0.69618000  0.47914000  1.0
  N  N132  1  0.90054000  0.12559000  0.86736000  1.0
  N  N133  1  0.59912000  0.62584000  0.63270000  1.0
  N  N134  1  0.09967000  0.87430000  0.13279000  1.0
  N  N135  1  0.40067000  0.37441000  0.36743000  1.0
  O  O136  1  0.39493000  0.73493000  0.87797000  1.0
  O  O137  1  0.10502000  0.23507000  0.62205000  1.0
  O  O138  1  0.60532000  0.26474000  0.12196000  1.0
  O  O139  1  0.89510000  0.76504000  0.37791000  1.0
  O  O140  1  0.57649000  0.62012000  0.95084000  1.0
  O  O141  1  0.92323000  0.12062000  0.54909000  1.0
  O  O142  1  0.42346000  0.37929000  0.04909000  1.0
  O  O143  1  0.07640000  0.87991000  0.45085000  1.0
  O  O144  1  0.44541000  0.68288000  0.04891000  1.0
  O  O145  1  0.05443000  0.18346000  0.45108000  1.0
  O  O146  1  0.55453000  0.31658000  0.95102000  1.0
  O  O147  1  0.94540000  0.81692000  0.54888000  1.0
  O  O148  1  0.98386000  0.08322000  0.75355000  1.0
  O  O149  1  0.51595000  0.58361000  0.74656000  1.0
  O  O150  1  0.01644000  0.91638000  0.24665000  1.0
  O  O151  1  0.48412000  0.41679000  0.25360000  1.0
  O  O152  1  0.80445000  0.25191000  0.71649000  1.0
  O  O153  1  0.69538000  0.75229000  0.78349000  1.0
  O  O154  1  0.19621000  0.74781000  0.28356000  1.0
  O  O155  1  0.30478000  0.24819000  0.21651000  1.0
  O  O156  1  0.73483000  0.29777000  0.82702000  1.0
  O  O157  1  0.76468000  0.79821000  0.67290000  1.0
  O  O158  1  0.26535000  0.70190000  0.17296000  1.0
  O  O159  1  0.23504000  0.20228000  0.32703000  1.0
  O  O160  1  0.76965000  0.52539000  0.83378000  1.0
  O  O161  1  0.73007000  0.02571000  0.66588000  1.0
  O  O162  1  0.23030000  0.47441000  0.16593000  1.0
  O  O163  1  0.26985000  0.97462000  0.33396000  1.0
  O  O164  1  0.43538000  0.45500000  0.86417000  1.0
  O  O165  1  0.06429000  0.95534000  0.63590000  1.0
  O  O166  1  0.56470000  0.54453000  0.13587000  1.0
  O  O167  1  0.93563000  0.04499000  0.36414000  1.0
