# generated using pymatgen
data_Zn2H41C42N8O11
_symmetry_space_group_name_H-M   'P 1'
_cell_length_a   19.12390000
_cell_length_b   19.17720000
_cell_length_c   19.41480000
_cell_angle_alpha   109.57000000
_cell_angle_beta   106.72700000
_cell_angle_gamma   108.80700000
_symmetry_Int_Tables_number   1
_chemical_formula_structural   Zn2H41C42N8O11
_chemical_formula_sum   'Zn4 H82 C84 N16 O22'
_cell_volume   5691.20163779
_cell_formula_units_Z   2
loop_
 _symmetry_equiv_pos_site_id
 _symmetry_equiv_pos_as_xyz
  1  'x, y, z'
loop_
 _atom_site_type_symbol
 _atom_site_label
 _atom_site_symmetry_multiplicity
 _atom_site_fract_x
 _atom_site_fract_y
 _atom_site_fract_z
 _atom_site_occupancy
  Zn  Zn0  1  0.38651000  0.90943000  0.02257000  1.0
  Zn  Zn1  1  0.60392000  0.12112000  0.00710000  1.0
  Zn  Zn2  1  0.49378000  0.12708000  0.12468000  1.0
  Zn  Zn3  1  0.49383000  0.89830000  0.89790000  1.0
  H  H4  1  0.13771000  0.86034000  0.91883000  1.0
  H  H5  1  0.13944000  0.29997000  0.41486000  1.0
  H  H6  1  0.07870000  0.21923000  0.42997000  1.0
  H  H7  1  0.26771000  0.30631000  0.50588000  1.0
  H  H8  1  0.20708000  0.22492000  0.51889000  1.0
  H  H9  1  0.14160000  0.12764000  0.36633000  1.0
  H  H10  1  0.25025000  0.16794000  0.41066000  1.0
  H  H11  1  0.20325000  0.20967000  0.35384000  1.0
  H  H12  1  0.02539000  0.22525000  0.53414000  1.0
  H  H13  1  0.14830000  0.57916000  0.59103000  1.0
  H  H14  1  0.62493000  0.14356000  0.79453000  1.0
  H  H15  1  0.84903000  0.13720000  0.06209000  1.0
  H  H16  1  0.45376000  0.87791000  0.23543000  1.0
  H  H17  1  0.56099000  0.43313000  0.26204000  1.0
  H  H18  1  0.60856000  0.42807000  0.19500000  1.0
  H  H19  1  0.60060000  0.33047000  0.29257000  1.0
  H  H20  1  0.64714000  0.32430000  0.22560000  1.0
  H  H21  1  0.74900000  0.47792000  0.31413000  1.0
  H  H22  1  0.75492000  0.42132000  0.36964000  1.0
  H  H23  1  0.70390000  0.48402000  0.38275000  1.0
  H  H24  1  0.62772000  0.75503000  0.88564000  1.0
  H  H25  1  0.53590000  0.68672000  0.88128000  1.0
  H  H26  1  0.99652000  0.56574000  0.60146000  1.0
  H  H27  1  0.71205000  0.76267000  0.01497000  1.0
  H  H28  1  0.62194000  0.69669000  0.01426000  1.0
  H  H29  1  0.58948000  0.58055000  0.88139000  1.0
  H  H30  1  0.68850000  0.61345000  0.95685000  1.0
  H  H31  1  0.67928000  0.64568000  0.88034000  1.0
  H  H32  1  0.42462000  0.69470000  0.64832000  1.0
  H  H33  1  0.32166000  0.65400000  0.63662000  1.0
  H  H34  1  0.44210000  0.58348000  0.67772000  1.0
  H  H35  1  0.34319000  0.54578000  0.67488000  1.0
  H  H36  1  0.27574000  0.50698000  0.52722000  1.0
  H  H37  1  0.94830000  0.50670000  0.64404000  1.0
  H  H38  1  0.33949000  0.45861000  0.54173000  1.0
  H  H39  1  0.37344000  0.54812000  0.52733000  1.0
  H  H40  1  0.63233000  0.17081000  0.38459000  1.0
  H  H41  1  0.71857000  0.23912000  0.38099000  1.0
  H  H42  1  0.69255000  0.07445000  0.38590000  1.0
  H  H43  1  0.77819000  0.13893000  0.37925000  1.0
  H  H44  1  0.81564000  0.25880000  0.51329000  1.0
  H  H45  1  0.81593000  0.17090000  0.52476000  1.0
  H  H46  1  0.73190000  0.19294000  0.52144000  1.0
  H  H47  1  0.48267000  0.23137000  0.87755000  1.0
  H  H48  1  0.86085000  0.54935000  0.51668000  1.0
  H  H49  1  0.33271000  0.66157000  0.98293000  1.0
  H  H50  1  0.15352000  0.64852000  0.78467000  1.0
  H  H51  1  0.84772000  0.29959000  0.21867000  1.0
  H  H52  1  0.28108000  0.80247000  0.61648000  1.0
  H  H53  1  0.33727000  0.90413000  0.62939000  1.0
  H  H54  1  0.25047000  0.86462000  0.73268000  1.0
  H  H55  1  0.30702000  0.96582000  0.74737000  1.0
  H  H56  1  0.20759000  0.92744000  0.60614000  1.0
  H  H57  1  0.15500000  0.91264000  0.66591000  1.0
  H  H58  1  0.15016000  0.82527000  0.59017000  1.0
  H  H59  1  0.81239000  0.49167000  0.55857000  1.0
  H  H60  1  0.52056000  0.25848000  0.42203000  1.0
  H  H61  1  0.53337000  0.17039000  0.42194000  1.0
  H  H62  1  0.36909000  0.17596000  0.36154000  1.0
  H  H63  1  0.37722000  0.08353000  0.34905000  1.0
  H  H64  1  0.45378000  0.14320000  0.50072000  1.0
  H  H65  1  0.35656000  0.14190000  0.47391000  1.0
  H  H66  1  0.44701000  0.23721000  0.51603000  1.0
  H  H67  1  0.37830000  0.22937000  0.17888000  1.0
  H  H68  1  0.27350000  0.14883000  0.12245000  1.0
  H  H69  1  0.33861000  0.31051000  0.11029000  1.0
  H  H70  1  0.90001000  0.61769000  0.69934000  1.0
  H  H71  1  0.23454000  0.23198000  0.05968000  1.0
  H  H72  1  0.23424000  0.25912000  0.19724000  1.0
  H  H73  1  0.25766000  0.35050000  0.18548000  1.0
  H  H74  1  0.33775000  0.33925000  0.24693000  1.0
  H  H75  1  0.62697000  0.77895000  0.73617000  1.0
  H  H76  1  0.71400000  0.88035000  0.79376000  1.0
  H  H77  1  0.53592000  0.84441000  0.70000000  1.0
  H  H78  1  0.62390000  0.94284000  0.75201000  1.0
  H  H79  1  0.68132000  0.88795000  0.65502000  1.0
  H  H80  1  0.58359000  0.87913000  0.60205000  1.0
  H  H81  1  0.84303000  0.64251000  0.62992000  1.0
  H  H82  1  0.59186000  0.78953000  0.60218000  1.0
  H  H83  1  0.98779000  0.33895000  0.65206000  1.0
  H  H84  1  0.08442000  0.44406000  0.40244000  1.0
  H  H85  1  0.94945000  0.67534000  0.65744000  1.0
  C  C86  1  0.24775000  0.94534000  0.96798000  1.0
  C  C87  1  0.09342000  0.36345000  0.52671000  1.0
  C  C88  1  0.01860000  0.39405000  0.59127000  1.0
  C  C89  1  0.05093000  0.38719000  0.46061000  1.0
  C  C90  1  0.22707000  0.58968000  0.70858000  1.0
  C  C91  1  0.82125000  0.25184000  0.32275000  1.0
  C  C92  1  0.06256000  0.46679000  0.52959000  1.0
  C  C93  1  0.00614000  0.31370000  0.52099000  1.0
  C  C94  1  0.10625000  0.44501000  0.59695000  1.0
  C  C95  1  0.96240000  0.33554000  0.45450000  1.0
  C  C96  1  0.17692000  0.51495000  0.66549000  1.0
  C  C97  1  0.73637000  0.05771000  0.00642000  1.0
  C  C98  1  0.88841000  0.28556000  0.38158000  1.0
  C  C99  1  0.49635000  0.00061000  0.67567000  1.0
  C  C100  1  0.48106000  0.01552000  0.34998000  1.0
  C  C101  1  0.56255000  0.07496000  0.82799000  1.0
  C  C102  1  0.45358000  0.96132000  0.20419000  1.0
  C  C103  1  0.49749000  0.99810000  0.61154000  1.0
  C  C104  1  0.48843000  0.00533000  0.41079000  1.0
  C  C105  1  0.49617000  0.99731000  0.54219000  1.0
  C  C106  1  0.49388000  0.99889000  0.47828000  1.0
  C  C107  1  0.46087000  0.65318000  0.96530000  1.0
  C  C108  1  0.50055000  0.00826000  0.75042000  1.0
  C  C109  1  0.47705000  0.33978000  0.99662000  1.0
  C  C110  1  0.45409000  0.58454000  0.95836000  1.0
  C  C111  1  0.46557000  0.39244000  0.97856000  1.0
  C  C112  1  0.45350000  0.51485000  0.95873000  1.0
  C  C113  1  0.45715000  0.45349000  0.96443000  1.0
  C  C114  1  0.15996000  0.01825000  0.96877000  1.0
  C  C115  1  0.81441000  0.00048000  0.94115000  1.0
  C  C116  1  0.09308000  0.01818000  0.95798000  1.0
  C  C117  1  0.88170000  0.00898000  0.94239000  1.0
  C  C118  1  0.02104000  0.01751000  0.95001000  1.0
  C  C119  1  0.47034000  0.02430000  0.28017000  1.0
  C  C120  1  0.95387000  0.01407000  0.94511000  1.0
  C  C121  1  0.50462000  0.27576000  0.09099000  1.0
  C  C122  1  0.52773000  0.80160000  0.98140000  1.0
  C  C123  1  0.36102000  0.72783000  0.78103000  1.0
  C  C124  1  0.66494000  0.15763000  0.23236000  1.0
  C  C125  1  0.50089000  0.21410000  0.96986000  1.0
  C  C126  1  0.41126000  0.75961000  0.99354000  1.0
  C  C127  1  0.25910000  0.72987000  0.81281000  1.0
  C  C128  1  0.73671000  0.22659000  0.18412000  1.0
  C  C129  1  0.45133000  0.95272000  0.77105000  1.0
  C  C130  1  0.49218000  0.28217000  0.01808000  1.0
  C  C131  1  0.47091000  0.09094000  0.26247000  1.0
  C  C132  1  0.31634000  0.08333000  0.02387000  1.0
  C  C133  1  0.65921000  0.93161000  0.89929000  1.0
  C  C134  1  0.23470000  0.01636000  0.98395000  1.0
  C  C135  1  0.74229000  0.99585000  0.94597000  1.0
  C  C136  1  0.93810000  0.51697000  0.59010000  1.0
  C  C137  1  0.87045000  0.54249000  0.57224000  1.0
  C  C138  1  0.89186000  0.62390000  0.64363000  1.0
  C  C139  1  0.13963000  0.27399000  0.45760000  1.0
  C  C140  1  0.20817000  0.24955000  0.47527000  1.0
  C  C141  1  0.46699000  0.73067000  0.97672000  1.0
  C  C142  1  0.20038000  0.18519000  0.39728000  1.0
  C  C143  1  0.57831000  0.39333000  0.22208000  1.0
  C  C144  1  0.63403000  0.36660000  0.26837000  1.0
  C  C145  1  0.71482000  0.44159000  0.33758000  1.0
  C  C146  1  0.59917000  0.73712000  0.92272000  1.0
  C  C147  1  0.64935000  0.71056000  0.97487000  1.0
  C  C148  1  0.65190000  0.63335000  0.92037000  1.0
  C  C149  1  0.38309000  0.66029000  0.66787000  1.0
  C  C150  1  0.37934000  0.57515000  0.64837000  1.0
  C  C151  1  0.34006000  0.51931000  0.55615000  1.0
  C  C152  1  0.27972000  0.67421000  0.76253000  1.0
  C  C153  1  0.68067000  0.17369000  0.36419000  1.0
  C  C154  1  0.73257000  0.13946000  0.40298000  1.0
  C  C155  1  0.77635000  0.19344000  0.49581000  1.0
  C  C156  1  0.31694000  0.86927000  0.66092000  1.0
  C  C157  1  0.26742000  0.89993000  0.70052000  1.0
  C  C158  1  0.19090000  0.89081000  0.63725000  1.0
  C  C159  1  0.49180000  0.18994000  0.39046000  1.0
  C  C160  1  0.40780000  0.15147000  0.38869000  1.0
  C  C161  1  0.41690000  0.16966000  0.47462000  1.0
  C  C162  1  0.32089000  0.20017000  0.12263000  1.0
  C  C163  1  0.74632000  0.21440000  0.25346000  1.0
  C  C164  1  0.29236000  0.26368000  0.11590000  1.0
  C  C165  1  0.27983000  0.30542000  0.19045000  1.0
  C  C166  1  0.64660000  0.84606000  0.76993000  1.0
  C  C167  1  0.60212000  0.87538000  0.71644000  1.0
  C  C168  1  0.61551000  0.85702000  0.63972000  1.0
  C  C169  1  0.97649000  0.41848000  0.52615000  1.0
  N  N170  1  0.32833000  0.96802000  0.99372000  1.0
  N  N171  1  0.43713000  0.83827000  0.00793000  1.0
  N  N172  1  0.32018000  0.80747000  0.85681000  1.0
  N  N173  1  0.65883000  0.18094000  0.12713000  1.0
  N  N174  1  0.48128000  0.98396000  0.85246000  1.0
  N  N175  1  0.45525000  0.06822000  0.18459000  1.0
  N  N176  1  0.37177000  0.05451000  0.02967000  1.0
  N  N177  1  0.61193000  0.95502000  0.93000000  1.0
  N  N178  1  0.65912000  0.03416000  0.99725000  1.0
  N  N179  1  0.55066000  0.06066000  0.88687000  1.0
  N  N180  1  0.44384000  0.98636000  0.14752000  1.0
  N  N181  1  0.51971000  0.21142000  0.08544000  1.0
  N  N182  1  0.50909000  0.86562000  0.99823000  1.0
  N  N183  1  0.38328000  0.80511000  0.83565000  1.0
  N  N184  1  0.61215000  0.13771000  0.15711000  1.0
  N  N185  1  0.51858000  0.17260000  0.00994000  1.0
  O  O186  1  0.19285000  0.86464000  0.93477000  1.0
  O  O187  1  0.59601000  0.81168000  0.97119000  1.0
  O  O188  1  0.41568000  0.71309000  0.75492000  1.0
  O  O189  1  0.63643000  0.12464000  0.27561000  1.0
  O  O190  1  0.49452000  0.19176000  0.89367000  1.0
  O  O191  1  0.34160000  0.71872000  0.99724000  1.0
  O  O192  1  0.18620000  0.70917000  0.81742000  1.0
  O  O193  1  0.79445000  0.27782000  0.17296000  1.0
  O  O194  1  0.38844000  0.87517000  0.72039000  1.0
  O  O195  1  0.48773000  0.16960000  0.30985000  1.0
  O  O196  1  0.33868000  0.16552000  0.05414000  1.0
  O  O197  1  0.79847000  0.13280000  0.06685000  1.0
  O  O198  1  0.62555000  0.85380000  0.83740000  1.0
  O  O199  1  0.00169000  0.39429000  0.65594000  1.0
  O  O200  1  0.06678000  0.38726000  0.39540000  1.0
  O  O201  1  0.91399000  0.43993000  0.51979000  1.0
  O  O202  1  0.15302000  0.33715000  0.53405000  1.0
  O  O203  1  0.97837000  0.23640000  0.51946000  1.0
  O  O204  1  0.09962000  0.54542000  0.53684000  1.0
  O  O205  1  0.62677000  0.14526000  0.84590000  1.0
  O  O206  1  0.44424000  0.88364000  0.18584000  1.0
  O  O207  1  0.49963000  0.32279000  0.15740000  1.0
