# generated using pymatgen
data_Zn4H58C67N20O3
_symmetry_space_group_name_H-M   'P 1'
_cell_length_a   13.20370000
_cell_length_b   15.20880000
_cell_length_c   16.92720000
_cell_angle_alpha   108.28500000
_cell_angle_beta   104.19800000
_cell_angle_gamma   109.53000000
_symmetry_Int_Tables_number   1
_chemical_formula_structural   Zn4H58C67N20O3
_chemical_formula_sum   'Zn4 H58 C67 N20 O3'
_cell_volume   2799.32927295
_cell_formula_units_Z   1
loop_
 _symmetry_equiv_pos_site_id
 _symmetry_equiv_pos_as_xyz
  1  'x, y, z'
loop_
 _atom_site_type_symbol
 _atom_site_label
 _atom_site_symmetry_multiplicity
 _atom_site_fract_x
 _atom_site_fract_y
 _atom_site_fract_z
 _atom_site_occupancy
  Zn  Zn0  1  0.37518000  0.02188000  0.92784000  1.0
  Zn  Zn1  1  0.61938000  0.00285000  0.14892000  1.0
  Zn  Zn2  1  0.32945000  0.88742000  0.04430000  1.0
  Zn  Zn3  1  0.67030000  0.10467000  0.98823000  1.0
  H  H4  1  0.11464000  0.98986000  0.83406000  1.0
  H  H5  1  0.86237000  0.12959000  0.31984000  1.0
  H  H6  1  0.64765000  0.64341000  0.95530000  1.0
  H  H7  1  0.54871000  0.40619000  0.86740000  1.0
  H  H8  1  0.22404000  0.70429000  0.61469000  1.0
  H  H9  1  0.24226000  0.51619000  0.75758000  1.0
  H  H10  1  0.12177000  0.62125000  0.44862000  1.0
  H  H11  1  0.12694000  0.35816000  0.61418000  1.0
  H  H12  1  0.99273000  0.46398000  0.30706000  1.0
  H  H13  1  0.01028000  0.27439000  0.44883000  1.0
  H  H14  1  0.27556000  0.04521000  0.17800000  1.0
  H  H15  1  0.26508000  0.66068000  0.88852000  1.0
  H  H16  1  0.25353000  0.07890000  0.30981000  1.0
  H  H17  1  0.71194000  0.30605000  0.62452000  1.0
  H  H18  1  0.22896000  0.06643000  0.44636000  1.0
  H  H19  1  0.32313000  0.07035000  0.59326000  1.0
  H  H20  1  0.90418000  0.66848000  0.79946000  1.0
  H  H21  1  0.67568000  0.57664000  0.72176000  1.0
  H  H22  1  0.76463000  0.83707000  0.58477000  1.0
  H  H23  1  0.70658000  0.90874000  0.64965000  1.0
  H  H24  1  0.95099000  0.92276000  0.71982000  1.0
  H  H25  1  0.90495000  0.01655000  0.76998000  1.0
  H  H26  1  0.80923000  0.06982000  0.85936000  1.0
  H  H27  1  0.64945000  0.18375000  0.32792000  1.0
  H  H28  1  0.37997000  0.22075000  0.05718000  1.0
  H  H29  1  0.86954000  0.32035000  0.17575000  1.0
  H  H30  1  0.33050000  0.10804000  0.76001000  1.0
  H  H31  1  0.69464000  0.86781000  0.05857000  1.0
  H  H32  1  0.74026000  0.74239000  0.15541000  1.0
  H  H33  1  0.78999000  0.87806000  0.21791000  1.0
  H  H34  1  0.84254000  0.83283000  0.13357000  1.0
  H  H35  1  0.38943000  0.52479000  0.21384000  1.0
  H  H36  1  0.43810000  0.69253000  0.31252000  1.0
  H  H37  1  0.76059000  0.80880000  0.92367000  1.0
  H  H38  1  0.50500000  0.74376000  0.24768000  1.0
  H  H39  1  0.57255000  0.69042000  0.31159000  1.0
  H  H40  1  0.79408000  0.58949000  0.08505000  1.0
  H  H41  1  0.81018000  0.65394000  0.01321000  1.0
  H  H42  1  0.89152000  0.58302000  0.02803000  1.0
  H  H43  1  0.70620000  0.33749000  0.52945000  1.0
  H  H44  1  0.74192000  0.42931000  0.45010000  1.0
  H  H45  1  0.59672000  0.41176000  0.43693000  1.0
  H  H46  1  0.62161000  0.33077000  0.34949000  1.0
  H  H47  1  0.82090000  0.39726000  0.77614000  1.0
  H  H48  1  0.37002000  0.85271000  0.75261000  1.0
  H  H49  1  0.84807000  0.29231000  0.71643000  1.0
  H  H50  1  0.88272000  0.33635000  0.83553000  1.0
  H  H51  1  0.72328000  0.40697000  0.00299000  1.0
  H  H52  1  0.87088000  0.36660000  0.98894000  1.0
  H  H53  1  0.74540000  0.24523000  0.92036000  1.0
  H  H54  1  0.83593000  0.27566000  0.03355000  1.0
  H  H55  1  0.94338000  0.85978000  0.03954000  1.0
  H  H56  1  0.09274000  0.90803000  0.11281000  1.0
  H  H57  1  0.98729000  0.78280000  0.08961000  1.0
  H  H58  1  0.65161000  0.08198000  0.78241000  1.0
  H  H59  1  0.30687000  0.67062000  0.09106000  1.0
  H  H60  1  0.46182000  0.42136000  0.16135000  1.0
  H  H61  1  0.50112000  0.55435000  0.88089000  1.0
  C  C62  1  0.11633000  0.95095000  0.87791000  1.0
  C  C63  1  0.34950000  0.81976000  0.79824000  1.0
  C  C64  1  0.57223000  0.08289000  0.78889000  1.0
  C  C65  1  0.85241000  0.16239000  0.27159000  1.0
  C  C66  1  0.38913000  0.71996000  0.09214000  1.0
  C  C67  1  0.49655000  0.11380000  0.74305000  1.0
  C  C68  1  0.48211000  0.69662000  0.08486000  1.0
  C  C69  1  0.29684000  0.71559000  0.78301000  1.0
  C  C70  1  0.80651000  0.92244000  0.86394000  1.0
  C  C71  1  0.56278000  0.47532000  0.01012000  1.0
  C  C72  1  0.53096000  0.41786000  0.05822000  1.0
  C  C73  1  0.90638000  0.26485000  0.28389000  1.0
  C  C74  1  0.48345000  0.45898000  0.11826000  1.0
  C  C75  1  0.46665000  0.54822000  0.12957000  1.0
  C  C76  1  0.49606000  0.60330000  0.07751000  1.0
  C  C77  1  0.36915000  0.07054000  0.20260000  1.0
  C  C78  1  0.54302000  0.56180000  0.01861000  1.0
  C  C79  1  0.57458000  0.57083000  0.94008000  1.0
  C  C80  1  0.60159000  0.47559000  0.93213000  1.0
  C  C81  1  0.24038000  0.62279000  0.69696000  1.0
  C  C82  1  0.99023000  0.35673000  0.36762000  1.0
  C  C83  1  0.09709000  0.54520000  0.44867000  1.0
  C  C84  1  0.45706000  0.14050000  0.28934000  1.0
  C  C85  1  0.02517000  0.45706000  0.36950000  1.0
  C  C86  1  0.03388000  0.35002000  0.44800000  1.0
  C  C87  1  0.10679000  0.43916000  0.53073000  1.0
  C  C88  1  0.13855000  0.53966000  0.53194000  1.0
  C  C89  1  0.62894000  0.29482000  0.03068000  1.0
  C  C90  1  0.20494000  0.62893000  0.61524000  1.0
  C  C91  1  0.21223000  0.52256000  0.69444000  1.0
  C  C92  1  0.14796000  0.43407000  0.61431000  1.0
  C  C93  1  0.44125000  0.17306000  0.37479000  1.0
  C  C94  1  0.50579000  0.15297000  0.67534000  1.0
  C  C95  1  0.54082000  0.32262000  0.04770000  1.0
  C  C96  1  0.62562000  0.25468000  0.61612000  1.0
  C  C97  1  0.61636000  0.22176000  0.68263000  1.0
  C  C98  1  0.40824000  0.12363000  0.60063000  1.0
  C  C99  1  0.41491000  0.15220000  0.52961000  1.0
  C  C100  1  0.52669000  0.21723000  0.53595000  1.0
  C  C101  1  0.55996000  0.14159000  0.27851000  1.0
  C  C102  1  0.53711000  0.23387000  0.45872000  1.0
  C  C103  1  0.32907000  0.11976000  0.37391000  1.0
  C  C104  1  0.31501000  0.11109000  0.44923000  1.0
  C  C105  1  0.83431000  0.86954000  0.78782000  1.0
  C  C106  1  0.40751000  0.09496000  0.77611000  1.0
  C  C107  1  0.90260000  0.81168000  0.81319000  1.0
  C  C108  1  0.85325000  0.70595000  0.77661000  1.0
  C  C109  1  0.72920000  0.64648000  0.71801000  1.0
  C  C110  1  0.68777000  0.69488000  0.67398000  1.0
  C  C111  1  0.73041000  0.79426000  0.69325000  1.0
  C  C112  1  0.76099000  0.86750000  0.65162000  1.0
  C  C113  1  0.46227000  0.23478000  0.04906000  1.0
  C  C114  1  0.87912000  0.93351000  0.73551000  1.0
  C  C115  1  0.85461000  0.25860000  0.19728000  1.0
  C  C116  1  0.08099000  0.85300000  0.94917000  1.0
  C  C117  1  0.56383000  0.78660000  0.08698000  1.0
  C  C118  1  0.02351000  0.87207000  0.87905000  1.0
  C  C119  1  0.76544000  0.81648000  0.15062000  1.0
  C  C120  1  0.48785000  0.68197000  0.27003000  1.0
  C  C121  1  0.80789000  0.58508000  0.02247000  1.0
  C  C122  1  0.65061000  0.37157000  0.42310000  1.0
  C  C123  1  0.82120000  0.32343000  0.77151000  1.0
  C  C124  1  0.79732000  0.30669000  0.99017000  1.0
  C  C125  1  0.01345000  0.83817000  0.06132000  1.0
  C  C126  1  0.29755000  0.72192000  0.86804000  1.0
  C  C127  1  0.79149000  0.01240000  0.88589000  1.0
  C  C128  1  0.76697000  0.88073000  0.92061000  1.0
  N  N129  1  0.21935000  0.97421000  0.93999000  1.0
  N  N130  1  0.41574000  0.03041000  0.14678000  1.0
  N  N131  1  0.60173000  0.19838000  0.02337000  1.0
  N  N132  1  0.53298000  0.07445000  0.19372000  1.0
  N  N133  1  0.49720000  0.15919000  0.03325000  1.0
  N  N134  1  0.77710000  0.16094000  0.13835000  1.0
  N  N135  1  0.19646000  0.91336000  0.98480000  1.0
  N  N136  1  0.43061000  0.05730000  0.83694000  1.0
  N  N137  1  0.67075000  0.81007000  0.07964000  1.0
  N  N138  1  0.41787000  0.58021000  0.19214000  1.0
  N  N139  1  0.64464000  0.30073000  0.46564000  1.0
  N  N140  1  0.52200000  0.85799000  0.09916000  1.0
  N  N141  1  0.73105000  0.35493000  0.02761000  1.0
  N  N142  1  0.34464000  0.82190000  0.92748000  1.0
  N  N143  1  0.74721000  0.02186000  0.95073000  1.0
  N  N144  1  0.73177000  0.94054000  0.97293000  1.0
  N  N145  1  0.37713000  0.88234000  0.88502000  1.0
  N  N146  1  0.53263000  0.04933000  0.84510000  1.0
  N  N147  1  0.41231000  0.81632000  0.10057000  1.0
  N  N148  1  0.77664000  0.10099000  0.18425000  1.0
  O  O149  1  0.72001000  0.49218000  0.94555000  1.0
  O  O150  1  0.71015000  0.25116000  0.75894000  1.0
  O  O151  1  0.03633000  0.78732000  0.98476000  1.0
