# generated using pymatgen
data_AlH9(C3O)6
_symmetry_space_group_name_H-M   'P 1'
_cell_length_a   3.95685000
_cell_length_b   20.92635001
_cell_length_c   20.92670000
_cell_angle_alpha   59.99834019
_cell_angle_beta   90.00000000
_cell_angle_gamma   89.99740004
_symmetry_Int_Tables_number   1
_chemical_formula_structural   AlH9(C3O)6
_chemical_formula_sum   'Al2 H18 C36 O12'
_cell_volume   1500.60775818
_cell_formula_units_Z   2
loop_
 _symmetry_equiv_pos_site_id
 _symmetry_equiv_pos_as_xyz
  1  'x, y, z'
loop_
 _atom_site_type_symbol
 _atom_site_label
 _atom_site_symmetry_multiplicity
 _atom_site_fract_x
 _atom_site_fract_y
 _atom_site_fract_z
 _atom_site_occupancy
  Al  Al0  1  0.98287000  0.49999000  0.00001000  1.0
  Al  Al1  1  0.98260000  0.16667000  0.66667000  1.0
  H  H2  1  0.54399000  0.36126000  0.45036000  1.0
  H  H3  1  0.45964000  0.14359000  0.47868000  1.0
  H  H4  1  0.50589000  0.19552000  0.34290000  1.0
  H  H5  1  0.54396000  0.30526000  0.21628000  1.0
  H  H6  1  0.45827000  0.52293000  0.18804000  1.0
  H  H7  1  0.50487000  0.47092000  0.32385000  1.0
  H  H8  1  0.54395000  0.18839000  0.86125000  1.0
  H  H9  1  0.45966000  0.37776000  0.64359000  1.0
  H  H10  1  0.50583000  0.46160000  0.69553000  1.0
  H  H11  1  0.54386000  0.47848000  0.80526000  1.0
  H  H12  1  0.45829000  0.28902000  0.02293000  1.0
  H  H13  1  0.50485000  0.20523000  0.97091000  1.0
  H  H14  1  0.54402000  0.95036000  0.68838000  1.0
  H  H15  1  0.45962000  0.97866000  0.87773000  1.0
  H  H16  1  0.50583000  0.84288000  0.96158000  1.0
  H  H17  1  0.54388000  0.71626000  0.97846000  1.0
  H  H18  1  0.45827000  0.68804000  0.78902000  1.0
  H  H19  1  0.50487000  0.82385000  0.70523000  1.0
  C  C20  1  0.48668000  0.61324000  0.93736000  1.0
  C  C21  1  0.48670000  0.44939000  0.11325000  1.0
  C  C22  1  0.48669000  0.43735000  0.94940000  1.0
  C  C23  1  0.48675000  0.21732000  0.55337000  1.0
  C  C24  1  0.48675000  0.22933000  0.71731000  1.0
  C  C25  1  0.48678000  0.05337000  0.72932000  1.0
  C  C26  1  0.53074000  0.32551000  0.42634000  1.0
  C  C27  1  0.48528000  0.20283000  0.44149000  1.0
  C  C28  1  0.50821000  0.23183000  0.36639000  1.0
  C  C29  1  0.52435000  0.30931000  0.31793000  1.0
  C  C30  1  0.53038000  0.34105000  0.24026000  1.0
  C  C31  1  0.48414000  0.46369000  0.22522000  1.0
  C  C32  1  0.50739000  0.43467000  0.30030000  1.0
  C  C33  1  0.52433000  0.35719000  0.34869000  1.0
  C  C34  1  0.50389000  0.25000000  0.47189000  1.0
  C  C35  1  0.50302000  0.41657000  0.19477000  1.0
  C  C36  1  0.53071000  0.24816000  0.82550000  1.0
  C  C37  1  0.48529000  0.35571000  0.70283000  1.0
  C  C38  1  0.50816000  0.40180000  0.73183000  1.0
  C  C39  1  0.52426000  0.37278000  0.80931000  1.0
  C  C40  1  0.53029000  0.41870000  0.84106000  1.0
  C  C41  1  0.48412000  0.31109000  0.96369000  1.0
  C  C42  1  0.50738000  0.26503000  0.93467000  1.0
  C  C43  1  0.52427000  0.29413000  0.85719000  1.0
  C  C44  1  0.50390000  0.27813000  0.75000000  1.0
  C  C45  1  0.50299000  0.38866000  0.91658000  1.0
  C  C46  1  0.53076000  0.92633000  0.74815000  1.0
  C  C47  1  0.48528000  0.94147000  0.85568000  1.0
  C  C48  1  0.50816000  0.86637000  0.90179000  1.0
  C  C49  1  0.52429000  0.81791000  0.87276000  1.0
  C  C50  1  0.53030000  0.74024000  0.91870000  1.0
  C  C51  1  0.48413000  0.72521000  0.81109000  1.0
  C  C52  1  0.50738000  0.80029000  0.76503000  1.0
  C  C53  1  0.52431000  0.84868000  0.79412000  1.0
  C  C54  1  0.50391000  0.97187000  0.77812000  1.0
  C  C55  1  0.50298000  0.69476000  0.88865000  1.0
  O  O56  1  0.24574000  0.42597000  0.99440000  1.0
  O  O57  1  0.24571000  0.57962000  0.92599000  1.0
  O  O58  1  0.24572000  0.49438000  0.07964000  1.0
  O  O59  1  0.71467000  0.48667000  0.93108000  1.0
  O  O60  1  0.71466000  0.43105000  0.08226000  1.0
  O  O61  1  0.71463000  0.58225000  0.98669000  1.0
  O  O62  1  0.24534000  0.08694000  0.74060000  1.0
  O  O63  1  0.24530000  0.17247000  0.58694000  1.0
  O  O64  1  0.24531000  0.24061000  0.67246000  1.0
  O  O65  1  0.71420000  0.08445000  0.67986000  1.0
  O  O66  1  0.71416000  0.17986000  0.73570000  1.0
  O  O67  1  0.71415000  0.23570000  0.58445000  1.0
