# generated using pymatgen
data_UH20C15NO6
_symmetry_space_group_name_H-M   'P 1'
_cell_length_a   8.09154000
_cell_length_b   9.18780000
_cell_length_c   12.76820000
_cell_angle_alpha   108.30900000
_cell_angle_beta   98.07040000
_cell_angle_gamma   105.26800000
_symmetry_Int_Tables_number   1
_chemical_formula_structural   UH20C15NO6
_chemical_formula_sum   'U2 H40 C30 N2 O12'
_cell_volume   843.17967861
_cell_formula_units_Z   2
loop_
 _symmetry_equiv_pos_site_id
 _symmetry_equiv_pos_as_xyz
  1  'x, y, z'
loop_
 _atom_site_type_symbol
 _atom_site_label
 _atom_site_symmetry_multiplicity
 _atom_site_fract_x
 _atom_site_fract_y
 _atom_site_fract_z
 _atom_site_occupancy
  U  U0  1  0.33758000  0.48751000  0.17660000  1.0
  U  U1  1  0.66242000  0.51249000  0.82340000  1.0
  H  H2  1  0.20618000  0.10053000  0.17569000  1.0
  H  H3  1  0.79382000  0.89946000  0.82430000  1.0
  H  H4  1  0.59879000  0.50940000  0.41053000  1.0
  H  H5  1  0.40120000  0.49060000  0.58947000  1.0
  H  H6  1  0.70050000  0.35060000  0.51531000  1.0
  H  H7  1  0.29950000  0.64940000  0.48469000  1.0
  H  H8  1  0.29505000  0.92159000  0.26766000  1.0
  H  H9  1  0.70495000  0.07841000  0.73234000  1.0
  H  H10  1  0.55935000  0.90408000  0.39904000  1.0
  H  H11  1  0.44065000  0.09592000  0.60096000  1.0
  H  H12  1  0.69745000  0.08283000  0.51341000  1.0
  H  H13  1  0.30256000  0.91717000  0.48659000  1.0
  H  H14  1  0.95518000  0.64687000  0.41288000  1.0
  H  H15  1  0.04482000  0.35314000  0.58712000  1.0
  H  H16  1  0.81325000  0.56290000  0.27617000  1.0
  H  H17  1  0.18676000  0.43711000  0.72384000  1.0
  H  H18  1  0.83910000  0.85040000  0.38361000  1.0
  H  H19  1  0.16090000  0.14961000  0.61640000  1.0
  H  H20  1  0.06339000  0.91629000  0.38221000  1.0
  H  H21  1  0.93661000  0.08372000  0.61780000  1.0
  H  H22  1  0.76289000  0.73473000  0.16559000  1.0
  H  H23  1  0.23711000  0.26526000  0.83441000  1.0
  H  H24  1  0.98431000  0.82996000  0.17228000  1.0
  H  H25  1  0.01569000  0.17004000  0.82773000  1.0
  H  H26  1  0.95094000  0.10017000  0.29470000  1.0
  H  H27  1  0.04905000  0.89983000  0.70529000  1.0
  H  H28  1  0.72478000  0.99357000  0.26873000  1.0
  H  H29  1  0.27522000  0.00643000  0.73127000  1.0
  H  H30  1  0.92512000  0.04338000  0.08889000  1.0
  H  H31  1  0.07488000  0.95661000  0.91110000  1.0
  H  H32  1  0.70605000  0.91626000  0.05528000  1.0
  H  H33  1  0.29395000  0.08373000  0.94472000  1.0
  H  H34  1  0.61592000  0.14902000  0.16144000  1.0
  H  H35  1  0.38408000  0.85098000  0.83856000  1.0
  H  H36  1  0.83669000  0.27813000  0.20508000  1.0
  H  H37  1  0.16331000  0.72186000  0.79492000  1.0
  H  H38  1  0.84382000  0.25198000  0.00636000  1.0
  H  H39  1  0.15617000  0.74802000  0.99364000  1.0
  H  H40  1  0.63852000  0.09753000  0.95290000  1.0
  H  H41  1  0.36148000  0.90247000  0.04710000  1.0
  C  C42  1  0.31494000  0.15088000  0.25145000  1.0
  C  C43  1  0.68506000  0.84912000  0.74855000  1.0
  C  C44  1  0.53398000  0.37900000  0.38258000  1.0
  C  C45  1  0.46602000  0.62100000  0.61742000  1.0
  C  C46  1  0.59067000  0.28857000  0.43996000  1.0
  C  C47  1  0.40933000  0.71143000  0.56004000  1.0
  C  C48  1  0.36508000  0.05192000  0.30354000  1.0
  C  C49  1  0.63492000  0.94808000  0.69646000  1.0
  C  C50  1  0.50580000  0.12085000  0.40084000  1.0
  C  C51  1  0.49421000  0.87915000  0.59916000  1.0
  C  C52  1  0.56139000  0.01899000  0.46131000  1.0
  C  C53  1  0.43862000  0.98101000  0.53869000  1.0
  C  C54  1  0.08058000  0.59973000  0.27764000  1.0
  C  C55  1  0.91942000  0.40027000  0.72236000  1.0
  C  C56  1  0.94064000  0.65557000  0.32825000  1.0
  C  C57  1  0.05936000  0.34444000  0.67176000  1.0
  C  C58  1  0.93488000  0.82312000  0.33368000  1.0
  C  C59  1  0.06512000  0.17689000  0.66633000  1.0
  C  C60  1  0.88083000  0.83842000  0.21889000  1.0
  C  C61  1  0.11917000  0.16158000  0.78111000  1.0
  C  C62  1  0.84064000  0.99581000  0.23226000  1.0
  C  C63  1  0.15936000  0.00419000  0.76774000  1.0
  C  C64  1  0.80493000  0.02558000  0.12128000  1.0
  C  C65  1  0.19507000  0.97441000  0.87872000  1.0
  C  C66  1  0.74129000  0.17145000  0.13530000  1.0
  C  C67  1  0.25871000  0.82855000  0.86469000  1.0
  C  C68  1  0.71658000  0.20859000  0.02694000  1.0
  C  C69  1  0.28342000  0.79141000  0.97306000  1.0
  C  C70  1  0.62196000  0.32993000  0.02730000  1.0
  C  C71  1  0.37804000  0.67007000  0.97270000  1.0
  N  N72  1  0.39743000  0.31263000  0.28978000  1.0
  N  N73  1  0.60257000  0.68737000  0.71022000  1.0
  O  O74  1  0.51187000  0.65067000  0.29058000  1.0
  O  O75  1  0.48813000  0.34932000  0.70942000  1.0
  O  O76  1  0.16373000  0.31592000  0.06932000  1.0
  O  O77  1  0.83627000  0.68408000  0.93068000  1.0
  O  O78  1  0.14511000  0.65232000  0.20514000  1.0
  O  O79  1  0.85491000  0.34770000  0.79487000  1.0
  O  O80  1  0.13622000  0.49497000  0.30529000  1.0
  O  O81  1  0.86378000  0.50503000  0.69472000  1.0
  O  O82  1  0.55173000  0.37997000  0.10857000  1.0
  O  O83  1  0.44827000  0.62003000  0.89142000  1.0
  O  O84  1  0.61244000  0.37703000  0.94333000  1.0
  O  O85  1  0.38756000  0.62297000  0.05667000  1.0
