# generated using pymatgen
data_BaH15C8NO10
_symmetry_space_group_name_H-M   'P 1'
_cell_length_a   6.97171000
_cell_length_b   9.58596000
_cell_length_c   11.13960000
_cell_angle_alpha   113.10000000
_cell_angle_beta   95.51120000
_cell_angle_gamma   98.96780000
_symmetry_Int_Tables_number   1
_chemical_formula_structural   BaH15C8NO10
_chemical_formula_sum   'Ba2 H30 C16 N2 O20'
_cell_volume   666.20392842
_cell_formula_units_Z   2
loop_
 _symmetry_equiv_pos_site_id
 _symmetry_equiv_pos_as_xyz
  1  'x, y, z'
loop_
 _atom_site_type_symbol
 _atom_site_label
 _atom_site_symmetry_multiplicity
 _atom_site_fract_x
 _atom_site_fract_y
 _atom_site_fract_z
 _atom_site_occupancy
  Ba  Ba0  1  0.59636000  0.76013000  0.60656000  1.0
  Ba  Ba1  1  0.40364000  0.23987000  0.39344000  1.0
  H  H2  1  0.12587000  0.75279000  0.68910000  1.0
  H  H3  1  0.87413000  0.24720000  0.31090000  1.0
  H  H4  1  0.07885000  0.66371000  0.53691000  1.0
  H  H5  1  0.92115000  0.33629000  0.46309000  1.0
  H  H6  1  0.86479000  0.64849000  0.35753000  1.0
  H  H7  1  0.13520000  0.35152000  0.64247000  1.0
  H  H8  1  0.83517000  0.50419000  0.40092000  1.0
  H  H9  1  0.16483000  0.49581000  0.59908000  1.0
  H  H10  1  0.58479000  0.85136000  0.94272000  1.0
  H  H11  1  0.41521000  0.14864000  0.05728000  1.0
  H  H12  1  0.39901000  0.88253000  0.87493000  1.0
  H  H13  1  0.60099000  0.11747000  0.12507000  1.0
  H  H14  1  0.95015000  0.06357000  0.60333000  1.0
  H  H15  1  0.04986000  0.93641000  0.39666000  1.0
  H  H16  1  0.74657000  0.09434000  0.56993000  1.0
  H  H17  1  0.25343000  0.90566000  0.43008000  1.0
  H  H18  1  0.51047000  0.12611000  0.69055000  1.0
  H  H19  1  0.48953000  0.87389000  0.30945000  1.0
  H  H20  1  0.38965000  0.04935000  0.77295000  1.0
  H  H21  1  0.61035000  0.95066000  0.22705000  1.0
  H  H22  1  0.86055000  0.13556000  0.82448000  1.0
  H  H23  1  0.13946000  0.86444000  0.17553000  1.0
  H  H24  1  0.88297000  0.13083000  0.98245000  1.0
  H  H25  1  0.11703000  0.86916000  0.01755000  1.0
  H  H26  1  0.30700000  0.57419000  0.87387000  1.0
  H  H27  1  0.69300000  0.42581000  0.12613000  1.0
  H  H28  1  0.40653000  0.71147000  0.11590000  1.0
  H  H29  1  0.59347000  0.28853000  0.88410000  1.0
  H  H30  1  0.11252000  0.30490000  0.15511000  1.0
  H  H31  1  0.88748000  0.69510000  0.84489000  1.0
  C  C32  1  0.34641000  0.59052000  0.30320000  1.0
  C  C33  1  0.65359000  0.40948000  0.69680000  1.0
  C  C34  1  0.15577000  0.36051000  0.87705000  1.0
  C  C35  1  0.84422000  0.63949000  0.12294000  1.0
  C  C36  1  0.96643000  0.14368000  0.90744000  1.0
  C  C37  1  0.03357000  0.85632000  0.09256000  1.0
  C  C38  1  0.27521000  0.51753000  0.15659000  1.0
  C  C39  1  0.72479000  0.48247000  0.84341000  1.0
  C  C40  1  0.26475000  0.51710000  0.93778000  1.0
  C  C41  1  0.73525000  0.48290000  0.06222000  1.0
  C  C42  1  0.32159000  0.59260000  0.07267000  1.0
  C  C43  1  0.67841000  0.40740000  0.92733000  1.0
  C  C44  1  0.07308000  0.00900000  0.85821000  1.0
  C  C45  1  0.92692000  0.99100000  0.14179000  1.0
  C  C46  1  0.16056000  0.36951000  0.09796000  1.0
  C  C47  1  0.83944000  0.63049000  0.90204000  1.0
  N  N48  1  0.09777000  0.29633000  0.96512000  1.0
  N  N49  1  0.90223000  0.70367000  0.03488000  1.0
  O  O50  1  0.40652000  0.73845000  0.36201000  1.0
  O  O51  1  0.59348000  0.26156000  0.63800000  1.0
  O  O52  1  0.18208000  0.68498000  0.61466000  1.0
  O  O53  1  0.81792000  0.31502000  0.38534000  1.0
  O  O54  1  0.34794000  0.50331000  0.36445000  1.0
  O  O55  1  0.65206000  0.49668000  0.63555000  1.0
  O  O56  1  0.85696000  0.61956000  0.43438000  1.0
  O  O57  1  0.14304000  0.38044000  0.56562000  1.0
  O  O58  1  0.10732000  0.27790000  0.75427000  1.0
  O  O59  1  0.89267000  0.72211000  0.24573000  1.0
  O  O60  1  0.48616000  0.80742000  0.86051000  1.0
  O  O61  1  0.51384000  0.19258000  0.13949000  1.0
  O  O62  1  0.25725000  0.03482000  0.90048000  1.0
  O  O63  1  0.74275000  0.96518000  0.09951000  1.0
  O  O64  1  0.81565000  0.00922000  0.55750000  1.0
  O  O65  1  0.18434000  0.99078000  0.44250000  1.0
  O  O66  1  0.96873000  0.87796000  0.78025000  1.0
  O  O67  1  0.03126000  0.12204000  0.21975000  1.0
  O  O68  1  0.49003000  0.03673000  0.71580000  1.0
  O  O69  1  0.50997000  0.96327000  0.28420000  1.0
