# generated using pymatgen
data_CdH8C10Br2(NCl)2
_symmetry_space_group_name_H-M   'P 1'
_cell_length_a   3.95088000
_cell_length_b   11.82930000
_cell_length_c   14.46350000
_cell_angle_alpha   89.99960000
_cell_angle_beta   89.99890000
_cell_angle_gamma   91.52970000
_symmetry_Int_Tables_number   1
_chemical_formula_structural   CdH8C10Br2(NCl)2
_chemical_formula_sum   'Cd2 H16 C20 Br4 N4 Cl4'
_cell_volume   675.72732941
_cell_formula_units_Z   2
loop_
 _symmetry_equiv_pos_site_id
 _symmetry_equiv_pos_as_xyz
  1  'x, y, z'
loop_
 _atom_site_type_symbol
 _atom_site_label
 _atom_site_symmetry_multiplicity
 _atom_site_fract_x
 _atom_site_fract_y
 _atom_site_fract_z
 _atom_site_occupancy
  Cd  Cd0  1  0.99993000  0.00001000  0.00000000  1.0
  Cd  Cd1  1  0.00003000  0.49998000  0.50000000  1.0
  H  H2  1  0.25108000  0.89677000  0.19643000  1.0
  H  H3  1  0.25113000  0.39678000  0.30357000  1.0
  H  H4  1  0.74894000  0.10322000  0.80357000  1.0
  H  H5  1  0.74893000  0.60323000  0.69643000  1.0
  H  H6  1  0.01721000  0.11715000  0.42531000  1.0
  H  H7  1  0.01719000  0.61713000  0.07469000  1.0
  H  H8  1  0.98276000  0.88285000  0.57469000  1.0
  H  H9  1  0.98276000  0.38287000  0.92532000  1.0
  H  H10  1  0.77413000  0.24990000  0.31057000  1.0
  H  H11  1  0.77413000  0.74989000  0.18943000  1.0
  H  H12  1  0.22586000  0.75011000  0.68942000  1.0
  H  H13  1  0.22585000  0.25012000  0.81059000  1.0
  H  H14  1  0.78003000  0.19815000  0.14132000  1.0
  H  H15  1  0.78004000  0.69815000  0.35868000  1.0
  H  H16  1  0.22000000  0.80185000  0.85868000  1.0
  H  H17  1  0.21999000  0.30186000  0.64133000  1.0
  C  C18  1  0.14473000  0.97373000  0.22444000  1.0
  C  C19  1  0.14475000  0.47374000  0.27556000  1.0
  C  C20  1  0.85528000  0.02626000  0.77555000  1.0
  C  C21  1  0.85529000  0.52627000  0.72445000  1.0
  C  C22  1  0.14915000  0.99670000  0.31908000  1.0
  C  C23  1  0.14917000  0.49670000  0.18092000  1.0
  C  C24  1  0.85082000  0.00329000  0.68092000  1.0
  C  C25  1  0.85083000  0.50331000  0.81908000  1.0
  C  C26  1  0.01696000  0.09725000  0.35177000  1.0
  C  C27  1  0.01694000  0.59725000  0.14823000  1.0
  C  C28  1  0.98305000  0.90275000  0.64823000  1.0
  C  C29  1  0.98301000  0.40275000  0.85178000  1.0
  C  C30  1  0.88307000  0.17123000  0.28726000  1.0
  C  C31  1  0.88307000  0.67122000  0.21273000  1.0
  C  C32  1  0.11693000  0.82877000  0.71273000  1.0
  C  C33  1  0.11694000  0.32879000  0.78727000  1.0
  C  C34  1  0.88538000  0.14306000  0.19383000  1.0
  C  C35  1  0.88539000  0.64306000  0.30618000  1.0
  C  C36  1  0.11462000  0.85693000  0.80618000  1.0
  C  C37  1  0.11461000  0.35694000  0.69383000  1.0
  Br  Br38  1  0.51161000  0.16305000  0.97066000  1.0
  Br  Br39  1  0.51169000  0.66303000  0.52932000  1.0
  Br  Br40  1  0.48826000  0.83696000  0.02932000  1.0
  Br  Br41  1  0.48844000  0.33692000  0.47068000  1.0
  N  N42  1  0.01422000  0.04586000  0.16323000  1.0
  N  N43  1  0.01424000  0.54586000  0.33677000  1.0
  N  N44  1  0.98577000  0.95413000  0.83677000  1.0
  N  N45  1  0.98578000  0.45414000  0.66323000  1.0
  Cl  Cl46  1  0.31610000  0.89895000  0.39407000  1.0
  Cl  Cl47  1  0.31612000  0.39895000  0.10593000  1.0
  Cl  Cl48  1  0.68387000  0.10106000  0.60593000  1.0
  Cl  Cl49  1  0.68390000  0.60107000  0.89407000  1.0
