# generated using pymatgen
data_ZnH22C14(IN2)2
_symmetry_space_group_name_H-M   'P 1'
_cell_length_a   8.49482000
_cell_length_b   8.50225000
_cell_length_c   14.82910586
_cell_angle_alpha   104.05094931
_cell_angle_beta   105.90361334
_cell_angle_gamma   95.59480000
_symmetry_Int_Tables_number   1
_chemical_formula_structural   ZnH22C14(IN2)2
_chemical_formula_sum   'Zn2 H44 C28 I4 N8'
_cell_volume   983.65658042
_cell_formula_units_Z   2
loop_
 _symmetry_equiv_pos_site_id
 _symmetry_equiv_pos_as_xyz
  1  'x, y, z'
loop_
 _atom_site_type_symbol
 _atom_site_label
 _atom_site_symmetry_multiplicity
 _atom_site_fract_x
 _atom_site_fract_y
 _atom_site_fract_z
 _atom_site_occupancy
  Zn  Zn0  1  0.82608000  0.07635000  0.74995000  1.0
  Zn  Zn1  1  0.17391000  0.92364000  0.25004000  1.0
  H  H2  1  0.06455000  0.28162000  0.50127000  1.0
  H  H3  1  0.28021000  0.56296000  0.99856000  1.0
  H  H4  1  0.93545000  0.71837000  0.49873000  1.0
  H  H5  1  0.71979000  0.43704000  0.00144000  1.0
  H  H6  1  0.61189000  0.27087000  0.38694000  1.0
  H  H7  1  0.38355000  0.22489000  0.11292000  1.0
  H  H8  1  0.38810000  0.72912000  0.61305000  1.0
  H  H9  1  0.61645000  0.77511000  0.88708000  1.0
  H  H10  1  0.80412000  0.38995000  0.39789000  1.0
  H  H11  1  0.49190000  0.40597000  0.10200000  1.0
  H  H12  1  0.19588000  0.61005000  0.60211000  1.0
  H  H13  1  0.50810000  0.59403000  0.89800000  1.0
  H  H14  1  0.67783000  0.47226000  0.46911000  1.0
  H  H15  1  0.50308000  0.20864000  0.03079000  1.0
  H  H16  1  0.32216000  0.52773000  0.53088000  1.0
  H  H17  1  0.49692000  0.79136000  0.96921000  1.0
  H  H18  1  0.35014000  0.05301000  0.52996000  1.0
  H  H19  1  0.02313000  0.82037000  0.96988000  1.0
  H  H20  1  0.64987000  0.94699000  0.47004000  1.0
  H  H21  1  0.97687000  0.17964000  0.03013000  1.0
  H  H22  1  0.51972000  0.99313000  0.60521000  1.0
  H  H23  1  0.88768000  0.91473000  0.89484000  1.0
  H  H24  1  0.48029000  0.00687000  0.39479000  1.0
  H  H25  1  0.11233000  0.08528000  0.10517000  1.0
  H  H26  1  0.51374000  0.29733000  0.52891000  1.0
  H  H27  1  0.26844000  0.98501000  0.97074000  1.0
  H  H28  1  0.48626000  0.70268000  0.47109000  1.0
  H  H29  1  0.73155000  0.01499000  0.02926000  1.0
  H  H30  1  0.56792000  0.29094000  0.65263000  1.0
  H  H31  1  0.13805000  0.91567000  0.84710000  1.0
  H  H32  1  0.43209000  0.70906000  0.34737000  1.0
  H  H33  1  0.86195000  0.08434000  0.15291000  1.0
  H  H34  1  0.22092000  0.22430000  0.73716000  1.0
  H  H35  1  0.98677000  0.48357000  0.76268000  1.0
  H  H36  1  0.77908000  0.77570000  0.26284000  1.0
  H  H37  1  0.01323000  0.51643000  0.23732000  1.0
  H  H38  1  0.22879000  0.11088000  0.62214000  1.0
  H  H39  1  0.98834000  0.60632000  0.87774000  1.0
  H  H40  1  0.77121000  0.88912000  0.37786000  1.0
  H  H41  1  0.01166000  0.39369000  0.12226000  1.0
  H  H42  1  0.11618000  0.01694000  0.68520000  1.0
  H  H43  1  0.83131000  0.43076000  0.81473000  1.0
  H  H44  1  0.88383000  0.98306000  0.31480000  1.0
  H  H45  1  0.16869000  0.56924000  0.18527000  1.0
  C  C46  1  0.81376000  0.29148000  0.51698000  1.0
  C  C47  1  0.27434000  0.29671000  0.98285000  1.0
  C  C48  1  0.18624000  0.70852000  0.48302000  1.0
  C  C49  1  0.72566000  0.70329000  0.01715000  1.0
  C  C50  1  0.97562000  0.25989000  0.53921000  1.0
  C  C51  1  0.22053000  0.43623000  0.96061000  1.0
  C  C52  1  0.02438000  0.74011000  0.46079000  1.0
  C  C53  1  0.77948000  0.56377000  0.03939000  1.0
  C  C54  1  0.72131000  0.35942000  0.43865000  1.0
  C  C55  1  0.42056000  0.28253000  0.06122000  1.0
  C  C56  1  0.27870000  0.64058000  0.56135000  1.0
  C  C57  1  0.57943000  0.71746000  0.93877000  1.0
  C  C58  1  0.48384000  0.05065000  0.54536000  1.0
  C  C59  1  0.00521000  0.93862000  0.95457000  1.0
  C  C60  1  0.51616000  0.94935000  0.45464000  1.0
  C  C61  1  0.99478000  0.06138000  0.04543000  1.0
  C  C62  1  0.99736000  0.18867000  0.61684000  1.0
  C  C63  1  0.07162000  0.38042000  0.88299000  1.0
  C  C64  1  0.00264000  0.81133000  0.38316000  1.0
  C  C65  1  0.92838000  0.61958000  0.11701000  1.0
  C  C66  1  0.57293000  0.22960000  0.57932000  1.0
  C  C67  1  0.15013000  0.99380000  0.92046000  1.0
  C  C68  1  0.42707000  0.77041000  0.42068000  1.0
  C  C69  1  0.84986000  0.00620000  0.07954000  1.0
  C  C70  1  0.14811000  0.13247000  0.66835000  1.0
  C  C71  1  0.96377000  0.47956000  0.83152000  1.0
  C  C72  1  0.85189000  0.86753000  0.33165000  1.0
  C  C73  1  0.03623000  0.52044000  0.16848000  1.0
  I  I74  1  0.80365000  0.76197000  0.67290000  1.0
  I  I75  1  0.58894000  0.13150000  0.82733000  1.0
  I  I76  1  0.19635000  0.23803000  0.32710000  1.0
  I  I77  1  0.41106000  0.86850000  0.17267000  1.0
  N  N78  1  0.85565000  0.17772000  0.64155000  1.0
  N  N79  1  0.03595000  0.21417000  0.85829000  1.0
  N  N80  1  0.14434000  0.82227000  0.35844000  1.0
  N  N81  1  0.96405000  0.78583000  0.14171000  1.0
  N  N82  1  0.74588000  0.24272000  0.58112000  1.0
  N  N83  1  0.16141000  0.16484000  0.91872000  1.0
  N  N84  1  0.25412000  0.75728000  0.41888000  1.0
  N  N85  1  0.83858000  0.83516000  0.08128000  1.0
