# generated using pymatgen
data_MnMo3H14C16(N3O5)2
_symmetry_space_group_name_H-M   'P 1'
_cell_length_a   7.93432000
_cell_length_b   11.62810000
_cell_length_c   13.00244088
_cell_angle_alpha   64.06005448
_cell_angle_beta   85.70321560
_cell_angle_gamma   79.47830000
_symmetry_Int_Tables_number   1
_chemical_formula_structural   MnMo3H14C16(N3O5)2
_chemical_formula_sum   'Mn2 Mo6 H28 C32 N12 O20'
_cell_volume   1060.60593349
_cell_formula_units_Z   2
loop_
 _symmetry_equiv_pos_site_id
 _symmetry_equiv_pos_as_xyz
  1  'x, y, z'
loop_
 _atom_site_type_symbol
 _atom_site_label
 _atom_site_symmetry_multiplicity
 _atom_site_fract_x
 _atom_site_fract_y
 _atom_site_fract_z
 _atom_site_occupancy
  Mn  Mn0  1  0.09541000  0.00814000  0.30122000  1.0
  Mn  Mn1  1  0.60531000  0.30403000  0.70342000  1.0
  Mo  Mo2  1  0.81885000  0.83900000  0.22951000  1.0
  Mo  Mo3  1  0.32006000  0.05795000  0.77479000  1.0
  Mo  Mo4  1  0.58349000  0.82603000  0.98774000  1.0
  Mo  Mo5  1  0.08316000  0.80689000  0.02323000  1.0
  Mo  Mo6  1  0.45693000  0.02968000  0.10041000  1.0
  Mo  Mo7  1  0.96741000  0.11803000  0.91043000  1.0
  H  H8  1  0.60102000  0.35619000  0.05998000  1.0
  H  H9  1  0.09499000  0.42901000  0.94814000  1.0
  H  H10  1  0.84050000  0.49379000  0.07493000  1.0
  H  H11  1  0.33926000  0.57894000  0.92815000  1.0
  H  H12  1  0.14493000  0.50031000  0.11779000  1.0
  H  H13  1  0.63211000  0.62592000  0.88350000  1.0
  H  H14  1  0.42686000  0.48866000  0.19777000  1.0
  H  H15  1  0.91463000  0.69137000  0.80916000  1.0
  H  H16  1  0.57094000  0.27415000  0.34627000  1.0
  H  H17  1  0.06580000  0.61921000  0.66419000  1.0
  H  H18  1  0.43705000  0.07620000  0.39576000  1.0
  H  H19  1  0.93455000  0.47002000  0.61301000  1.0
  H  H20  1  0.72586000  0.08594000  0.36917000  1.0
  H  H21  1  0.22938000  0.45380000  0.61892000  1.0
  H  H22  1  0.57727000  0.07670000  0.54951000  1.0
  H  H23  1  0.08342000  0.63299000  0.44017000  1.0
  H  H24  1  0.74771000  0.97240000  0.73265000  1.0
  H  H25  1  0.25884000  0.71349000  0.26070000  1.0
  H  H26  1  0.05362000  0.87392000  0.72943000  1.0
  H  H27  1  0.56294000  0.61187000  0.26464000  1.0
  H  H28  1  0.38000000  0.78833000  0.69673000  1.0
  H  H29  1  0.87528000  0.50509000  0.29123000  1.0
  H  H30  1  0.62987000  0.73601000  0.55481000  1.0
  H  H31  1  0.14334000  0.32050000  0.41987000  1.0
  H  H32  1  0.72234000  0.11605000  0.17497000  1.0
  H  H33  1  0.21184000  0.29636000  0.83713000  1.0
  H  H34  1  0.49114000  0.82721000  0.36132000  1.0
  H  H35  1  0.02178000  0.19861000  0.61408000  1.0
  C  C36  1  0.72488000  0.32334000  0.10221000  1.0
  C  C37  1  0.21671000  0.43612000  0.90417000  1.0
  C  C38  1  0.84883000  0.38946000  0.10979000  1.0
  C  C39  1  0.34305000  0.50906000  0.89346000  1.0
  C  C40  1  0.98216000  0.29154000  0.17459000  1.0
  C  C41  1  0.47131000  0.47310000  0.82692000  1.0
  C  C42  1  0.14428000  0.29479000  0.21514000  1.0
  C  C43  1  0.63545000  0.51474000  0.78657000  1.0
  C  C44  1  0.21260000  0.40875000  0.18083000  1.0
  C  C45  1  0.70151000  0.59569000  0.82156000  1.0
  C  C46  1  0.36858000  0.40193000  0.22646000  1.0
  C  C47  1  0.85836000  0.63294000  0.77893000  1.0
  C  C48  1  0.44989000  0.28211000  0.30754000  1.0
  C  C49  1  0.94327000  0.59105000  0.70016000  1.0
  C  C50  1  0.37620000  0.17219000  0.33573000  1.0
  C  C51  1  0.87083000  0.50840000  0.67143000  1.0
  C  C52  1  0.79328000  0.04095000  0.45062000  1.0
  C  C53  1  0.29768000  0.49249000  0.53822000  1.0
  C  C54  1  0.71207000  0.03480000  0.55094000  1.0
  C  C55  1  0.21784000  0.59119000  0.43952000  1.0
  C  C56  1  0.80600000  0.97629000  0.65295000  1.0
  C  C57  1  0.31484000  0.63555000  0.33992000  1.0
  C  C58  1  0.97685000  0.92177000  0.65137000  1.0
  C  C59  1  0.48588000  0.57887000  0.34185000  1.0
  C  C60  1  0.05084000  0.92982000  0.54812000  1.0
  C  C61  1  0.55710000  0.47988000  0.44453000  1.0
  C  C62  1  0.22463000  0.87324000  0.53519000  1.0
  C  C63  1  0.73502000  0.41378000  0.45668000  1.0
  C  C64  1  0.36906000  0.80932000  0.60745000  1.0
  C  C65  1  0.87332000  0.43294000  0.37923000  1.0
  C  C66  1  0.49728000  0.78318000  0.53817000  1.0
  C  C67  1  0.01060000  0.34193000  0.44183000  1.0
  N  N68  1  0.78312000  0.19506000  0.16043000  1.0
  N  N69  1  0.27011000  0.36430000  0.84615000  1.0
  N  N70  1  0.94001000  0.17258000  0.20497000  1.0
  N  N71  1  0.42426000  0.38453000  0.79868000  1.0
  N  N72  1  0.22723000  0.17770000  0.29001000  1.0
  N  N73  1  0.72106000  0.46962000  0.71393000  1.0
  N  N74  1  0.96071000  0.99311000  0.44718000  1.0
  N  N75  1  0.46303000  0.43885000  0.54141000  1.0
  N  N76  1  0.26411000  0.88468000  0.42785000  1.0
  N  N77  1  0.78599000  0.31631000  0.56008000  1.0
  N  N78  1  0.42975000  0.83040000  0.43186000  1.0
  N  N79  1  0.95281000  0.27523000  0.54869000  1.0
  O  O80  1  0.60486000  0.66010000  0.04074000  1.0
  O  O81  1  0.09168000  0.69355000  0.97039000  1.0
  O  O82  1  0.77898000  0.86216000  0.92633000  1.0
  O  O83  1  0.28593000  0.78063000  0.07889000  1.0
  O  O84  1  0.61490000  0.84597000  0.12594000  1.0
  O  O85  1  0.11213000  0.96247000  0.88551000  1.0
  O  O86  1  0.96070000  0.73415000  0.16330000  1.0
  O  O87  1  0.44916000  0.88625000  0.84898000  1.0
  O  O88  1  0.75735000  0.72233000  0.35530000  1.0
  O  O89  1  0.24789000  0.06344000  0.65104000  1.0
  O  O90  1  0.92426000  0.97473000  0.04229000  1.0
  O  O91  1  0.42304000  0.01123000  0.96932000  1.0
  O  O92  1  0.97360000  0.90053000  0.27936000  1.0
  O  O93  1  0.48574000  0.15105000  0.72594000  1.0
  O  O94  1  0.45960000  0.19249000  0.04671000  1.0
  O  O95  1  0.98502000  0.22752000  0.96281000  1.0
  O  O96  1  0.64159000  0.98983000  0.20981000  1.0
  O  O97  1  0.15106000  0.18653000  0.79621000  1.0
  O  O98  1  0.27305000  0.99566000  0.18724000  1.0
  O  O99  1  0.78157000  0.17583000  0.82584000  1.0
