# generated using pymatgen
data_CdH14C18SN4O5
_symmetry_space_group_name_H-M   'P 1'
_cell_length_a   10.38300000
_cell_length_b   10.54970000
_cell_length_c   10.78280000
_cell_angle_alpha   109.96100000
_cell_angle_beta   108.02200000
_cell_angle_gamma   103.72300000
_symmetry_Int_Tables_number   1
_chemical_formula_structural   CdH14C18SN4O5
_chemical_formula_sum   'Cd2 H28 C36 S2 N8 O10'
_cell_volume   974.94697493
_cell_formula_units_Z   2
loop_
 _symmetry_equiv_pos_site_id
 _symmetry_equiv_pos_as_xyz
  1  'x, y, z'
loop_
 _atom_site_type_symbol
 _atom_site_label
 _atom_site_symmetry_multiplicity
 _atom_site_fract_x
 _atom_site_fract_y
 _atom_site_fract_z
 _atom_site_occupancy
  Cd  Cd0  1  0.25376000  0.38988000  0.26933000  1.0
  Cd  Cd1  1  0.74624000  0.61012000  0.73067000  1.0
  H  H2  1  0.68776000  0.95764000  0.41716000  1.0
  H  H3  1  0.31223000  0.04235000  0.58284000  1.0
  H  H4  1  0.63202000  0.18004000  0.38376000  1.0
  H  H5  1  0.36798000  0.81995000  0.61624000  1.0
  H  H6  1  0.04227000  0.53873000  0.39563000  1.0
  H  H7  1  0.95774000  0.46127000  0.60437000  1.0
  H  H8  1  0.74294000  0.39791000  0.30005000  1.0
  H  H9  1  0.25707000  0.60210000  0.69995000  1.0
  H  H10  1  0.90428000  0.11108000  0.06652000  1.0
  H  H11  1  0.09572000  0.88892000  0.93348000  1.0
  H  H12  1  0.53181000  0.25687000  0.05082000  1.0
  H  H13  1  0.46819000  0.74314000  0.94918000  1.0
  H  H14  1  0.71670000  0.93929000  0.08990000  1.0
  H  H15  1  0.28331000  0.06072000  0.91011000  1.0
  H  H16  1  0.41813000  0.49950000  0.07754000  1.0
  H  H17  1  0.58187000  0.50049000  0.92246000  1.0
  H  H18  1  0.33564000  0.34694000  0.77807000  1.0
  H  H19  1  0.66435000  0.65305000  0.22192000  1.0
  H  H20  1  0.02078000  0.13739000  0.89273000  1.0
  H  H21  1  0.97922000  0.86260000  0.10727000  1.0
  H  H22  1  0.15195000  0.25194000  0.55927000  1.0
  H  H23  1  0.84804000  0.74806000  0.44073000  1.0
  H  H24  1  0.97630000  0.93603000  0.69595000  1.0
  H  H25  1  0.02370000  0.06397000  0.30405000  1.0
  H  H26  1  0.38492000  0.43029000  0.56940000  1.0
  H  H27  1  0.61508000  0.56971000  0.43060000  1.0
  H  H28  1  0.41802000  0.58604000  0.57741000  1.0
  H  H29  1  0.58198000  0.41396000  0.42259000  1.0
  C  C30  1  0.43787000  0.69914000  0.32873000  1.0
  C  C31  1  0.56212000  0.30086000  0.67126000  1.0
  C  C32  1  0.45225000  0.83843000  0.31977000  1.0
  C  C33  1  0.54774000  0.16157000  0.68022000  1.0
  C  C34  1  0.57891000  0.95690000  0.36744000  1.0
  C  C35  1  0.42109000  0.04309000  0.63255000  1.0
  C  C36  1  0.54902000  0.07461000  0.34922000  1.0
  C  C37  1  0.45098000  0.92539000  0.65078000  1.0
  C  C38  1  0.39986000  0.04324000  0.28513000  1.0
  C  C39  1  0.60013000  0.95676000  0.71487000  1.0
  C  C40  1  0.32583000  0.13904000  0.25350000  1.0
  C  C41  1  0.67418000  0.86096000  0.74650000  1.0
  C  C42  1  0.96870000  0.42914000  0.31241000  1.0
  C  C43  1  0.03130000  0.57086000  0.68759000  1.0
  C  C44  1  0.82042000  0.36136000  0.26454000  1.0
  C  C45  1  0.17959000  0.63864000  0.73546000  1.0
  C  C46  1  0.90476000  0.20859000  0.14563000  1.0
  C  C47  1  0.09524000  0.79141000  0.85437000  1.0
  C  C48  1  0.63874000  0.10936000  0.07840000  1.0
  C  C49  1  0.36127000  0.89064000  0.92160000  1.0
  C  C50  1  0.51754000  0.14481000  0.02985000  1.0
  C  C51  1  0.48247000  0.85520000  0.97015000  1.0
  C  C52  1  0.62167000  0.96520000  0.04907000  1.0
  C  C53  1  0.37833000  0.03480000  0.95093000  1.0
  C  C54  1  0.32273000  0.40270000  0.99429000  1.0
  C  C55  1  0.67727000  0.59730000  0.00570000  1.0
  C  C56  1  0.28244000  0.33163000  0.84725000  1.0
  C  C57  1  0.71756000  0.66836000  0.15274000  1.0
  C  C58  1  0.11854000  0.21710000  0.90592000  1.0
  C  C59  1  0.88146000  0.78290000  0.09408000  1.0
  C  C60  1  0.07345000  0.10617000  0.64435000  1.0
  C  C61  1  0.92654000  0.89383000  0.35565000  1.0
  C  C62  1  0.08569000  0.14175000  0.53369000  1.0
  C  C63  1  0.91431000  0.85824000  0.46631000  1.0
  C  C64  1  0.98758000  0.96456000  0.61076000  1.0
  C  C65  1  0.01242000  0.03544000  0.38924000  1.0
  S  S66  1  0.29709000  0.87059000  0.25023000  1.0
  S  S67  1  0.70291000  0.12941000  0.74977000  1.0
  N  N68  1  0.01932000  0.33312000  0.23776000  1.0
  N  N69  1  0.98068000  0.66688000  0.76224000  1.0
  N  N70  1  0.78133000  0.22113000  0.15894000  1.0
  N  N71  1  0.21867000  0.77887000  0.84106000  1.0
  N  N72  1  0.22031000  0.33051000  0.02922000  1.0
  N  N73  1  0.77969000  0.66948000  0.97077000  1.0
  N  N74  1  0.15228000  0.21366000  0.79193000  1.0
  N  N75  1  0.84772000  0.78634000  0.20807000  1.0
  O  O76  1  0.33715000  0.48878000  0.52941000  1.0
  O  O77  1  0.66285000  0.51123000  0.47059000  1.0
  O  O78  1  0.31127000  0.62432000  0.31112000  1.0
  O  O79  1  0.68873000  0.37568000  0.68888000  1.0
  O  O80  1  0.54870000  0.66398000  0.35050000  1.0
  O  O81  1  0.45129000  0.33601000  0.64950000  1.0
  O  O82  1  0.18757000  0.08936000  0.18529000  1.0
  O  O83  1  0.81243000  0.91064000  0.81471000  1.0
  O  O84  1  0.40931000  0.27365000  0.30095000  1.0
  O  O85  1  0.59070000  0.72635000  0.69906000  1.0
