# generated using pymatgen
data_AgH10C15N5O4
_symmetry_space_group_name_H-M   'P 1'
_cell_length_a   3.81411000
_cell_length_b   11.82060000
_cell_length_c   16.78280000
_cell_angle_alpha   89.99920000
_cell_angle_beta   90.30490000
_cell_angle_gamma   90.00000000
_symmetry_Int_Tables_number   1
_chemical_formula_structural   AgH10C15N5O4
_chemical_formula_sum   'Ag2 H20 C30 N10 O8'
_cell_volume   756.64297673
_cell_formula_units_Z   2
loop_
 _symmetry_equiv_pos_site_id
 _symmetry_equiv_pos_as_xyz
  1  'x, y, z'
loop_
 _atom_site_type_symbol
 _atom_site_label
 _atom_site_symmetry_multiplicity
 _atom_site_fract_x
 _atom_site_fract_y
 _atom_site_fract_z
 _atom_site_occupancy
  Ag  Ag0  1  0.10070000  0.57464000  0.73768000  1.0
  Ag  Ag1  1  0.89932000  0.07464000  0.26232000  1.0
  H  H2  1  0.06217000  0.68620000  0.30531000  1.0
  H  H3  1  0.93782000  0.18620000  0.69469000  1.0
  H  H4  1  0.01431000  0.64235000  0.43310000  1.0
  H  H5  1  0.98571000  0.14236000  0.56690000  1.0
  H  H6  1  0.59049000  0.41765000  0.25513000  1.0
  H  H7  1  0.40950000  0.91766000  0.74488000  1.0
  H  H8  1  0.06543000  0.78440000  0.20321000  1.0
  H  H9  1  0.93455000  0.28440000  0.79679000  1.0
  H  H10  1  0.54672000  0.32761000  0.50592000  1.0
  H  H11  1  0.45327000  0.82761000  0.49409000  1.0
  H  H12  1  0.99363000  0.00712000  0.98313000  1.0
  H  H13  1  0.00634000  0.50711000  0.01687000  1.0
  H  H14  1  0.57925000  0.61878000  0.04801000  1.0
  H  H15  1  0.42077000  0.11878000  0.95199000  1.0
  H  H16  1  0.10389000  0.92669000  0.11672000  1.0
  H  H17  1  0.89606000  0.42668000  0.88328000  1.0
  H  H18  1  0.85228000  0.50763000  0.53935000  1.0
  H  H19  1  0.14771000  0.00763000  0.46065000  1.0
  H  H20  1  0.68333000  0.89549000  0.87939000  1.0
  H  H21  1  0.31668000  0.39549000  0.12060000  1.0
  C  C22  1  0.81491000  0.53927000  0.33679000  1.0
  C  C23  1  0.18510000  0.03928000  0.66321000  1.0
  C  C24  1  0.88475000  0.56304000  0.41782000  1.0
  C  C25  1  0.11526000  0.06305000  0.58218000  1.0
  C  C26  1  0.55277000  0.36280000  0.37858000  1.0
  C  C27  1  0.44722000  0.86280000  0.62142000  1.0
  C  C28  1  0.64780000  0.43751000  0.31696000  1.0
  C  C29  1  0.35220000  0.93751000  0.68305000  1.0
  C  C30  1  0.62408000  0.38602000  0.45908000  1.0
  C  C31  1  0.37592000  0.88602000  0.54092000  1.0
  C  C32  1  0.82109000  0.62714000  0.20243000  1.0
  C  C33  1  0.17891000  0.12714000  0.79757000  1.0
  C  C34  1  0.90359000  0.92199000  0.99686000  1.0
  C  C35  1  0.09641000  0.42199000  0.00314000  1.0
  C  C36  1  0.67532000  0.70268000  0.03357000  1.0
  C  C37  1  0.32470000  0.20268000  0.96642000  1.0
  C  C38  1  0.96444000  0.87688000  0.07207000  1.0
  C  C39  1  0.03555000  0.37688000  0.92793000  1.0
  C  C40  1  0.85245000  0.76647000  0.09167000  1.0
  C  C41  1  0.14754000  0.26647000  0.90833000  1.0
  C  C42  1  0.79291000  0.48735000  0.47749000  1.0
  C  C43  1  0.20709000  0.98735000  0.52252000  1.0
  C  C44  1  0.62153000  0.74969000  0.95751000  1.0
  C  C45  1  0.37850000  0.24970000  0.04249000  1.0
  C  C46  1  0.73317000  0.85943000  0.93796000  1.0
  C  C47  1  0.26685000  0.35943000  0.06204000  1.0
  C  C48  1  0.37945000  0.26103000  0.35744000  1.0
  C  C49  1  0.62054000  0.76103000  0.64256000  1.0
  C  C50  1  0.45134000  0.68418000  0.89803000  1.0
  C  C51  1  0.54870000  0.18418000  0.10196000  1.0
  N  N52  1  0.91943000  0.62016000  0.28145000  1.0
  N  N53  1  0.08058000  0.12017000  0.71855000  1.0
  N  N54  1  0.53987000  0.37143000  0.67791000  1.0
  N  N55  1  0.46012000  0.87144000  0.32209000  1.0
  N  N56  1  0.31745000  0.63143000  0.84761000  1.0
  N  N57  1  0.68261000  0.13143000  0.15239000  1.0
  N  N58  1  0.92712000  0.72807000  0.16818000  1.0
  N  N59  1  0.07287000  0.22807000  0.83182000  1.0
  N  N60  1  0.24169000  0.17683000  0.33851000  1.0
  N  N61  1  0.75830000  0.67683000  0.66149000  1.0
  O  O62  1  0.31930000  0.43695000  0.64516000  1.0
  O  O63  1  0.68069000  0.93695000  0.35484000  1.0
  O  O64  1  0.66345000  0.39584000  0.74696000  1.0
  O  O65  1  0.33653000  0.89584000  0.25304000  1.0
  O  O66  1  0.63596000  0.28273000  0.64269000  1.0
  O  O67  1  0.36402000  0.78274000  0.35732000  1.0
  O  O68  1  0.65290000  0.55308000  0.16647000  1.0
  O  O69  1  0.34710000  0.05309000  0.83353000  1.0
