# generated using pymatgen
data_CuH11C8IN
_symmetry_space_group_name_H-M   'P 1'
_cell_length_a   4.07496000
_cell_length_b   10.27880000
_cell_length_c   11.34090000
_cell_angle_alpha   90.00030000
_cell_angle_beta   90.00120000
_cell_angle_gamma   89.99970000
_symmetry_Int_Tables_number   1
_chemical_formula_structural   CuH11C8IN
_chemical_formula_sum   'Cu2 H22 C16 I2 N2'
_cell_volume   475.02152195
_cell_formula_units_Z   2
loop_
 _symmetry_equiv_pos_site_id
 _symmetry_equiv_pos_as_xyz
  1  'x, y, z'
loop_
 _atom_site_type_symbol
 _atom_site_label
 _atom_site_symmetry_multiplicity
 _atom_site_fract_x
 _atom_site_fract_y
 _atom_site_fract_z
 _atom_site_occupancy
  Cu  Cu0  1  0.40550000  0.50000000  0.86482000  1.0
  Cu  Cu1  1  0.59446000  0.00000000  0.36482000  1.0
  H  H2  1  0.23732000  0.74144000  0.72329000  1.0
  H  H3  1  0.23734000  0.25855000  0.72329000  1.0
  H  H4  1  0.76266000  0.24145000  0.22331000  1.0
  H  H5  1  0.76265000  0.75854000  0.22330000  1.0
  H  H6  1  0.62102000  0.73480000  0.79611000  1.0
  H  H7  1  0.62104000  0.26520000  0.79610000  1.0
  H  H8  1  0.37895000  0.23478000  0.29611000  1.0
  H  H9  1  0.37894000  0.76522000  0.29611000  1.0
  H  H10  1  0.58082000  0.82259000  0.65985000  1.0
  H  H11  1  0.58084000  0.17742000  0.65984000  1.0
  H  H12  1  0.41914000  0.32258000  0.15986000  1.0
  H  H13  1  0.41913000  0.67742000  0.15986000  1.0
  H  H14  1  0.77577000  0.71024000  0.48936000  1.0
  H  H15  1  0.77577000  0.28976000  0.48936000  1.0
  H  H16  1  0.22424000  0.21025000  0.98935000  1.0
  H  H17  1  0.22422000  0.78976000  0.98935000  1.0
  H  H18  1  0.74372000  0.50000000  0.28250000  1.0
  H  H19  1  0.25634000  0.00000000  0.78250000  1.0
  H  H20  1  0.08864000  0.58654000  0.33473000  1.0
  H  H21  1  0.08865000  0.41347000  0.33472000  1.0
  H  H22  1  0.91140000  0.08654000  0.83470000  1.0
  H  H23  1  0.91140000  0.91347000  0.83471000  1.0
  C  C24  1  0.58572000  0.61402000  0.64269000  1.0
  C  C25  1  0.58572000  0.38598000  0.64269000  1.0
  C  C26  1  0.41425000  0.11402000  0.14269000  1.0
  C  C27  1  0.41425000  0.88598000  0.14268000  1.0
  C  C28  1  0.50359000  0.73567000  0.70855000  1.0
  C  C29  1  0.50361000  0.26433000  0.70855000  1.0
  C  C30  1  0.49639000  0.23566000  0.20856000  1.0
  C  C31  1  0.49639000  0.76433000  0.20856000  1.0
  C  C32  1  0.72161000  0.61638000  0.53003000  1.0
  C  C33  1  0.72161000  0.38362000  0.53003000  1.0
  C  C34  1  0.27845000  0.11638000  0.03003000  1.0
  C  C35  1  0.27843000  0.88362000  0.03003000  1.0
  C  C36  1  0.79394000  0.50000000  0.47150000  1.0
  C  C37  1  0.20606000  0.00000000  0.97148000  1.0
  C  C38  1  0.93735000  0.50000000  0.35004000  1.0
  C  C39  1  0.06268000  0.00000000  0.85002000  1.0
  I  I40  1  0.92227000  0.50000000  0.99736000  1.0
  I  I41  1  0.07771000  0.00000000  0.49736000  1.0
  N  N42  1  0.52163000  0.50000000  0.69854000  1.0
  N  N43  1  0.47839000  0.00000000  0.19853000  1.0
