# generated using pymatgen
data_ErH21(C7O3)4
_symmetry_space_group_name_H-M   'P 1'
_cell_length_a   9.63709000
_cell_length_b   11.47890000
_cell_length_c   12.38770000
_cell_angle_alpha   75.25420000
_cell_angle_beta   73.99090000
_cell_angle_gamma   72.87610000
_symmetry_Int_Tables_number   1
_chemical_formula_structural   ErH21(C7O3)4
_chemical_formula_sum   'Er2 H42 C56 O24'
_cell_volume   1236.21758006
_cell_formula_units_Z   2
loop_
 _symmetry_equiv_pos_site_id
 _symmetry_equiv_pos_as_xyz
  1  'x, y, z'
loop_
 _atom_site_type_symbol
 _atom_site_label
 _atom_site_symmetry_multiplicity
 _atom_site_fract_x
 _atom_site_fract_y
 _atom_site_fract_z
 _atom_site_occupancy
  Er  Er0  1  0.27652000  0.45446000  0.05587000  1.0
  Er  Er1  1  0.72348000  0.54554000  0.94413000  1.0
  H  H2  1  0.11847000  0.73456000  0.13288000  1.0
  H  H3  1  0.88153000  0.26545000  0.86711000  1.0
  H  H4  1  0.93575000  0.92587000  0.18758000  1.0
  H  H5  1  0.06426000  0.07413000  0.81242000  1.0
  H  H6  1  0.25919000  0.14037000  0.01165000  1.0
  H  H7  1  0.74082000  0.85963000  0.98834000  1.0
  H  H8  1  0.44221000  0.94741000  0.95506000  1.0
  H  H9  1  0.55779000  0.05259000  0.04494000  1.0
  H  H10  1  0.01341000  0.99122000  0.33259000  1.0
  H  H11  1  0.98660000  0.00878000  0.66742000  1.0
  H  H12  1  0.84096000  0.02251000  0.51828000  1.0
  H  H13  1  0.15904000  0.97749000  0.48172000  1.0
  H  H14  1  0.63328000  0.21297000  0.52960000  1.0
  H  H15  1  0.36671000  0.78703000  0.47040000  1.0
  H  H16  1  0.60522000  0.37303000  0.35340000  1.0
  H  H17  1  0.39478000  0.62697000  0.64660000  1.0
  H  H18  1  0.09442000  0.26320000  0.43877000  1.0
  H  H19  1  0.90558000  0.73680000  0.56123000  1.0
  H  H20  1  0.93907000  0.26078000  0.63794000  1.0
  H  H21  1  0.06093000  0.73922000  0.36206000  1.0
  H  H22  1  0.70797000  0.42728000  0.67408000  1.0
  H  H23  1  0.29203000  0.57272000  0.32592000  1.0
  H  H24  1  0.62590000  0.58815000  0.51333000  1.0
  H  H25  1  0.37410000  0.41185000  0.48667000  1.0
  H  H26  1  0.52841000  0.68304000  0.21695000  1.0
  H  H27  1  0.47158000  0.31696000  0.78305000  1.0
  H  H28  1  0.36013000  0.89642000  0.21865000  1.0
  H  H29  1  0.63986000  0.10358000  0.78135000  1.0
  H  H30  1  0.63912000  0.98398000  0.38916000  1.0
  H  H31  1  0.36089000  0.01602000  0.61085000  1.0
  H  H32  1  0.80166000  0.76780000  0.39395000  1.0
  H  H33  1  0.19833000  0.23220000  0.60605000  1.0
  H  H34  1  0.39959000  0.31823000  0.25767000  1.0
  H  H35  1  0.60041000  0.68176000  0.74233000  1.0
  H  H36  1  0.48477000  0.42680000  0.19567000  1.0
  H  H37  1  0.51524000  0.57319000  0.80434000  1.0
  H  H38  1  0.05464000  0.34839000  0.01429000  1.0
  H  H39  1  0.94537000  0.65160000  0.98571000  1.0
  H  H40  1  0.15021000  0.38779000  0.89357000  1.0
  H  H41  1  0.84979000  0.61221000  0.10643000  1.0
  H  H42  1  0.21033000  0.18952000  0.26449000  1.0
  H  H43  1  0.78967000  0.81048000  0.73551000  1.0
  C  C44  1  0.40883000  0.71421000  0.02072000  1.0
  C  C45  1  0.59117000  0.28579000  0.97928000  1.0
  C  C46  1  0.29363000  0.82870000  0.04348000  1.0
  C  C47  1  0.70637000  0.17131000  0.95652000  1.0
  C  C48  1  0.14996000  0.82298000  0.10745000  1.0
  C  C49  1  0.85004000  0.17703000  0.89254000  1.0
  C  C50  1  0.04796000  0.92947000  0.13912000  1.0
  C  C51  1  0.95205000  0.07053000  0.86088000  1.0
  C  C52  1  0.09143000  0.04171000  0.10705000  1.0
  C  C53  1  0.90858000  0.95829000  0.89295000  1.0
  C  C54  1  0.23103000  0.05059000  0.03747000  1.0
  C  C55  1  0.76898000  0.94941000  0.96252000  1.0
  C  C56  1  0.33129000  0.94383000  0.00621000  1.0
  C  C57  1  0.66872000  0.05617000  0.99379000  1.0
  C  C58  1  0.90348000  0.16240000  0.23792000  1.0
  C  C59  1  0.09652000  0.83760000  0.76208000  1.0
  C  C60  1  0.92150000  0.07330000  0.33719000  1.0
  C  C61  1  0.07850000  0.92670000  0.66281000  1.0
  C  C62  1  0.82456000  0.09190000  0.44134000  1.0
  C  C63  1  0.17544000  0.90810000  0.55866000  1.0
  C  C64  1  0.70834000  0.19862000  0.44813000  1.0
  C  C65  1  0.29166000  0.80138000  0.55187000  1.0
  C  C66  1  0.69212000  0.28742000  0.35005000  1.0
  C  C67  1  0.30788000  0.71257000  0.64995000  1.0
  C  C68  1  0.78871000  0.27248000  0.24396000  1.0
  C  C69  1  0.21129000  0.72751000  0.75604000  1.0
  C  C70  1  0.76937000  0.37460000  0.14464000  1.0
  C  C71  1  0.23064000  0.62540000  0.85536000  1.0
  C  C72  1  0.05140000  0.43009000  0.25066000  1.0
  C  C73  1  0.94859000  0.56991000  0.74933000  1.0
  C  C74  1  0.94946000  0.42647000  0.36498000  1.0
  C  C75  1  0.05053000  0.57353000  0.63502000  1.0
  C  C76  1  0.99088000  0.33340000  0.45646000  1.0
  C  C77  1  0.00911000  0.66666667  0.54354000  1.0
  C  C78  1  0.90501000  0.33247000  0.56707000  1.0
  C  C79  1  0.09499000  0.66753000  0.43293000  1.0
  C  C80  1  0.77447000  0.42499000  0.58757000  1.0
  C  C81  1  0.22553000  0.57501000  0.41243000  1.0
  C  C82  1  0.72879000  0.51687000  0.49775000  1.0
  C  C83  1  0.27120000  0.48312000  0.50225000  1.0
  C  C84  1  0.81557000  0.51765000  0.38689000  1.0
  C  C85  1  0.18443000  0.48235000  0.61311000  1.0
  C  C86  1  0.67276000  0.71509000  0.30518000  1.0
  C  C87  1  0.32724000  0.28491000  0.69482000  1.0
  C  C88  1  0.54932000  0.74970000  0.25556000  1.0
  C  C89  1  0.45068000  0.25031000  0.74444000  1.0
  C  C90  1  0.45726000  0.86852000  0.25616000  1.0
  C  C91  1  0.54273000  0.13149000  0.74383000  1.0
  C  C92  1  0.48968000  0.95339000  0.30388000  1.0
  C  C93  1  0.51032000  0.04660000  0.69612000  1.0
  C  C94  1  0.61455000  0.91711000  0.35295000  1.0
  C  C95  1  0.38546000  0.08289000  0.64705000  1.0
  C  C96  1  0.70545000  0.79769000  0.35502000  1.0
  C  C97  1  0.29455000  0.20231000  0.64498000  1.0
  C  C98  1  0.39555000  0.08171000  0.30197000  1.0
  C  C99  1  0.60446000  0.91830000  0.69803000  1.0
  O  O100  1  0.38653000  0.40526000  0.21446000  1.0
  O  O101  1  0.61348000  0.59473000  0.78553000  1.0
  O  O102  1  0.15720000  0.35772000  0.97373000  1.0
  O  O103  1  0.84281000  0.64228000  0.02627000  1.0
  O  O104  1  0.37264000  0.61018000  0.04950000  1.0
  O  O105  1  0.62735000  0.38982000  0.95051000  1.0
  O  O106  1  0.54290000  0.72197000  0.97671000  1.0
  O  O107  1  0.45710000  0.27804000  0.02329000  1.0
  O  O108  1  0.13972000  0.33017000  0.21933000  1.0
  O  O109  1  0.86028000  0.66983000  0.78066000  1.0
  O  O110  1  0.05722000  0.53367000  0.18281000  1.0
  O  O111  1  0.94278000  0.46634000  0.81720000  1.0
  O  O112  1  0.26492000  0.09797000  0.27579000  1.0
  O  O113  1  0.73508000  0.90203000  0.72421000  1.0
  O  O114  1  0.43540000  0.16521000  0.32327000  1.0
  O  O115  1  0.56460000  0.83479000  0.67673000  1.0
  O  O116  1  0.64989000  0.46297000  0.14923000  1.0
  O  O117  1  0.35011000  0.53702000  0.85077000  1.0
  O  O118  1  0.86941000  0.37851000  0.05232000  1.0
  O  O119  1  0.13060000  0.62149000  0.94768000  1.0
  O  O120  1  0.76712000  0.59953000  0.29420000  1.0
  O  O121  1  0.23287000  0.40046000  0.70580000  1.0
  O  O122  1  0.99845000  0.15201000  0.13396000  1.0
  O  O123  1  0.00155000  0.84800000  0.86604000  1.0
