# generated using pymatgen
data_DyH12C20S2N4O9
_symmetry_space_group_name_H-M   'P 1'
_cell_length_a   9.68458000
_cell_length_b   10.53880000
_cell_length_c   12.11590000
_cell_angle_alpha   96.51690000
_cell_angle_beta   91.79860000
_cell_angle_gamma   116.48600000
_symmetry_Int_Tables_number   1
_chemical_formula_structural   DyH12C20S2N4O9
_chemical_formula_sum   'Dy2 H24 C40 S4 N8 O18'
_cell_volume   1094.96928519
_cell_formula_units_Z   2
loop_
 _symmetry_equiv_pos_site_id
 _symmetry_equiv_pos_as_xyz
  1  'x, y, z'
loop_
 _atom_site_type_symbol
 _atom_site_label
 _atom_site_symmetry_multiplicity
 _atom_site_fract_x
 _atom_site_fract_y
 _atom_site_fract_z
 _atom_site_occupancy
  Dy  Dy0  1  0.95069000  0.75019000  0.60642000  1.0
  Dy  Dy1  1  0.04931000  0.24981000  0.39358000  1.0
  H  H2  1  0.73304000  0.16158000  0.08071000  1.0
  H  H3  1  0.26696000  0.83843000  0.91929000  1.0
  H  H4  1  0.65352000  0.46068000  0.66684000  1.0
  H  H5  1  0.34647000  0.53931000  0.33315000  1.0
  H  H6  1  0.44295000  0.37024000  0.79263000  1.0
  H  H7  1  0.55704000  0.62976000  0.20738000  1.0
  H  H8  1  0.42359000  0.54760000  0.94414000  1.0
  H  H9  1  0.57641000  0.45240000  0.05587000  1.0
  H  H10  1  0.96522000  0.25067000  0.97468000  1.0
  H  H11  1  0.03477000  0.74933000  0.02532000  1.0
  H  H12  1  0.18130000  0.30254000  0.85109000  1.0
  H  H13  1  0.81870000  0.69746000  0.14891000  1.0
  H  H14  1  0.18738000  0.10044000  0.72616000  1.0
  H  H15  1  0.81261000  0.89955000  0.27384000  1.0
  H  H16  1  0.34395000  0.77272000  0.20435000  1.0
  H  H17  1  0.65606000  0.22728000  0.79566000  1.0
  H  H18  1  0.20956000  0.80782000  0.36854000  1.0
  H  H19  1  0.79045000  0.19219000  0.63147000  1.0
  H  H20  1  0.53168000  0.25750000  0.41812000  1.0
  H  H21  1  0.46832000  0.74250000  0.58188000  1.0
  H  H22  1  0.67387000  0.66071000  0.44665000  1.0
  H  H23  1  0.32614000  0.33929000  0.55334000  1.0
  H  H24  1  0.72209000  0.53343000  0.42694000  1.0
  H  H25  1  0.27792000  0.46658000  0.57306000  1.0
  C  C26  1  0.64397000  0.53327000  0.73415000  1.0
  C  C27  1  0.35602000  0.46672000  0.26584000  1.0
  C  C28  1  0.52505000  0.48345000  0.80503000  1.0
  C  C29  1  0.47495000  0.51655000  0.19496000  1.0
  C  C30  1  0.51629000  0.57924000  0.88906000  1.0
  C  C31  1  0.48370000  0.42076000  0.11094000  1.0
  C  C32  1  0.62864000  0.72355000  0.90277000  1.0
  C  C33  1  0.37136000  0.27645000  0.09723000  1.0
  C  C34  1  0.62827000  0.83232000  0.98520000  1.0
  C  C35  1  0.37172000  0.16768000  0.01480000  1.0
  C  C36  1  0.73206000  0.97653000  0.98316000  1.0
  C  C37  1  0.26793000  0.02346000  0.01683000  1.0
  C  C38  1  0.85500000  0.02289000  0.91287000  1.0
  C  C39  1  0.14499000  0.97711000  0.08713000  1.0
  C  C40  1  0.97011000  0.16539000  0.91743000  1.0
  C  C41  1  0.02988000  0.83460000  0.08257000  1.0
  C  C42  1  0.08969000  0.19403000  0.84981000  1.0
  C  C43  1  0.91031000  0.80596000  0.15019000  1.0
  C  C44  1  0.09252000  0.08069000  0.77845000  1.0
  C  C45  1  0.90748000  0.91930000  0.22155000  1.0
  C  C46  1  0.86422000  0.91431000  0.83622000  1.0
  C  C47  1  0.13577000  0.08568000  0.16377000  1.0
  C  C48  1  0.74618000  0.76594000  0.82748000  1.0
  C  C49  1  0.25381000  0.23405000  0.17252000  1.0
  C  C50  1  0.57916000  0.95567000  0.11881000  1.0
  C  C51  1  0.42084000  0.04433000  0.88119000  1.0
  C  C52  1  0.51147000  0.99312000  0.21597000  1.0
  C  C53  1  0.48853000  0.00688000  0.78404000  1.0
  C  C54  1  0.38315000  0.87915000  0.25136000  1.0
  C  C55  1  0.61686000  0.12085000  0.74865000  1.0
  C  C56  1  0.30758000  0.89844000  0.34250000  1.0
  C  C57  1  0.69243000  0.10157000  0.65750000  1.0
  C  C58  1  0.36083000  0.03605000  0.40104000  1.0
  C  C59  1  0.63917000  0.96395000  0.59896000  1.0
  C  C60  1  0.48861000  0.15146000  0.37015000  1.0
  C  C61  1  0.51140000  0.84855000  0.62985000  1.0
  C  C62  1  0.56437000  0.13137000  0.27876000  1.0
  C  C63  1  0.43564000  0.86864000  0.72123000  1.0
  C  C64  1  0.95360000  0.45401000  0.54358000  1.0
  C  C65  1  0.04641000  0.54599000  0.45640000  1.0
  S  S66  1  0.73521000  0.28835000  0.25659000  1.0
  S  S67  1  0.26480000  0.71166000  0.74341000  1.0
  S  S68  1  0.25952000  0.07231000  0.50994000  1.0
  S  S69  1  0.74049000  0.92770000  0.49006000  1.0
  N  N70  1  0.75156000  0.67006000  0.74449000  1.0
  N  N71  1  0.24843000  0.32994000  0.25551000  1.0
  N  N72  1  0.98257000  0.94534000  0.77019000  1.0
  N  N73  1  0.01742000  0.05465000  0.22982000  1.0
  N  N74  1  0.53552000  0.82044000  0.07053000  1.0
  N  N75  1  0.46447000  0.17956000  0.92947000  1.0
  N  N76  1  0.69627000  0.05227000  0.06636000  1.0
  N  N77  1  0.30373000  0.94773000  0.93364000  1.0
  O  O78  1  0.74568000  0.40403000  0.33990000  1.0
  O  O79  1  0.25434000  0.59597000  0.66010000  1.0
  O  O80  1  0.86169000  0.24761000  0.27357000  1.0
  O  O81  1  0.13831000  0.75239000  0.72643000  1.0
  O  O82  1  0.72275000  0.31386000  0.14123000  1.0
  O  O83  1  0.27725000  0.68615000  0.85877000  1.0
  O  O84  1  0.18829000  0.94493000  0.56619000  1.0
  O  O85  1  0.81171000  0.05507000  0.43381000  1.0
  O  O86  1  0.13931000  0.09761000  0.45155000  1.0
  O  O87  1  0.86069000  0.90239000  0.54846000  1.0
  O  O88  1  0.37042000  0.20023000  0.58400000  1.0
  O  O89  1  0.62958000  0.79977000  0.41600000  1.0
  O  O90  1  0.88974000  0.50722000  0.61051000  1.0
  O  O91  1  0.11025000  0.49277000  0.38949000  1.0
  O  O92  1  0.94881000  0.33142000  0.54013000  1.0
  O  O93  1  0.05119000  0.66859000  0.45987000  1.0
  O  O94  1  0.72204000  0.60893000  0.48307000  1.0
  O  O95  1  0.27797000  0.39108000  0.51692000  1.0
