# generated using pymatgen
data_NiH16C26(NO5)2
_symmetry_space_group_name_H-M   'P 1'
_cell_length_a   7.57426000
_cell_length_b   8.49828000
_cell_length_c   9.81239645
_cell_angle_alpha   115.63572483
_cell_angle_beta   100.55979495
_cell_angle_gamma   90.02590000
_symmetry_Int_Tables_number   1
_chemical_formula_structural   NiH16C26(NO5)2
_chemical_formula_sum   'Ni1 H16 C26 N2 O10'
_cell_volume   557.51863681
_cell_formula_units_Z   1
loop_
 _symmetry_equiv_pos_site_id
 _symmetry_equiv_pos_as_xyz
  1  'x, y, z'
loop_
 _atom_site_type_symbol
 _atom_site_label
 _atom_site_symmetry_multiplicity
 _atom_site_fract_x
 _atom_site_fract_y
 _atom_site_fract_z
 _atom_site_occupancy
  Ni  Ni0  1  0.00006000  0.99147000  0.00006000  1.0
  H  H1  1  0.48097000  0.31150000  0.21184000  1.0
  H  H2  1  0.51902000  0.09963000  0.78781000  1.0
  H  H3  1  0.70950000  0.54730000  0.40457000  1.0
  H  H4  1  0.29043000  0.14301000  0.59536000  1.0
  H  H5  1  0.45742000  0.90257000  0.23751000  1.0
  H  H6  1  0.54272000  0.66538000  0.76258000  1.0
  H  H7  1  0.12045000  0.42371000  0.87622000  1.0
  H  H8  1  0.87953000  0.54706000  0.12375000  1.0
  H  H9  1  0.27778000  0.85727000  0.81495000  1.0
  H  H10  1  0.72230000  0.04198000  0.18518000  1.0
  H  H11  1  0.73692000  0.92654000  0.72224000  1.0
  H  H12  1  0.26305000  0.20478000  0.27790000  1.0
  H  H13  1  0.03245000  0.79888000  0.35708000  1.0
  H  H14  1  0.96739000  0.44146000  0.64298000  1.0
  H  H15  1  0.30541000  0.78257000  0.54191000  1.0
  H  H16  1  0.69450000  0.24019000  0.45816000  1.0
  C  C17  1  0.34163000  0.46766000  0.11258000  1.0
  C  C18  1  0.65846000  0.35506000  0.88722000  1.0
  C  C19  1  0.47575000  0.44302000  0.21965000  1.0
  C  C20  1  0.52429000  0.22343000  0.78011000  1.0
  C  C21  1  0.33749000  0.63844000  0.11891000  1.0
  C  C22  1  0.66262000  0.51961000  0.88101000  1.0
  C  C23  1  0.21699000  0.30647000  0.00590000  1.0
  C  C24  1  0.78282000  0.30038000  0.99396000  1.0
  C  C25  1  0.21319000  0.69551000  0.01173000  1.0
  C  C26  1  0.78711000  0.68371000  0.98824000  1.0
  C  C27  1  0.59589000  0.74206000  0.33487000  1.0
  C  C28  1  0.40411000  0.40749000  0.66513000  1.0
  C  C29  1  0.60359000  0.57520000  0.32890000  1.0
  C  C30  1  0.39640000  0.24653000  0.67102000  1.0
  C  C31  1  0.46285000  0.77238000  0.23263000  1.0
  C  C32  1  0.53723000  0.53998000  0.76736000  1.0
  C  C33  1  0.16357000  0.85504000  0.72862000  1.0
  C  C34  1  0.83647000  0.12616000  0.27152000  1.0
  C  C35  1  0.85978000  0.89315000  0.67769000  1.0
  C  C36  1  0.14019000  0.21569000  0.32243000  1.0
  C  C37  1  0.86639000  0.86094000  0.52734000  1.0
  C  C38  1  0.13351000  0.33372000  0.47277000  1.0
  C  C39  1  0.02713000  0.82227000  0.47454000  1.0
  C  C40  1  0.97278000  0.34751000  0.52556000  1.0
  C  C41  1  0.17737000  0.81662000  0.57804000  1.0
  C  C42  1  0.82257000  0.23824000  0.42206000  1.0
  N  N43  1  0.00748000  0.89426000  0.77750000  1.0
  N  N44  1  0.99258000  0.11675000  0.22265000  1.0
  O  O45  1  0.12129000  0.58137000  0.88308000  1.0
  O  O46  1  0.87907000  0.69798000  0.11679000  1.0
  O  O47  1  0.21251000  0.85898000  0.05484000  1.0
  O  O48  1  0.78790000  0.80418000  0.94520000  1.0
  O  O49  1  0.21904000  0.17988000  0.03982000  1.0
  O  O50  1  0.78061000  0.13994000  0.96009000  1.0
  O  O51  1  0.11238000  0.29644000  0.88074000  1.0
  O  O52  1  0.88727000  0.41542000  0.11930000  1.0
  O  O53  1  0.71391000  0.88429000  0.43726000  1.0
  O  O54  1  0.28590000  0.44736000  0.56286000  1.0
