# generated using pymatgen
data_CoH18C17(NO2)3
_symmetry_space_group_name_H-M   'P 1'
_cell_length_a   8.31973000
_cell_length_b   10.23980000
_cell_length_c   10.78990000
_cell_angle_alpha   80.51200000
_cell_angle_beta   78.45240000
_cell_angle_gamma   73.02650000
_symmetry_Int_Tables_number   1
_chemical_formula_structural   CoH18C17(NO2)3
_chemical_formula_sum   'Co2 H36 C34 N6 O12'
_cell_volume   855.80951966
_cell_formula_units_Z   2
loop_
 _symmetry_equiv_pos_site_id
 _symmetry_equiv_pos_as_xyz
  1  'x, y, z'
loop_
 _atom_site_type_symbol
 _atom_site_label
 _atom_site_symmetry_multiplicity
 _atom_site_fract_x
 _atom_site_fract_y
 _atom_site_fract_z
 _atom_site_occupancy
  Co  Co0  1  0.21356000  0.33575000  0.85722000  1.0
  Co  Co1  1  0.78646000  0.66424000  0.14278000  1.0
  H  H2  1  0.35625000  0.49687000  0.61029000  1.0
  H  H3  1  0.64375000  0.50312000  0.38970000  1.0
  H  H4  1  0.90848000  0.35237000  0.98021000  1.0
  H  H5  1  0.09152000  0.64763000  0.01979000  1.0
  H  H6  1  0.98561000  0.22236000  0.89290000  1.0
  H  H7  1  0.01437000  0.77765000  0.10710000  1.0
  H  H8  1  0.34903000  0.52192000  0.37515000  1.0
  H  H9  1  0.65098000  0.47808000  0.62484000  1.0
  H  H10  1  0.84126000  0.21208000  0.61303000  1.0
  H  H11  1  0.15875000  0.78791000  0.38696000  1.0
  H  H12  1  0.87573000  0.62055000  0.89710000  1.0
  H  H13  1  0.12427000  0.37946000  0.10291000  1.0
  H  H14  1  0.84556000  0.78568000  0.89803000  1.0
  H  H15  1  0.15444000  0.21432000  0.10199000  1.0
  H  H16  1  0.17017000  0.39935000  0.30050000  1.0
  H  H17  1  0.82983000  0.60065000  0.69949000  1.0
  H  H18  1  0.04894000  0.23216000  0.68952000  1.0
  H  H19  1  0.95105000  0.76785000  0.31047000  1.0
  H  H20  1  0.68758000  0.21264000  0.40566000  1.0
  H  H21  1  0.31242000  0.78736000  0.59434000  1.0
  H  H22  1  0.82771000  0.04727000  0.42211000  1.0
  H  H23  1  0.17229000  0.95273000  0.57789000  1.0
  H  H24  1  0.56636000  0.17609000  0.64456000  1.0
  H  H25  1  0.43364000  0.82392000  0.35544000  1.0
  H  H26  1  0.68328000  0.00191000  0.64423000  1.0
  H  H27  1  0.31672000  0.99810000  0.35577000  1.0
  H  H28  1  0.37379000  0.05792000  0.61494000  1.0
  H  H29  1  0.62621000  0.94209000  0.38507000  1.0
  H  H30  1  0.42221000  0.15403000  0.46802000  1.0
  H  H31  1  0.57778000  0.84598000  0.53198000  1.0
  H  H32  1  0.57401000  0.95477000  0.89859000  1.0
  H  H33  1  0.42598000  0.04524000  0.10141000  1.0
  H  H34  1  0.64493000  0.52180000  0.88539000  1.0
  H  H35  1  0.35507000  0.47820000  0.11461000  1.0
  H  H36  1  0.16145000  0.81220000  0.83896000  1.0
  H  H37  1  0.83856000  0.18780000  0.16104000  1.0
  C  C38  1  0.28339000  0.44468000  0.57217000  1.0
  C  C39  1  0.71661000  0.55532000  0.42783000  1.0
  C  C40  1  0.27813000  0.45872000  0.44244000  1.0
  C  C41  1  0.72187000  0.54129000  0.55756000  1.0
  C  C42  1  0.18049000  0.39062000  0.40043000  1.0
  C  C43  1  0.81952000  0.60938000  0.59957000  1.0
  C  C44  1  0.09336000  0.30852000  0.48854000  1.0
  C  C45  1  0.90664000  0.69148000  0.51145000  1.0
  C  C46  1  0.10783000  0.29887000  0.61668000  1.0
  C  C47  1  0.89217000  0.70113000  0.38331000  1.0
  C  C48  1  0.99316000  0.23380000  0.43883000  1.0
  C  C49  1  0.00684000  0.76620000  0.56116000  1.0
  C  C50  1  0.75241000  0.13379000  0.47550000  1.0
  C  C51  1  0.24759000  0.86621000  0.52450000  1.0
  C  C52  1  0.62126000  0.09247000  0.58334000  1.0
  C  C53  1  0.37874000  0.90753000  0.41666000  1.0
  C  C54  1  0.47552000  0.06457000  0.53381000  1.0
  C  C55  1  0.52448000  0.93543000  0.46620000  1.0
  C  C56  1  0.24604000  0.04251000  0.85996000  1.0
  C  C57  1  0.75396000  0.95747000  0.14004000  1.0
  C  C58  1  0.35711000  0.89752000  0.86801000  1.0
  C  C59  1  0.64288000  0.10248000  0.13199000  1.0
  C  C60  1  0.52521000  0.86990000  0.88864000  1.0
  C  C61  1  0.47479000  0.13010000  0.11137000  1.0
  C  C62  1  0.62859000  0.73477000  0.89818000  1.0
  C  C63  1  0.37140000  0.26523000  0.10184000  1.0
  C  C64  1  0.56565000  0.62763000  0.88098000  1.0
  C  C65  1  0.43435000  0.37237000  0.11903000  1.0
  C  C66  1  0.39719000  0.65532000  0.86144000  1.0
  C  C67  1  0.60281000  0.34468000  0.13855000  1.0
  C  C68  1  0.32802000  0.53968000  0.85314000  1.0
  C  C69  1  0.67198000  0.46033000  0.14687000  1.0
  C  C70  1  0.29179000  0.78986000  0.85619000  1.0
  C  C71  1  0.70821000  0.21014000  0.14381000  1.0
  N  N72  1  0.19992000  0.36608000  0.65858000  1.0
  N  N73  1  0.80008000  0.63391000  0.34141000  1.0
  N  N74  1  0.86943000  0.18954000  0.52169000  1.0
  N  N75  1  0.13058000  0.81045000  0.47830000  1.0
  N  N76  1  0.79221000  0.70611000  0.93240000  1.0
  N  N77  1  0.20779000  0.29389000  0.06761000  1.0
  O  O78  1  0.32388000  0.13632000  0.85085000  1.0
  O  O79  1  0.67613000  0.86366000  0.14916000  1.0
  O  O80  1  0.96172000  0.32555000  0.89366000  1.0
  O  O81  1  0.03828000  0.67446000  0.10634000  1.0
  O  O82  1  0.08770000  0.06438000  0.86185000  1.0
  O  O83  1  0.91229000  0.93562000  0.13815000  1.0
  O  O84  1  0.16793000  0.55098000  0.89140000  1.0
  O  O85  1  0.83206000  0.44902000  0.10860000  1.0
  O  O86  1  0.42373000  0.42792000  0.81275000  1.0
  O  O87  1  0.57626000  0.57208000  0.18725000  1.0
  O  O88  1  0.02216000  0.21633000  0.32418000  1.0
  O  O89  1  0.97784000  0.78366000  0.67581000  1.0
