# generated using pymatgen
data_NaH10C5N7O2
_symmetry_space_group_name_H-M   'P 1'
_cell_length_a   6.98379000
_cell_length_b   8.25344000
_cell_length_c   8.43209000
_cell_angle_alpha   92.45000000
_cell_angle_beta   91.26310000
_cell_angle_gamma   105.22200000
_symmetry_Int_Tables_number   1
_chemical_formula_structural   NaH10C5N7O2
_chemical_formula_sum   'Na2 H20 C10 N14 O4'
_cell_volume   468.26844396
_cell_formula_units_Z   2
loop_
 _symmetry_equiv_pos_site_id
 _symmetry_equiv_pos_as_xyz
  1  'x, y, z'
loop_
 _atom_site_type_symbol
 _atom_site_label
 _atom_site_symmetry_multiplicity
 _atom_site_fract_x
 _atom_site_fract_y
 _atom_site_fract_z
 _atom_site_occupancy
  Na  Na0  1  0.36383000  0.91398000  0.82928000  1.0
  Na  Na1  1  0.63617000  0.08602000  0.17072000  1.0
  H  H2  1  0.51722000  0.81752000  0.51556000  1.0
  H  H3  1  0.48278000  0.18248000  0.48444000  1.0
  H  H4  1  0.28944000  0.81765000  0.49679000  1.0
  H  H5  1  0.71056000  0.18235000  0.50321000  1.0
  H  H6  1  0.81498000  0.00193000  0.86204000  1.0
  H  H7  1  0.18502000  0.99807000  0.13796000  1.0
  H  H8  1  0.71448000  0.83580000  0.94842000  1.0
  H  H9  1  0.28552000  0.16420000  0.05158000  1.0
  H  H10  1  0.28409000  0.74905000  0.20225000  1.0
  H  H11  1  0.71591000  0.25095000  0.79775000  1.0
  H  H12  1  0.23747000  0.43682000  0.78904000  1.0
  H  H13  1  0.76253000  0.56318000  0.21096000  1.0
  H  H14  1  0.41433000  0.36559000  0.32284000  1.0
  H  H15  1  0.58567000  0.63441000  0.67716000  1.0
  H  H16  1  0.34789000  0.54622000  0.40199000  1.0
  H  H17  1  0.65211000  0.45378000  0.59801000  1.0
  H  H18  1  0.04606000  0.22522000  0.27006000  1.0
  H  H19  1  0.95394000  0.77478000  0.72995000  1.0
  H  H20  1  0.98835000  0.39635000  0.37213000  1.0
  H  H21  1  0.01165000  0.60365000  0.62787000  1.0
  C  C22  1  0.27832000  0.64527000  0.11749000  1.0
  C  C23  1  0.72168000  0.35473000  0.88251000  1.0
  C  C24  1  0.25161000  0.48325000  0.91225000  1.0
  C  C25  1  0.74839000  0.51675000  0.08775000  1.0
  C  C26  1  0.29939000  0.43415000  0.32125000  1.0
  C  C27  1  0.70061000  0.56585000  0.67875000  1.0
  C  C28  1  0.09836000  0.32271000  0.36596000  1.0
  C  C29  1  0.90164000  0.67729000  0.63404000  1.0
  C  C30  1  0.10319000  0.23737000  0.51767000  1.0
  C  C31  1  0.89681000  0.76263000  0.48233000  1.0
  N  N32  1  0.25773000  0.64466000  0.95946000  1.0
  N  N33  1  0.74227000  0.35534000  0.04054000  1.0
  N  N34  1  0.26715000  0.38583000  0.03120000  1.0
  N  N35  1  0.73285000  0.61417000  0.96880000  1.0
  N  N36  1  0.28536000  0.49232000  0.16187000  1.0
  N  N37  1  0.71464000  0.50768000  0.83812000  1.0
  N  N38  1  0.25780000  0.18803000  0.57741000  1.0
  N  N39  1  0.74221000  0.81197000  0.42259000  1.0
  N  N40  1  0.19112000  0.10546000  0.70803000  1.0
  N  N41  1  0.80888000  0.89454000  0.29197000  1.0
  N  N42  1  0.00382000  0.10551000  0.72634000  1.0
  N  N43  1  0.99618000  0.89449000  0.27366000  1.0
  N  N44  1  0.94429000  0.18787000  0.60859000  1.0
  N  N45  1  0.05571000  0.81213000  0.39141000  1.0
  O  O46  1  0.39151000  0.80204000  0.57430000  1.0
  O  O47  1  0.60849000  0.19796000  0.42570000  1.0
  O  O48  1  0.69715000  0.94792000  0.92416000  1.0
  O  O49  1  0.30285000  0.05208000  0.07584000  1.0
