# generated using pymatgen
data_Pr2H9C10O13
_symmetry_space_group_name_H-M   'P 1'
_cell_length_a   8.41192000
_cell_length_b   9.37270000
_cell_length_c   11.47360000
_cell_angle_alpha   80.12630000
_cell_angle_beta   69.15450000
_cell_angle_gamma   76.06360000
_symmetry_Int_Tables_number   1
_chemical_formula_structural   Pr2H9C10O13
_chemical_formula_sum   'Pr4 H18 C20 O26'
_cell_volume   816.83158512
_cell_formula_units_Z   2
loop_
 _symmetry_equiv_pos_site_id
 _symmetry_equiv_pos_as_xyz
  1  'x, y, z'
loop_
 _atom_site_type_symbol
 _atom_site_label
 _atom_site_symmetry_multiplicity
 _atom_site_fract_x
 _atom_site_fract_y
 _atom_site_fract_z
 _atom_site_occupancy
  Pr  Pr0  1  0.25736000  0.52865000  0.48625000  1.0
  Pr  Pr1  1  0.74264000  0.47135000  0.51375000  1.0
  Pr  Pr2  1  0.44765000  0.14039000  0.63572000  1.0
  Pr  Pr3  1  0.55234000  0.85960000  0.36428000  1.0
  H  H4  1  0.50796000  0.33906000  0.12876000  1.0
  H  H5  1  0.49205000  0.66093000  0.87124000  1.0
  H  H6  1  0.22243000  0.45598000  0.10746000  1.0
  H  H7  1  0.77757000  0.54402000  0.89254000  1.0
  H  H8  1  0.23781000  0.26532000  0.15249000  1.0
  H  H9  1  0.76219000  0.73468000  0.84750000  1.0
  H  H10  1  0.04965000  0.83115000  0.75601000  1.0
  H  H11  1  0.95035000  0.16886000  0.24400000  1.0
  H  H12  1  0.93729000  0.96146000  0.66763000  1.0
  H  H13  1  0.06270000  0.03854000  0.33238000  1.0
  H  H14  1  0.92896000  0.08074000  0.84811000  1.0
  H  H15  1  0.07103000  0.91927000  0.15189000  1.0
  H  H16  1  0.60036000  0.05031000  0.07017000  1.0
  H  H17  1  0.39964000  0.94969000  0.92983000  1.0
  H  H18  1  0.39275000  0.58737000  0.18107000  1.0
  H  H19  1  0.60726000  0.41263000  0.81892000  1.0
  H  H20  1  0.41379000  0.44121000  0.69109000  1.0
  H  H21  1  0.58621000  0.55879000  0.30890000  1.0
  C  C22  1  0.42024000  0.24214000  0.31635000  1.0
  C  C23  1  0.57976000  0.75786000  0.68365000  1.0
  C  C24  1  0.39676000  0.36575000  0.21433000  1.0
  C  C25  1  0.60324000  0.63424000  0.78567000  1.0
  C  C26  1  0.23129000  0.37098000  0.18513000  1.0
  C  C27  1  0.76871000  0.62902000  0.81486000  1.0
  C  C28  1  0.06587000  0.40189000  0.29490000  1.0
  C  C29  1  0.93413000  0.59811000  0.70510000  1.0
  C  C30  1  0.21235000  0.90617000  0.57972000  1.0
  C  C31  1  0.78764000  0.09383000  0.42028000  1.0
  C  C32  1  0.05485000  0.93577000  0.69481000  1.0
  C  C33  1  0.94514000  0.06424000  0.30519000  1.0
  C  C34  1  0.05348000  0.05616000  0.77077000  1.0
  C  C35  1  0.94651000  0.94385000  0.22923000  1.0
  C  C36  1  0.02440000  0.22789000  0.67289000  1.0
  C  C37  1  0.97560000  0.77211000  0.32711000  1.0
  C  C38  1  0.55153000  0.18398000  0.90430000  1.0
  C  C39  1  0.44847000  0.81602000  0.09570000  1.0
  C  C40  1  0.54109000  0.05355000  0.99909000  1.0
  C  C41  1  0.45891000  0.94645000  0.00092000  1.0
  O  O42  1  0.39761000  0.50253000  0.25222000  1.0
  O  O43  1  0.60240000  0.49746000  0.74778000  1.0
  O  O44  1  0.07554000  0.41461000  0.40286000  1.0
  O  O45  1  0.92447000  0.58539000  0.59714000  1.0
  O  O46  1  0.92066000  0.41348000  0.28158000  1.0
  O  O47  1  0.07935000  0.58652000  0.71842000  1.0
  O  O48  1  0.88339000  0.25498000  0.65723000  1.0
  O  O49  1  0.11662000  0.74502000  0.34277000  1.0
  O  O50  1  0.23846000  0.79874000  0.51686000  1.0
  O  O51  1  0.76154000  0.20126000  0.48314000  1.0
  O  O52  1  0.42866000  0.27762000  0.41700000  1.0
  O  O53  1  0.57135000  0.72238000  0.58300000  1.0
  O  O54  1  0.44570000  0.40675000  0.60848000  1.0
  O  O55  1  0.55430000  0.59325000  0.39152000  1.0
  O  O56  1  0.15111000  0.28985000  0.63947000  1.0
  O  O57  1  0.84891000  0.71014000  0.36053000  1.0
  O  O58  1  0.32086000  0.99283000  0.54425000  1.0
  O  O59  1  0.67914000  0.00716000  0.45575000  1.0
  O  O60  1  0.43221000  0.11279000  0.29281000  1.0
  O  O61  1  0.56778000  0.88721000  0.70719000  1.0
  O  O62  1  0.19292000  0.05349000  0.79743000  1.0
  O  O63  1  0.80707000  0.94652000  0.20258000  1.0
  O  O64  1  0.50100000  0.18604000  0.81114000  1.0
  O  O65  1  0.49899000  0.81396000  0.18886000  1.0
  O  O66  1  0.60969000  0.28891000  0.92184000  1.0
  O  O67  1  0.39032000  0.71109000  0.07816000  1.0
