# generated using pymatgen
data_NdZnH9C13(NO5)2
_symmetry_space_group_name_H-M   'P 1'
_cell_length_a   9.36335000
_cell_length_b   10.15640000
_cell_length_c   18.79920000
_cell_angle_alpha   84.47380000
_cell_angle_beta   89.99980000
_cell_angle_gamma   89.99880000
_symmetry_Int_Tables_number   1
_chemical_formula_structural   NdZnH9C13(NO5)2
_chemical_formula_sum   'Nd4 Zn4 H36 C52 N8 O40'
_cell_volume   1779.45591107
_cell_formula_units_Z   4
loop_
 _symmetry_equiv_pos_site_id
 _symmetry_equiv_pos_as_xyz
  1  'x, y, z'
loop_
 _atom_site_type_symbol
 _atom_site_label
 _atom_site_symmetry_multiplicity
 _atom_site_fract_x
 _atom_site_fract_y
 _atom_site_fract_z
 _atom_site_occupancy
  Nd  Nd0  1  0.48496000  0.24777000  0.80526000  1.0
  Nd  Nd1  1  0.98497000  0.25223000  0.69474000  1.0
  Nd  Nd2  1  0.51504000  0.75225000  0.19474000  1.0
  Nd  Nd3  1  0.01502000  0.74776000  0.30527000  1.0
  Zn  Zn4  1  0.90545000  0.68818000  0.65046000  1.0
  Zn  Zn5  1  0.40545000  0.81182000  0.84954000  1.0
  Zn  Zn6  1  0.09458000  0.31181000  0.34953000  1.0
  Zn  Zn7  1  0.59458000  0.18820000  0.15046000  1.0
  H  H8  1  0.94243000  0.07006000  0.15487000  1.0
  H  H9  1  0.44245000  0.42986000  0.34513000  1.0
  H  H10  1  0.05755000  0.92994000  0.84513000  1.0
  H  H11  1  0.55751000  0.57014000  0.65489000  1.0
  H  H12  1  0.86262000  0.23336000  0.05469000  1.0
  H  H13  1  0.36266000  0.26651000  0.44529000  1.0
  H  H14  1  0.13737000  0.76667000  0.94531000  1.0
  H  H15  1  0.63732000  0.73347000  0.55472000  1.0
  H  H16  1  0.02941000  0.29971000  0.95496000  1.0
  H  H17  1  0.52945000  0.20023000  0.54504000  1.0
  H  H18  1  0.97059000  0.70034000  0.04505000  1.0
  H  H19  1  0.47055000  0.79974000  0.45496000  1.0
  H  H20  1  0.34641000  0.03405000  0.05411000  1.0
  H  H21  1  0.84641000  0.46594000  0.44590000  1.0
  H  H22  1  0.65357000  0.96596000  0.94589000  1.0
  H  H23  1  0.15358000  0.53403000  0.55409000  1.0
  H  H24  1  0.67056000  0.90645000  0.72011000  1.0
  H  H25  1  0.17056000  0.59355000  0.77990000  1.0
  H  H26  1  0.32947000  0.09355000  0.27988000  1.0
  H  H27  1  0.82948000  0.40646000  0.22009000  1.0
  H  H28  1  0.60040000  0.19349000  0.65525000  1.0
  H  H29  1  0.10038000  0.30651000  0.84475000  1.0
  H  H30  1  0.39960000  0.80651000  0.34475000  1.0
  H  H31  1  0.89960000  0.69347000  0.15525000  1.0
  H  H32  1  0.42914000  0.17962000  0.65575000  1.0
  H  H33  1  0.92912000  0.32042000  0.84424000  1.0
  H  H34  1  0.57086000  0.82040000  0.34425000  1.0
  H  H35  1  0.07087000  0.67953000  0.15577000  1.0
  H  H36  1  0.90757000  0.51893000  0.55795000  1.0
  H  H37  1  0.40757000  0.98107000  0.94205000  1.0
  H  H38  1  0.09243000  0.48105000  0.44205000  1.0
  H  H39  1  0.59242000  0.01895000  0.05795000  1.0
  H  H40  1  0.96166000  0.65130000  0.51431000  1.0
  H  H41  1  0.46168000  0.84870000  0.98569000  1.0
  H  H42  1  0.03834000  0.34868000  0.48569000  1.0
  H  H43  1  0.53833000  0.15132000  0.01431000  1.0
  C  C44  1  0.14998000  0.04442000  0.11059000  1.0
  C  C45  1  0.64998000  0.45553000  0.38941000  1.0
  C  C46  1  0.85000000  0.95557000  0.88941000  1.0
  C  C47  1  0.34998000  0.54447000  0.61059000  1.0
  C  C48  1  0.01293000  0.09905000  0.11028000  1.0
  C  C49  1  0.51295000  0.40087000  0.38971000  1.0
  C  C50  1  0.98705000  0.90096000  0.88971000  1.0
  C  C51  1  0.48702000  0.59913000  0.61029000  1.0
  C  C52  1  0.96920000  0.19045000  0.05436000  1.0
  C  C53  1  0.46921000  0.30947000  0.44563000  1.0
  C  C54  1  0.03080000  0.80958000  0.94564000  1.0
  C  C55  1  0.53076000  0.69051000  0.55437000  1.0
  C  C56  1  0.06194000  0.22613000  0.99784000  1.0
  C  C57  1  0.56196000  0.27380000  0.50215000  1.0
  C  C58  1  0.93806000  0.77390000  0.00216000  1.0
  C  C59  1  0.43802000  0.72618000  0.49785000  1.0
  C  C60  1  0.19852000  0.16930000  0.99647000  1.0
  C  C61  1  0.69852000  0.33067000  0.50352000  1.0
  C  C62  1  0.80148000  0.83072000  0.00353000  1.0
  C  C63  1  0.30147000  0.66931000  0.49647000  1.0
  C  C64  1  0.24154000  0.07944000  0.05338000  1.0
  C  C65  1  0.74153000  0.42055000  0.44662000  1.0
  C  C66  1  0.75844000  0.92058000  0.94662000  1.0
  C  C67  1  0.25844000  0.57943000  0.55337000  1.0
  C  C68  1  0.29604000  0.19956000  0.93479000  1.0
  C  C69  1  0.79606000  0.30042000  0.56520000  1.0
  C  C70  1  0.70395000  0.80045000  0.06521000  1.0
  C  C71  1  0.20393000  0.69957000  0.43479000  1.0
  C  C72  1  0.20087000  0.94882000  0.17115000  1.0
  C  C73  1  0.70087000  0.55114000  0.32884000  1.0
  C  C74  1  0.79911000  0.05117000  0.82883000  1.0
  C  C75  1  0.29911000  0.44885000  0.67116000  1.0
  C  C76  1  0.76240000  0.46660000  0.73802000  1.0
  C  C77  1  0.26240000  0.03339000  0.76198000  1.0
  C  C78  1  0.23761000  0.53340000  0.26198000  1.0
  C  C79  1  0.73760000  0.96662000  0.23802000  1.0
  C  C80  1  0.69877000  0.59025000  0.75729000  1.0
  C  C81  1  0.19876000  0.90975000  0.74272000  1.0
  C  C82  1  0.30125000  0.40975000  0.24270000  1.0
  C  C83  1  0.80126000  0.09026000  0.25728000  1.0
  C  C84  1  0.59788000  0.62419000  0.80718000  1.0
  C  C85  1  0.09787000  0.87581000  0.69284000  1.0
  C  C86  1  0.40214000  0.37582000  0.19282000  1.0
  C  C87  1  0.90215000  0.12419000  0.30717000  1.0
  C  C88  1  0.50911000  0.54893000  0.86301000  1.0
  C  C89  1  0.00911000  0.95107000  0.63700000  1.0
  C  C90  1  0.49091000  0.45109000  0.13700000  1.0
  C  C91  1  0.99091000  0.04893000  0.36300000  1.0
  C  C92  1  0.66406000  0.80358000  0.74179000  1.0
  C  C93  1  0.16406000  0.69640000  0.75823000  1.0
  C  C94  1  0.33596000  0.19642000  0.25821000  1.0
  C  C95  1  0.83598000  0.30360000  0.24177000  1.0
  N  N96  1  0.73915000  0.70523000  0.71703000  1.0
  N  N97  1  0.23914000  0.79477000  0.78298000  1.0
  N  N98  1  0.26087000  0.29476000  0.28297000  1.0
  N  N99  1  0.76088000  0.20525000  0.21702000  1.0
  N  N100  1  0.57864000  0.75884000  0.79645000  1.0
  N  N101  1  0.07862000  0.74116000  0.70356000  1.0
  N  N102  1  0.42140000  0.24118000  0.20354000  1.0
  N  N103  1  0.92141000  0.25884000  0.29644000  1.0
  O  O104  1  0.25397000  0.26650000  0.87799000  1.0
  O  O105  1  0.75399000  0.23347000  0.62201000  1.0
  O  O106  1  0.74603000  0.73352000  0.12201000  1.0
  O  O107  1  0.24601000  0.76651000  0.37798000  1.0
  O  O108  1  0.42481000  0.15291000  0.93759000  1.0
  O  O109  1  0.92481000  0.34708000  0.56241000  1.0
  O  O110  1  0.57519000  0.84710000  0.06242000  1.0
  O  O111  1  0.07518000  0.65291000  0.43758000  1.0
  O  O112  1  0.32740000  0.90472000  0.16635000  1.0
  O  O113  1  0.82736000  0.59528000  0.33365000  1.0
  O  O114  1  0.67260000  0.09528000  0.83364000  1.0
  O  O115  1  0.17261000  0.40470000  0.66635000  1.0
  O  O116  1  0.11665000  0.91838000  0.22333000  1.0
  O  O117  1  0.61665000  0.58157000  0.27666000  1.0
  O  O118  1  0.88333000  0.08158000  0.77665000  1.0
  O  O119  1  0.38333000  0.41842000  0.72334000  1.0
  O  O120  1  0.72036000  0.35254000  0.76327000  1.0
  O  O121  1  0.22037000  0.14746000  0.73673000  1.0
  O  O122  1  0.27963000  0.64746000  0.23672000  1.0
  O  O123  1  0.77962000  0.85254000  0.26328000  1.0
  O  O124  1  0.86598000  0.47921000  0.69237000  1.0
  O  O125  1  0.36598000  0.02078000  0.80763000  1.0
  O  O126  1  0.13403000  0.52078000  0.30762000  1.0
  O  O127  1  0.63403000  0.97923000  0.19238000  1.0
  O  O128  1  0.52510000  0.42424000  0.87455000  1.0
  O  O129  1  0.02512000  0.07576000  0.62546000  1.0
  O  O130  1  0.47492000  0.57578000  0.12545000  1.0
  O  O131  1  0.97490000  0.92424000  0.37454000  1.0
  O  O132  1  0.41956000  0.61560000  0.89566000  1.0
  O  O133  1  0.91956000  0.88439000  0.60435000  1.0
  O  O134  1  0.58048000  0.38442000  0.10435000  1.0
  O  O135  1  0.08048000  0.11560000  0.39564000  1.0
  O  O136  1  0.51434000  0.16459000  0.68494000  1.0
  O  O137  1  0.01434000  0.33544000  0.81506000  1.0
  O  O138  1  0.48565000  0.83543000  0.31506000  1.0
  O  O139  1  0.98564000  0.66452000  0.18495000  1.0
  O  O140  1  0.89769000  0.61689000  0.55402000  1.0
  O  O141  1  0.39769000  0.88310000  0.94598000  1.0
  O  O142  1  0.10231000  0.38309000  0.44598000  1.0
  O  O143  1  0.60231000  0.11691000  0.05402000  1.0
