# generated using pymatgen
data_Zn2H14C20N22O
_symmetry_space_group_name_H-M   'P 1'
_cell_length_a   8.38961000
_cell_length_b   8.84104690
_cell_length_c   20.07313018
_cell_angle_alpha   83.72429518
_cell_angle_beta   77.94930410
_cell_angle_gamma   61.68538825
_symmetry_Int_Tables_number   1
_chemical_formula_structural   Zn2H14C20N22O
_chemical_formula_sum   'Zn4 H28 C40 N44 O2'
_cell_volume   1281.77158093
_cell_formula_units_Z   2
loop_
 _symmetry_equiv_pos_site_id
 _symmetry_equiv_pos_as_xyz
  1  'x, y, z'
loop_
 _atom_site_type_symbol
 _atom_site_label
 _atom_site_symmetry_multiplicity
 _atom_site_fract_x
 _atom_site_fract_y
 _atom_site_fract_z
 _atom_site_occupancy
  Zn  Zn0  1  0.89529000  0.96935000  0.22535000  1.0
  Zn  Zn1  1  0.09001000  0.53076000  0.27460000  1.0
  Zn  Zn2  1  0.10471000  0.03065000  0.77465000  1.0
  Zn  Zn3  1  0.90999000  0.46924000  0.72540000  1.0
  H  H4  1  0.86259000  0.05403000  0.04569000  1.0
  H  H5  1  0.96223000  0.44617000  0.45429000  1.0
  H  H6  1  0.13741000  0.94597000  0.95431000  1.0
  H  H7  1  0.03777000  0.55384000  0.54571000  1.0
  H  H8  1  0.61238000  0.34101000  0.01627000  1.0
  H  H9  1  0.96970000  0.15906000  0.48367000  1.0
  H  H10  1  0.38762000  0.65900000  0.98373000  1.0
  H  H11  1  0.03029000  0.84095000  0.51633000  1.0
  H  H12  1  0.72272000  0.77092000  0.29091000  1.0
  H  H13  1  0.78444000  0.72918000  0.20906000  1.0
  H  H14  1  0.27727000  0.22908000  0.70910000  1.0
  H  H15  1  0.21556000  0.27082000  0.79094000  1.0
  H  H16  1  0.54230000  0.59925000  0.29865000  1.0
  H  H17  1  0.44022000  0.90072000  0.20135000  1.0
  H  H18  1  0.45769000  0.40074000  0.70136000  1.0
  H  H19  1  0.55978000  0.09928000  0.79865000  1.0
  H  H20  1  0.47175000  0.42786000  0.39454000  1.0
  H  H21  1  0.29422000  0.07225000  0.10547000  1.0
  H  H22  1  0.52825000  0.57214000  0.60547000  1.0
  H  H23  1  0.70579000  0.92775000  0.89452000  1.0
  H  H24  1  0.55184000  0.72695000  0.52908000  1.0
  H  H25  1  0.80768000  0.77303000  0.97093000  1.0
  H  H26  1  0.44816000  0.27302000  0.47092000  1.0
  H  H27  1  0.19232000  0.22697000  0.02907000  1.0
  H  H28  1  0.60672000  0.89334000  0.42723000  1.0
  H  H29  1  0.92714000  0.60673000  0.07279000  1.0
  H  H30  1  0.39328000  0.10666000  0.57278000  1.0
  H  H31  1  0.07286000  0.39327000  0.92721000  1.0
  C  C32  1  0.74826000  0.13818000  0.08267000  1.0
  C  C33  1  0.96913000  0.36197000  0.41728000  1.0
  C  C34  1  0.25175000  0.86182000  0.91732000  1.0
  C  C35  1  0.03086000  0.63804000  0.58272000  1.0
  C  C36  1  0.49243000  0.36616000  0.12557000  1.0
  C  C37  1  0.98439000  0.13388000  0.37436000  1.0
  C  C38  1  0.50757000  0.63385000  0.87443000  1.0
  C  C39  1  0.01561000  0.86612000  0.62564000  1.0
  C  C40  1  0.56069000  0.24752000  0.17705000  1.0
  C  C41  1  0.98544000  0.25253000  0.32288000  1.0
  C  C42  1  0.43930000  0.75249000  0.82295000  1.0
  C  C43  1  0.01456000  0.74747000  0.67712000  1.0
  C  C44  1  0.34377000  0.53874000  0.12704000  1.0
  C  C45  1  0.00972000  0.96130000  0.37289000  1.0
  C  C46  1  0.65624000  0.46126000  0.87295000  1.0
  C  C47  1  0.99027000  0.03870000  0.62712000  1.0
  C  C48  1  0.50967000  0.24451000  0.25009000  1.0
  C  C49  1  0.00431000  0.25559000  0.24985000  1.0
  C  C50  1  0.49032000  0.75550000  0.74991000  1.0
  C  C51  1  0.99569000  0.74441000  0.75015000  1.0
  C  C52  1  0.54102000  0.62510000  0.35085000  1.0
  C  C53  1  0.51694000  0.87489000  0.14915000  1.0
  C  C54  1  0.45898000  0.37491000  0.64915000  1.0
  C  C55  1  0.48305000  0.12512000  0.85085000  1.0
  C  C56  1  0.50493000  0.52662000  0.40473000  1.0
  C  C57  1  0.43628000  0.97343000  0.09528000  1.0
  C  C58  1  0.49506000  0.47338000  0.59527000  1.0
  C  C59  1  0.56372000  0.02657000  0.90472000  1.0
  C  C60  1  0.51284000  0.55534000  0.47106000  1.0
  C  C61  1  0.53918000  0.94468000  0.02895000  1.0
  C  C62  1  0.48716000  0.44467000  0.52894000  1.0
  C  C63  1  0.46081000  0.05531000  0.97105000  1.0
  C  C64  1  0.54691000  0.69282000  0.47932000  1.0
  C  C65  1  0.71888000  0.80715000  0.02068000  1.0
  C  C66  1  0.45309000  0.30718000  0.52068000  1.0
  C  C67  1  0.28112000  0.19285000  0.97932000  1.0
  C  C68  1  0.57903000  0.78658000  0.42247000  1.0
  C  C69  1  0.78792000  0.71343000  0.07755000  1.0
  C  C70  1  0.42097000  0.21341000  0.57754000  1.0
  C  C71  1  0.21208000  0.28657000  0.92245000  1.0
  N  N72  1  0.21829000  0.62048000  0.18222000  1.0
  N  N73  1  0.02114000  0.87954000  0.31772000  1.0
  N  N74  1  0.78167000  0.37949000  0.81777000  1.0
  N  N75  1  0.97884000  0.12046000  0.68229000  1.0
  N  N76  1  0.11530000  0.78011000  0.15940000  1.0
  N  N77  1  0.05484000  0.71994000  0.34056000  1.0
  N  N78  1  0.88467000  0.21986000  0.84060000  1.0
  N  N79  1  0.94516000  0.28006000  0.65945000  1.0
  N  N80  1  0.17231000  0.79576000  0.09410000  1.0
  N  N81  1  0.06212000  0.70435000  0.40586000  1.0
  N  N82  1  0.82773000  0.20426000  0.90590000  1.0
  N  N83  1  0.93792000  0.29564000  0.59414000  1.0
  N  N84  1  0.31632000  0.64582000  0.07237000  1.0
  N  N85  1  0.03454000  0.85428000  0.42760000  1.0
  N  N86  1  0.68371000  0.35419000  0.92763000  1.0
  N  N87  1  0.96547000  0.14572000  0.57241000  1.0
  N  N88  1  0.61412000  0.29185000  0.06638000  1.0
  N  N89  1  0.97245000  0.20825000  0.43356000  1.0
  N  N90  1  0.38590000  0.70816000  0.93362000  1.0
  N  N91  1  0.02755000  0.79176000  0.56644000  1.0
  N  N92  1  0.72035000  0.10656000  0.14910000  1.0
  N  N93  1  0.97607000  0.39356000  0.35085000  1.0
  N  N94  1  0.27964000  0.89344000  0.85090000  1.0
  N  N95  1  0.02393000  0.60644000  0.64915000  1.0
  N  N96  1  0.63448000  0.12710000  0.28606000  1.0
  N  N97  1  0.04761000  0.37304000  0.21388000  1.0
  N  N98  1  0.36551000  0.87292000  0.71394000  1.0
  N  N99  1  0.95239000  0.62696000  0.78610000  1.0
  N  N100  1  0.54985000  0.14467000  0.35138000  1.0
  N  N101  1  0.04587000  0.35544000  0.14855000  1.0
  N  N102  1  0.45014000  0.85534000  0.64862000  1.0
  N  N103  1  0.95411000  0.64457000  0.85144000  1.0
  N  N104  1  0.37997000  0.26824000  0.35556000  1.0
  N  N105  1  0.00379000  0.23182000  0.14437000  1.0
  N  N106  1  0.62002000  0.73177000  0.64445000  1.0
  N  N107  1  0.99622000  0.76817000  0.85562000  1.0
  N  N108  1  0.35092000  0.33499000  0.29243000  1.0
  N  N109  1  0.97836000  0.16508000  0.20750000  1.0
  N  N110  1  0.64907000  0.66502000  0.70758000  1.0
  N  N111  1  0.02164000  0.83493000  0.79249000  1.0
  N  N112  1  0.58020000  0.75210000  0.35867000  1.0
  N  N113  1  0.69088000  0.74788000  0.14134000  1.0
  N  N114  1  0.41981000  0.24790000  0.64133000  1.0
  N  N115  1  0.30911000  0.25212000  0.85866000  1.0
  O  O116  1  0.82663000  0.75005000  0.24998000  1.0
  O  O117  1  0.17339000  0.24992000  0.75002000  1.0
