# generated using pymatgen
data_LiH15(C2N)6
_symmetry_space_group_name_H-M   'P 1'
_cell_length_a   9.15297000
_cell_length_b   9.36983000
_cell_length_c   14.65090000
_cell_angle_alpha   90.00010000
_cell_angle_beta   89.99980000
_cell_angle_gamma   89.99990000
_symmetry_Int_Tables_number   1
_chemical_formula_structural   LiH15(C2N)6
_chemical_formula_sum   'Li4 H60 C48 N24'
_cell_volume   1256.48715850
_cell_formula_units_Z   4
loop_
 _symmetry_equiv_pos_site_id
 _symmetry_equiv_pos_as_xyz
  1  'x, y, z'
loop_
 _atom_site_type_symbol
 _atom_site_label
 _atom_site_symmetry_multiplicity
 _atom_site_fract_x
 _atom_site_fract_y
 _atom_site_fract_z
 _atom_site_occupancy
  Li  Li0  1  0.82479000  0.39098000  0.31709000  1.0
  Li  Li1  1  0.67521000  0.60902000  0.81709000  1.0
  Li  Li2  1  0.17521000  0.89098000  0.18291000  1.0
  Li  Li3  1  0.32479000  0.10902000  0.68291000  1.0
  H  H4  1  0.79926000  0.22088000  0.80996000  1.0
  H  H5  1  0.70073000  0.77912000  0.30995000  1.0
  H  H6  1  0.20074000  0.72088000  0.69004000  1.0
  H  H7  1  0.29927000  0.27912000  0.19005000  1.0
  H  H8  1  0.72405000  0.09574000  0.33136000  1.0
  H  H9  1  0.77595000  0.90426000  0.83136000  1.0
  H  H10  1  0.27595000  0.59574000  0.16864000  1.0
  H  H11  1  0.22405000  0.40426000  0.66865000  1.0
  H  H12  1  0.90431000  0.66907000  0.46656000  1.0
  H  H13  1  0.59569000  0.33093000  0.96656000  1.0
  H  H14  1  0.09570000  0.16907000  0.03344000  1.0
  H  H15  1  0.40431000  0.83093000  0.53344000  1.0
  H  H16  1  0.99366000  0.58841000  0.19033000  1.0
  H  H17  1  0.50634000  0.41159000  0.69033000  1.0
  H  H18  1  0.00634000  0.08841000  0.30967000  1.0
  H  H19  1  0.49366000  0.91158000  0.80967000  1.0
  H  H20  1  0.66785000  0.93330000  0.48705000  1.0
  H  H21  1  0.83215000  0.06670000  0.98705000  1.0
  H  H22  1  0.33215000  0.43330000  0.01295000  1.0
  H  H23  1  0.16785000  0.56670000  0.51295000  1.0
  H  H24  1  0.85116000  0.47154000  0.53635000  1.0
  H  H25  1  0.64884000  0.52846000  0.03635000  1.0
  H  H26  1  0.14884000  0.97154000  0.96365000  1.0
  H  H27  1  0.35116000  0.02846000  0.46365000  1.0
  H  H28  1  0.93386000  0.35593000  0.61653000  1.0
  H  H29  1  0.56614000  0.64407000  0.11653000  1.0
  H  H30  1  0.06614000  0.85593000  0.88347000  1.0
  H  H31  1  0.43386000  0.14407000  0.38347000  1.0
  H  H32  1  0.74897000  0.40341000  0.63093000  1.0
  H  H33  1  0.75103000  0.59659000  0.13093000  1.0
  H  H34  1  0.25102000  0.90341000  0.86908000  1.0
  H  H35  1  0.24897000  0.09659000  0.36908000  1.0
  H  H36  1  0.70032000  0.96733000  0.64667000  1.0
  H  H37  1  0.79967000  0.03267000  0.14667000  1.0
  H  H38  1  0.29968000  0.46733000  0.85333000  1.0
  H  H39  1  0.20033000  0.53267000  0.35333000  1.0
  H  H40  1  0.65054000  0.14077000  0.68509000  1.0
  H  H41  1  0.84946000  0.85923000  0.18509000  1.0
  H  H42  1  0.34946000  0.64077000  0.81491000  1.0
  H  H43  1  0.15053000  0.35923000  0.31491000  1.0
  H  H44  1  0.09870000  0.20969000  0.84997000  1.0
  H  H45  1  0.40130000  0.79031000  0.34997000  1.0
  H  H46  1  0.90130000  0.70969000  0.65003000  1.0
  H  H47  1  0.59870000  0.29031000  0.15003000  1.0
  H  H48  1  0.14710000  0.93451000  0.57909000  1.0
  H  H49  1  0.35290000  0.06549000  0.07909000  1.0
  H  H50  1  0.85290000  0.43451000  0.92091000  1.0
  H  H51  1  0.64710000  0.56549000  0.42091000  1.0
  H  H52  1  0.02606000  0.05037000  0.51920000  1.0
  H  H53  1  0.47394000  0.94963000  0.01920000  1.0
  H  H54  1  0.97394000  0.55037000  0.98080000  1.0
  H  H55  1  0.52607000  0.44963000  0.48080000  1.0
  H  H56  1  0.95923000  0.88892000  0.56551000  1.0
  H  H57  1  0.54077000  0.11108000  0.06552000  1.0
  H  H58  1  0.04077000  0.38892000  0.93448000  1.0
  H  H59  1  0.45923000  0.61108000  0.43449000  1.0
  H  H60  1  0.08152000  0.88377000  0.39827000  1.0
  H  H61  1  0.41848000  0.11623000  0.89827000  1.0
  H  H62  1  0.91848000  0.38377000  0.10173000  1.0
  H  H63  1  0.58152000  0.61623000  0.60173000  1.0
  C  C64  1  0.00715000  0.05185000  0.66511000  1.0
  C  C65  1  0.49285000  0.94814000  0.16511000  1.0
  C  C66  1  0.99285000  0.55185000  0.83489000  1.0
  C  C67  1  0.50715000  0.44814000  0.33489000  1.0
  C  C68  1  0.89110000  0.17198000  0.77502000  1.0
  C  C69  1  0.60890000  0.82802000  0.27501000  1.0
  C  C70  1  0.10890000  0.67198000  0.72498000  1.0
  C  C71  1  0.39110000  0.32802000  0.22498000  1.0
  C  C72  1  0.73693000  0.12287000  0.40275000  1.0
  C  C73  1  0.76306000  0.87713000  0.90275000  1.0
  C  C74  1  0.26307000  0.62287000  0.09725000  1.0
  C  C75  1  0.23694000  0.37713000  0.59725000  1.0
  C  C76  1  0.94809000  0.68285000  0.39810000  1.0
  C  C77  1  0.55191000  0.31715000  0.89810000  1.0
  C  C78  1  0.05191000  0.18285000  0.10190000  1.0
  C  C79  1  0.44810000  0.81715000  0.60190000  1.0
  C  C80  1  0.99084000  0.64129000  0.25640000  1.0
  C  C81  1  0.50916000  0.35871000  0.75640000  1.0
  C  C82  1  0.00916000  0.14129000  0.24360000  1.0
  C  C83  1  0.49084000  0.85871000  0.74360000  1.0
  C  C84  1  0.78782000  0.25673000  0.52021000  1.0
  C  C85  1  0.71218000  0.74327000  0.02021000  1.0
  C  C86  1  0.21218000  0.75673000  0.97979000  1.0
  C  C87  1  0.28782000  0.24327000  0.47979000  1.0
  C  C88  1  0.70863000  0.04099000  0.47813000  1.0
  C  C89  1  0.79137000  0.95901000  0.97813000  1.0
  C  C90  1  0.29137000  0.54098000  0.02187000  1.0
  C  C91  1  0.20863000  0.45902000  0.52187000  1.0
  C  C92  1  0.83216000  0.37786000  0.57934000  1.0
  C  C93  1  0.66784000  0.62214000  0.07934000  1.0
  C  C94  1  0.16784000  0.87786000  0.92066000  1.0
  C  C95  1  0.33216000  0.12214000  0.42066000  1.0
  C  C96  1  0.73322000  0.08002000  0.64708000  1.0
  C  C97  1  0.76678000  0.91998000  0.14708000  1.0
  C  C98  1  0.26678000  0.58002000  0.85292000  1.0
  C  C99  1  0.23322000  0.41998000  0.35292000  1.0
  C  C100  1  0.03823000  0.16578000  0.79290000  1.0
  C  C101  1  0.46177000  0.83422000  0.29290000  1.0
  C  C102  1  0.96178000  0.66578000  0.70710000  1.0
  C  C103  1  0.53822000  0.33422000  0.20710000  1.0
  C  C104  1  0.03567000  0.97707000  0.57754000  1.0
  C  C105  1  0.46433000  0.02294000  0.07754000  1.0
  C  C106  1  0.96433000  0.47707000  0.92246000  1.0
  C  C107  1  0.53567000  0.52293000  0.42246000  1.0
  C  C108  1  0.03728000  0.79044000  0.36408000  1.0
  C  C109  1  0.46272000  0.20956000  0.86408000  1.0
  C  C110  1  0.96272000  0.29043000  0.13592000  1.0
  C  C111  1  0.53728000  0.70956000  0.63592000  1.0
  N  N112  1  0.78707000  0.25612000  0.42925000  1.0
  N  N113  1  0.71293000  0.74388000  0.92925000  1.0
  N  N114  1  0.21293000  0.75612000  0.07075000  1.0
  N  N115  1  0.28707000  0.24388000  0.57075000  1.0
  N  N116  1  0.91869000  0.58687000  0.32916000  1.0
  N  N117  1  0.58131000  0.41313000  0.82916000  1.0
  N  N118  1  0.08132000  0.08687000  0.17084000  1.0
  N  N119  1  0.41869000  0.91313000  0.67084000  1.0
  N  N120  1  0.10915000  0.09202000  0.72443000  1.0
  N  N121  1  0.39085000  0.90798000  0.22443000  1.0
  N  N122  1  0.89085000  0.59202000  0.77557000  1.0
  N  N123  1  0.60915000  0.40798000  0.27557000  1.0
  N  N124  1  0.74077000  0.12665000  0.55253000  1.0
  N  N125  1  0.75923000  0.87335000  0.05253000  1.0
  N  N126  1  0.25923000  0.62665000  0.94747000  1.0
  N  N127  1  0.24077000  0.37335000  0.44747000  1.0
  N  N128  1  0.87229000  0.09857000  0.69369000  1.0
  N  N129  1  0.62771000  0.90144000  0.19369000  1.0
  N  N130  1  0.12771000  0.59856000  0.80631000  1.0
  N  N131  1  0.37230000  0.40144000  0.30631000  1.0
  N  N132  1  0.06455000  0.76384000  0.27313000  1.0
  N  N133  1  0.43545000  0.23616000  0.77313000  1.0
  N  N134  1  0.93545000  0.26384000  0.22687000  1.0
  N  N135  1  0.56454000  0.73616000  0.72687000  1.0
