# generated using pymatgen
data_Cu3Mo3H24C40N8O11
_symmetry_space_group_name_H-M   'P 1'
_cell_length_a   9.65563000
_cell_length_b   21.81340000
_cell_length_c   21.87940000
_cell_angle_alpha   89.99990000
_cell_angle_beta   99.13010000
_cell_angle_gamma   90.00000000
_symmetry_Int_Tables_number   1
_chemical_formula_structural   Cu3Mo3H24C40N8O11
_chemical_formula_sum   'Cu12 Mo12 H96 C160 N32 O44'
_cell_volume   4549.90130860
_cell_formula_units_Z   4
loop_
 _symmetry_equiv_pos_site_id
 _symmetry_equiv_pos_as_xyz
  1  'x, y, z'
loop_
 _atom_site_type_symbol
 _atom_site_label
 _atom_site_symmetry_multiplicity
 _atom_site_fract_x
 _atom_site_fract_y
 _atom_site_fract_z
 _atom_site_occupancy
  Cu  Cu0  1  0.94770000  0.68966000  0.85168000  1.0
  Cu  Cu1  1  0.44770000  0.81034000  0.85168000  1.0
  Cu  Cu2  1  0.05230000  0.31034000  0.14832000  1.0
  Cu  Cu3  1  0.55230000  0.18966000  0.14833000  1.0
  Cu  Cu4  1  0.45271000  0.67194000  0.67133000  1.0
  Cu  Cu5  1  0.95271000  0.82806000  0.67133000  1.0
  Cu  Cu6  1  0.54729000  0.32806000  0.32867000  1.0
  Cu  Cu7  1  0.04729000  0.17194000  0.32867000  1.0
  Cu  Cu8  1  0.49549000  0.76073000  0.25249000  1.0
  Cu  Cu9  1  0.99549000  0.73927000  0.25249000  1.0
  Cu  Cu10  1  0.50451000  0.23927000  0.74751000  1.0
  Cu  Cu11  1  0.00451000  0.26073000  0.74751000  1.0
  Mo  Mo12  1  0.88140000  0.67251000  0.64685000  1.0
  Mo  Mo13  1  0.38140000  0.82749000  0.64685000  1.0
  Mo  Mo14  1  0.11860000  0.32749000  0.35315000  1.0
  Mo  Mo15  1  0.61860000  0.17251000  0.35315000  1.0
  Mo  Mo16  1  0.54181000  0.66260000  0.84129000  1.0
  Mo  Mo17  1  0.04181000  0.83740000  0.84129000  1.0
  Mo  Mo18  1  0.45819000  0.33740000  0.15871000  1.0
  Mo  Mo19  1  0.95819000  0.16260000  0.15871000  1.0
  Mo  Mo20  1  0.68890000  0.75117000  0.74012000  1.0
  Mo  Mo21  1  0.18890000  0.74883000  0.74012000  1.0
  Mo  Mo22  1  0.31110000  0.24883000  0.25988000  1.0
  Mo  Mo23  1  0.81110000  0.25117000  0.25988000  1.0
  H  H24  1  0.89031000  0.65574000  0.97820000  1.0
  H  H25  1  0.39031000  0.84426000  0.97821000  1.0
  H  H26  1  0.10969000  0.34426000  0.02180000  1.0
  H  H27  1  0.60969000  0.15574000  0.02180000  1.0
  H  H28  1  0.23970000  0.70601000  0.90085000  1.0
  H  H29  1  0.73970000  0.79399000  0.90085000  1.0
  H  H30  1  0.76030000  0.29399000  0.09915000  1.0
  H  H31  1  0.26030000  0.20601000  0.09915000  1.0
  H  H32  1  0.01890000  0.67501000  0.08630000  1.0
  H  H33  1  0.51890000  0.82499000  0.08630000  1.0
  H  H34  1  0.98110000  0.32499000  0.91370000  1.0
  H  H35  1  0.48110000  0.17501000  0.91370000  1.0
  H  H36  1  0.38000000  0.72554000  0.00370000  1.0
  H  H37  1  0.88000000  0.77446000  0.00370000  1.0
  H  H38  1  0.62000000  0.27446000  0.99630000  1.0
  H  H39  1  0.12000000  0.22554000  0.99630000  1.0
  H  H40  1  0.72836000  0.07816000  0.17700000  1.0
  H  H41  1  0.22836000  0.42184000  0.17700000  1.0
  H  H42  1  0.27164000  0.92184000  0.82300000  1.0
  H  H43  1  0.77164000  0.57816000  0.82300000  1.0
  H  H44  1  0.30264000  0.11490000  0.16027000  1.0
  H  H45  1  0.80264000  0.38510000  0.16027000  1.0
  H  H46  1  0.69736000  0.88510000  0.83973000  1.0
  H  H47  1  0.19736000  0.61490000  0.83973000  1.0
  H  H48  1  0.24677000  0.00855000  0.18382000  1.0
  H  H49  1  0.74677000  0.49145000  0.18382000  1.0
  H  H50  1  0.75323000  0.99145000  0.81618000  1.0
  H  H51  1  0.25323000  0.50855000  0.81618000  1.0
  H  H52  1  0.69077000  0.96844000  0.20261000  1.0
  H  H53  1  0.19077000  0.53156000  0.20261000  1.0
  H  H54  1  0.30923000  0.03156000  0.79739000  1.0
  H  H55  1  0.80923000  0.46844000  0.79739000  1.0
  H  H56  1  0.55434000  0.82769000  0.49457000  1.0
  H  H57  1  0.05433000  0.67231000  0.49457000  1.0
  H  H58  1  0.44566000  0.17231000  0.50543000  1.0
  H  H59  1  0.94566000  0.32769000  0.50543000  1.0
  H  H60  1  0.67351000  0.83658000  0.60320000  1.0
  H  H61  1  0.17351000  0.66342000  0.60320000  1.0
  H  H62  1  0.32649000  0.16342000  0.39680000  1.0
  H  H63  1  0.82649000  0.33658000  0.39680000  1.0
  H  H64  1  0.06714000  0.81294000  0.55441000  1.0
  H  H65  1  0.56714000  0.68707000  0.55441000  1.0
  H  H66  1  0.93285000  0.18706000  0.44559000  1.0
  H  H67  1  0.43286000  0.31294000  0.44559000  1.0
  H  H68  1  0.96454000  0.80162000  0.44165000  1.0
  H  H69  1  0.46453000  0.69838000  0.44165000  1.0
  H  H70  1  0.03546000  0.19838000  0.55835000  1.0
  H  H71  1  0.53546000  0.30162000  0.55835000  1.0
  H  H72  1  0.77695000  0.41632000  0.32387000  1.0
  H  H73  1  0.27695000  0.08368000  0.32387000  1.0
  H  H74  1  0.22305000  0.58368000  0.67613000  1.0
  H  H75  1  0.72305000  0.91632000  0.67613000  1.0
  H  H76  1  0.34639000  0.42476000  0.32132000  1.0
  H  H77  1  0.84639000  0.07523000  0.32132000  1.0
  H  H78  1  0.65361000  0.57524000  0.67868000  1.0
  H  H79  1  0.15361000  0.92477000  0.67868000  1.0
  H  H80  1  0.79184000  0.52928000  0.30539000  1.0
  H  H81  1  0.29185000  0.97072000  0.30539000  1.0
  H  H82  1  0.20815000  0.47072000  0.69461000  1.0
  H  H83  1  0.70816000  0.02928000  0.69461000  1.0
  H  H84  1  0.34320000  0.53816000  0.30120000  1.0
  H  H85  1  0.84320000  0.96184000  0.30120000  1.0
  H  H86  1  0.65680000  0.46184000  0.69880000  1.0
  H  H87  1  0.15680000  0.03816000  0.69880000  1.0
  H  H88  1  0.16342000  0.82661000  0.04834000  1.0
  H  H89  1  0.66342000  0.67339000  0.04834000  1.0
  H  H90  1  0.83658000  0.17339000  0.95166000  1.0
  H  H91  1  0.33659000  0.32661000  0.95166000  1.0
  H  H92  1  0.26218000  0.93278000  0.10092000  1.0
  H  H93  1  0.76218000  0.56722000  0.10092000  1.0
  H  H94  1  0.73782000  0.06722000  0.89908000  1.0
  H  H95  1  0.23782000  0.43278000  0.89908000  1.0
  H  H96  1  0.56776000  0.99240000  0.31652000  1.0
  H  H97  1  0.06776000  0.50760000  0.31652000  1.0
  H  H98  1  0.43224000  0.00760000  0.68348000  1.0
  H  H99  1  0.93224000  0.49240000  0.68348000  1.0
  H  H100  1  0.68388000  0.92826000  0.41690000  1.0
  H  H101  1  0.18388000  0.57174000  0.41690000  1.0
  H  H102  1  0.31612000  0.07174000  0.58310000  1.0
  H  H103  1  0.81612000  0.42826000  0.58310000  1.0
  H  H104  1  0.79320000  0.69287000  0.46533000  1.0
  H  H105  1  0.29320000  0.80713000  0.46533000  1.0
  H  H106  1  0.20680000  0.30713000  0.53467000  1.0
  H  H107  1  0.70680000  0.19287000  0.53467000  1.0
  H  H108  1  0.72699000  0.58841000  0.40373000  1.0
  H  H109  1  0.22699000  0.91159000  0.40373000  1.0
  H  H110  1  0.27301000  0.41159000  0.59627000  1.0
  H  H111  1  0.77301000  0.08840000  0.59627000  1.0
  H  H112  1  0.45604000  0.53070000  0.18077000  1.0
  H  H113  1  0.95603000  0.96930000  0.18077000  1.0
  H  H114  1  0.54396000  0.46930000  0.81923000  1.0
  H  H115  1  0.04397000  0.03070000  0.81923000  1.0
  H  H116  1  0.30367000  0.59381000  0.08786000  1.0
  H  H117  1  0.80367000  0.90619000  0.08786000  1.0
  H  H118  1  0.69633000  0.40619000  0.91214000  1.0
  H  H119  1  0.19633000  0.09381000  0.91214000  1.0
  C  C120  1  0.99938000  0.67095000  0.98688000  1.0
  C  C121  1  0.49938000  0.82905000  0.98688000  1.0
  C  C122  1  0.00062000  0.32905000  0.01312000  1.0
  C  C123  1  0.50063000  0.17095000  0.01312000  1.0
  C  C124  1  0.19415000  0.69901000  0.94283000  1.0
  C  C125  1  0.69415000  0.80099000  0.94283000  1.0
  C  C126  1  0.80585000  0.30099000  0.05717000  1.0
  C  C127  1  0.30585000  0.19901000  0.05717000  1.0
  C  C128  1  0.07102000  0.68217000  0.04628000  1.0
  C  C129  1  0.57103000  0.81783000  0.04628000  1.0
  C  C130  1  0.92897000  0.31783000  0.95372000  1.0
  C  C131  1  0.42897000  0.18217000  0.95372000  1.0
  C  C132  1  0.27173000  0.71050000  0.00066000  1.0
  C  C133  1  0.77173000  0.78950000  0.00066000  1.0
  C  C134  1  0.72827000  0.28950000  0.99934000  1.0
  C  C135  1  0.22827000  0.21050000  0.99934000  1.0
  C  C136  1  0.20868000  0.70449000  0.05356000  1.0
  C  C137  1  0.70868000  0.79551000  0.05356000  1.0
  C  C138  1  0.79132000  0.29551000  0.94644000  1.0
  C  C139  1  0.29132000  0.20449000  0.94644000  1.0
  C  C140  1  0.62402000  0.06046000  0.17954000  1.0
  C  C141  1  0.12402000  0.43954000  0.17954000  1.0
  C  C142  1  0.37598000  0.93954000  0.82046000  1.0
  C  C143  1  0.87598000  0.56046000  0.82046000  1.0
  C  C144  1  0.38623000  0.08103000  0.16898000  1.0
  C  C145  1  0.88623000  0.41897000  0.16898000  1.0
  C  C146  1  0.61377000  0.91897000  0.83102000  1.0
  C  C147  1  0.11377000  0.58103000  0.83102000  1.0
  C  C148  1  0.35578000  0.02062000  0.18262000  1.0
  C  C149  1  0.85578000  0.47938000  0.18262000  1.0
  C  C150  1  0.64422000  0.97938000  0.81738000  1.0
  C  C151  1  0.14422000  0.52062000  0.81738000  1.0
  C  C152  1  0.60188000  0.99968000  0.19381000  1.0
  C  C153  1  0.10188000  0.50032000  0.19382000  1.0
  C  C154  1  0.39812000  0.00032000  0.80619000  1.0
  C  C155  1  0.89811000  0.49968000  0.80618000  1.0
  C  C156  1  0.46560000  0.97845000  0.19641000  1.0
  C  C157  1  0.96560000  0.52155000  0.19641000  1.0
  C  C158  1  0.53440000  0.02155000  0.80359000  1.0
  C  C159  1  0.03439000  0.47845000  0.80359000  1.0
  C  C160  1  0.66839000  0.82498000  0.50457000  1.0
  C  C161  1  0.16839000  0.67502000  0.50457000  1.0
  C  C162  1  0.33161000  0.17502000  0.49543000  1.0
  C  C163  1  0.83161000  0.32498000  0.49543000  1.0
  C  C164  1  0.73357000  0.83045000  0.56555000  1.0
  C  C165  1  0.23357000  0.66955000  0.56555000  1.0
  C  C166  1  0.26643000  0.16955000  0.43445000  1.0
  C  C167  1  0.76643000  0.33045000  0.43445000  1.0
  C  C168  1  0.75058000  0.81315000  0.45868000  1.0
  C  C169  1  0.25058000  0.68685000  0.45868000  1.0
  C  C170  1  0.24942000  0.18685000  0.54132000  1.0
  C  C171  1  0.74942000  0.31315000  0.54132000  1.0
  C  C172  1  0.95459000  0.81642000  0.53800000  1.0
  C  C173  1  0.45459000  0.68358000  0.53800000  1.0
  C  C174  1  0.04541000  0.18358000  0.46200000  1.0
  C  C175  1  0.54541000  0.31642000  0.46200000  1.0
  C  C176  1  0.89646000  0.81013000  0.47597000  1.0
  C  C177  1  0.39645000  0.68987000  0.47597000  1.0
  C  C178  1  0.10354000  0.18987000  0.52403000  1.0
  C  C179  1  0.60354000  0.31013000  0.52403000  1.0
  C  C180  1  0.68435000  0.44558000  0.32025000  1.0
  C  C181  1  0.18436000  0.05442000  0.32025000  1.0
  C  C182  1  0.31565000  0.55442000  0.67975000  1.0
  C  C183  1  0.81564000  0.94558000  0.67975000  1.0
  C  C184  1  0.44206000  0.45028000  0.31779000  1.0
  C  C185  1  0.94206000  0.04971000  0.31779000  1.0
  C  C186  1  0.55794000  0.54972000  0.68221000  1.0
  C  C187  1  0.05794000  0.95028000  0.68221000  1.0
  C  C188  1  0.56750000  0.54247000  0.30036000  1.0
  C  C189  1  0.06751000  0.95753000  0.30036000  1.0
  C  C190  1  0.43250000  0.45753000  0.69964000  1.0
  C  C191  1  0.93250000  0.04247000  0.69964000  1.0
  C  C192  1  0.69129000  0.50817000  0.30913000  1.0
  C  C193  1  0.19129000  0.99183000  0.30912000  1.0
  C  C194  1  0.30871000  0.49183000  0.69087000  1.0
  C  C195  1  0.80871000  0.00817000  0.69088000  1.0
  C  C196  1  0.44135000  0.51268000  0.30595000  1.0
  C  C197  1  0.94136000  0.98732000  0.30595000  1.0
  C  C198  1  0.55864000  0.48732000  0.69405000  1.0
  C  C199  1  0.05864000  0.01268000  0.69405000  1.0
  C  C200  1  0.28902000  0.72181000  0.11500000  1.0
  C  C201  1  0.78902000  0.77819000  0.11500000  1.0
  C  C202  1  0.71098000  0.27819000  0.88500000  1.0
  C  C203  1  0.21098000  0.22182000  0.88500000  1.0
  C  C204  1  0.29868000  0.78400000  0.13081000  1.0
  C  C205  1  0.79868000  0.71600000  0.13081000  1.0
  C  C206  1  0.70131000  0.21600000  0.86919000  1.0
  C  C207  1  0.20132000  0.28400000  0.86919000  1.0
  C  C208  1  0.23485000  0.83279000  0.09151000  1.0
  C  C209  1  0.73485000  0.66721000  0.09152000  1.0
  C  C210  1  0.76515000  0.16721000  0.90848000  1.0
  C  C211  1  0.26515000  0.33279000  0.90849000  1.0
  C  C212  1  0.28542000  0.88666000  0.11807000  1.0
  C  C213  1  0.78541000  0.61334000  0.11807000  1.0
  C  C214  1  0.71458000  0.11334000  0.88193000  1.0
  C  C215  1  0.21459000  0.38666000  0.88193000  1.0
  C  C216  1  0.37638000  0.87120000  0.17494000  1.0
  C  C217  1  0.87638000  0.62880000  0.17494000  1.0
  C  C218  1  0.62362000  0.12880000  0.82506000  1.0
  C  C219  1  0.12362000  0.37120000  0.82506000  1.0
  C  C220  1  0.45096000  0.91366000  0.21565000  1.0
  C  C221  1  0.95097000  0.58634000  0.21565000  1.0
  C  C222  1  0.54903000  0.08634000  0.78435000  1.0
  C  C223  1  0.04903000  0.41366000  0.78435000  1.0
  C  C224  1  0.52428000  0.89802000  0.27422000  1.0
  C  C225  1  0.02428000  0.60198000  0.27422000  1.0
  C  C226  1  0.47572000  0.10198000  0.72578000  1.0
  C  C227  1  0.97572000  0.39802000  0.72578000  1.0
  C  C228  1  0.57686000  0.94277000  0.32121000  1.0
  C  C229  1  0.07686000  0.55723000  0.32121000  1.0
  C  C230  1  0.42314000  0.05723000  0.67879000  1.0
  C  C231  1  0.92314000  0.44277000  0.67879000  1.0
  C  C232  1  0.63492000  0.91039000  0.37235000  1.0
  C  C233  1  0.13492000  0.58961000  0.37235000  1.0
  C  C234  1  0.36508000  0.08961000  0.62765000  1.0
  C  C235  1  0.86508000  0.41039000  0.62765000  1.0
  C  C236  1  0.62153000  0.84628000  0.35642000  1.0
  C  C237  1  0.12153000  0.65372000  0.35642000  1.0
  C  C238  1  0.37846000  0.15372000  0.64358000  1.0
  C  C239  1  0.87847000  0.34628000  0.64358000  1.0
  C  C240  1  0.68159000  0.79892000  0.39461000  1.0
  C  C241  1  0.18159000  0.70108000  0.39461000  1.0
  C  C242  1  0.31840000  0.20108000  0.60539000  1.0
  C  C243  1  0.81841000  0.29892000  0.60539000  1.0
  C  C244  1  0.67739000  0.73706000  0.37788000  1.0
  C  C245  1  0.17739000  0.76294000  0.37787000  1.0
  C  C246  1  0.32261000  0.26294000  0.62213000  1.0
  C  C247  1  0.82261000  0.23706000  0.62213000  1.0
  C  C248  1  0.73673000  0.68808000  0.41842000  1.0
  C  C249  1  0.23673000  0.81192000  0.41841000  1.0
  C  C250  1  0.26327000  0.31193000  0.58158000  1.0
  C  C251  1  0.76327000  0.18807000  0.58159000  1.0
  C  C252  1  0.70204000  0.63466000  0.38737000  1.0
  C  C253  1  0.20204000  0.86534000  0.38737000  1.0
  C  C254  1  0.29796000  0.36534000  0.61263000  1.0
  C  C255  1  0.79796000  0.13466000  0.61263000  1.0
  C  C256  1  0.62256000  0.65076000  0.32797000  1.0
  C  C257  1  0.12256000  0.84924000  0.32797000  1.0
  C  C258  1  0.37744000  0.34924000  0.67203000  1.0
  C  C259  1  0.87743000  0.15076000  0.67203000  1.0
  C  C260  1  0.56189000  0.60835000  0.28402000  1.0
  C  C261  1  0.06189000  0.89165000  0.28401000  1.0
  C  C262  1  0.43811000  0.39165000  0.71599000  1.0
  C  C263  1  0.93811000  0.10835000  0.71599000  1.0
  C  C264  1  0.48293000  0.62373000  0.22685000  1.0
  C  C265  1  0.98293000  0.87627000  0.22685000  1.0
  C  C266  1  0.51707000  0.37627000  0.77315000  1.0
  C  C267  1  0.01707000  0.12373000  0.77315000  1.0
  C  C268  1  0.43282000  0.57951000  0.17916000  1.0
  C  C269  1  0.93282000  0.92049000  0.17916000  1.0
  C  C270  1  0.56718000  0.42048000  0.82084000  1.0
  C  C271  1  0.06718000  0.07951000  0.82084000  1.0
  C  C272  1  0.35650000  0.61150000  0.13181000  1.0
  C  C273  1  0.85650000  0.88850000  0.13180000  1.0
  C  C274  1  0.64350000  0.38850000  0.86819000  1.0
  C  C275  1  0.14350000  0.11150000  0.86820000  1.0
  C  C276  1  0.35973000  0.67501000  0.15050000  1.0
  C  C277  1  0.85973000  0.82499000  0.15050000  1.0
  C  C278  1  0.64027000  0.32499000  0.84950000  1.0
  C  C279  1  0.14027000  0.17501000  0.84950000  1.0
  N  N280  1  0.05938000  0.68106000  0.93631000  1.0
  N  N281  1  0.55938000  0.81894000  0.93631000  1.0
  N  N282  1  0.94062000  0.31894000  0.06369000  1.0
  N  N283  1  0.44062000  0.18106000  0.06369000  1.0
  N  N284  1  0.51785000  0.10068000  0.16762000  1.0
  N  N285  1  0.01785000  0.39933000  0.16761000  1.0
  N  N286  1  0.48215000  0.89933000  0.83239000  1.0
  N  N287  1  0.98215000  0.60067000  0.83238000  1.0
  N  N288  1  0.87343000  0.82552000  0.58180000  1.0
  N  N289  1  0.37343000  0.67448000  0.58180000  1.0
  N  N290  1  0.12657000  0.17448000  0.41820000  1.0
  N  N291  1  0.62657000  0.32552000  0.41820000  1.0
  N  N292  1  0.56182000  0.41775000  0.32408000  1.0
  N  N293  1  0.06183000  0.08225000  0.32408000  1.0
  N  N294  1  0.43818000  0.58225000  0.67592000  1.0
  N  N295  1  0.93818000  0.91775000  0.67592000  1.0
  N  N296  1  0.55050000  0.83951000  0.29684000  1.0
  N  N297  1  0.05050000  0.66049000  0.29684000  1.0
  N  N298  1  0.44950000  0.16049000  0.70316000  1.0
  N  N299  1  0.94951000  0.33951000  0.70316000  1.0
  N  N300  1  0.60928000  0.71354000  0.32263000  1.0
  N  N301  1  0.10928000  0.78646000  0.32263000  1.0
  N  N302  1  0.39072000  0.28646000  0.67737000  1.0
  N  N303  1  0.89072000  0.21354000  0.67737000  1.0
  N  N304  1  0.44059000  0.68189000  0.20799000  1.0
  N  N305  1  0.94059000  0.81811000  0.20799000  1.0
  N  N306  1  0.55941000  0.31811000  0.79201000  1.0
  N  N307  1  0.05941000  0.18189000  0.79201000  1.0
  N  N308  1  0.38170000  0.80826000  0.18250000  1.0
  N  N309  1  0.88170000  0.69174000  0.18250000  1.0
  N  N310  1  0.61830000  0.19174000  0.81750000  1.0
  N  N311  1  0.11830000  0.30826000  0.81750000  1.0
  O  O312  1  0.93955000  0.60225000  0.67839000  1.0
  O  O313  1  0.43955000  0.89775000  0.67839000  1.0
  O  O314  1  0.06045000  0.39775000  0.32161000  1.0
  O  O315  1  0.56045000  0.10225000  0.32161000  1.0
  O  O316  1  0.70137000  0.68671000  0.65577000  1.0
  O  O317  1  0.20137000  0.81329000  0.65577000  1.0
  O  O318  1  0.29863000  0.31329000  0.34423000  1.0
  O  O319  1  0.79863000  0.18671000  0.34423000  1.0
  O  O320  1  0.46292000  0.59210000  0.84884000  1.0
  O  O321  1  0.96292000  0.90790000  0.84884000  1.0
  O  O322  1  0.53708000  0.40790000  0.15115000  1.0
  O  O323  1  0.03708000  0.09210000  0.15116000  1.0
  O  O324  1  0.75420000  0.81307000  0.70231000  1.0
  O  O325  1  0.25420000  0.68693000  0.70231000  1.0
  O  O326  1  0.24580000  0.18693000  0.29769000  1.0
  O  O327  1  0.74580000  0.31307000  0.29769000  1.0
  O  O328  1  0.83857000  0.70555000  0.77065000  1.0
  O  O329  1  0.33857000  0.79445000  0.77065000  1.0
  O  O330  1  0.16143000  0.29445000  0.22935000  1.0
  O  O331  1  0.66143000  0.20555000  0.22935000  1.0
  O  O332  1  0.64191000  0.78499000  0.80574000  1.0
  O  O333  1  0.14191000  0.71500000  0.80574000  1.0
  O  O334  1  0.35809000  0.21501000  0.19426000  1.0
  O  O335  1  0.85809000  0.28499000  0.19426000  1.0
  O  O336  1  0.71142000  0.66124000  0.88438000  1.0
  O  O337  1  0.21142000  0.83876000  0.88438000  1.0
  O  O338  1  0.28858000  0.33876000  0.11562000  1.0
  O  O339  1  0.78858000  0.16124000  0.11563000  1.0
  O  O340  1  0.88289000  0.66822000  0.56761000  1.0
  O  O341  1  0.38290000  0.83179000  0.56762000  1.0
  O  O342  1  0.11710000  0.33178000  0.43238000  1.0
  O  O343  1  0.61710000  0.16821000  0.43238000  1.0
  O  O344  1  0.93869000  0.77882000  0.87079000  1.0
  O  O345  1  0.43869000  0.72118000  0.87079000  1.0
  O  O346  1  0.06131000  0.22118000  0.12921000  1.0
  O  O347  1  0.56131000  0.27883000  0.12921000  1.0
  O  O348  1  0.99884000  0.73847000  0.67672000  1.0
  O  O349  1  0.49884000  0.76153000  0.67672000  1.0
  O  O350  1  0.00116000  0.26153000  0.32328000  1.0
  O  O351  1  0.50116000  0.23847000  0.32328000  1.0
  O  O352  1  0.55642000  0.67338000  0.75774000  1.0
  O  O353  1  0.05642000  0.82662000  0.75774000  1.0
  O  O354  1  0.44358000  0.32662000  0.24226000  1.0
  O  O355  1  0.94358000  0.17338000  0.24226000  1.0
