# generated using pymatgen
data_CdH30C28(N2O3)2
_symmetry_space_group_name_H-M   'P 1'
_cell_length_a   9.39366000
_cell_length_b   11.34330000
_cell_length_c   14.23480000
_cell_angle_alpha   100.34600000
_cell_angle_beta   102.40400000
_cell_angle_gamma   106.65300000
_symmetry_Int_Tables_number   1
_chemical_formula_structural   CdH30C28(N2O3)2
_chemical_formula_sum   'Cd2 H60 C56 N8 O12'
_cell_volume   1371.30845170
_cell_formula_units_Z   2
loop_
 _symmetry_equiv_pos_site_id
 _symmetry_equiv_pos_as_xyz
  1  'x, y, z'
loop_
 _atom_site_type_symbol
 _atom_site_label
 _atom_site_symmetry_multiplicity
 _atom_site_fract_x
 _atom_site_fract_y
 _atom_site_fract_z
 _atom_site_occupancy
  Cd  Cd0  1  0.91152000  0.59424000  0.58723000  1.0
  Cd  Cd1  1  0.08848000  0.40576000  0.41277000  1.0
  H  H2  1  0.50004000  0.71994000  0.97574000  1.0
  H  H3  1  0.49998000  0.28006000  0.02425000  1.0
  H  H4  1  0.35056000  0.39239000  0.26114000  1.0
  H  H5  1  0.64945000  0.60761000  0.73887000  1.0
  H  H6  1  0.94482000  0.36478000  0.69062000  1.0
  H  H7  1  0.05520000  0.63522000  0.30938000  1.0
  H  H8  1  0.12346000  0.32560000  0.83014000  1.0
  H  H9  1  0.87656000  0.67441000  0.16987000  1.0
  H  H10  1  0.35878000  0.50785000  0.93844000  1.0
  H  H11  1  0.64123000  0.49217000  0.06157000  1.0
  H  H12  1  0.23212000  0.73879000  0.74688000  1.0
  H  H13  1  0.76788000  0.26122000  0.25311000  1.0
  H  H14  1  0.63842000  0.94995000  0.04698000  1.0
  H  H15  1  0.36159000  0.05008000  0.95302000  1.0
  H  H16  1  0.75297000  0.89514000  0.97896000  1.0
  H  H17  1  0.24702000  0.10485000  0.02105000  1.0
  H  H18  1  0.63323000  0.11609000  0.95250000  1.0
  H  H19  1  0.36678000  0.88392000  0.04750000  1.0
  H  H20  1  0.73208000  0.05590000  0.87649000  1.0
  H  H21  1  0.26793000  0.94410000  0.12350000  1.0
  H  H22  1  0.86551000  0.18228000  0.10080000  1.0
  H  H23  1  0.13450000  0.81772000  0.89920000  1.0
  H  H24  1  0.96353000  0.11331000  0.02672000  1.0
  H  H25  1  0.03648000  0.88670000  0.97327000  1.0
  H  H26  1  0.83231000  0.32189000  0.98063000  1.0
  H  H27  1  0.16770000  0.67812000  0.01936000  1.0
  H  H28  1  0.94841000  0.26085000  0.91839000  1.0
  H  H29  1  0.05161000  0.73916000  0.08161000  1.0
  H  H30  1  0.05027000  0.41322000  0.13744000  1.0
  H  H31  1  0.94972000  0.58677000  0.86257000  1.0
  H  H32  1  0.09299000  0.47458000  0.03744000  1.0
  H  H33  1  0.90703000  0.52543000  0.96257000  1.0
  H  H34  1  0.20878000  0.27556000  0.11702000  1.0
  H  H35  1  0.79122000  0.72443000  0.88297000  1.0
  H  H36  1  0.23989000  0.32328000  0.00770000  1.0
  H  H37  1  0.76011000  0.67673000  0.99230000  1.0
  H  H38  1  0.83754000  0.83028000  0.52965000  1.0
  H  H39  1  0.16247000  0.16970000  0.47036000  1.0
  H  H40  1  0.67970000  0.89310000  0.39653000  1.0
  H  H41  1  0.32031000  0.10690000  0.60349000  1.0
  H  H42  1  0.47324000  0.72141000  0.25505000  1.0
  H  H43  1  0.52678000  0.27860000  0.74496000  1.0
  H  H44  1  0.61207000  0.44598000  0.39042000  1.0
  H  H45  1  0.38793000  0.55401000  0.60958000  1.0
  H  H46  1  0.86578000  0.93826000  0.82833000  1.0
  H  H47  1  0.13419000  0.06173000  0.17167000  1.0
  H  H48  1  0.05503000  0.00434000  0.81441000  1.0
  H  H49  1  0.94495000  0.99567000  0.18558000  1.0
  H  H50  1  0.08021000  0.07666000  0.65776000  1.0
  H  H51  1  0.91978000  0.92332000  0.34223000  1.0
  H  H52  1  0.96931000  0.16962000  0.52675000  1.0
  H  H53  1  0.03068000  0.83037000  0.47324000  1.0
  H  H54  1  0.53734000  0.06880000  0.59844000  1.0
  H  H55  1  0.46265000  0.93120000  0.40155000  1.0
  H  H56  1  0.64150000  0.96749000  0.72395000  1.0
  H  H57  1  0.35848000  0.03251000  0.27604000  1.0
  H  H58  1  0.55754000  0.16363000  0.46286000  1.0
  H  H59  1  0.44246000  0.83638000  0.53714000  1.0
  H  H60  1  0.70813000  0.15544000  0.40581000  1.0
  H  H61  1  0.29185000  0.84455000  0.59418000  1.0
  C  C62  1  0.05171000  0.43948000  0.73653000  1.0
  C  C63  1  0.94831000  0.56052000  0.26347000  1.0
  C  C64  1  0.15075000  0.41909000  0.81505000  1.0
  C  C65  1  0.84927000  0.58092000  0.18494000  1.0
  C  C66  1  0.28252000  0.51894000  0.87373000  1.0
  C  C67  1  0.71749000  0.48108000  0.12628000  1.0
  C  C68  1  0.31567000  0.63694000  0.85022000  1.0
  C  C69  1  0.68432000  0.36307000  0.14978000  1.0
  C  C70  1  0.21204000  0.64978000  0.76868000  1.0
  C  C71  1  0.78796000  0.35022000  0.23131000  1.0
  C  C72  1  0.51835000  0.85150000  0.89269000  1.0
  C  C73  1  0.48163000  0.14853000  0.10731000  1.0
  C  C74  1  0.66312000  0.94054000  0.97415000  1.0
  C  C75  1  0.33688000  0.05946000  0.02585000  1.0
  C  C76  1  0.72160000  0.07012000  0.95271000  1.0
  C  C77  1  0.27841000  0.92988000  0.04730000  1.0
  C  C78  1  0.87563000  0.16050000  0.02437000  1.0
  C  C79  1  0.12438000  0.83950000  0.97563000  1.0
  C  C80  1  0.92846000  0.28369000  0.99210000  1.0
  C  C81  1  0.07155000  0.71632000  0.00790000  1.0
  C  C82  1  0.07162000  0.38830000  0.06469000  1.0
  C  C83  1  0.92838000  0.61170000  0.93532000  1.0
  C  C84  1  0.21986000  0.35358000  0.08025000  1.0
  C  C85  1  0.78014000  0.64642000  0.91975000  1.0
  C  C86  1  0.35791000  0.46942000  0.14204000  1.0
  C  C87  1  0.64209000  0.53060000  0.85796000  1.0
  C  C88  1  0.74964000  0.75848000  0.46657000  1.0
  C  C89  1  0.25036000  0.24151000  0.53343000  1.0
  C  C90  1  0.66060000  0.79260000  0.39174000  1.0
  C  C91  1  0.33942000  0.20741000  0.60826000  1.0
  C  C92  1  0.54743000  0.69821000  0.31343000  1.0
  C  C93  1  0.45258000  0.30180000  0.68657000  1.0
  C  C94  1  0.52684000  0.57072000  0.31263000  1.0
  C  C95  1  0.47317000  0.42928000  0.68737000  1.0
  C  C96  1  0.62367000  0.54417000  0.38939000  1.0
  C  C97  1  0.37633000  0.45582000  0.61061000  1.0
  C  C98  1  0.92254000  0.81909000  0.71627000  1.0
  C  C99  1  0.07745000  0.18089000  0.28373000  1.0
  C  C100  1  0.93287000  0.95027000  0.77442000  1.0
  C  C101  1  0.06710000  0.04972000  0.22558000  1.0
  C  C102  1  0.87002000  0.01745000  0.70167000  1.0
  C  C103  1  0.12996000  0.98254000  0.29832000  1.0
  C  C104  1  0.96095000  0.07529000  0.64521000  1.0
  C  C105  1  0.03902000  0.92470000  0.35479000  1.0
  C  C106  1  0.89896000  0.12699000  0.57149000  1.0
  C  C107  1  0.10103000  0.87300000  0.42850000  1.0
  C  C108  1  0.74587000  0.12602000  0.55360000  1.0
  C  C109  1  0.25412000  0.87398000  0.44639000  1.0
  C  C110  1  0.65650000  0.07050000  0.61127000  1.0
  C  C111  1  0.34349000  0.92950000  0.38872000  1.0
  C  C112  1  0.71644000  0.01484000  0.68315000  1.0
  C  C113  1  0.28354000  0.98515000  0.31684000  1.0
  C  C114  1  0.68295000  0.18735000  0.47606000  1.0
  C  C115  1  0.31704000  0.81265000  0.52393000  1.0
  C  C116  1  0.75850000  0.33128000  0.51331000  1.0
  C  C117  1  0.24152000  0.66872000  0.48669000  1.0
  N  N118  1  0.08230000  0.55301000  0.71510000  1.0
  N  N119  1  0.91771000  0.44700000  0.28490000  1.0
  N  N120  1  0.44889000  0.73684000  0.91129000  1.0
  N  N121  1  0.55111000  0.26316000  0.08871000  1.0
  N  N122  1  0.41007000  0.46918000  0.23918000  1.0
  N  N123  1  0.58994000  0.53082000  0.76082000  1.0
  N  N124  1  0.73294000  0.63617000  0.46455000  1.0
  N  N125  1  0.26707000  0.36382000  0.53545000  1.0
  O  O126  1  0.46748000  0.87997000  0.81567000  1.0
  O  O127  1  0.53248000  0.12007000  0.18436000  1.0
  O  O128  1  0.41573000  0.55762000  0.10611000  1.0
  O  O129  1  0.58425000  0.44237000  0.89390000  1.0
  O  O130  1  0.81126000  0.72123000  0.71227000  1.0
  O  O131  1  0.18874000  0.27875000  0.28773000  1.0
  O  O132  1  0.02391000  0.81540000  0.66987000  1.0
  O  O133  1  0.97609000  0.18459000  0.33014000  1.0
  O  O134  1  0.70752000  0.39307000  0.57322000  1.0
  O  O135  1  0.29250000  0.60694000  0.42678000  1.0
  O  O136  1  0.87565000  0.38669000  0.48526000  1.0
  O  O137  1  0.12436000  0.61329000  0.51474000  1.0
