# generated using pymatgen
data_CdH10C16(SN3)2
_symmetry_space_group_name_H-M   'P 1'
_cell_length_a   5.82746000
_cell_length_b   7.60896000
_cell_length_c   9.18593000
_cell_angle_alpha   89.36730000
_cell_angle_beta   74.28740000
_cell_angle_gamma   88.29410000
_symmetry_Int_Tables_number   1
_chemical_formula_structural   CdH10C16(SN3)2
_chemical_formula_sum   'Cd1 H10 C16 S2 N6'
_cell_volume   391.91647439
_cell_formula_units_Z   1
loop_
 _symmetry_equiv_pos_site_id
 _symmetry_equiv_pos_as_xyz
  1  'x, y, z'
loop_
 _atom_site_type_symbol
 _atom_site_label
 _atom_site_symmetry_multiplicity
 _atom_site_fract_x
 _atom_site_fract_y
 _atom_site_fract_z
 _atom_site_occupancy
  Cd  Cd0  1  0.00001000  0.00001000  0.00000000  1.0
  H  H1  1  0.31426000  0.77401000  0.19218000  1.0
  H  H2  1  0.68574000  0.22599000  0.80782000  1.0
  H  H3  1  0.88468000  0.71805000  0.65468000  1.0
  H  H4  1  0.11532000  0.28194000  0.34531000  1.0
  H  H5  1  0.58250000  0.90747000  0.57700000  1.0
  H  H6  1  0.41750000  0.09252000  0.42299000  1.0
  H  H7  1  0.51606000  0.55691000  0.23074000  1.0
  H  H8  1  0.48394000  0.44309000  0.76926000  1.0
  H  H9  1  0.18279000  0.63426000  0.70883000  1.0
  H  H10  1  0.81721000  0.36573000  0.29117000  1.0
  C  C11  1  0.15402000  0.79360000  0.28494000  1.0
  C  C12  1  0.84597000  0.20641000  0.71506000  1.0
  C  C13  1  0.13390000  0.72240000  0.43003000  1.0
  C  C14  1  0.86610000  0.27760000  0.56996000  1.0
  C  C15  1  0.92105000  0.76491000  0.53831000  1.0
  C  C16  1  0.07895000  0.23509000  0.46169000  1.0
  C  C17  1  0.75073000  0.86992000  0.49532000  1.0
  C  C18  1  0.24927000  0.13007000  0.50468000  1.0
  C  C19  1  0.50713000  0.53396000  0.34943000  1.0
  C  C20  1  0.49286000  0.46603000  0.65057000  1.0
  C  C21  1  0.32261000  0.61062000  0.46480000  1.0
  C  C22  1  0.67739000  0.38937000  0.53520000  1.0
  C  C23  1  0.31933000  0.57460000  0.61596000  1.0
  C  C24  1  0.68066000  0.42540000  0.38404000  1.0
  C  C25  1  0.53558000  0.78504000  0.92825000  1.0
  C  C26  1  0.46443000  0.21498000  0.07175000  1.0
  S  S27  1  0.77816000  0.68989000  0.95156000  1.0
  S  S28  1  0.22185000  0.31011000  0.04845000  1.0
  N  N29  1  0.77782000  0.93067000  0.35441000  1.0
  N  N30  1  0.22218000  0.06932000  0.64559000  1.0
  N  N31  1  0.98146000  0.89137000  0.25061000  1.0
  N  N32  1  0.01854000  0.10863000  0.74939000  1.0
  N  N33  1  0.35908000  0.85266000  0.91128000  1.0
  N  N34  1  0.64093000  0.14736000  0.08873000  1.0
