# generated using pymatgen
data_Cu3H18(C7N10)2
_symmetry_space_group_name_H-M   'P 1'
_cell_length_a   7.86735000
_cell_length_b   8.09341000
_cell_length_c   10.66040000
_cell_angle_alpha   68.30520000
_cell_angle_beta   68.35500000
_cell_angle_gamma   79.91650000
_symmetry_Int_Tables_number   1
_chemical_formula_structural   Cu3H18(C7N10)2
_chemical_formula_sum   'Cu3 H18 C14 N20'
_cell_volume   585.64315394
_cell_formula_units_Z   1
loop_
 _symmetry_equiv_pos_site_id
 _symmetry_equiv_pos_as_xyz
  1  'x, y, z'
loop_
 _atom_site_type_symbol
 _atom_site_label
 _atom_site_symmetry_multiplicity
 _atom_site_fract_x
 _atom_site_fract_y
 _atom_site_fract_z
 _atom_site_occupancy
  Cu  Cu0  1  0.49497000  0.00210000  0.50350000  1.0
  Cu  Cu1  1  0.63022000  0.66329000  0.39296000  1.0
  Cu  Cu2  1  0.38225000  0.34129000  0.61053000  1.0
  H  H3  1  0.25727000  0.84854000  0.04473000  1.0
  H  H4  1  0.74512000  0.15058000  0.95192000  1.0
  H  H5  1  0.20565000  0.81836000  0.83454000  1.0
  H  H6  1  0.79481000  0.18149000  0.16274000  1.0
  H  H7  1  0.91157000  0.70130000  0.87220000  1.0
  H  H8  1  0.08879000  0.29894000  0.12575000  1.0
  H  H9  1  0.15359000  0.81353000  0.29041000  1.0
  H  H10  1  0.84874000  0.18733000  0.70657000  1.0
  H  H11  1  0.98754000  0.65193000  0.40698000  1.0
  H  H12  1  0.01660000  0.34830000  0.58982000  1.0
  H  H13  1  0.91903000  0.88126000  0.35017000  1.0
  H  H14  1  0.08303000  0.11875000  0.64760000  1.0
  H  H15  1  0.61973000  0.58592000  0.02897000  1.0
  H  H16  1  0.37877000  0.41458000  0.97093000  1.0
  H  H17  1  0.61573000  0.46490000  0.20823000  1.0
  H  H18  1  0.38557000  0.53535000  0.79105000  1.0
  H  H19  1  0.50848000  0.67968000  0.16730000  1.0
  H  H20  1  0.49237000  0.32000000  0.83351000  1.0
  C  C21  1  0.99185000  0.75716000  0.18912000  1.0
  C  C22  1  0.01004000  0.24349000  0.80788000  1.0
  C  C23  1  0.13004000  0.80005000  0.05599000  1.0
  C  C24  1  0.87171000  0.19980000  0.94111000  1.0
  C  C25  1  0.10165000  0.78220000  0.94045000  1.0
  C  C26  1  0.89918000  0.21760000  0.05698000  1.0
  C  C27  1  0.93744000  0.71785000  0.96031000  1.0
  C  C28  1  0.06298000  0.28217000  0.03771000  1.0
  C  C29  1  0.80359000  0.67413000  0.09562000  1.0
  C  C30  1  0.19703000  0.32635000  0.90260000  1.0
  C  C31  1  0.01418000  0.77711000  0.31604000  1.0
  C  C32  1  0.98823000  0.22349000  0.68095000  1.0
  C  C33  1  0.62742000  0.59740000  0.12584000  1.0
  C  C34  1  0.37294000  0.40284000  0.87355000  1.0
  N  N35  1  0.59978000  0.75515000  0.57584000  1.0
  N  N36  1  0.39566000  0.24243000  0.42460000  1.0
  N  N37  1  0.68903000  0.69229000  0.65585000  1.0
  N  N38  1  0.31205000  0.30209000  0.34108000  1.0
  N  N39  1  0.77421000  0.62282000  0.73172000  1.0
  N  N40  1  0.23160000  0.37047000  0.26127000  1.0
  N  N41  1  0.53788000  0.92126000  0.34062000  1.0
  N  N42  1  0.45979000  0.07804000  0.66831000  1.0
  N  N43  1  0.47698000  0.99488000  0.24166000  1.0
  N  N44  1  0.52244000  0.00639000  0.76553000  1.0
  N  N45  1  0.42244000  0.05951000  0.14641000  1.0
  N  N46  1  0.57847000  0.94196000  0.86030000  1.0
  N  N47  1  0.65691000  0.40763000  0.50148000  1.0
  N  N48  1  0.32302000  0.58936000  0.50437000  1.0
  N  N49  1  0.75406000  0.30155000  0.44607000  1.0
  N  N50  1  0.23592000  0.69827000  0.55961000  1.0
  N  N51  1  0.84085000  0.19298000  0.39940000  1.0
  N  N52  1  0.15971000  0.81273000  0.60362000  1.0
  N  N53  1  0.83168000  0.69684000  0.20624000  1.0
  N  N54  1  0.16941000  0.30430000  0.79147000  1.0
