# generated using pymatgen
data_HgH6C7S(NCl)2
_symmetry_space_group_name_H-M   'P 1'
_cell_length_a   7.28952000
_cell_length_b   7.71306000
_cell_length_c   9.75926000
_cell_angle_alpha   111.65450000
_cell_angle_beta   91.01100000
_cell_angle_gamma   93.32000000
_symmetry_Int_Tables_number   1
_chemical_formula_structural   HgH6C7S(NCl)2
_chemical_formula_sum   'Hg2 H12 C14 S2 N4 Cl4'
_cell_volume   508.67868494
_cell_formula_units_Z   2
loop_
 _symmetry_equiv_pos_site_id
 _symmetry_equiv_pos_as_xyz
  1  'x, y, z'
loop_
 _atom_site_type_symbol
 _atom_site_label
 _atom_site_symmetry_multiplicity
 _atom_site_fract_x
 _atom_site_fract_y
 _atom_site_fract_z
 _atom_site_occupancy
  Hg  Hg0  1  0.75383000  0.55499000  0.56741000  1.0
  Hg  Hg1  1  0.24619000  0.44499000  0.43259000  1.0
  H  H2  1  0.84671000  0.90367000  0.52674000  1.0
  H  H3  1  0.15329000  0.09632000  0.47325000  1.0
  H  H4  1  0.88157000  0.14467000  0.62160000  1.0
  H  H5  1  0.11843000  0.85532000  0.37839000  1.0
  H  H6  1  0.72707000  0.20596000  0.23169000  1.0
  H  H7  1  0.27293000  0.79405000  0.76830000  1.0
  H  H8  1  0.63814000  0.94086000  0.30921000  1.0
  H  H9  1  0.36187000  0.05916000  0.69080000  1.0
  H  H10  1  0.62306000  0.61436000  0.12962000  1.0
  H  H11  1  0.37694000  0.38566000  0.87038000  1.0
  H  H12  1  0.68539000  0.54556000  0.86450000  1.0
  H  H13  1  0.31459000  0.45445000  0.13551000  1.0
  C  C14  1  0.74272000  0.83773000  0.90027000  1.0
  C  C15  1  0.25727000  0.16226000  0.09974000  1.0
  C  C16  1  0.75633000  0.02320000  0.00432000  1.0
  C  C17  1  0.24367000  0.97679000  0.99566000  1.0
  C  C18  1  0.71912000  0.06265000  0.15206000  1.0
  C  C19  1  0.28088000  0.93735000  0.84795000  1.0
  C  C20  1  0.67025000  0.91292000  0.19479000  1.0
  C  C21  1  0.32975000  0.08711000  0.80521000  1.0
  C  C22  1  0.65934000  0.72839000  0.09254000  1.0
  C  C23  1  0.34066000  0.27163000  0.90749000  1.0
  C  C24  1  0.69423000  0.68899000  0.94460000  1.0
  C  C25  1  0.30576000  0.31102000  0.05539000  1.0
  C  C26  1  0.82353000  0.99085000  0.74959000  1.0
  C  C27  1  0.17647000  0.00915000  0.25041000  1.0
  S  S28  1  0.82202000  0.17823000  0.91826000  1.0
  S  S29  1  0.17798000  0.82177000  0.08173000  1.0
  N  N30  1  0.78148000  0.82522000  0.75817000  1.0
  N  N31  1  0.21851000  0.17478000  0.24183000  1.0
  N  N32  1  0.86611000  0.01411000  0.62447000  1.0
  N  N33  1  0.13389000  0.98587000  0.37552000  1.0
  Cl  Cl34  1  0.55684000  0.27637000  0.53802000  1.0
  Cl  Cl35  1  0.44316000  0.72363000  0.46199000  1.0
  Cl  Cl36  1  0.92185000  0.57397000  0.34339000  1.0
  Cl  Cl37  1  0.07816000  0.42602000  0.65660000  1.0
