# generated using pymatgen
data_HgH39C23N3(ClO)2
_symmetry_space_group_name_H-M   'P 1'
_cell_length_a   9.35871000
_cell_length_b   10.78630000
_cell_length_c   13.47700000
_cell_angle_alpha   81.09050000
_cell_angle_beta   88.73750000
_cell_angle_gamma   88.42800000
_symmetry_Int_Tables_number   1
_chemical_formula_structural   HgH39C23N3(ClO)2
_chemical_formula_sum   'Hg2 H78 C46 N6 Cl4 O4'
_cell_volume   1343.30867700
_cell_formula_units_Z   2
loop_
 _symmetry_equiv_pos_site_id
 _symmetry_equiv_pos_as_xyz
  1  'x, y, z'
loop_
 _atom_site_type_symbol
 _atom_site_label
 _atom_site_symmetry_multiplicity
 _atom_site_fract_x
 _atom_site_fract_y
 _atom_site_fract_z
 _atom_site_occupancy
  Hg  Hg0  1  0.21553000  0.73962000  0.39564000  1.0
  Hg  Hg1  1  0.78447000  0.26038000  0.60436000  1.0
  H  H2  1  0.34689000  0.59123000  0.60883000  1.0
  H  H3  1  0.65311000  0.40877000  0.39117000  1.0
  H  H4  1  0.30131000  0.19127000  0.62339000  1.0
  H  H5  1  0.69868000  0.80873000  0.37661000  1.0
  H  H6  1  0.09018000  0.46400000  0.40213000  1.0
  H  H7  1  0.90982000  0.53600000  0.59787000  1.0
  H  H8  1  0.37914000  0.11522000  0.35708000  1.0
  H  H9  1  0.62086000  0.88478000  0.64292000  1.0
  H  H10  1  0.36065000  0.26733000  0.38985000  1.0
  H  H11  1  0.63935000  0.73267000  0.61015000  1.0
  H  H12  1  0.28160000  0.19400000  0.18811000  1.0
  H  H13  1  0.71840000  0.80601000  0.81189000  1.0
  H  H14  1  0.54427000  0.18921000  0.21964000  1.0
  H  H15  1  0.45573000  0.81080000  0.78036000  1.0
  H  H16  1  0.53014000  0.34453000  0.24809000  1.0
  H  H17  1  0.46987000  0.65548000  0.75191000  1.0
  H  H18  1  0.49635000  0.31631000  0.12455000  1.0
  H  H19  1  0.50365000  0.68370000  0.87545000  1.0
  H  H20  1  0.24956000  0.42479000  0.13046000  1.0
  H  H21  1  0.75044000  0.57521000  0.86954000  1.0
  H  H22  1  0.28293000  0.45520000  0.25316000  1.0
  H  H23  1  0.71707000  0.54480000  0.74684000  1.0
  H  H24  1  0.12683000  0.37502000  0.22960000  1.0
  H  H25  1  0.87317000  0.62498000  0.77040000  1.0
  H  H26  1  0.03568000  0.02020000  0.40098000  1.0
  H  H27  1  0.96432000  0.97980000  0.59902000  1.0
  H  H28  1  0.17808000  0.01512000  0.31275000  1.0
  H  H29  1  0.82192000  0.98488000  0.68725000  1.0
  H  H30  1  0.05618000  0.17551000  0.19084000  1.0
  H  H31  1  0.94382000  0.82449000  0.80917000  1.0
  H  H32  1  0.00978000  0.94593000  0.19550000  1.0
  H  H33  1  0.99022000  0.05407000  0.80450000  1.0
  H  H34  1  0.85913000  0.04221000  0.15285000  1.0
  H  H35  1  0.14087000  0.95779000  0.84715000  1.0
  H  H36  1  0.86237000  0.95928000  0.27773000  1.0
  H  H37  1  0.13764000  0.04072000  0.72227000  1.0
  H  H38  1  0.92153000  0.29716000  0.30959000  1.0
  H  H39  1  0.07848000  0.70284000  0.69041000  1.0
  H  H40  1  0.80730000  0.16860000  0.34405000  1.0
  H  H41  1  0.19270000  0.83140000  0.65595000  1.0
  H  H42  1  0.80966000  0.25031000  0.21837000  1.0
  H  H43  1  0.19034000  0.74969000  0.78163000  1.0
  H  H44  1  0.53258000  0.34849000  0.92635000  1.0
  H  H45  1  0.46742000  0.65151000  0.07365000  1.0
  H  H46  1  0.64358000  0.32176000  0.82337000  1.0
  H  H47  1  0.35642000  0.67824000  0.17664000  1.0
  H  H48  1  0.47642000  0.12189000  0.96305000  1.0
  H  H49  1  0.52358000  0.87810000  0.03695000  1.0
  H  H50  1  0.60301000  0.96672000  0.87166000  1.0
  H  H51  1  0.39699000  0.03327000  0.12834000  1.0
  H  H52  1  0.68536000  0.09020000  0.78946000  1.0
  H  H53  1  0.31464000  0.90979000  0.21054000  1.0
  H  H54  1  0.49832000  0.07091000  0.78556000  1.0
  H  H55  1  0.50167000  0.92909000  0.21443000  1.0
  H  H56  1  0.71774000  0.04451000  0.02062000  1.0
  H  H57  1  0.28225000  0.95548000  0.97938000  1.0
  H  H58  1  0.68837000  0.20190000  0.04148000  1.0
  H  H59  1  0.31162000  0.79810000  0.95852000  1.0
  H  H60  1  0.79789000  0.16948000  0.93851000  1.0
  H  H61  1  0.20211000  0.83051000  0.06150000  1.0
  H  H62  1  0.29086000  0.16525000  0.86249000  1.0
  H  H63  1  0.70913000  0.83476000  0.13751000  1.0
  H  H64  1  0.20832000  0.28734000  0.77927000  1.0
  H  H65  1  0.79168000  0.71266000  0.22073000  1.0
  H  H66  1  0.31804000  0.31620000  0.98642000  1.0
  H  H67  1  0.68196000  0.68380000  0.01358000  1.0
  H  H68  1  0.11363000  0.17071000  0.99886000  1.0
  H  H69  1  0.88637000  0.82929000  0.00114000  1.0
  H  H70  1  0.01219000  0.28523000  0.91882000  1.0
  H  H71  1  0.98781000  0.71477000  0.08118000  1.0
  H  H72  1  0.06223000  0.31519000  0.03916000  1.0
  H  H73  1  0.93777000  0.68481000  0.96084000  1.0
  H  H74  1  0.18038000  0.52068000  0.95912000  1.0
  H  H75  1  0.81962000  0.47932000  0.04088000  1.0
  H  H76  1  0.13253000  0.49281000  0.83771000  1.0
  H  H77  1  0.86747000  0.50719000  0.16229000  1.0
  H  H78  1  0.31396000  0.51738000  0.86392000  1.0
  H  H79  1  0.68604000  0.48262000  0.13608000  1.0
  C  C80  1  0.29955000  0.51034000  0.58368000  1.0
  C  C81  1  0.70045000  0.48967000  0.41632000  1.0
  C  C82  1  0.33327000  0.38803000  0.62969000  1.0
  C  C83  1  0.66666667  0.61198000  0.37031000  1.0
  C  C84  1  0.27442000  0.28797000  0.59142000  1.0
  C  C85  1  0.72558000  0.71203000  0.40858000  1.0
  C  C86  1  0.18577000  0.31365000  0.50823000  1.0
  C  C87  1  0.81424000  0.68635000  0.49177000  1.0
  C  C88  1  0.15688000  0.43868000  0.46795000  1.0
  C  C89  1  0.84312000  0.56132000  0.53205000  1.0
  C  C90  1  0.11279000  0.21250000  0.46504000  1.0
  C  C91  1  0.88721000  0.78750000  0.53496000  1.0
  C  C92  1  0.31465000  0.20318000  0.34415000  1.0
  C  C93  1  0.68535000  0.79682000  0.65585000  1.0
  C  C94  1  0.32467000  0.26127000  0.23296000  1.0
  C  C95  1  0.67533000  0.73874000  0.76704000  1.0
  C  C96  1  0.48284000  0.27819000  0.20462000  1.0
  C  C97  1  0.51716000  0.72181000  0.79537000  1.0
  C  C98  1  0.24096000  0.38563000  0.21062000  1.0
  C  C99  1  0.75905000  0.61437000  0.78938000  1.0
  C  C100  1  0.09490000  0.07648000  0.33961000  1.0
  C  C101  1  0.90510000  0.92352000  0.66039000  1.0
  C  C102  1  0.99303000  0.12516000  0.25358000  1.0
  C  C103  1  0.00697000  0.87484000  0.74642000  1.0
  C  C104  1  0.92785000  0.01189000  0.21750000  1.0
  C  C105  1  0.07216000  0.98811000  0.78250000  1.0
  C  C106  1  0.87643000  0.21526000  0.28332000  1.0
  C  C107  1  0.12357000  0.78474000  0.71668000  1.0
  C  C108  1  0.45004000  0.37237000  0.70524000  1.0
  C  C109  1  0.54996000  0.62763000  0.29476000  1.0
  C  C110  1  0.54814000  0.28883000  0.86732000  1.0
  C  C111  1  0.45186000  0.71116000  0.13268000  1.0
  C  C112  1  0.57071000  0.15144000  0.91545000  1.0
  C  C113  1  0.42929000  0.84855000  0.08455000  1.0
  C  C114  1  0.58951000  0.06501000  0.83616000  1.0
  C  C115  1  0.41049000  0.93499000  0.16384000  1.0
  C  C116  1  0.70090000  0.14158000  0.98304000  1.0
  C  C117  1  0.29909000  0.85842000  0.01697000  1.0
  C  C118  1  0.28675000  0.26779000  0.83929000  1.0
  C  C119  1  0.71325000  0.73221000  0.16071000  1.0
  C  C120  1  0.23558000  0.33232000  0.92823000  1.0
  C  C121  1  0.76442000  0.66769000  0.07177000  1.0
  C  C122  1  0.09821000  0.27216000  0.97393000  1.0
  C  C123  1  0.90179000  0.72784000  0.02607000  1.0
  C  C124  1  0.21487000  0.47375000  0.89552000  1.0
  C  C125  1  0.78513000  0.52625000  0.10448000  1.0
  N  N126  1  0.21186000  0.53442000  0.50585000  1.0
  N  N127  1  0.78814000  0.46558000  0.49415000  1.0
  N  N128  1  0.16959000  0.17352000  0.38189000  1.0
  N  N129  1  0.83042000  0.82648000  0.61811000  1.0
  N  N130  1  0.42718000  0.30864000  0.79896000  1.0
  N  N131  1  0.57282000  0.69136000  0.20103000  1.0
  Cl  Cl132  1  0.07076000  0.68059000  0.26831000  1.0
  Cl  Cl133  1  0.92924000  0.31941000  0.73169000  1.0
  Cl  Cl134  1  0.38671000  0.85291000  0.46970000  1.0
  Cl  Cl135  1  0.61329000  0.14709000  0.53030000  1.0
  O  O136  1  0.99860000  0.17037000  0.50545000  1.0
  O  O137  1  0.00140000  0.82963000  0.49455000  1.0
  O  O138  1  0.56705000  0.41970000  0.67610000  1.0
  O  O139  1  0.43295000  0.58030000  0.32390000  1.0
