# generated using pymatgen
data_ZnH27(C11O3)3
_symmetry_space_group_name_H-M   'P 1'
_cell_length_a   7.86107000
_cell_length_b   15.42150000
_cell_length_c   15.42030000
_cell_angle_alpha   92.96770000
_cell_angle_beta   99.08550000
_cell_angle_gamma   99.07770000
_symmetry_Int_Tables_number   1
_chemical_formula_structural   ZnH27(C11O3)3
_chemical_formula_sum   'Zn2 H54 C66 O18'
_cell_volume   1817.17542174
_cell_formula_units_Z   2
loop_
 _symmetry_equiv_pos_site_id
 _symmetry_equiv_pos_as_xyz
  1  'x, y, z'
loop_
 _atom_site_type_symbol
 _atom_site_label
 _atom_site_symmetry_multiplicity
 _atom_site_fract_x
 _atom_site_fract_y
 _atom_site_fract_z
 _atom_site_occupancy
  Zn  Zn0  1  0.20210000  0.49541000  0.63119000  1.0
  Zn  Zn1  1  0.70212000  0.63117000  0.49540000  1.0
  H  H2  1  0.94435000  0.28345000  0.41730000  1.0
  H  H3  1  0.61461000  0.22895000  0.87149000  1.0
  H  H4  1  0.73652000  0.63983000  0.72566000  1.0
  H  H5  1  0.65514000  0.02342000  0.32994000  1.0
  H  H6  1  0.62213000  0.07851000  0.79979000  1.0
  H  H7  1  0.36250000  0.91673000  0.14850000  1.0
  H  H8  1  0.23666000  0.05398000  0.11351000  1.0
  H  H9  1  0.98330000  0.19089000  0.14518000  1.0
  H  H10  1  0.03963000  0.13650000  0.75031000  1.0
  H  H11  1  0.68871000  0.88048000  0.91287000  1.0
  H  H12  1  0.87635000  0.72587000  0.68337000  1.0
  H  H13  1  0.18691000  0.06327000  0.73235000  1.0
  H  H14  1  0.71340000  0.82306000  0.35310000  1.0
  H  H15  1  0.34759000  0.32905000  0.10193000  1.0
  H  H16  1  0.48327000  0.14513000  0.19091000  1.0
  H  H17  1  0.68673000  0.73243000  0.06321000  1.0
  H  H18  1  0.70479000  0.33964000  0.03120000  1.0
  H  H19  1  0.25671000  0.83781000  0.50502000  1.0
  H  H20  1  0.73671000  0.11348000  0.05394000  1.0
  H  H21  1  0.40020000  0.16578000  0.41715000  1.0
  H  H22  1  0.90016000  0.41706000  0.16579000  1.0
  H  H23  1  0.47178000  0.77886000  0.43264000  1.0
  H  H24  1  0.15515000  0.32987000  0.02342000  1.0
  H  H25  1  0.97182000  0.43261000  0.77882000  1.0
  H  H26  1  0.18878000  0.91288000  0.88045000  1.0
  H  H27  1  0.86252000  0.14850000  0.91670000  1.0
  H  H28  1  0.07692000  0.06639000  0.02348000  1.0
  H  H29  1  0.57700000  0.02343000  0.06633000  1.0
  H  H30  1  0.27432000  0.42654000  0.34773000  1.0
  H  H31  1  0.66473000  0.02720000  0.96821000  1.0
  H  H32  1  0.37637000  0.68337000  0.72585000  1.0
  H  H33  1  0.77429000  0.34770000  0.42656000  1.0
  H  H34  1  0.23649000  0.72564000  0.63981000  1.0
  H  H35  1  0.21344000  0.35306000  0.82302000  1.0
  H  H36  1  0.53948000  0.75040000  0.13645000  1.0
  H  H37  1  0.16468000  0.96828000  0.02719000  1.0
  H  H38  1  0.36056000  0.38209000  0.00367000  1.0
  H  H39  1  0.86056000  0.00363000  0.38213000  1.0
  H  H40  1  0.73142000  0.78329000  0.78844000  1.0
  H  H41  1  0.84762000  0.10191000  0.32914000  1.0
  H  H42  1  0.16450000  0.70115000  0.95327000  1.0
  H  H43  1  0.75676000  0.50501000  0.83780000  1.0
  H  H44  1  0.22641000  0.72292000  0.46969000  1.0
  H  H45  1  0.01405000  0.02987000  0.78975000  1.0
  H  H46  1  0.44435000  0.41724000  0.28348000  1.0
  H  H47  1  0.67303000  0.22228000  0.32381000  1.0
  H  H48  1  0.51392000  0.78989000  0.02983000  1.0
  H  H49  1  0.11456000  0.87152000  0.22894000  1.0
  H  H50  1  0.66446000  0.95324000  0.70107000  1.0
  H  H51  1  0.23144000  0.78845000  0.78326000  1.0
  H  H52  1  0.17307000  0.32378000  0.22234000  1.0
  H  H53  1  0.12213000  0.79987000  0.07853000  1.0
  H  H54  1  0.72644000  0.46969000  0.72288000  1.0
  H  H55  1  0.20483000  0.03120000  0.33973000  1.0
  C  C56  1  0.32040000  0.23965000  0.98615000  1.0
  C  C57  1  0.11088000  0.08682000  0.77991000  1.0
  C  C58  1  0.95654000  0.02132000  0.19575000  1.0
  C  C59  1  0.40231000  0.00454000  0.84755000  1.0
  C  C60  1  0.05627000  0.24622000  0.87547000  1.0
  C  C61  1  0.72836000  0.86515000  0.12354000  1.0
  C  C62  1  0.20449000  0.20192000  0.90924000  1.0
  C  C63  1  0.08348000  0.32618000  0.83573000  1.0
  C  C64  1  0.29417000  0.32438000  0.03146000  1.0
  C  C65  1  0.44625000  0.80991000  0.37113000  1.0
  C  C66  1  0.79417000  0.84186000  0.92206000  1.0
  C  C67  1  0.49708000  0.50140000  0.76293000  1.0
  C  C68  1  0.99704000  0.76294000  0.50140000  1.0
  C  C69  1  0.07562000  0.18443000  0.20427000  1.0
  C  C70  1  0.94951000  0.73534000  0.86422000  1.0
  C  C71  1  0.79935000  0.32470000  0.25284000  1.0
  C  C72  1  0.29420000  0.92207000  0.84181000  1.0
  C  C73  1  0.94029000  0.59832000  0.66162000  1.0
  C  C74  1  0.66711000  0.46491000  0.78312000  1.0
  C  C75  1  0.98059000  0.97892000  0.11624000  1.0
  C  C76  1  0.74670000  0.25447000  0.86124000  1.0
  C  C77  1  0.38497000  0.88613000  0.21051000  1.0
  C  C78  1  0.12269000  0.01832000  0.06823000  1.0
  C  C79  1  0.90227000  0.84760000  0.00454000  1.0
  C  C80  1  0.88502000  0.21050000  0.88608000  1.0
  C  C81  1  0.62275000  0.06822000  0.01828000  1.0
  C  C82  1  0.24666000  0.86128000  0.25447000  1.0
  C  C83  1  0.77725000  0.33576000  0.82394000  1.0
  C  C84  1  0.40567000  0.40919000  0.34857000  1.0
  C  C85  1  0.45655000  0.19570000  0.02131000  1.0
  C  C86  1  0.53168000  0.47076000  0.41950000  1.0
  C  C87  1  0.36939000  0.08221000  0.89946000  1.0
  C  C88  1  0.81667000  0.78685000  0.85176000  1.0
  C  C89  1  0.03780000  0.79695000  0.01477000  1.0
  C  C90  1  0.22843000  0.12354000  0.86509000  1.0
  C  C91  1  0.68282000  0.24743000  0.25990000  1.0
  C  C92  1  0.69925000  0.31388000  0.09542000  1.0
  C  C93  1  0.16707000  0.78315000  0.46491000  1.0
  C  C94  1  0.29940000  0.25282000  0.32476000  1.0
  C  C95  1  0.80819000  0.35713000  0.16952000  1.0
  C  C96  1  0.03165000  0.41947000  0.47078000  1.0
  C  C97  1  0.07963000  0.10131000  0.23686000  1.0
  C  C98  1  0.94629000  0.37111000  0.80986000  1.0
  C  C99  1  0.44951000  0.86420000  0.73530000  1.0
  C  C100  1  0.61075000  0.78001000  0.08678000  1.0
  C  C101  1  0.79416000  0.03145000  0.32444000  1.0
  C  C102  1  0.19928000  0.09541000  0.31396000  1.0
  C  C103  1  0.53782000  0.01476000  0.79690000  1.0
  C  C104  1  0.56175000  0.94593000  0.74141000  1.0
  C  C105  1  0.86933000  0.89950000  0.08222000  1.0
  C  C106  1  0.44026000  0.66160000  0.59829000  1.0
  C  C107  1  0.30823000  0.16951000  0.35721000  1.0
  C  C108  1  0.82038000  0.98616000  0.23969000  1.0
  C  C109  1  0.90564000  0.34853000  0.40922000  1.0
  C  C110  1  0.57560000  0.20421000  0.18445000  1.0
  C  C111  1  0.57961000  0.23680000  0.10132000  1.0
  C  C112  1  0.55622000  0.87552000  0.24624000  1.0
  C  C113  1  0.06176000  0.74147000  0.94595000  1.0
  C  C114  1  0.27722000  0.82398000  0.33577000  1.0
  C  C115  1  0.58345000  0.83577000  0.32621000  1.0
  C  C116  1  0.48065000  0.11622000  0.97889000  1.0
  C  C117  1  0.70445000  0.90927000  0.20193000  1.0
  C  C118  1  0.18284000  0.25988000  0.24750000  1.0
  C  C119  1  0.31667000  0.85176000  0.78681000  1.0
  C  C120  1  0.37225000  0.71752000  0.66462000  1.0
  C  C121  1  0.87226000  0.66464000  0.71753000  1.0
  O  O122  1  0.50875000  0.58221000  0.78254000  1.0
  O  O123  1  0.06220000  0.56115000  0.69986000  1.0
  O  O124  1  0.06134000  0.39874000  0.55146000  1.0
  O  O125  1  0.87576000  0.58342000  0.58088000  1.0
  O  O126  1  0.37573000  0.58086000  0.58340000  1.0
  O  O127  1  0.56138000  0.55142000  0.39875000  1.0
  O  O128  1  0.86308000  0.72259000  0.44766000  1.0
  O  O129  1  0.90929000  0.37260000  0.32071000  1.0
  O  O130  1  0.98301000  0.67842000  0.80201000  1.0
  O  O131  1  0.59346000  0.44209000  0.48925000  1.0
  O  O132  1  0.48299000  0.80199000  0.67838000  1.0
  O  O133  1  0.40933000  0.32069000  0.37267000  1.0
  O  O134  1  0.13499000  0.80382000  0.37498000  1.0
  O  O135  1  0.09344000  0.48920000  0.44209000  1.0
  O  O136  1  0.63503000  0.37498000  0.80379000  1.0
  O  O137  1  0.00869000  0.78257000  0.58221000  1.0
  O  O138  1  0.56216000  0.69983000  0.56112000  1.0
  O  O139  1  0.36311000  0.44767000  0.72260000  1.0
