# generated using pymatgen
data_AlH7C16Cl2O5
_symmetry_space_group_name_H-M   'P 1'
_cell_length_a   6.63142000
_cell_length_b   24.30230000
_cell_length_c   25.25870000
_cell_angle_alpha   89.99040000
_cell_angle_beta   89.73000000
_cell_angle_gamma   88.04180000
_symmetry_Int_Tables_number   1
_chemical_formula_structural   AlH7C16Cl2O5
_chemical_formula_sum   'Al4 H28 C64 Cl8 O20'
_cell_volume   4068.23837932
_cell_formula_units_Z   4
loop_
 _symmetry_equiv_pos_site_id
 _symmetry_equiv_pos_as_xyz
  1  'x, y, z'
loop_
 _atom_site_type_symbol
 _atom_site_label
 _atom_site_symmetry_multiplicity
 _atom_site_fract_x
 _atom_site_fract_y
 _atom_site_fract_z
 _atom_site_occupancy
  Al  Al0  1  0.01177000  0.00138000  0.49827000  1.0
  Al  Al1  1  0.51250000  0.99772000  0.49886000  1.0
  Al  Al2  1  0.98702000  0.50241000  0.00115000  1.0
  Al  Al3  1  0.48765000  0.49872000  0.00173000  1.0
  H  H4  1  0.26301000  0.06765000  0.52019000  1.0
  H  H5  1  0.78027000  0.93469000  0.52584000  1.0
  H  H6  1  0.23620000  0.43233000  0.98010000  1.0
  H  H7  1  0.71911000  0.56540000  0.97412000  1.0
  H  H8  1  0.46532000  0.41488000  0.14052000  1.0
  H  H9  1  0.45518000  0.34505000  0.21266000  1.0
  H  H10  1  0.04615000  0.28324000  0.16400000  1.0
  H  H11  1  0.45049000  0.21626000  0.33556000  1.0
  H  H12  1  0.03394000  0.08564000  0.35961000  1.0
  H  H13  1  0.04277000  0.15518000  0.28717000  1.0
  H  H14  1  0.93977000  0.63712000  0.90072000  1.0
  H  H15  1  0.94062000  0.71126000  0.83259000  1.0
  H  H16  1  0.53458000  0.65315000  0.78268000  1.0
  H  H17  1  0.96904000  0.84670000  0.71779000  1.0
  H  H18  1  0.56050000  0.86278000  0.59860000  1.0
  H  H19  1  0.56218000  0.78885000  0.66694000  1.0
  H  H20  1  0.52825000  0.63123000  0.09516000  1.0
  H  H21  1  0.54026000  0.70609000  0.16252000  1.0
  H  H22  1  0.95742000  0.65916000  0.22117000  1.0
  H  H23  1  0.54184000  0.84078000  0.27895000  1.0
  H  H24  1  0.97108000  0.86894000  0.40490000  1.0
  H  H25  1  0.95926000  0.79387000  0.33774000  1.0
  H  H26  1  0.46728000  0.41560000  0.85889000  1.0
  H  H27  1  0.46072000  0.34673000  0.78590000  1.0
  H  H28  1  0.04341000  0.28222000  0.83665000  1.0
  H  H29  1  0.46057000  0.21836000  0.66333000  1.0
  H  H30  1  0.03221000  0.08359000  0.64142000  1.0
  H  H31  1  0.04062000  0.15240000  0.71445000  1.0
  C  C32  1  0.75479000  0.06809000  0.56947000  1.0
  C  C33  1  0.74475000  0.06653000  0.42867000  1.0
  C  C34  1  0.26341000  0.93529000  0.42650000  1.0
  C  C35  1  0.26978000  0.93344000  0.57169000  1.0
  C  C36  1  0.74490000  0.43186000  0.93064000  1.0
  C  C37  1  0.75468000  0.43370000  0.07141000  1.0
  C  C38  1  0.23598000  0.56495000  0.07341000  1.0
  C  C39  1  0.23000000  0.56650000  0.92819000  1.0
  C  C40  1  0.76155000  0.39043000  0.11337000  1.0
  C  C41  1  0.59313000  0.38634000  0.14700000  1.0
  C  C42  1  0.58684000  0.34726000  0.18691000  1.0
  C  C43  1  0.75112000  0.30945000  0.19374000  1.0
  C  C44  1  0.91982000  0.31271000  0.15992000  1.0
  C  C45  1  0.92562000  0.35275000  0.12053000  1.0
  C  C46  1  0.74831000  0.26798000  0.23304000  1.0
  C  C47  1  0.74832000  0.23172000  0.26651000  1.0
  C  C48  1  0.74600000  0.19036000  0.30593000  1.0
  C  C49  1  0.57733000  0.18698000  0.33975000  1.0
  C  C50  1  0.57244000  0.14712000  0.37933000  1.0
  C  C51  1  0.73732000  0.10973000  0.38663000  1.0
  C  C52  1  0.90562000  0.11396000  0.35301000  1.0
  C  C53  1  0.91109000  0.15286000  0.31291000  1.0
  C  C54  1  0.23688000  0.60537000  0.88237000  1.0
  C  C55  1  0.07009000  0.64173000  0.87490000  1.0
  C  C56  1  0.07004000  0.68282000  0.83685000  1.0
  C  C57  1  0.24015000  0.68836000  0.80374000  1.0
  C  C58  1  0.40475000  0.65054000  0.80901000  1.0
  C  C59  1  0.40326000  0.60979000  0.84778000  1.0
  C  C60  1  0.24769000  0.73126000  0.76603000  1.0
  C  C61  1  0.25652000  0.76874000  0.73401000  1.0
  C  C62  1  0.26319000  0.81164000  0.69627000  1.0
  C  C63  1  0.09816000  0.84935000  0.69122000  1.0
  C  C64  1  0.09842000  0.89005000  0.65237000  1.0
  C  C65  1  0.26389000  0.89448000  0.61749000  1.0
  C  C66  1  0.43103000  0.85820000  0.62471000  1.0
  C  C67  1  0.43239000  0.81719000  0.66284000  1.0
  C  C68  1  0.23439000  0.60550000  0.11782000  1.0
  C  C69  1  0.40245000  0.63888000  0.12239000  1.0
  C  C70  1  0.40975000  0.68024000  0.16003000  1.0
  C  C71  1  0.24704000  0.68884000  0.19566000  1.0
  C  C72  1  0.08115000  0.65420000  0.19288000  1.0
  C  C73  1  0.07474000  0.61320000  0.15441000  1.0
  C  C74  1  0.24934000  0.73142000  0.23381000  1.0
  C  C75  1  0.25013000  0.76841000  0.26650000  1.0
  C  C76  1  0.25238000  0.81108000  0.30456000  1.0
  C  C77  1  0.41814000  0.84579000  0.30722000  1.0
  C  C78  1  0.42449000  0.88691000  0.34556000  1.0
  C  C79  1  0.26487000  0.89467000  0.38214000  1.0
  C  C80  1  0.09685000  0.86127000  0.37767000  1.0
  C  C81  1  0.08965000  0.81979000  0.34015000  1.0
  C  C82  1  0.75680000  0.38909000  0.88810000  1.0
  C  C83  1  0.59333000  0.38630000  0.85295000  1.0
  C  C84  1  0.58942000  0.34791000  0.81246000  1.0
  C  C85  1  0.75213000  0.30946000  0.80614000  1.0
  C  C86  1  0.91729000  0.31180000  0.84077000  1.0
  C  C87  1  0.92010000  0.35095000  0.88102000  1.0
  C  C88  1  0.75094000  0.26814000  0.76674000  1.0
  C  C89  1  0.75240000  0.23167000  0.73349000  1.0
  C  C90  1  0.75047000  0.19038000  0.69407000  1.0
  C  C91  1  0.58560000  0.18844000  0.65930000  1.0
  C  C92  1  0.58165000  0.14934000  0.61903000  1.0
  C  C93  1  0.74377000  0.11082000  0.61205000  1.0
  C  C94  1  0.90705000  0.11319000  0.64730000  1.0
  C  C95  1  0.91198000  0.15153000  0.68784000  1.0
  Cl  Cl96  1  0.13610000  0.35150000  0.07988000  1.0
  Cl  Cl97  1  0.36201000  0.14829000  0.42000000  1.0
  Cl  Cl98  1  0.61024000  0.56444000  0.84962000  1.0
  Cl  Cl99  1  0.89097000  0.93522000  0.65076000  1.0
  Cl  Cl100  1  0.87018000  0.57106000  0.15553000  1.0
  Cl  Cl101  1  0.62884000  0.92913000  0.34432000  1.0
  Cl  Cl102  1  0.12914000  0.34663000  0.92200000  1.0
  Cl  Cl103  1  0.37321000  0.15409000  0.57789000  1.0
  O  O104  1  0.93092000  0.04982000  0.55658000  1.0
  O  O105  1  0.58232000  0.04345000  0.44078000  1.0
  O  O106  1  0.42910000  0.94383000  0.44969000  1.0
  O  O107  1  0.10374000  0.94502000  0.54862000  1.0
  O  O108  1  0.09207000  0.95652000  0.43932000  1.0
  O  O109  1  0.44267000  0.95005000  0.55803000  1.0
  O  O110  1  0.58997000  0.05310000  0.54959000  1.0
  O  O111  1  0.91673000  0.05589000  0.44934000  1.0
  O  O112  1  0.26033000  0.03301000  0.50110000  1.0
  O  O113  1  0.76886000  0.96514000  0.50105000  1.0
  O  O114  1  0.90950000  0.44693000  0.95059000  1.0
  O  O115  1  0.58278000  0.44434000  0.05071000  1.0
  O  O116  1  0.40726000  0.54368000  0.06064000  1.0
  O  O117  1  0.05699000  0.54992000  0.94178000  1.0
  O  O118  1  0.07035000  0.55646000  0.05016000  1.0
  O  O119  1  0.39578000  0.55495000  0.95139000  1.0
  O  O120  1  0.56864000  0.45008000  0.94344000  1.0
  O  O121  1  0.91718000  0.45680000  0.05939000  1.0
  O  O122  1  0.23912000  0.46708000  0.99902000  1.0
  O  O123  1  0.73058000  0.53495000  0.99891000  1.0
