# generated using pymatgen
data_Zn2H28C35I4N2O15
_symmetry_space_group_name_H-M   'P 1'
_cell_length_a   9.95078000
_cell_length_b   10.79960000
_cell_length_c   11.14090000
_cell_angle_alpha   95.36450000
_cell_angle_beta   92.92780000
_cell_angle_gamma   90.97630000
_symmetry_Int_Tables_number   1
_chemical_formula_structural   Zn2H28C35I4N2O15
_chemical_formula_sum   'Zn2 H28 C35 I4 N2 O15'
_cell_volume   1190.16430396
_cell_formula_units_Z   1
loop_
 _symmetry_equiv_pos_site_id
 _symmetry_equiv_pos_as_xyz
  1  'x, y, z'
loop_
 _atom_site_type_symbol
 _atom_site_label
 _atom_site_symmetry_multiplicity
 _atom_site_fract_x
 _atom_site_fract_y
 _atom_site_fract_z
 _atom_site_occupancy
  Zn  Zn0  1  0.35496000  0.50019000  0.49923000  1.0
  Zn  Zn1  1  0.64165000  0.50478000  0.51172000  1.0
  H  H2  1  0.19611000  0.42169000  0.10125000  1.0
  H  H3  1  0.30148000  0.29062000  0.07930000  1.0
  H  H4  1  0.14255000  0.38476000  0.64936000  1.0
  H  H5  1  0.09028000  0.72051000  0.33837000  1.0
  H  H6  1  0.12209000  0.58040000  0.24536000  1.0
  H  H7  1  0.83425000  0.66662000  0.29481000  1.0
  H  H8  1  0.03318000  0.87203000  0.48997000  1.0
  H  H9  1  0.87325000  0.99170000  0.62074000  1.0
  H  H10  1  0.74614000  0.90096000  0.68602000  1.0
  H  H11  1  0.88192000  0.82457000  0.61410000  1.0
  H  H12  1  0.29301000  0.90952000  0.78043000  1.0
  H  H13  1  0.41392000  0.80253000  0.72003000  1.0
  H  H14  1  0.26995000  0.74379000  0.78618000  1.0
  H  H15  1  0.11692000  0.02792000  0.15220000  1.0
  H  H16  1  0.93924000  0.99149000  0.14067000  1.0
  H  H17  1  0.05682000  0.87503000  0.17652000  1.0
  H  H18  1  0.07425000  0.22789000  0.22548000  1.0
  H  H19  1  0.19448000  0.34400000  0.29059000  1.0
  H  H20  1  0.09597000  0.25739000  0.38617000  1.0
  H  H21  1  0.75117000  0.07397000  0.26026000  1.0
  H  H22  1  0.85193000  0.20156000  0.33006000  1.0
  H  H23  1  0.67601000  0.22293000  0.29977000  1.0
  H  H24  1  0.52655000  0.77309000  0.27262000  1.0
  H  H25  1  0.54979000  0.86346000  0.14683000  1.0
  H  H26  1  0.67891000  0.86150000  0.26583000  1.0
  H  H27  1  0.01738000  0.38641000  0.94136000  1.0
  H  H28  1  0.98556000  0.51677000  0.85646000  1.0
  H  H29  1  0.06973000  0.54054000  0.00230000  1.0
  C  C30  1  0.49267000  0.52914000  0.27206000  1.0
  C  C31  1  0.37155000  0.93772000  0.50944000  1.0
  C  C32  1  0.50046000  0.88009000  0.52451000  1.0
  C  C33  1  0.61635000  0.94409000  0.49819000  1.0
  C  C34  1  0.61097000  0.06761000  0.46154000  1.0
  C  C35  1  0.48746000  0.12566000  0.44768000  1.0
  C  C36  1  0.40637000  0.46953000  0.05882000  1.0
  C  C37  1  0.49384000  0.54254000  0.13871000  1.0
  C  C38  1  0.58472000  0.61897000  0.08230000  1.0
  C  C39  1  0.59488000  0.60834000  0.95511000  1.0
  C  C40  1  0.50843000  0.53014000  0.87606000  1.0
  C  C41  1  0.50662000  0.74114000  0.52876000  1.0
  C  C42  1  0.41168000  0.46687000  0.93402000  1.0
  C  C43  1  0.27975000  0.39566000  0.91353000  1.0
  C  C44  1  0.28313000  0.38492000  0.05433000  1.0
  C  C45  1  0.92403000  0.53711000  0.42690000  1.0
  C  C46  1  0.93834000  0.41971000  0.58245000  1.0
  C  C47  1  0.08048000  0.43262000  0.58562000  1.0
  C  C48  1  0.06347000  0.55136000  0.43049000  1.0
  C  C49  1  0.06364000  0.62111000  0.31935000  1.0
  C  C50  1  0.90626000  0.59341000  0.30873000  1.0
  C  C51  1  0.50987000  0.51316000  0.74021000  1.0
  C  C52  1  0.47962000  0.26486000  0.46143000  1.0
  C  C53  1  0.24457000  0.88609000  0.53853000  1.0
  C  C54  1  0.12861000  0.91703000  0.47472000  1.0
  C  C55  1  0.13214000  0.00312000  0.38809000  1.0
  C  C56  1  0.24730000  0.07743000  0.38225000  1.0
  C  C57  1  0.36669000  0.04952000  0.44901000  1.0
  C  C58  1  0.81435000  0.90364000  0.61170000  1.0
  C  C59  1  0.30635000  0.81664000  0.73300000  1.0
  C  C60  1  0.03529000  0.97504000  0.18866000  1.0
  C  C61  1  0.14766000  0.25343000  0.30127000  1.0
  C  C62  1  0.75212000  0.15704000  0.32545000  1.0
  C  C63  1  0.59993000  0.80656000  0.21211000  1.0
  C  C64  1  0.05688000  0.47677000  0.91943000  1.0
  I  I65  1  0.29019000  0.20645000  0.80754000  1.0
  I  I66  1  0.85939000  0.29043000  0.68887000  1.0
  I  I67  1  0.85449000  0.44486000  0.16804000  1.0
  I  I68  1  0.74033000  0.72427000  0.88756000  1.0
  N  N69  1  0.85546000  0.47734000  0.50502000  1.0
  N  N70  1  0.14529000  0.50114000  0.50975000  1.0
  O  O71  1  0.38257000  0.48903000  0.30937000  1.0
  O  O72  1  0.60187000  0.55289000  0.33519000  1.0
  O  O73  1  0.40075000  0.68127000  0.48553000  1.0
  O  O74  1  0.61445000  0.69172000  0.56555000  1.0
  O  O75  1  0.39664000  0.52389000  0.68488000  1.0
  O  O76  1  0.62063000  0.48638000  0.69373000  1.0
  O  O77  1  0.36967000  0.31261000  0.49526000  1.0
  O  O78  1  0.58723000  0.32812000  0.45092000  1.0
  O  O79  1  0.73963000  0.88930000  0.49725000  1.0
  O  O80  1  0.22540000  0.80270000  0.62199000  1.0
  O  O81  1  0.01824000  0.01414000  0.31385000  1.0
  O  O82  1  0.25490000  0.16601000  0.30229000  1.0
  O  O83  1  0.73299000  0.11956000  0.44432000  1.0
  O  O84  1  0.66750000  0.70499000  0.14893000  1.0
  O  O85  1  0.18093000  0.46411000  0.86041000  1.0
