# generated using pymatgen
data_CuH19C22S2N7O4
_symmetry_space_group_name_H-M   'P 1'
_cell_length_a   10.64700000
_cell_length_b   11.30990000
_cell_length_c   13.22060000
_cell_angle_alpha   90.20340000
_cell_angle_beta   98.61470000
_cell_angle_gamma   109.56300000
_symmetry_Int_Tables_number   1
_chemical_formula_structural   CuH19C22S2N7O4
_chemical_formula_sum   'Cu2 H38 C44 S4 N14 O8'
_cell_volume   1480.68940011
_cell_formula_units_Z   2
loop_
 _symmetry_equiv_pos_site_id
 _symmetry_equiv_pos_as_xyz
  1  'x, y, z'
loop_
 _atom_site_type_symbol
 _atom_site_label
 _atom_site_symmetry_multiplicity
 _atom_site_fract_x
 _atom_site_fract_y
 _atom_site_fract_z
 _atom_site_occupancy
  Cu  Cu0  1  0.99999000  0.49999000  0.00000000  1.0
  Cu  Cu1  1  0.49999000  0.50002000  0.00000000  1.0
  H  H2  1  0.88859000  0.17557000  0.69686000  1.0
  H  H3  1  0.11141000  0.82443000  0.30315000  1.0
  H  H4  1  0.94048000  0.30147000  0.84370000  1.0
  H  H5  1  0.05953000  0.69853000  0.15630000  1.0
  H  H6  1  0.01718000  0.68380000  0.83451000  1.0
  H  H7  1  0.98283000  0.31620000  0.16549000  1.0
  H  H8  1  0.98552000  0.67192000  0.64144000  1.0
  H  H9  1  0.01449000  0.32808000  0.35855000  1.0
  H  H10  1  0.92074000  0.46171000  0.54804000  1.0
  H  H11  1  0.07925000  0.53828000  0.45196000  1.0
  H  H12  1  0.73493000  0.88439000  0.25859000  1.0
  H  H13  1  0.26509000  0.11562000  0.74142000  1.0
  H  H14  1  0.63863000  0.73328000  0.12729000  1.0
  H  H15  1  0.36137000  0.26673000  0.87271000  1.0
  H  H16  1  0.61118000  0.36358000  0.16752000  1.0
  H  H17  1  0.38879000  0.63643000  0.83247000  1.0
  H  H18  1  0.74129000  0.41673000  0.34530000  1.0
  H  H19  1  0.25870000  0.58326000  0.65469000  1.0
  H  H20  1  0.81547000  0.63960000  0.41873000  1.0
  H  H21  1  0.18455000  0.36040000  0.58126000  1.0
  H  H22  1  0.70831000  0.01880000  0.53897000  1.0
  H  H23  1  0.29169000  0.98120000  0.46103000  1.0
  H  H24  1  0.87428000  0.02172000  0.58332000  1.0
  H  H25  1  0.12572000  0.97827000  0.41669000  1.0
  H  H26  1  0.75449000  0.04572000  0.36138000  1.0
  H  H27  1  0.24553000  0.95429000  0.63863000  1.0
  H  H28  1  0.92926000  0.07797000  0.40341000  1.0
  H  H29  1  0.07076000  0.92202000  0.59661000  1.0
  H  H30  1  0.46265000  0.89144000  0.38467000  1.0
  H  H31  1  0.53736000  0.10856000  0.61533000  1.0
  H  H32  1  0.39831000  0.77613000  0.21178000  1.0
  H  H33  1  0.60169000  0.22387000  0.78822000  1.0
  H  H34  1  0.34769000  0.54514000  0.19884000  1.0
  H  H35  1  0.65231000  0.45486000  0.80116000  1.0
  H  H36  1  0.35571000  0.42679000  0.35567000  1.0
  H  H37  1  0.64428000  0.57320000  0.64434000  1.0
  H  H38  1  0.41836000  0.54251000  0.52861000  1.0
  H  H39  1  0.58163000  0.45749000  0.47139000  1.0
  C  C40  1  0.34380000  0.68022000  0.01552000  1.0
  C  C41  1  0.65620000  0.31982000  0.98448000  1.0
  C  C42  1  0.81493000  0.65246000  0.95479000  1.0
  C  C43  1  0.18505000  0.34753000  0.04520000  1.0
  C  C44  1  0.92508000  0.36482000  0.68794000  1.0
  C  C45  1  0.07493000  0.63517000  0.31207000  1.0
  C  C46  1  0.94756000  0.38051000  0.79508000  1.0
  C  C47  1  0.05244000  0.61949000  0.20492000  1.0
  C  C48  1  0.99081000  0.59540000  0.79009000  1.0
  C  C49  1  0.00921000  0.40460000  0.20991000  1.0
  C  C50  1  0.97193000  0.58739000  0.68371000  1.0
  C  C51  1  0.02807000  0.41261000  0.31629000  1.0
  C  C52  1  0.93793000  0.47141000  0.63109000  1.0
  C  C53  1  0.06207000  0.52859000  0.36891000  1.0
  C  C54  1  0.73296000  0.70406000  0.27913000  1.0
  C  C55  1  0.26704000  0.29595000  0.72087000  1.0
  C  C56  1  0.66413000  0.66666667  0.17899000  1.0
  C  C57  1  0.33586000  0.33333333  0.82101000  1.0
  C  C58  1  0.64873000  0.45930000  0.20095000  1.0
  C  C59  1  0.35124000  0.54071000  0.79904000  1.0
  C  C60  1  0.71984000  0.48993000  0.30004000  1.0
  C  C61  1  0.28016000  0.51007000  0.69994000  1.0
  C  C62  1  0.76220000  0.61306000  0.34092000  1.0
  C  C63  1  0.23781000  0.38694000  0.65907000  1.0
  C  C64  1  0.85419000  0.20105000  0.54392000  1.0
  C  C65  1  0.14581000  0.79893000  0.45609000  1.0
  C  C66  1  0.81404000  0.06005000  0.52651000  1.0
  C  C67  1  0.18596000  0.93995000  0.47350000  1.0
  C  C68  1  0.82754000  0.02287000  0.41882000  1.0
  C  C69  1  0.17247000  0.97713000  0.58120000  1.0
  C  C70  1  0.81375000  0.88510000  0.40913000  1.0
  C  C71  1  0.18626000  0.11490000  0.59087000  1.0
  C  C72  1  0.44463000  0.72158000  0.46420000  1.0
  C  C73  1  0.55537000  0.27841000  0.53580000  1.0
  C  C74  1  0.43936000  0.79018000  0.37692000  1.0
  C  C75  1  0.56064000  0.20982000  0.62308000  1.0
  C  C76  1  0.40427000  0.72539000  0.28132000  1.0
  C  C77  1  0.59573000  0.27462000  0.71868000  1.0
  C  C78  1  0.37470000  0.59510000  0.27382000  1.0
  C  C79  1  0.62530000  0.40491000  0.72618000  1.0
  C  C80  1  0.37942000  0.52832000  0.36217000  1.0
  C  C81  1  0.62059000  0.47168000  0.63783000  1.0
  C  C82  1  0.41457000  0.59162000  0.45832000  1.0
  C  C83  1  0.58543000  0.40838000  0.54168000  1.0
  S  S84  1  0.24171000  0.75888000  0.00477000  1.0
  S  S85  1  0.75829000  0.24117000  0.99523000  1.0
  S  S86  1  0.70344000  0.70869000  0.89989000  1.0
  S  S87  1  0.29653000  0.29130000  0.10012000  1.0
  N  N88  1  0.42193000  0.62505000  0.02657000  1.0
  N  N89  1  0.57805000  0.37496000  0.97343000  1.0
  N  N90  1  0.89787000  0.61285000  0.99781000  1.0
  N  N91  1  0.10211000  0.38714000  0.00218000  1.0
  N  N92  1  0.97830000  0.49253000  0.84390000  1.0
  N  N93  1  0.02171000  0.50748000  0.15609000  1.0
  N  N94  1  0.89216000  0.24275000  0.64546000  1.0
  N  N95  1  0.10784000  0.75724000  0.35454000  1.0
  N  N96  1  0.62221000  0.54737000  0.14208000  1.0
  N  N97  1  0.37778000  0.45265000  0.85792000  1.0
  N  N98  1  0.76501000  0.83032000  0.31152000  1.0
  N  N99  1  0.23501000  0.16969000  0.68848000  1.0
  N  N100  1  0.48312000  0.78768000  0.56564000  1.0
  N  N101  1  0.51687000  0.21231000  0.43436000  1.0
  O  O102  1  0.85023000  0.27190000  0.47348000  1.0
  O  O103  1  0.14978000  0.72809000  0.52652000  1.0
  O  O104  1  0.84754000  0.82831000  0.48221000  1.0
  O  O105  1  0.15247000  0.17169000  0.51779000  1.0
  O  O106  1  0.51601000  0.73202000  0.64024000  1.0
  O  O107  1  0.48399000  0.26797000  0.35976000  1.0
  O  O108  1  0.48158000  0.89715000  0.57162000  1.0
  O  O109  1  0.51843000  0.10285000  0.42838000  1.0
