# generated using pymatgen
data_GdH8C6O7
_symmetry_space_group_name_H-M   'P 1'
_cell_length_a   7.62462000
_cell_length_b   8.03907000
_cell_length_c   14.13480000
_cell_angle_alpha   97.02170000
_cell_angle_beta   95.87610000
_cell_angle_gamma   103.66200000
_symmetry_Int_Tables_number   1
_chemical_formula_structural   GdH8C6O7
_chemical_formula_sum   'Gd4 H32 C24 O28'
_cell_volume   827.78860065
_cell_formula_units_Z   4
loop_
 _symmetry_equiv_pos_site_id
 _symmetry_equiv_pos_as_xyz
  1  'x, y, z'
loop_
 _atom_site_type_symbol
 _atom_site_label
 _atom_site_symmetry_multiplicity
 _atom_site_fract_x
 _atom_site_fract_y
 _atom_site_fract_z
 _atom_site_occupancy
  Gd  Gd0  1  0.87196000  0.92237000  0.70759000  1.0
  Gd  Gd1  1  0.12804000  0.07763000  0.29241000  1.0
  Gd  Gd2  1  0.41131000  0.00894000  0.79923000  1.0
  Gd  Gd3  1  0.58869000  0.99106000  0.20077000  1.0
  H  H4  1  0.07536000  0.37379000  0.64251000  1.0
  H  H5  1  0.92464000  0.62621000  0.35749000  1.0
  H  H6  1  0.28751000  0.52420000  0.69185000  1.0
  H  H7  1  0.71249000  0.47579000  0.30816000  1.0
  H  H8  1  0.32200000  0.46336000  0.12675000  1.0
  H  H9  1  0.67800000  0.53664000  0.87325000  1.0
  H  H10  1  0.40286000  0.40851000  0.01706000  1.0
  H  H11  1  0.59714000  0.59149000  0.98294000  1.0
  H  H12  1  0.61475000  0.39968000  0.65348000  1.0
  H  H13  1  0.38525000  0.60032000  0.34652000  1.0
  H  H14  1  0.45257000  0.22703000  0.58023000  1.0
  H  H15  1  0.54743000  0.77297000  0.41977000  1.0
  H  H16  1  0.81061000  0.37835000  0.50600000  1.0
  H  H17  1  0.18939000  0.62165000  0.49400000  1.0
  H  H18  1  0.63888000  0.49159000  0.50411000  1.0
  H  H19  1  0.36112000  0.50842000  0.49589000  1.0
  H  H20  1  0.02359000  0.84781000  0.51174000  1.0
  H  H21  1  0.97640000  0.15219000  0.48826000  1.0
  H  H22  1  0.13817000  0.81362000  0.60065000  1.0
  H  H23  1  0.86183000  0.18638000  0.39935000  1.0
  H  H24  1  0.77389000  0.15922000  0.91089000  1.0
  H  H25  1  0.22611000  0.84078000  0.08911000  1.0
  H  H26  1  0.62935000  0.19465000  0.98471000  1.0
  H  H27  1  0.37065000  0.80535000  0.01529000  1.0
  H  H28  1  0.97326000  0.39661000  0.80657000  1.0
  H  H29  1  0.02674000  0.60338000  0.19343000  1.0
  H  H30  1  0.18953000  0.54472000  0.85405000  1.0
  H  H31  1  0.81047000  0.45528000  0.14595000  1.0
  H  H32  1  0.04040000  0.20382000  0.07098000  1.0
  H  H33  1  0.95960000  0.79618000  0.92902000  1.0
  H  H34  1  0.05766000  0.37515000  0.00357000  1.0
  H  H35  1  0.94234000  0.62485000  0.99643000  1.0
  C  C36  1  0.17561000  0.42186000  0.70724000  1.0
  C  C37  1  0.82439000  0.57814000  0.29276000  1.0
  C  C38  1  0.25530000  0.27809000  0.73673000  1.0
  C  C39  1  0.74469000  0.72190000  0.26327000  1.0
  C  C40  1  0.11319000  0.14722000  0.93132000  1.0
  C  C41  1  0.88681000  0.85278000  0.06868000  1.0
  C  C42  1  0.31972000  0.35557000  0.07035000  1.0
  C  C43  1  0.68028000  0.64443000  0.92965000  1.0
  C  C44  1  0.41208000  0.23513000  0.11790000  1.0
  C  C45  1  0.58792000  0.76486000  0.88210000  1.0
  C  C46  1  0.69899000  0.17038000  0.63294000  1.0
  C  C47  1  0.30101000  0.82963000  0.36706000  1.0
  C  C48  1  0.59872000  0.29316000  0.59423000  1.0
  C  C49  1  0.40128000  0.70684000  0.40577000  1.0
  C  C50  1  0.66361000  0.36240000  0.50429000  1.0
  C  C51  1  0.33639000  0.63760000  0.49571000  1.0
  C  C52  1  0.55912000  0.24690000  0.41332000  1.0
  C  C53  1  0.44088000  0.75310000  0.58668000  1.0
  C  C54  1  0.01288000  0.64441000  0.76186000  1.0
  C  C55  1  0.98712000  0.35558000  0.23814000  1.0
  C  C56  1  0.08651000  0.49683000  0.79031000  1.0
  C  C57  1  0.91349000  0.50317000  0.20969000  1.0
  C  C58  1  0.12390000  0.27372000  0.02221000  1.0
  C  C59  1  0.87610000  0.72628000  0.97779000  1.0
  O  O60  1  0.85034000  0.61768000  0.72267000  1.0
  O  O61  1  0.14966000  0.38232000  0.27733000  1.0
  O  O62  1  0.16842000  0.11747000  0.70840000  1.0
  O  O63  1  0.83158000  0.88252000  0.29160000  1.0
  O  O64  1  0.40669000  0.31374000  0.78960000  1.0
  O  O65  1  0.59332000  0.68625000  0.21039000  1.0
  O  O66  1  0.96675000  0.10732000  0.87113000  1.0
  O  O67  1  0.03325000  0.89268000  0.12887000  1.0
  O  O68  1  0.25068000  0.08773000  0.92079000  1.0
  O  O69  1  0.74932000  0.91227000  0.07921000  1.0
  O  O70  1  0.34522000  0.15958000  0.18586000  1.0
  O  O71  1  0.65478000  0.84041000  0.81414000  1.0
  O  O72  1  0.56202000  0.20917000  0.09477000  1.0
  O  O73  1  0.43798000  0.79082000  0.90523000  1.0
  O  O74  1  0.66107000  0.11616000  0.71262000  1.0
  O  O75  1  0.33892000  0.88384000  0.28738000  1.0
  O  O76  1  0.82194000  0.12027000  0.59166000  1.0
  O  O77  1  0.17807000  0.87974000  0.40834000  1.0
  O  O78  1  0.64715000  0.17188000  0.35598000  1.0
  O  O79  1  0.35285000  0.82812000  0.64402000  1.0
  O  O80  1  0.38908000  0.23054000  0.39908000  1.0
  O  O81  1  0.61092000  0.76946000  0.60092000  1.0
  O  O82  1  0.00958000  0.81208000  0.57496000  1.0
  O  O83  1  0.99041000  0.18792000  0.42504000  1.0
  O  O84  1  0.65141000  0.17979000  0.91632000  1.0
  O  O85  1  0.34859000  0.82021000  0.08368000  1.0
  O  O86  1  0.11605000  0.80057000  0.77705000  1.0
  O  O87  1  0.88395000  0.19943000  0.22295000  1.0
