# generated using pymatgen
data_AgH10C19SN2O4F3
_symmetry_space_group_name_H-M   'P 1'
_cell_length_a   8.93633000
_cell_length_b   10.34450000
_cell_length_c   10.79720000
_cell_angle_alpha   102.71000000
_cell_angle_beta   109.32100000
_cell_angle_gamma   99.48520000
_symmetry_Int_Tables_number   1
_chemical_formula_structural   AgH10C19SN2O4F3
_chemical_formula_sum   'Ag2 H20 C38 S2 N4 O8 F6'
_cell_volume   887.69004685
_cell_formula_units_Z   2
loop_
 _symmetry_equiv_pos_site_id
 _symmetry_equiv_pos_as_xyz
  1  'x, y, z'
loop_
 _atom_site_type_symbol
 _atom_site_label
 _atom_site_symmetry_multiplicity
 _atom_site_fract_x
 _atom_site_fract_y
 _atom_site_fract_z
 _atom_site_occupancy
  Ag  Ag0  1  0.65425000  0.57523000  0.96287000  1.0
  Ag  Ag1  1  0.34575000  0.42476000  0.03713000  1.0
  H  H2  1  0.74665000  0.44459000  0.73647000  1.0
  H  H3  1  0.25335000  0.55541000  0.26352000  1.0
  H  H4  1  0.89956000  0.45986000  0.58702000  1.0
  H  H5  1  0.10044000  0.54014000  0.41297000  1.0
  H  H6  1  0.75523000  0.37509000  0.33059000  1.0
  H  H7  1  0.24477000  0.62490000  0.66941000  1.0
  H  H8  1  0.30734000  0.13745000  0.96675000  1.0
  H  H9  1  0.69265000  0.86254000  0.03325000  1.0
  H  H10  1  0.29526000  0.26437000  0.37774000  1.0
  H  H11  1  0.70474000  0.73563000  0.62226000  1.0
  H  H12  1  0.96853000  0.15298000  0.44061000  1.0
  H  H13  1  0.03147000  0.84702000  0.55939000  1.0
  H  H14  1  0.46581000  0.86925000  0.13752000  1.0
  H  H15  1  0.53419000  0.13075000  0.86248000  1.0
  H  H16  1  0.60111000  0.96756000  0.57012000  1.0
  H  H17  1  0.39890000  0.03245000  0.42988000  1.0
  H  H18  1  0.78383000  0.08140000  0.81261000  1.0
  H  H19  1  0.21617000  0.91860000  0.18739000  1.0
  H  H20  1  0.05742000  0.23271000  0.87293000  1.0
  H  H21  1  0.94258000  0.76729000  0.12708000  1.0
  C  C22  1  0.68084000  0.40915000  0.62542000  1.0
  C  C23  1  0.31916000  0.59085000  0.37457000  1.0
  C  C24  1  0.76731000  0.41646000  0.53970000  1.0
  C  C25  1  0.23269000  0.58354000  0.46030000  1.0
  C  C26  1  0.68730000  0.36835000  0.39732000  1.0
  C  C27  1  0.31270000  0.63165000  0.60268000  1.0
  C  C28  1  0.51616000  0.31023000  0.33824000  1.0
  C  C29  1  0.48384000  0.68977000  0.66176000  1.0
  C  C30  1  0.43298000  0.25510000  0.19369000  1.0
  C  C31  1  0.56701000  0.74490000  0.80630000  1.0
  C  C32  1  0.36235000  0.20759000  0.06870000  1.0
  C  C33  1  0.63764000  0.79241000  0.93130000  1.0
  C  C34  1  0.42760000  0.30583000  0.42381000  1.0
  C  C35  1  0.57240000  0.69417000  0.57619000  1.0
  C  C36  1  0.50949000  0.35544000  0.56701000  1.0
  C  C37  1  0.49051000  0.64456000  0.43298000  1.0
  C  C38  1  0.41392000  0.34884000  0.65204000  1.0
  C  C39  1  0.58608000  0.65116000  0.34796000  1.0
  C  C40  1  0.19764000  0.28009000  0.69384000  1.0
  C  C41  1  0.80236000  0.71991000  0.30616000  1.0
  C  C42  1  0.03259000  0.20057000  0.66055000  1.0
  C  C43  1  0.96741000  0.79944000  0.33945000  1.0
  C  C44  1  0.92827000  0.13799000  0.52219000  1.0
  C  C45  1  0.07173000  0.86201000  0.47781000  1.0
  C  C46  1  0.77102000  0.05519000  0.48854000  1.0
  C  C47  1  0.22898000  0.94481000  0.51146000  1.0
  C  C48  1  0.66058000  0.98999000  0.34996000  1.0
  C  C49  1  0.33942000  0.01002000  0.65004000  1.0
  C  C50  1  0.55842000  0.92846000  0.23586000  1.0
  C  C51  1  0.44158000  0.07155000  0.76415000  1.0
  C  C52  1  0.72139000  0.03402000  0.59514000  1.0
  C  C53  1  0.27861000  0.96598000  0.40486000  1.0
  C  C54  1  0.82476000  0.09737000  0.73170000  1.0
  C  C55  1  0.17524000  0.90263000  0.26830000  1.0
  C  C56  1  0.97957000  0.18150000  0.76554000  1.0
  C  C57  1  0.02043000  0.81850000  0.23446000  1.0
  C  C58  1  0.89956000  0.19650000  0.13601000  1.0
  C  C59  1  0.10044000  0.80349000  0.86399000  1.0
  S  S60  1  0.91104000  0.35873000  0.08631000  1.0
  S  S61  1  0.08896000  0.64127000  0.91369000  1.0
  N  N62  1  0.45244000  0.40102000  0.78457000  1.0
  N  N63  1  0.54756000  0.59898000  0.21543000  1.0
  N  N64  1  0.31388000  0.35672000  0.81133000  1.0
  N  N65  1  0.68613000  0.64328000  0.18866000  1.0
  O  O66  1  0.25380000  0.27400000  0.59001000  1.0
  O  O67  1  0.74620000  0.72600000  0.40999000  1.0
  O  O68  1  0.76604000  0.32321000  0.95984000  1.0
  O  O69  1  0.23396000  0.67678000  0.04016000  1.0
  O  O70  1  0.06855000  0.38151000  0.07031000  1.0
  O  O71  1  0.93145000  0.61849000  0.92969000  1.0
  O  O72  1  0.90534000  0.45531000  0.20412000  1.0
  O  O73  1  0.09465000  0.54469000  0.79588000  1.0
  F  F74  1  0.01431000  0.21800000  0.26428000  1.0
  F  F75  1  0.98569000  0.78200000  0.73572000  1.0
  F  F76  1  0.92675000  0.09561000  0.04832000  1.0
  F  F77  1  0.07325000  0.90438000  0.95168000  1.0
  F  F78  1  0.74970000  0.14833000  0.13833000  1.0
  F  F79  1  0.25030000  0.85167000  0.86167000  1.0
