# generated using pymatgen
data_ZnH9C13NO5
_symmetry_space_group_name_H-M   'P 1'
_cell_length_a   9.62932000
_cell_length_b   10.19360000
_cell_length_c   13.55330000
_cell_angle_alpha   109.48800000
_cell_angle_beta   90.00000000
_cell_angle_gamma   90.00000000
_symmetry_Int_Tables_number   1
_chemical_formula_structural   ZnH9C13NO5
_chemical_formula_sum   'Zn4 H36 C52 N4 O20'
_cell_volume   1254.14285871
_cell_formula_units_Z   4
loop_
 _symmetry_equiv_pos_site_id
 _symmetry_equiv_pos_as_xyz
  1  'x, y, z'
loop_
 _atom_site_type_symbol
 _atom_site_label
 _atom_site_symmetry_multiplicity
 _atom_site_fract_x
 _atom_site_fract_y
 _atom_site_fract_z
 _atom_site_occupancy
  Zn  Zn0  1  0.59775000  0.97271000  0.61299000  1.0
  Zn  Zn1  1  0.09775000  0.02729000  0.88700000  1.0
  Zn  Zn2  1  0.40225000  0.02729000  0.38701000  1.0
  Zn  Zn3  1  0.90225000  0.97271000  0.11299000  1.0
  H  H4  1  0.15211000  0.94668000  0.59228000  1.0
  H  H5  1  0.65211000  0.05332000  0.90772000  1.0
  H  H6  1  0.84789000  0.05332000  0.40772000  1.0
  H  H7  1  0.34789000  0.94668000  0.09228000  1.0
  H  H8  1  0.84283000  0.65691000  0.42289000  1.0
  H  H9  1  0.34283000  0.34309000  0.07711000  1.0
  H  H10  1  0.15717000  0.34309000  0.57711000  1.0
  H  H11  1  0.65717000  0.65691000  0.92289000  1.0
  H  H12  1  0.27514000  0.53334000  0.40841000  1.0
  H  H13  1  0.77514000  0.46666000  0.09159000  1.0
  H  H14  1  0.72486000  0.46666000  0.59159000  1.0
  H  H15  1  0.22486000  0.53334000  0.90841000  1.0
  H  H16  1  0.79450000  0.45202000  0.36582000  1.0
  H  H17  1  0.29450000  0.54798000  0.13419000  1.0
  H  H18  1  0.20550000  0.54798000  0.63419000  1.0
  H  H19  1  0.70550000  0.45202000  0.86581000  1.0
  H  H20  1  0.74136000  0.21616000  0.24609000  1.0
  H  H21  1  0.24137000  0.78384000  0.25391000  1.0
  H  H22  1  0.25864000  0.78384000  0.75391000  1.0
  H  H23  1  0.75864000  0.21616000  0.74609000  1.0
  H  H24  1  0.15320000  0.14159000  0.15481000  1.0
  H  H25  1  0.65321000  0.85841000  0.34519000  1.0
  H  H26  1  0.84680000  0.85842000  0.84519000  1.0
  H  H27  1  0.34680000  0.14159000  0.65482000  1.0
  H  H28  1  0.22475000  0.37577000  0.26723000  1.0
  H  H29  1  0.72475000  0.62423000  0.23276000  1.0
  H  H30  1  0.77525000  0.62423000  0.73276000  1.0
  H  H31  1  0.27525000  0.37577000  0.76724000  1.0
  H  H32  1  0.54269000  0.78420000  0.67252000  1.0
  H  H33  1  0.04270000  0.21580000  0.82748000  1.0
  H  H34  1  0.45730000  0.21580000  0.32748000  1.0
  H  H35  1  0.95731000  0.78421000  0.17252000  1.0
  H  H36  1  0.52351000  0.91436000  0.77731000  1.0
  H  H37  1  0.02351000  0.08564000  0.72268000  1.0
  H  H38  1  0.47649000  0.08564000  0.22268000  1.0
  H  H39  1  0.97650000  0.91437000  0.27732000  1.0
  C  C40  1  0.37289000  0.77836000  0.54004000  1.0
  C  C41  1  0.87289000  0.22164000  0.95996000  1.0
  C  C42  1  0.62711000  0.22164000  0.45996000  1.0
  C  C43  1  0.12711000  0.77836000  0.04004000  1.0
  C  C44  1  0.87035000  0.90716000  0.56584000  1.0
  C  C45  1  0.37035000  0.09284000  0.93415000  1.0
  C  C46  1  0.12966000  0.09285000  0.43416000  1.0
  C  C47  1  0.62965000  0.90716000  0.06585000  1.0
  C  C48  1  0.22756000  0.74408000  0.49970000  1.0
  C  C49  1  0.72756000  0.25592000  0.00030000  1.0
  C  C50  1  0.77244000  0.25592000  0.50030000  1.0
  C  C51  1  0.27244000  0.74407000  0.99970000  1.0
  C  C52  1  0.12402000  0.84388000  0.53927000  1.0
  C  C53  1  0.62402000  0.15612000  0.96073000  1.0
  C  C54  1  0.87598000  0.15612000  0.46073000  1.0
  C  C55  1  0.37598000  0.84387000  0.03927000  1.0
  C  C56  1  0.98514000  0.80939000  0.51390000  1.0
  C  C57  1  0.48514000  0.19061000  0.98610000  1.0
  C  C58  1  0.01487000  0.19061000  0.48610000  1.0
  C  C59  1  0.51486000  0.80939000  0.01390000  1.0
  C  C60  1  0.95187000  0.67841000  0.44299000  1.0
  C  C61  1  0.45187000  0.32159000  0.05701000  1.0
  C  C62  1  0.04813000  0.32160000  0.55702000  1.0
  C  C63  1  0.54813000  0.67840000  0.94299000  1.0
  C  C64  1  0.05465000  0.57760000  0.40087000  1.0
  C  C65  1  0.55465000  0.42240000  0.09913000  1.0
  C  C66  1  0.94535000  0.42240000  0.59913000  1.0
  C  C67  1  0.44535000  0.57760000  0.90087000  1.0
  C  C68  1  0.19295000  0.61105000  0.43287000  1.0
  C  C69  1  0.69295000  0.38895000  0.06712000  1.0
  C  C70  1  0.80705000  0.38895000  0.56713000  1.0
  C  C71  1  0.30705000  0.61104000  0.93288000  1.0
  C  C72  1  0.01639000  0.43838000  0.32849000  1.0
  C  C73  1  0.51639000  0.56162000  0.17151000  1.0
  C  C74  1  0.98361000  0.56162000  0.67151000  1.0
  C  C75  1  0.48361000  0.43838000  0.82850000  1.0
  C  C76  1  0.87852000  0.39011000  0.31940000  1.0
  C  C77  1  0.37852000  0.60989000  0.18060000  1.0
  C  C78  1  0.12148000  0.60989000  0.68060000  1.0
  C  C79  1  0.62148000  0.39011000  0.81940000  1.0
  C  C80  1  0.84689000  0.25705000  0.25373000  1.0
  C  C81  1  0.34689000  0.74295000  0.24627000  1.0
  C  C82  1  0.15311000  0.74295000  0.74627000  1.0
  C  C83  1  0.65311000  0.25705000  0.75373000  1.0
  C  C84  1  0.07747000  0.21440000  0.20292000  1.0
  C  C85  1  0.57747000  0.78560000  0.29708000  1.0
  C  C86  1  0.92253000  0.78560000  0.79708000  1.0
  C  C87  1  0.42253000  0.21440000  0.70292000  1.0
  C  C88  1  0.11600000  0.34647000  0.26647000  1.0
  C  C89  1  0.61600000  0.65352000  0.23353000  1.0
  C  C90  1  0.88399000  0.65353000  0.73353000  1.0
  C  C91  1  0.38400000  0.34647000  0.76647000  1.0
  N  N92  1  0.94475000  0.16954000  0.19702000  1.0
  N  N93  1  0.44475000  0.83046000  0.30298000  1.0
  N  N94  1  0.05525000  0.83046000  0.80298000  1.0
  N  N95  1  0.55525000  0.16954000  0.69702000  1.0
  O  O96  1  0.43624000  0.69330000  0.57293000  1.0
  O  O97  1  0.93624000  0.30670000  0.92707000  1.0
  O  O98  1  0.56376000  0.30670000  0.42707000  1.0
  O  O99  1  0.06376000  0.69330000  0.07293000  1.0
  O  O100  1  0.41826000  0.89881000  0.54212000  1.0
  O  O101  1  0.91826000  0.10120000  0.95788000  1.0
  O  O102  1  0.58175000  0.10119000  0.45787000  1.0
  O  O103  1  0.08174000  0.89880000  0.04212000  1.0
  O  O104  1  0.89212000  0.01228000  0.64557000  1.0
  O  O105  1  0.39212000  0.98772000  0.85443000  1.0
  O  O106  1  0.10788000  0.98773000  0.35443000  1.0
  O  O107  1  0.60788000  0.01228000  0.14557000  1.0
  O  O108  1  0.74891000  0.87301000  0.52497000  1.0
  O  O109  1  0.24891000  0.12699000  0.97502000  1.0
  O  O110  1  0.25109000  0.12699000  0.47503000  1.0
  O  O111  1  0.75109000  0.87302000  0.02498000  1.0
  O  O112  1  0.59321000  0.86644000  0.72167000  1.0
  O  O113  1  0.09321000  0.13356000  0.77832000  1.0
  O  O114  1  0.40679000  0.13356000  0.27833000  1.0
  O  O115  1  0.90679000  0.86644000  0.22168000  1.0
