# generated using pymatgen
data_HoH6C7SO8
_symmetry_space_group_name_H-M   'P 1'
_cell_length_a   5.85970000
_cell_length_b   10.15390000
_cell_length_c   18.64860000
_cell_angle_alpha   81.00070000
_cell_angle_beta   80.97930000
_cell_angle_gamma   73.23620000
_symmetry_Int_Tables_number   1
_chemical_formula_structural   HoH6C7SO8
_chemical_formula_sum   'Ho4 H24 C28 S4 O32'
_cell_volume   1041.99513098
_cell_formula_units_Z   4
loop_
 _symmetry_equiv_pos_site_id
 _symmetry_equiv_pos_as_xyz
  1  'x, y, z'
loop_
 _atom_site_type_symbol
 _atom_site_label
 _atom_site_symmetry_multiplicity
 _atom_site_fract_x
 _atom_site_fract_y
 _atom_site_fract_z
 _atom_site_occupancy
  Ho  Ho0  1  0.95057000  0.19662000  0.52910000  1.0
  Ho  Ho1  1  0.67623000  0.30339000  0.97090000  1.0
  Ho  Ho2  1  0.04943000  0.80337000  0.47090000  1.0
  Ho  Ho3  1  0.32377000  0.69662000  0.02910000  1.0
  H  H4  1  0.59098000  0.24695000  0.65750000  1.0
  H  H5  1  0.49521000  0.25302000  0.84248000  1.0
  H  H6  1  0.40902000  0.75303000  0.34250000  1.0
  H  H7  1  0.50478000  0.74700000  0.15752000  1.0
  H  H8  1  0.43983000  0.31586000  0.58981000  1.0
  H  H9  1  0.34525000  0.18427000  0.91019000  1.0
  H  H10  1  0.56017000  0.68413000  0.41019000  1.0
  H  H11  1  0.65475000  0.81575000  0.08981000  1.0
  H  H12  1  0.48319000  0.25154000  0.47302000  1.0
  H  H13  1  0.20776000  0.24845000  0.02696000  1.0
  H  H14  1  0.51682000  0.74845000  0.52698000  1.0
  H  H15  1  0.79225000  0.75156000  0.97305000  1.0
  H  H16  1  0.64236000  0.10636000  0.45101000  1.0
  H  H17  1  0.19985000  0.39359000  0.04902000  1.0
  H  H18  1  0.35764000  0.89362000  0.54899000  1.0
  H  H19  1  0.80015000  0.60643000  0.95098000  1.0
  H  H20  1  0.92793000  0.80736000  0.75129000  1.0
  H  H21  1  0.48640000  0.69266000  0.74880000  1.0
  H  H22  1  0.07210000  0.19263000  0.24871000  1.0
  H  H23  1  0.51358000  0.30736000  0.25119000  1.0
  H  H24  1  0.60789000  0.88619000  0.86415000  1.0
  H  H25  1  0.35804000  0.61359000  0.63597000  1.0
  H  H26  1  0.39212000  0.11381000  0.13585000  1.0
  H  H27  1  0.64190000  0.38644000  0.36402000  1.0
  C  C28  1  0.78307000  0.89034000  0.60743000  1.0
  C  C29  1  0.28069000  0.60971000  0.89270000  1.0
  C  C30  1  0.21694000  0.10963000  0.39257000  1.0
  C  C31  1  0.71931000  0.39030000  0.10730000  1.0
  C  C32  1  0.64729000  0.92370000  0.68012000  1.0
  C  C33  1  0.25108000  0.57624000  0.82002000  1.0
  C  C34  1  0.35273000  0.07628000  0.31988000  1.0
  C  C35  1  0.74893000  0.42378000  0.17998000  1.0
  C  C36  1  0.74532000  0.87164000  0.74711000  1.0
  C  C37  1  0.36399000  0.62829000  0.75304000  1.0
  C  C38  1  0.25470000  0.12835000  0.25289000  1.0
  C  C39  1  0.63601000  0.37172000  0.24696000  1.0
  C  C40  1  0.58272000  0.91335000  0.80673000  1.0
  C  C41  1  0.30269000  0.58654000  0.69341000  1.0
  C  C42  1  0.41729000  0.08664000  0.19327000  1.0
  C  C43  1  0.69729000  0.41348000  0.30659000  1.0
  C  C44  1  0.41094000  0.00462000  0.69067000  1.0
  C  C45  1  0.10634000  0.49522000  0.80946000  1.0
  C  C46  1  0.58909000  0.99536000  0.30933000  1.0
  C  C47  1  0.89365000  0.50480000  0.19054000  1.0
  C  C48  1  0.24833000  0.07164000  0.63578000  1.0
  C  C49  1  0.95559000  0.42839000  0.86429000  1.0
  C  C50  1  0.75171000  0.92833000  0.36422000  1.0
  C  C51  1  0.04440000  0.57162000  0.13571000  1.0
  C  C52  1  0.88336000  0.52081000  0.48171000  1.0
  C  C53  1  0.88590000  0.97918000  0.01828000  1.0
  C  C54  1  0.11662000  0.47919000  0.51828000  1.0
  C  C55  1  0.11409000  0.02083000  0.98171000  1.0
  S  S56  1  0.31264000  0.01431000  0.78249000  1.0
  S  S57  1  0.10937000  0.48555000  0.71763000  1.0
  S  S58  1  0.68738000  0.98568000  0.21751000  1.0
  S  S59  1  0.89059000  0.51448000  0.28237000  1.0
  O  O60  1  0.87704000  0.97865000  0.56587000  1.0
  O  O61  1  0.42127000  0.52150000  0.93435000  1.0
  O  O62  1  0.12297000  0.02132000  0.43413000  1.0
  O  O63  1  0.57873000  0.47852000  0.06565000  1.0
  O  O64  1  0.81148000  0.77196000  0.58813000  1.0
  O  O65  1  0.17128000  0.72813000  0.91191000  1.0
  O  O66  1  0.18850000  0.22802000  0.41187000  1.0
  O  O67  1  0.82871000  0.27188000  0.08809000  1.0
  O  O68  1  0.32006000  0.05125000  0.56795000  1.0
  O  O69  1  0.93898000  0.44884000  0.93212000  1.0
  O  O70  1  0.67996000  0.94873000  0.43205000  1.0
  O  O71  1  0.06101000  0.55116000  0.06788000  1.0
  O  O72  1  0.04044000  0.14967000  0.65344000  1.0
  O  O73  1  0.84322000  0.35047000  0.84659000  1.0
  O  O74  1  0.95958000  0.85030000  0.34656000  1.0
  O  O75  1  0.15676000  0.64955000  0.15341000  1.0
  O  O76  1  0.78409000  0.42821000  0.47873000  1.0
  O  O77  1  0.69110000  0.07176000  0.02124000  1.0
  O  O78  1  0.21590000  0.57177000  0.52127000  1.0
  O  O79  1  0.30889000  0.92823000  0.97875000  1.0
  O  O80  1  0.80983000  0.64893000  0.45711000  1.0
  O  O81  1  0.91585000  0.85104000  0.04287000  1.0
  O  O82  1  0.19018000  0.35107000  0.54289000  1.0
  O  O83  1  0.08414000  0.14897000  0.95713000  1.0
  O  O84  1  0.60230000  0.28787000  0.60679000  1.0
  O  O85  1  0.49680000  0.21213000  0.89319000  1.0
  O  O86  1  0.39771000  0.71213000  0.39321000  1.0
  O  O87  1  0.50319000  0.78789000  0.10681000  1.0
  O  O88  1  0.64968000  0.19953000  0.46033000  1.0
  O  O89  1  0.30962000  0.30043000  0.03967000  1.0
  O  O90  1  0.35033000  0.80045000  0.53967000  1.0
  O  O91  1  0.69038000  0.69958000  0.96033000  1.0
