# generated using pymatgen
data_Cu2H9C14N5
_symmetry_space_group_name_H-M   'P 1'
_cell_length_a   8.24404000
_cell_length_b   9.15429000
_cell_length_c   9.32004000
_cell_angle_alpha   99.30820000
_cell_angle_beta   97.07450000
_cell_angle_gamma   111.01100000
_symmetry_Int_Tables_number   1
_chemical_formula_structural   Cu2H9C14N5
_chemical_formula_sum   'Cu4 H18 C28 N10'
_cell_volume   635.30484565
_cell_formula_units_Z   2
loop_
 _symmetry_equiv_pos_site_id
 _symmetry_equiv_pos_as_xyz
  1  'x, y, z'
loop_
 _atom_site_type_symbol
 _atom_site_label
 _atom_site_symmetry_multiplicity
 _atom_site_fract_x
 _atom_site_fract_y
 _atom_site_fract_z
 _atom_site_occupancy
  Cu  Cu0  1  0.73780000  0.20735000  0.56007000  1.0
  Cu  Cu1  1  0.26219000  0.79265000  0.43992000  1.0
  Cu  Cu2  1  0.31868000  0.28145000  0.26349000  1.0
  Cu  Cu3  1  0.68132000  0.71855000  0.73652000  1.0
  H  H4  1  0.95361000  0.07462000  0.35932000  1.0
  H  H5  1  0.04639000  0.92538000  0.64068000  1.0
  H  H6  1  0.94837000  0.02148000  0.08853000  1.0
  H  H7  1  0.05163000  0.97852000  0.91147000  1.0
  H  H8  1  0.74559000  0.09484000  0.91898000  1.0
  H  H9  1  0.25441000  0.90516000  0.08103000  1.0
  H  H10  1  0.61016000  0.30865000  0.31221000  1.0
  H  H11  1  0.38984000  0.69135000  0.68779000  1.0
  H  H12  1  0.11278000  0.39075000  0.05004000  1.0
  H  H13  1  0.88722000  0.60925000  0.94997000  1.0
  H  H14  1  0.98582000  0.43256000  0.80864000  1.0
  H  H15  1  0.01417000  0.56743000  0.19136000  1.0
  H  H16  1  0.10509000  0.38319000  0.58328000  1.0
  H  H17  1  0.89491000  0.61681000  0.41672000  1.0
  H  H18  1  0.35406000  0.29115000  0.58751000  1.0
  H  H19  1  0.64594000  0.70886000  0.41249000  1.0
  H  H20  1  0.59530000  0.22742000  0.79947000  1.0
  H  H21  1  0.40470000  0.77258000  0.20053000  1.0
  C  C22  1  0.87306000  0.11309000  0.28438000  1.0
  C  C23  1  0.12694000  0.88691000  0.71562000  1.0
  C  C24  1  0.86823000  0.08313000  0.13242000  1.0
  C  C25  1  0.13177000  0.91687000  0.86758000  1.0
  C  C26  1  0.75551000  0.12527000  0.03875000  1.0
  C  C27  1  0.24449000  0.87473000  0.96125000  1.0
  C  C28  1  0.65384000  0.20355000  0.10150000  1.0
  C  C29  1  0.34616000  0.79646000  0.89850000  1.0
  C  C30  1  0.67644000  0.23859000  0.25671000  1.0
  C  C31  1  0.32356000  0.76141000  0.74329000  1.0
  C  C32  1  0.52564000  0.24657000  0.01492000  1.0
  C  C33  1  0.47436000  0.75344000  0.98507000  1.0
  C  C34  1  0.30656000  0.31983000  0.95318000  1.0
  C  C35  1  0.69345000  0.68017000  0.04682000  1.0
  C  C36  1  0.16427000  0.36948000  0.95003000  1.0
  C  C37  1  0.83573000  0.63051000  0.04997000  1.0
  C  C38  1  0.09486000  0.39182000  0.81562000  1.0
  C  C39  1  0.90513000  0.60818000  0.18438000  1.0
  C  C40  1  0.16235000  0.36309000  0.68649000  1.0
  C  C41  1  0.83765000  0.63691000  0.31351000  1.0
  C  C42  1  0.30288000  0.31258000  0.68748000  1.0
  C  C43  1  0.69713000  0.68742000  0.31252000  1.0
  C  C44  1  0.37447000  0.29250000  0.82332000  1.0
  C  C45  1  0.62553000  0.70750000  0.17668000  1.0
  C  C46  1  0.72247000  0.40717000  0.61880000  1.0
  C  C47  1  0.27752000  0.59281000  0.38120000  1.0
  C  C48  1  0.72157000  0.02423000  0.62914000  1.0
  C  C49  1  0.27842000  0.97575000  0.37084000  1.0
  N  N50  1  0.77806000  0.19044000  0.34557000  1.0
  N  N51  1  0.22194000  0.80956000  0.65442000  1.0
  N  N52  1  0.51199000  0.24640000  0.86657000  1.0
  N  N53  1  0.48802000  0.75360000  0.13343000  1.0
  N  N54  1  0.40162000  0.28892000  0.06966000  1.0
  N  N55  1  0.59838000  0.71109000  0.93034000  1.0
  N  N56  1  0.71560000  0.53332000  0.65806000  1.0
  N  N57  1  0.28439000  0.46668000  0.34194000  1.0
  N  N58  1  0.71557000  0.90903000  0.67308000  1.0
  N  N59  1  0.28444000  0.09097000  0.32692000  1.0
