# generated using pymatgen
data_Nd2H12C8SO14
_symmetry_space_group_name_H-M   'P 1'
_cell_length_a   9.48150000
_cell_length_b   12.73580000
_cell_length_c   12.95220000
_cell_angle_alpha   110.21600000
_cell_angle_beta   90.00000000
_cell_angle_gamma   90.00000000
_symmetry_Int_Tables_number   1
_chemical_formula_structural   Nd2H12C8SO14
_chemical_formula_sum   'Nd8 H48 C32 S4 O56'
_cell_volume   1467.68626185
_cell_formula_units_Z   4
loop_
 _symmetry_equiv_pos_site_id
 _symmetry_equiv_pos_as_xyz
  1  'x, y, z'
loop_
 _atom_site_type_symbol
 _atom_site_label
 _atom_site_symmetry_multiplicity
 _atom_site_fract_x
 _atom_site_fract_y
 _atom_site_fract_z
 _atom_site_occupancy
  Nd  Nd0  1  0.16149000  0.04184000  0.61559000  1.0
  Nd  Nd1  1  0.66149000  0.45816000  0.88441000  1.0
  Nd  Nd2  1  0.83851000  0.95816000  0.38441000  1.0
  Nd  Nd3  1  0.33851000  0.54184000  0.11559000  1.0
  Nd  Nd4  1  0.36497000  0.94751000  0.86820000  1.0
  Nd  Nd5  1  0.86497000  0.55249000  0.63180000  1.0
  Nd  Nd6  1  0.63503000  0.05249000  0.13180000  1.0
  Nd  Nd7  1  0.13503000  0.44751000  0.36820000  1.0
  H  H8  1  0.23758000  0.86035000  0.21552000  1.0
  H  H9  1  0.73758000  0.63965000  0.28448000  1.0
  H  H10  1  0.76242000  0.13965000  0.78448000  1.0
  H  H11  1  0.26242000  0.36035000  0.71552000  1.0
  H  H12  1  0.38304000  0.95125000  0.25860000  1.0
  H  H13  1  0.88304000  0.54875000  0.24140000  1.0
  H  H14  1  0.61696000  0.04875000  0.74140000  1.0
  H  H15  1  0.11696000  0.45125000  0.75860000  1.0
  H  H16  1  0.08610000  0.01798000  0.20283000  1.0
  H  H17  1  0.58610000  0.48202000  0.29717000  1.0
  H  H18  1  0.91390000  0.98202000  0.79717000  1.0
  H  H19  1  0.41390000  0.51798000  0.70283000  1.0
  H  H20  1  0.22670000  0.11343000  0.25416000  1.0
  H  H21  1  0.72670000  0.38657000  0.24584000  1.0
  H  H22  1  0.77330000  0.88657000  0.74584000  1.0
  H  H23  1  0.27330000  0.61343000  0.75416000  1.0
  H  H24  1  0.19844000  0.20168000  0.00869000  1.0
  H  H25  1  0.69844000  0.29832000  0.49131000  1.0
  H  H26  1  0.80156000  0.79832000  0.99131000  1.0
  H  H27  1  0.30156000  0.70168000  0.50869000  1.0
  H  H28  1  0.03863000  0.13023000  0.00894000  1.0
  H  H29  1  0.53863000  0.36977000  0.49106000  1.0
  H  H30  1  0.96137000  0.86977000  0.99106000  1.0
  H  H31  1  0.46137000  0.63023000  0.50894000  1.0
  H  H32  1  0.89674000  0.28882000  0.00611000  1.0
  H  H33  1  0.39674000  0.21117000  0.49389000  1.0
  H  H34  1  0.10326000  0.71117000  0.99389000  1.0
  H  H35  1  0.60326000  0.78883000  0.50611000  1.0
  H  H36  1  0.04448000  0.35605000  0.96980000  1.0
  H  H37  1  0.54448000  0.14395000  0.53020000  1.0
  H  H38  1  0.95552000  0.64395000  0.03020000  1.0
  H  H39  1  0.45552000  0.85605000  0.46980000  1.0
  H  H40  1  0.41992000  0.22227000  0.69695000  1.0
  H  H41  1  0.91992000  0.27773000  0.80305000  1.0
  H  H42  1  0.58008000  0.77773000  0.30305000  1.0
  H  H43  1  0.08008000  0.72227000  0.19695000  1.0
  H  H44  1  0.37414000  0.17350000  0.78745000  1.0
  H  H45  1  0.87414000  0.32650000  0.71255000  1.0
  H  H46  1  0.62586000  0.82650000  0.21255000  1.0
  H  H47  1  0.12586000  0.67350000  0.28745000  1.0
  H  H48  1  0.12950000  0.76082000  0.78218000  1.0
  H  H49  1  0.62950000  0.73918000  0.71782000  1.0
  H  H50  1  0.87050000  0.23918000  0.21782000  1.0
  H  H51  1  0.37050000  0.26082000  0.28218000  1.0
  H  H52  1  0.16127000  0.81168000  0.68879000  1.0
  H  H53  1  0.66127000  0.68832000  0.81121000  1.0
  H  H54  1  0.83873000  0.18832000  0.31121000  1.0
  H  H55  1  0.33873000  0.31168000  0.18879000  1.0
  C  C56  1  0.26774000  0.94750000  0.26034000  1.0
  C  C57  1  0.76774000  0.55250000  0.23966000  1.0
  C  C58  1  0.73226000  0.05250000  0.73966000  1.0
  C  C59  1  0.23226000  0.44750000  0.76034000  1.0
  C  C60  1  0.09920000  0.13885000  0.85589000  1.0
  C  C61  1  0.59919000  0.36115000  0.64411000  1.0
  C  C62  1  0.90080000  0.86115000  0.14411000  1.0
  C  C63  1  0.40081000  0.63885000  0.35589000  1.0
  C  C64  1  0.25673000  0.00062000  0.09138000  1.0
  C  C65  1  0.75673000  0.49938000  0.40862000  1.0
  C  C66  1  0.74327000  0.99938000  0.90862000  1.0
  C  C67  1  0.24327000  0.50062000  0.59138000  1.0
  C  C68  1  0.04382000  0.36174000  0.13508000  1.0
  C  C69  1  0.54382000  0.13826000  0.36492000  1.0
  C  C70  1  0.95618000  0.63826000  0.86492000  1.0
  C  C71  1  0.45618000  0.86174000  0.63508000  1.0
  C  C72  1  0.20106000  0.02607000  0.20649000  1.0
  C  C73  1  0.70106000  0.47394000  0.29351000  1.0
  C  C74  1  0.79894000  0.97394000  0.79351000  1.0
  C  C75  1  0.29894000  0.52606000  0.70649000  1.0
  C  C76  1  0.08928000  0.19120000  0.97814000  1.0
  C  C77  1  0.58928000  0.30880000  0.52186000  1.0
  C  C78  1  0.91072000  0.80880000  0.02186000  1.0
  C  C79  1  0.41072000  0.69120000  0.47814000  1.0
  C  C80  1  0.01094000  0.30299000  0.01610000  1.0
  C  C81  1  0.51094000  0.19701000  0.48389000  1.0
  C  C82  1  0.98906000  0.69701000  0.98390000  1.0
  C  C83  1  0.48906000  0.80299000  0.51611000  1.0
  C  C84  1  0.22340000  0.97516000  0.37848000  1.0
  C  C85  1  0.72340000  0.52484000  0.12152000  1.0
  C  C86  1  0.77660000  0.02484000  0.62152000  1.0
  C  C87  1  0.27660000  0.47516000  0.87848000  1.0
  S  S88  1  0.50264000  0.25068000  0.99744000  1.0
  S  S89  1  0.00264000  0.24932000  0.50256000  1.0
  S  S90  1  0.49736000  0.74932000  0.00255000  1.0
  S  S91  1  0.99736000  0.75068000  0.49745000  1.0
  O  O92  1  0.60236000  0.29786000  0.93708000  1.0
  O  O93  1  0.10236000  0.20214000  0.56292000  1.0
  O  O94  1  0.39764000  0.70214000  0.06292000  1.0
  O  O95  1  0.89764000  0.79786000  0.43708000  1.0
  O  O96  1  0.39661000  0.33673000  0.06030000  1.0
  O  O97  1  0.89661000  0.16327000  0.43970000  1.0
  O  O98  1  0.60339000  0.66327000  0.93970000  1.0
  O  O99  1  0.10339000  0.83673000  0.56030000  1.0
  O  O100  1  0.13396000  0.44186000  0.16574000  1.0
  O  O101  1  0.63396000  0.05814000  0.33426000  1.0
  O  O102  1  0.86604000  0.55814000  0.83425000  1.0
  O  O103  1  0.36604000  0.94186000  0.66574000  1.0
  O  O104  1  0.16711000  0.04569000  0.81436000  1.0
  O  O105  1  0.66711000  0.45431000  0.68564000  1.0
  O  O106  1  0.83289000  0.95431000  0.18564000  1.0
  O  O107  1  0.33289000  0.54569000  0.31436000  1.0
  O  O108  1  0.98790000  0.32937000  0.20857000  1.0
  O  O109  1  0.48790000  0.17063000  0.29143000  1.0
  O  O110  1  0.01210000  0.67063000  0.79143000  1.0
  O  O111  1  0.51210000  0.82937000  0.70857000  1.0
  O  O112  1  0.04533000  0.18283000  0.79109000  1.0
  O  O113  1  0.54533000  0.31717000  0.70891000  1.0
  O  O114  1  0.95467000  0.81717000  0.20891000  1.0
  O  O115  1  0.45468000  0.68283000  0.29109000  1.0
  O  O116  1  0.42496000  0.15526000  0.91549000  1.0
  O  O117  1  0.92496000  0.34474000  0.58451000  1.0
  O  O118  1  0.57504000  0.84474000  0.08451000  1.0
  O  O119  1  0.07504000  0.65526000  0.41549000  1.0
  O  O120  1  0.17960000  0.95513000  0.00814000  1.0
  O  O121  1  0.67960000  0.54487000  0.49186000  1.0
  O  O122  1  0.82040000  0.04487000  0.99186000  1.0
  O  O123  1  0.32040000  0.45513000  0.50814000  1.0
  O  O124  1  0.58033000  0.21203000  0.07663000  1.0
  O  O125  1  0.08033000  0.28797000  0.42337000  1.0
  O  O126  1  0.41967000  0.78798000  0.92337000  1.0
  O  O127  1  0.91967000  0.71202000  0.57663000  1.0
  O  O128  1  0.09206000  0.97507000  0.40409000  1.0
  O  O129  1  0.59206000  0.52493000  0.09591000  1.0
  O  O130  1  0.90794000  0.02492000  0.59591000  1.0
  O  O131  1  0.40794000  0.47507000  0.90410000  1.0
  O  O132  1  0.31636000  0.99873000  0.45356000  1.0
  O  O133  1  0.81635000  0.50127000  0.04644000  1.0
  O  O134  1  0.68365000  0.00127000  0.54644000  1.0
  O  O135  1  0.18365000  0.49873000  0.95356000  1.0
  O  O136  1  0.34419000  0.17764000  0.71584000  1.0
  O  O137  1  0.84419000  0.32237000  0.78416000  1.0
  O  O138  1  0.65581000  0.82237000  0.28416000  1.0
  O  O139  1  0.15581000  0.67763000  0.21584000  1.0
  O  O140  1  0.38597000  0.02584000  0.07723000  1.0
  O  O141  1  0.88597000  0.47416000  0.42277000  1.0
  O  O142  1  0.61403000  0.97416000  0.92277000  1.0
  O  O143  1  0.11403000  0.52584000  0.57723000  1.0
  O  O144  1  0.20022000  0.80475000  0.75665000  1.0
  O  O145  1  0.70022000  0.69525000  0.74335000  1.0
  O  O146  1  0.79978000  0.19525000  0.24335000  1.0
  O  O147  1  0.29978000  0.30475000  0.25665000  1.0
