# generated using pymatgen
data_ZnH12(C8O3)2
_symmetry_space_group_name_H-M   'P 1'
_cell_length_a   7.58226000
_cell_length_b   8.13798000
_cell_length_c   12.59860000
_cell_angle_alpha   108.79800000
_cell_angle_beta   97.02700000
_cell_angle_gamma   90.05440000
_symmetry_Int_Tables_number   1
_chemical_formula_structural   ZnH12(C8O3)2
_chemical_formula_sum   'Zn2 H24 C32 O12'
_cell_volume   729.71974006
_cell_formula_units_Z   2
loop_
 _symmetry_equiv_pos_site_id
 _symmetry_equiv_pos_as_xyz
  1  'x, y, z'
loop_
 _atom_site_type_symbol
 _atom_site_label
 _atom_site_symmetry_multiplicity
 _atom_site_fract_x
 _atom_site_fract_y
 _atom_site_fract_z
 _atom_site_occupancy
  Zn  Zn0  1  0.75000000  0.94921000  0.00003000  1.0
  Zn  Zn1  1  0.25000000  0.05078000  0.99997000  1.0
  H  H2  1  0.35547000  0.03264000  0.33081000  1.0
  H  H3  1  0.14447000  0.70200000  0.66916000  1.0
  H  H4  1  0.64454000  0.96736000  0.66919000  1.0
  H  H5  1  0.85552000  0.29800000  0.33084000  1.0
  H  H6  1  0.94681000  0.79308000  0.38049000  1.0
  H  H7  1  0.55301000  0.41208000  0.61961000  1.0
  H  H8  1  0.05319000  0.20693000  0.61951000  1.0
  H  H9  1  0.44699000  0.58792000  0.38039000  1.0
  H  H10  1  0.78278000  0.89104000  0.54059000  1.0
  H  H11  1  0.71719000  0.35009000  0.45959000  1.0
  H  H12  1  0.21722000  0.10895000  0.45941000  1.0
  H  H13  1  0.28280000  0.64991000  0.54042000  1.0
  H  H14  1  0.04720000  0.68867000  0.09845000  1.0
  H  H15  1  0.45197000  0.59032000  0.90149000  1.0
  H  H16  1  0.95279000  0.31132000  0.90155000  1.0
  H  H17  1  0.54804000  0.40967000  0.09852000  1.0
  H  H18  1  0.09827000  0.83047000  0.24103000  1.0
  H  H19  1  0.40131000  0.58959000  0.75882000  1.0
  H  H20  1  0.90174000  0.16952000  0.75897000  1.0
  H  H21  1  0.59869000  0.41041000  0.24118000  1.0
  H  H22  1  0.00227000  0.61597000  0.21360000  1.0
  H  H23  1  0.49679000  0.40260000  0.78648000  1.0
  H  H24  1  0.99772000  0.38403000  0.78640000  1.0
  H  H25  1  0.50322000  0.59740000  0.21353000  1.0
  C  C26  1  0.55158000  0.97059000  0.45145000  1.0
  C  C27  1  0.94842000  0.51902000  0.54858000  1.0
  C  C28  1  0.44842000  0.02942000  0.54855000  1.0
  C  C29  1  0.05157000  0.48098000  0.45141000  1.0
  C  C30  1  0.48440000  0.97909000  0.34484000  1.0
  C  C31  1  0.01552000  0.63423000  0.65517000  1.0
  C  C32  1  0.51560000  0.02092000  0.65516000  1.0
  C  C33  1  0.98447000  0.36577000  0.34483000  1.0
  C  C34  1  0.57408000  0.91900000  0.24959000  1.0
  C  C35  1  0.92568000  0.66943000  0.75042000  1.0
  C  C36  1  0.42593000  0.08101000  0.75042000  1.0
  C  C37  1  0.07432000  0.33057000  0.24958000  1.0
  C  C38  1  0.74510000  0.85079000  0.26160000  1.0
  C  C39  1  0.75461000  0.58903000  0.73843000  1.0
  C  C40  1  0.25490000  0.14922000  0.73840000  1.0
  C  C41  1  0.24539000  0.41097000  0.26157000  1.0
  C  C42  1  0.81665000  0.84541000  0.36872000  1.0
  C  C43  1  0.68323000  0.47629000  0.63139000  1.0
  C  C44  1  0.18336000  0.15460000  0.63128000  1.0
  C  C45  1  0.31677000  0.52371000  0.36861000  1.0
  C  C46  1  0.72136000  0.90219000  0.46049000  1.0
  C  C47  1  0.77861000  0.44136000  0.53962000  1.0
  C  C48  1  0.27864000  0.09781000  0.53951000  1.0
  C  C49  1  0.22138000  0.55864000  0.46037000  1.0
  C  C50  1  0.48019000  0.92549000  0.14009000  1.0
  C  C51  1  0.01949000  0.78545000  0.85988000  1.0
  C  C52  1  0.51981000  0.07451000  0.85991000  1.0
  C  C53  1  0.98051000  0.21454000  0.14012000  1.0
  C  C54  1  0.00577000  0.72746000  0.18281000  1.0
  C  C55  1  0.49356000  0.54480000  0.81716000  1.0
  C  C56  1  0.99423000  0.27254000  0.81719000  1.0
  C  C57  1  0.50645000  0.45520000  0.18284000  1.0
  O  O58  1  0.33052000  0.99840000  0.14260000  1.0
  O  O59  1  0.16928000  0.85593000  0.85740000  1.0
  O  O60  1  0.66947000  0.00160000  0.85740000  1.0
  O  O61  1  0.83073000  0.14406000  0.14260000  1.0
  O  O62  1  0.54313000  0.85656000  0.04686000  1.0
  O  O63  1  0.95649000  0.80960000  0.95312000  1.0
  O  O64  1  0.45686000  0.14344000  0.95314000  1.0
  O  O65  1  0.04352000  0.19040000  0.04688000  1.0
  O  O66  1  0.83071000  0.79136000  0.16930000  1.0
  O  O67  1  0.66879000  0.62211000  0.83069000  1.0
  O  O68  1  0.16930000  0.20865000  0.83070000  1.0
  O  O69  1  0.33122000  0.37789000  0.16931000  1.0
