# generated using pymatgen
data_CdH14C16(NO3)2
_symmetry_space_group_name_H-M   'P 1'
_cell_length_a   8.76103000
_cell_length_b   8.76099000
_cell_length_c   11.02990000
_cell_angle_alpha   105.21800000
_cell_angle_beta   105.21800000
_cell_angle_gamma   97.83360000
_symmetry_Int_Tables_number   1
_chemical_formula_structural   CdH14C16(NO3)2
_chemical_formula_sum   'Cd2 H28 C32 N4 O12'
_cell_volume   768.88939232
_cell_formula_units_Z   2
loop_
 _symmetry_equiv_pos_site_id
 _symmetry_equiv_pos_as_xyz
  1  'x, y, z'
loop_
 _atom_site_type_symbol
 _atom_site_label
 _atom_site_symmetry_multiplicity
 _atom_site_fract_x
 _atom_site_fract_y
 _atom_site_fract_z
 _atom_site_occupancy
  Cd  Cd0  1  0.56413000  0.43586000  0.25000000  1.0
  Cd  Cd1  1  0.43587000  0.56414000  0.75000000  1.0
  H  H2  1  0.27888000  0.32742000  0.27466000  1.0
  H  H3  1  0.67258000  0.72112000  0.22534000  1.0
  H  H4  1  0.72112000  0.67258000  0.72534000  1.0
  H  H5  1  0.32742000  0.27888000  0.77466000  1.0
  H  H6  1  0.40055000  0.31917000  0.41447000  1.0
  H  H7  1  0.68083000  0.59945000  0.08553000  1.0
  H  H8  1  0.59945000  0.68083000  0.58553000  1.0
  H  H9  1  0.31917000  0.40055000  0.91447000  1.0
  H  H10  1  0.50416000  0.23329000  0.93427000  1.0
  H  H11  1  0.76670000  0.49583000  0.56573000  1.0
  H  H12  1  0.49584000  0.76671000  0.06573000  1.0
  H  H13  1  0.23330000  0.50417000  0.43427000  1.0
  H  H14  1  0.59753000  0.01142000  0.79933000  1.0
  H  H15  1  0.98858000  0.40247000  0.70067000  1.0
  H  H16  1  0.40248000  0.98858000  0.20067000  1.0
  H  H17  1  0.01142000  0.59753000  0.29933000  1.0
  H  H18  1  0.80959000  0.88804000  0.91555000  1.0
  H  H19  1  0.11196000  0.19042000  0.58445000  1.0
  H  H20  1  0.19041000  0.11196000  0.08445000  1.0
  H  H21  1  0.88804000  0.80958000  0.41555000  1.0
  H  H22  1  0.99936000  0.88472000  0.12822000  1.0
  H  H23  1  0.11528000  0.00064000  0.37178000  1.0
  H  H24  1  0.00064000  0.11528000  0.87178000  1.0
  H  H25  1  0.88472000  0.99936000  0.62822000  1.0
  H  H26  1  0.44083000  0.87237000  0.55994000  1.0
  H  H27  1  0.12763000  0.55917000  0.94007000  1.0
  H  H28  1  0.55917000  0.12763000  0.44006000  1.0
  H  H29  1  0.87237000  0.44083000  0.05993000  1.0
  C  C30  1  0.59587000  0.17745000  0.98212000  1.0
  C  C31  1  0.82255000  0.40412000  0.51788000  1.0
  C  C32  1  0.40413000  0.82255000  0.01788000  1.0
  C  C33  1  0.17745000  0.59588000  0.48212000  1.0
  C  C34  1  0.64974000  0.05353000  0.90646000  1.0
  C  C35  1  0.94647000  0.35026000  0.59354000  1.0
  C  C36  1  0.35026000  0.94647000  0.09354000  1.0
  C  C37  1  0.05353000  0.64974000  0.40646000  1.0
  C  C38  1  0.76624000  0.98565000  0.97115000  1.0
  C  C39  1  0.01435000  0.23376000  0.52885000  1.0
  C  C40  1  0.23376000  0.01435000  0.02884000  1.0
  C  C41  1  0.98565000  0.76624000  0.47116000  1.0
  C  C42  1  0.83026000  0.04353000  0.11036000  1.0
  C  C43  1  0.95647000  0.16974000  0.38964000  1.0
  C  C44  1  0.16974000  0.95647000  0.88964000  1.0
  C  C45  1  0.04353000  0.83026000  0.61036000  1.0
  C  C46  1  0.95469000  0.98200000  0.18292000  1.0
  C  C47  1  0.01800000  0.04532000  0.31708000  1.0
  C  C48  1  0.04532000  0.01800000  0.81707000  1.0
  C  C49  1  0.98200000  0.95469000  0.68292000  1.0
  C  C50  1  0.76834000  0.16940000  0.17868000  1.0
  C  C51  1  0.83060000  0.23166000  0.32132000  1.0
  C  C52  1  0.23166000  0.83060000  0.82133000  1.0
  C  C53  1  0.16940000  0.76834000  0.67868000  1.0
  C  C54  1  0.56043000  0.80958000  0.40505000  1.0
  C  C55  1  0.19041000  0.43957000  0.09495000  1.0
  C  C56  1  0.43957000  0.19042000  0.59495000  1.0
  C  C57  1  0.80958000  0.56043000  0.90505000  1.0
  C  C58  1  0.49580000  0.92190000  0.49657000  1.0
  C  C59  1  0.07810000  0.50421000  0.00343000  1.0
  C  C60  1  0.50421000  0.07810000  0.50343000  1.0
  C  C61  1  0.92189000  0.49579000  0.99657000  1.0
  N  N62  1  0.65212000  0.23259000  0.11367000  1.0
  N  N63  1  0.76741000  0.34787000  0.38633000  1.0
  N  N64  1  0.34788000  0.76741000  0.88633000  1.0
  N  N65  1  0.23259000  0.65213000  0.61367000  1.0
  O  O66  1  0.56115000  0.66826000  0.42056000  1.0
  O  O67  1  0.33173000  0.43885000  0.07944000  1.0
  O  O68  1  0.43885000  0.33174000  0.57944000  1.0
  O  O69  1  0.66826000  0.56115000  0.92056000  1.0
  O  O70  1  0.61018000  0.85718000  0.32065000  1.0
  O  O71  1  0.14282000  0.38982000  0.17935000  1.0
  O  O72  1  0.38983000  0.14282000  0.67935000  1.0
  O  O73  1  0.85718000  0.61017000  0.82065000  1.0
  O  O74  1  0.37923000  0.29225000  0.31703000  1.0
  O  O75  1  0.70774000  0.62077000  0.18297000  1.0
  O  O76  1  0.62077000  0.70775000  0.68297000  1.0
  O  O77  1  0.29226000  0.37923000  0.81703000  1.0
