# generated using pymatgen
data_ZnH12C11N3ClO2
_symmetry_space_group_name_H-M   'P 1'
_cell_length_a   8.42263000
_cell_length_b   12.53780000
_cell_length_c   16.80760000
_cell_angle_alpha   98.31530000
_cell_angle_beta   89.99990000
_cell_angle_gamma   89.99970000
_symmetry_Int_Tables_number   1
_chemical_formula_structural   ZnH12C11N3ClO2
_chemical_formula_sum   'Zn4 H48 C44 N12 Cl4 O8'
_cell_volume   1756.24438001
_cell_formula_units_Z   4
loop_
 _symmetry_equiv_pos_site_id
 _symmetry_equiv_pos_as_xyz
  1  'x, y, z'
loop_
 _atom_site_type_symbol
 _atom_site_label
 _atom_site_symmetry_multiplicity
 _atom_site_fract_x
 _atom_site_fract_y
 _atom_site_fract_z
 _atom_site_occupancy
  Zn  Zn0  1  0.79649000  0.39851000  0.32725000  1.0
  Zn  Zn1  1  0.29649000  0.10149000  0.17275000  1.0
  Zn  Zn2  1  0.20351000  0.60149000  0.67275000  1.0
  Zn  Zn3  1  0.70351000  0.89851000  0.82725000  1.0
  H  H4  1  0.43097000  0.15028000  0.32964000  1.0
  H  H5  1  0.93097000  0.34972000  0.17037000  1.0
  H  H6  1  0.56903000  0.84973000  0.67037000  1.0
  H  H7  1  0.06903000  0.65027000  0.82963000  1.0
  H  H8  1  0.57925000  0.23873000  0.37723000  1.0
  H  H9  1  0.07925000  0.26127000  0.12278000  1.0
  H  H10  1  0.42075000  0.76127000  0.62278000  1.0
  H  H11  1  0.92075000  0.73873000  0.87722000  1.0
  H  H12  1  0.63435000  0.12264000  0.30972000  1.0
  H  H13  1  0.13436000  0.37736000  0.19029000  1.0
  H  H14  1  0.36564000  0.87736000  0.69029000  1.0
  H  H15  1  0.86565000  0.62264000  0.80972000  1.0
  H  H16  1  0.32676000  0.26223000  0.03228000  1.0
  H  H17  1  0.82676000  0.23778000  0.46772000  1.0
  H  H18  1  0.67325000  0.73777000  0.96772000  1.0
  H  H19  1  0.17325000  0.76223000  0.53228000  1.0
  H  H20  1  0.71172000  0.53112000  0.17755000  1.0
  H  H21  1  0.21172000  0.96888000  0.32245000  1.0
  H  H22  1  0.28829000  0.46888000  0.82244000  1.0
  H  H23  1  0.78828000  0.03111000  0.67755000  1.0
  H  H24  1  0.78287000  0.55568000  0.47970000  1.0
  H  H25  1  0.28288000  0.94433000  0.02030000  1.0
  H  H26  1  0.21713000  0.44432000  0.52030000  1.0
  H  H27  1  0.71713000  0.05568000  0.97970000  1.0
  H  H28  1  0.58003000  0.33161000  0.55091000  1.0
  H  H29  1  0.08003000  0.16839000  0.94909000  1.0
  H  H30  1  0.41997000  0.66839000  0.44909000  1.0
  H  H31  1  0.91997000  0.83161000  0.05091000  1.0
  H  H32  1  0.52455000  0.41501000  0.64254000  1.0
  H  H33  1  0.02455000  0.08499000  0.85746000  1.0
  H  H34  1  0.47545000  0.58499000  0.35746000  1.0
  H  H35  1  0.97545000  0.91501000  0.14254000  1.0
  H  H36  1  0.71423000  0.35006000  0.63452000  1.0
  H  H37  1  0.21423000  0.14994000  0.86548000  1.0
  H  H38  1  0.28577000  0.64994000  0.36548000  1.0
  H  H39  1  0.78576000  0.85007000  0.13452000  1.0
  H  H40  1  0.82155000  0.55149000  0.67190000  1.0
  H  H41  1  0.32155000  0.94850000  0.82810000  1.0
  H  H42  1  0.17845000  0.44850000  0.32810000  1.0
  H  H43  1  0.67845000  0.05150000  0.17190000  1.0
  H  H44  1  0.62277000  0.60166000  0.66582000  1.0
  H  H45  1  0.12277000  0.89834000  0.83418000  1.0
  H  H46  1  0.37722000  0.39834000  0.33418000  1.0
  H  H47  1  0.87723000  0.10165000  0.16582000  1.0
  H  H48  1  0.77520000  0.64067000  0.60145000  1.0
  H  H49  1  0.27520000  0.85933000  0.89856000  1.0
  H  H50  1  0.22480000  0.35933000  0.39855000  1.0
  H  H51  1  0.72481000  0.14067000  0.10145000  1.0
  C  C52  1  0.53908000  0.25253000  0.25358000  1.0
  C  C53  1  0.03908000  0.24747000  0.24642000  1.0
  C  C54  1  0.46092000  0.74747000  0.74642000  1.0
  C  C55  1  0.96092000  0.75253000  0.75358000  1.0
  C  C56  1  0.54624000  0.18783000  0.32109000  1.0
  C  C57  1  0.04624000  0.31217000  0.17891000  1.0
  C  C58  1  0.45375000  0.81217000  0.67891000  1.0
  C  C59  1  0.95376000  0.68783000  0.82109000  1.0
  C  C60  1  0.58215000  0.38031000  0.17993000  1.0
  C  C61  1  0.08215000  0.11969000  0.32007000  1.0
  C  C62  1  0.41785000  0.61969000  0.82007000  1.0
  C  C63  1  0.91784000  0.88031000  0.67993000  1.0
  C  C64  1  0.47430000  0.30463000  0.13911000  1.0
  C  C65  1  0.97430000  0.19537000  0.36089000  1.0
  C  C66  1  0.52570000  0.69537000  0.86089000  1.0
  C  C67  1  0.02570000  0.80463000  0.63911000  1.0
  C  C68  1  0.41041000  0.31883000  0.06456000  1.0
  C  C69  1  0.91041000  0.18118000  0.43544000  1.0
  C  C70  1  0.58960000  0.68118000  0.93544000  1.0
  C  C71  1  0.08959000  0.81882000  0.56456000  1.0
  C  C72  1  0.45625000  0.41000000  0.03250000  1.0
  C  C73  1  0.95625000  0.09000000  0.46750000  1.0
  C  C74  1  0.54375000  0.59000000  0.96750000  1.0
  C  C75  1  0.04375000  0.91000000  0.53250000  1.0
  C  C76  1  0.56447000  0.48529000  0.07306000  1.0
  C  C77  1  0.06447000  0.01470000  0.42694000  1.0
  C  C78  1  0.43554000  0.51470000  0.92694000  1.0
  C  C79  1  0.93553000  0.98529000  0.57307000  1.0
  C  C80  1  0.62921000  0.47174000  0.14701000  1.0
  C  C81  1  0.12921000  0.02825000  0.35299000  1.0
  C  C82  1  0.37080000  0.52825000  0.85299000  1.0
  C  C83  1  0.87079000  0.97174000  0.64701000  1.0
  C  C84  1  0.72790000  0.48135000  0.49492000  1.0
  C  C85  1  0.22791000  0.01865000  0.00508000  1.0
  C  C86  1  0.27209000  0.51865000  0.50508000  1.0
  C  C87  1  0.77209000  0.98135000  0.99492000  1.0
  C  C88  1  0.62315000  0.38887000  0.60160000  1.0
  C  C89  1  0.12315000  0.11113000  0.89840000  1.0
  C  C90  1  0.37685000  0.61113000  0.39840000  1.0
  C  C91  1  0.87685000  0.88887000  0.10160000  1.0
  C  C92  1  0.72968000  0.57487000  0.63141000  1.0
  C  C93  1  0.22969000  0.92513000  0.86860000  1.0
  C  C94  1  0.27031000  0.42513000  0.36859000  1.0
  C  C95  1  0.77032000  0.07487000  0.13140000  1.0
  N  N96  1  0.62122000  0.34538000  0.25217000  1.0
  N  N97  1  0.12122000  0.15462000  0.24783000  1.0
  N  N98  1  0.37878000  0.65462000  0.74783000  1.0
  N  N99  1  0.87877000  0.84538000  0.75217000  1.0
  N  N100  1  0.44907000  0.22507000  0.18710000  1.0
  N  N101  1  0.94906000  0.27493000  0.31290000  1.0
  N  N102  1  0.55094000  0.77493000  0.81290000  1.0
  N  N103  1  0.05093000  0.72507000  0.68710000  1.0
  N  N104  1  0.69093000  0.48246000  0.57171000  1.0
  N  N105  1  0.19094000  0.01754000  0.92829000  1.0
  N  N106  1  0.30906000  0.51754000  0.42829000  1.0
  N  N107  1  0.80906000  0.98247000  0.07171000  1.0
  Cl  Cl108  1  0.89463000  0.56277000  0.32695000  1.0
  Cl  Cl109  1  0.39464000  0.93723000  0.17305000  1.0
  Cl  Cl110  1  0.10537000  0.43722000  0.67305000  1.0
  Cl  Cl111  1  0.60536000  0.06278000  0.82695000  1.0
  O  O112  1  0.60969000  0.57602000  0.04070000  1.0
  O  O113  1  0.10969000  0.92398000  0.45930000  1.0
  O  O114  1  0.39031000  0.42398000  0.95930000  1.0
  O  O115  1  0.89031000  0.07602000  0.54070000  1.0
  O  O116  1  0.70334000  0.40153000  0.44091000  1.0
  O  O117  1  0.20336000  0.09848000  0.05908000  1.0
  O  O118  1  0.29665000  0.59847000  0.55909000  1.0
  O  O119  1  0.79665000  0.90153000  0.94091000  1.0
