# generated using pymatgen
data_CuH15C13SNO4
_symmetry_space_group_name_H-M   'P 1'
_cell_length_a   4.82463000
_cell_length_b   11.63220000
_cell_length_c   12.34190000
_cell_angle_alpha   83.92170000
_cell_angle_beta   89.99930000
_cell_angle_gamma   89.99970000
_symmetry_Int_Tables_number   1
_chemical_formula_structural   CuH15C13SNO4
_chemical_formula_sum   'Cu2 H30 C26 S2 N2 O8'
_cell_volume   688.74658109
_cell_formula_units_Z   2
loop_
 _symmetry_equiv_pos_site_id
 _symmetry_equiv_pos_as_xyz
  1  'x, y, z'
loop_
 _atom_site_type_symbol
 _atom_site_label
 _atom_site_symmetry_multiplicity
 _atom_site_fract_x
 _atom_site_fract_y
 _atom_site_fract_z
 _atom_site_occupancy
  Cu  Cu0  1  0.26154000  0.90861000  0.07388000  1.0
  Cu  Cu1  1  0.76154000  0.09140000  0.92612000  1.0
  H  H2  1  0.59232000  0.63480000  0.94471000  1.0
  H  H3  1  0.09231000  0.36520000  0.05529000  1.0
  H  H4  1  0.92716000  0.60508000  0.89115000  1.0
  H  H5  1  0.42714000  0.39492000  0.10884000  1.0
  H  H6  1  0.84562000  0.74857000  0.92472000  1.0
  H  H7  1  0.34561000  0.25142000  0.07528000  1.0
  H  H8  1  0.96894000  0.46511000  0.21060000  1.0
  H  H9  1  0.46900000  0.53487000  0.78939000  1.0
  H  H10  1  0.31781000  0.58817000  0.40923000  1.0
  H  H11  1  0.81784000  0.41184000  0.59077000  1.0
  H  H12  1  0.69400000  0.44477000  0.38454000  1.0
  H  H13  1  0.19405000  0.55522000  0.61546000  1.0
  H  H14  1  0.06803000  0.74914000  0.35424000  1.0
  H  H15  1  0.56806000  0.25087000  0.64576000  1.0
  H  H16  1  0.72932000  0.89157000  0.29172000  1.0
  H  H17  1  0.22936000  0.10844000  0.70829000  1.0
  H  H18  1  0.12200000  0.95855000  0.39847000  1.0
  H  H19  1  0.62204000  0.04145000  0.60153000  1.0
  H  H20  1  0.21306000  0.06315000  0.28940000  1.0
  H  H21  1  0.71308000  0.93684000  0.71060000  1.0
  H  H22  1  0.65782000  0.05123000  0.41468000  1.0
  H  H23  1  0.15785000  0.94879000  0.58532000  1.0
  H  H24  1  0.74593000  0.16029000  0.30914000  1.0
  H  H25  1  0.24593000  0.83972000  0.69087000  1.0
  H  H26  1  0.38853000  0.24474000  0.37505000  1.0
  H  H27  1  0.88854000  0.75526000  0.62495000  1.0
  H  H28  1  0.23677000  0.35466000  0.44608000  1.0
  H  H29  1  0.73678000  0.64533000  0.55393000  1.0
  H  H30  1  0.08305000  0.31878000  0.32264000  1.0
  H  H31  1  0.58306000  0.68123000  0.67737000  1.0
  C  C32  1  0.81389000  0.65574000  0.94697000  1.0
  C  C33  1  0.31388000  0.34426000  0.05303000  1.0
  C  C34  1  0.75822000  0.61526000  0.14233000  1.0
  C  C35  1  0.25824000  0.38473000  0.85767000  1.0
  C  C36  1  0.80488000  0.52623000  0.22441000  1.0
  C  C37  1  0.30494000  0.47376000  0.77557000  1.0
  C  C38  1  0.44487000  0.59512000  0.33566000  1.0
  C  C39  1  0.94492000  0.40488000  0.66433000  1.0
  C  C40  1  0.65160000  0.51591000  0.32190000  1.0
  C  C41  1  0.15167000  0.48407000  0.67810000  1.0
  C  C42  1  0.39273000  0.68856000  0.25473000  1.0
  C  C43  1  0.89276000  0.31144000  0.74527000  1.0
  C  C44  1  0.55494000  0.70282000  0.15671000  1.0
  C  C45  1  0.05495000  0.29718000  0.84329000  1.0
  C  C46  1  0.17908000  0.76836000  0.27661000  1.0
  C  C47  1  0.67910000  0.23164000  0.72339000  1.0
  C  C48  1  0.78670000  0.01428000  0.15171000  1.0
  C  C49  1  0.28674000  0.98573000  0.84830000  1.0
  C  C50  1  0.90313000  0.93991000  0.25057000  1.0
  C  C51  1  0.40315000  0.06009000  0.74943000  1.0
  C  C52  1  0.03739000  0.01712000  0.33075000  1.0
  C  C53  1  0.53742000  0.98288000  0.66925000  1.0
  C  C54  1  0.83232000  0.09989000  0.37493000  1.0
  C  C55  1  0.33233000  0.90012000  0.62507000  1.0
  C  C56  1  0.19248000  0.28379000  0.39679000  1.0
  C  C57  1  0.69249000  0.71622000  0.60321000  1.0
  S  S58  1  0.97287000  0.18302000  0.47823000  1.0
  S  S59  1  0.47286000  0.81698000  0.52177000  1.0
  N  N60  1  0.11005000  0.86095000  0.21447000  1.0
  N  N61  1  0.61008000  0.13905000  0.78553000  1.0
  O  O62  1  0.56659000  0.06850000  0.15671000  1.0
  O  O63  1  0.06660000  0.93151000  0.84330000  1.0
  O  O64  1  0.93690000  0.01764000  0.06304000  1.0
  O  O65  1  0.43691000  0.98237000  0.93696000  1.0
  O  O66  1  0.53856000  0.79118000  0.08217000  1.0
  O  O67  1  0.03856000  0.20883000  0.91783000  1.0
  O  O68  1  0.92853000  0.62041000  0.05370000  1.0
  O  O69  1  0.42854000  0.37957000  0.94630000  1.0
