# generated using pymatgen
data_CoH15C26N2(O2F3)2
_symmetry_space_group_name_H-M   'P 1'
_cell_length_a   7.10012000
_cell_length_b   14.63910000
_cell_length_c   25.12820000
_cell_angle_alpha   106.69500000
_cell_angle_beta   89.99950000
_cell_angle_gamma   89.99960000
_symmetry_Int_Tables_number   1
_chemical_formula_structural   CoH15C26N2(O2F3)2
_chemical_formula_sum   'Co4 H60 C104 N8 O16 F24'
_cell_volume   2501.71508479
_cell_formula_units_Z   4
loop_
 _symmetry_equiv_pos_site_id
 _symmetry_equiv_pos_as_xyz
  1  'x, y, z'
loop_
 _atom_site_type_symbol
 _atom_site_label
 _atom_site_symmetry_multiplicity
 _atom_site_fract_x
 _atom_site_fract_y
 _atom_site_fract_z
 _atom_site_occupancy
  Co  Co0  1  0.62512000  0.44722000  0.48807000  1.0
  Co  Co1  1  0.62573000  0.55297000  0.01198000  1.0
  Co  Co2  1  0.37466000  0.55279000  0.51194000  1.0
  Co  Co3  1  0.37533000  0.44740000  0.98811000  1.0
  H  H4  1  0.05621000  0.55919000  0.62739000  1.0
  H  H5  1  0.05646000  0.44078000  0.87261000  1.0
  H  H6  1  0.94363000  0.44078000  0.37263000  1.0
  H  H7  1  0.94386000  0.55915000  0.12736000  1.0
  H  H8  1  0.19352000  0.64826000  0.71787000  1.0
  H  H9  1  0.19354000  0.35167000  0.78209000  1.0
  H  H10  1  0.80648000  0.35164000  0.28213000  1.0
  H  H11  1  0.80653000  0.64826000  0.21783000  1.0
  H  H12  1  0.71636000  0.83966000  0.74673000  1.0
  H  H13  1  0.71631000  0.16037000  0.75334000  1.0
  H  H14  1  0.28345000  0.16027000  0.25335000  1.0
  H  H15  1  0.28347000  0.83975000  0.24667000  1.0
  H  H16  1  0.57331000  0.74272000  0.66081000  1.0
  H  H17  1  0.57339000  0.25730000  0.83923000  1.0
  H  H18  1  0.42655000  0.25718000  0.33923000  1.0
  H  H19  1  0.42667000  0.74284000  0.16080000  1.0
  H  H20  1  0.90757000  0.66594000  0.81804000  1.0
  H  H21  1  0.90721000  0.33398000  0.68194000  1.0
  H  H22  1  0.09275000  0.33397000  0.18197000  1.0
  H  H23  1  0.09246000  0.66587000  0.31797000  1.0
  H  H24  1  0.02224000  0.57690000  0.88142000  1.0
  H  H25  1  0.02174000  0.42310000  0.61859000  1.0
  H  H26  1  0.97830000  0.42306000  0.11860000  1.0
  H  H27  1  0.97793000  0.57685000  0.38135000  1.0
  H  H28  1  0.53384000  0.74071000  0.90802000  1.0
  H  H29  1  0.53348000  0.25938000  0.59195000  1.0
  H  H30  1  0.46652000  0.25945000  0.09197000  1.0
  H  H31  1  0.46632000  0.74061000  0.40802000  1.0
  H  H32  1  0.41790000  0.83382000  0.84744000  1.0
  H  H33  1  0.41764000  0.16620000  0.65250000  1.0
  H  H34  1  0.58217000  0.16628000  0.15254000  1.0
  H  H35  1  0.58213000  0.83375000  0.34743000  1.0
  H  H36  1  0.00309000  0.34283000  0.52379000  1.0
  H  H37  1  0.00347000  0.65711000  0.97625000  1.0
  H  H38  1  0.99674000  0.65708000  0.47619000  1.0
  H  H39  1  0.99709000  0.34292000  0.02382000  1.0
  H  H40  1  0.68747000  0.26087000  0.37620000  1.0
  H  H41  1  0.68767000  0.73922000  0.12380000  1.0
  H  H42  1  0.31221000  0.73914000  0.62378000  1.0
  H  H43  1  0.31248000  0.26090000  0.87621000  1.0
  H  H44  1  0.96034000  0.12148000  0.37258000  1.0
  H  H45  1  0.96060000  0.87858000  0.12743000  1.0
  H  H46  1  0.03930000  0.87845000  0.62744000  1.0
  H  H47  1  0.03955000  0.12158000  0.87257000  1.0
  H  H48  1  0.38256000  0.19232000  0.41689000  1.0
  H  H49  1  0.38298000  0.80772000  0.08313000  1.0
  H  H50  1  0.61712000  0.80764000  0.58313000  1.0
  H  H51  1  0.61747000  0.19235000  0.91687000  1.0
  H  H52  1  0.61297000  0.08271000  0.43724000  1.0
  H  H53  1  0.61333000  0.91734000  0.06277000  1.0
  H  H54  1  0.38675000  0.91733000  0.56277000  1.0
  H  H55  1  0.38703000  0.08270000  0.93721000  1.0
  H  H56  1  0.21467000  0.01031000  0.54863000  1.0
  H  H57  1  0.21486000  0.98969000  0.95139000  1.0
  H  H58  1  0.78510000  0.98966000  0.45138000  1.0
  H  H59  1  0.78531000  0.01038000  0.04864000  1.0
  H  H60  1  0.98449000  0.11973000  0.52724000  1.0
  H  H61  1  0.98480000  0.88021000  0.97278000  1.0
  H  H62  1  0.01527000  0.88014000  0.47274000  1.0
  H  H63  1  0.01549000  0.11986000  0.02727000  1.0
  C  C64  1  0.70744000  0.58939000  0.58597000  1.0
  C  C65  1  0.70761000  0.41063000  0.91404000  1.0
  C  C66  1  0.29261000  0.41053000  0.41404000  1.0
  C  C67  1  0.29273000  0.58945000  0.08600000  1.0
  C  C68  1  0.80172000  0.64315000  0.63894000  1.0
  C  C69  1  0.80181000  0.35685000  0.86108000  1.0
  C  C70  1  0.19826000  0.35677000  0.36111000  1.0
  C  C71  1  0.19833000  0.64320000  0.13891000  1.0
  C  C72  1  0.97781000  0.61754000  0.65526000  1.0
  C  C73  1  0.97793000  0.38245000  0.84474000  1.0
  C  C74  1  0.02215000  0.38242000  0.34479000  1.0
  C  C75  1  0.02225000  0.61753000  0.15521000  1.0
  C  C76  1  0.05696000  0.66969000  0.70565000  1.0
  C  C77  1  0.05698000  0.33029000  0.79434000  1.0
  C  C78  1  0.94304000  0.33028000  0.29439000  1.0
  C  C79  1  0.94310000  0.66967000  0.20560000  1.0
  C  C80  1  0.96599000  0.75082000  0.73957000  1.0
  C  C81  1  0.96597000  0.24916000  0.76043000  1.0
  C  C82  1  0.03392000  0.24913000  0.26047000  1.0
  C  C83  1  0.03399000  0.75083000  0.23952000  1.0
  C  C84  1  0.79148000  0.77696000  0.72250000  1.0
  C  C85  1  0.79152000  0.22305000  0.77754000  1.0
  C  C86  1  0.20834000  0.22297000  0.27755000  1.0
  C  C87  1  0.20839000  0.77704000  0.22244000  1.0
  C  C88  1  0.71002000  0.72278000  0.67336000  1.0
  C  C89  1  0.71010000  0.27723000  0.82668000  1.0
  C  C90  1  0.28984000  0.27713000  0.32669000  1.0
  C  C91  1  0.28994000  0.72288000  0.17331000  1.0
  C  C92  1  0.22305000  0.86783000  0.76766000  1.0
  C  C93  1  0.22295000  0.13209000  0.73229000  1.0
  C  C94  1  0.77678000  0.13215000  0.23232000  1.0
  C  C95  1  0.77683000  0.86782000  0.26766000  1.0
  C  C96  1  0.06925000  0.81375000  0.79102000  1.0
  C  C97  1  0.06907000  0.18620000  0.70897000  1.0
  C  C98  1  0.93072000  0.18620000  0.20900000  1.0
  C  C99  1  0.93071000  0.81373000  0.29098000  1.0
  C  C100  1  0.93510000  0.88909000  0.82940000  1.0
  C  C101  1  0.93484000  0.11088000  0.67061000  1.0
  C  C102  1  0.06482000  0.11082000  0.17063000  1.0
  C  C103  1  0.06478000  0.88907000  0.32938000  1.0
  C  C104  1  0.15439000  0.75579000  0.82738000  1.0
  C  C105  1  0.15406000  0.24417000  0.67259000  1.0
  C  C106  1  0.84581000  0.24418000  0.17262000  1.0
  C  C107  1  0.84562000  0.75575000  0.32734000  1.0
  C  C108  1  0.04514000  0.68285000  0.83765000  1.0
  C  C109  1  0.04478000  0.31711000  0.66233000  1.0
  C  C110  1  0.95518000  0.31709000  0.16236000  1.0
  C  C111  1  0.95490000  0.68279000  0.33758000  1.0
  C  C112  1  0.11049000  0.63192000  0.87293000  1.0
  C  C113  1  0.11011000  0.36810000  0.62707000  1.0
  C  C114  1  0.88993000  0.36809000  0.12710000  1.0
  C  C115  1  0.88962000  0.63183000  0.37285000  1.0
  C  C116  1  0.28807000  0.65167000  0.89802000  1.0
  C  C117  1  0.28772000  0.34839000  0.60197000  1.0
  C  C118  1  0.71234000  0.34843000  0.10200000  1.0
  C  C119  1  0.71206000  0.65152000  0.39797000  1.0
  C  C120  1  0.39710000  0.72447000  0.88783000  1.0
  C  C121  1  0.39677000  0.27560000  0.61216000  1.0
  C  C122  1  0.60320000  0.27568000  0.11219000  1.0
  C  C123  1  0.60300000  0.72434000  0.38780000  1.0
  C  C124  1  0.33057000  0.77653000  0.85330000  1.0
  C  C125  1  0.33024000  0.22349000  0.64667000  1.0
  C  C126  1  0.66962000  0.22354000  0.14670000  1.0
  C  C127  1  0.66946000  0.77644000  0.35328000  1.0
  C  C128  1  0.36114000  0.59734000  0.93584000  1.0
  C  C129  1  0.36087000  0.40276000  0.56416000  1.0
  C  C130  1  0.63930000  0.40279000  0.06417000  1.0
  C  C131  1  0.63905000  0.59722000  0.43583000  1.0
  C  C132  1  0.95074000  0.30194000  0.48356000  1.0
  C  C133  1  0.95118000  0.69808000  0.01648000  1.0
  C  C134  1  0.04895000  0.69805000  0.51643000  1.0
  C  C135  1  0.04933000  0.30199000  0.98358000  1.0
  C  C136  1  0.79276000  0.25631000  0.40638000  1.0
  C  C137  1  0.79305000  0.74380000  0.09365000  1.0
  C  C138  1  0.20693000  0.74375000  0.59361000  1.0
  C  C139  1  0.20723000  0.25632000  0.90639000  1.0
  C  C140  1  0.92596000  0.18731000  0.40383000  1.0
  C  C141  1  0.92631000  0.81276000  0.09618000  1.0
  C  C142  1  0.07365000  0.81269000  0.59616000  1.0
  C  C143  1  0.07399000  0.18735000  0.90384000  1.0
  C  C144  1  0.16765000  0.16068000  0.46955000  1.0
  C  C145  1  0.16805000  0.83929000  0.03045000  1.0
  C  C146  1  0.83203000  0.83921000  0.53043000  1.0
  C  C147  1  0.83234000  0.16079000  0.96957000  1.0
  C  C148  1  0.34562000  0.15053000  0.44493000  1.0
  C  C149  1  0.34603000  0.84947000  0.05508000  1.0
  C  C150  1  0.65407000  0.84939000  0.55506000  1.0
  C  C151  1  0.65439000  0.15059000  0.94492000  1.0
  C  C152  1  0.47563000  0.08826000  0.45718000  1.0
  C  C153  1  0.47597000  0.91176000  0.04283000  1.0
  C  C154  1  0.52412000  0.91170000  0.54283000  1.0
  C  C155  1  0.52439000  0.08830000  0.95715000  1.0
  C  C156  1  0.43215000  0.03448000  0.49397000  1.0
  C  C157  1  0.43243000  0.96554000  0.00603000  1.0
  C  C158  1  0.56762000  0.96550000  0.50604000  1.0
  C  C159  1  0.56786000  0.03451000  0.99395000  1.0
  C  C160  1  0.25394000  0.04896000  0.51937000  1.0
  C  C161  1  0.25419000  0.95104000  0.98065000  1.0
  C  C162  1  0.74586000  0.95100000  0.48065000  1.0
  C  C163  1  0.74607000  0.04902000  0.01936000  1.0
  C  C164  1  0.12283000  0.11108000  0.50765000  1.0
  C  C165  1  0.12316000  0.88888000  0.99235000  1.0
  C  C166  1  0.87691000  0.88881000  0.49233000  1.0
  C  C167  1  0.87716000  0.11118000  0.00766000  1.0
  N  N168  1  0.80987000  0.32714000  0.45597000  1.0
  N  N169  1  0.81023000  0.67294000  0.04408000  1.0
  N  N170  1  0.18986000  0.67291000  0.54404000  1.0
  N  N171  1  0.19020000  0.32715000  0.95597000  1.0
  N  N172  1  0.02592000  0.21702000  0.45331000  1.0
  N  N173  1  0.02633000  0.78300000  0.04673000  1.0
  N  N174  1  0.97376000  0.78295000  0.54670000  1.0
  N  N175  1  0.97408000  0.21708000  0.95331000  1.0
  O  O176  1  0.78634000  0.51570000  0.55398000  1.0
  O  O177  1  0.78683000  0.48429000  0.94595000  1.0
  O  O178  1  0.21341000  0.48422000  0.44594000  1.0
  O  O179  1  0.21375000  0.51578000  0.05401000  1.0
  O  O180  1  0.54754000  0.62125000  0.57607000  1.0
  O  O181  1  0.54770000  0.37888000  0.92404000  1.0
  O  O182  1  0.45256000  0.37882000  0.42402000  1.0
  O  O183  1  0.45268000  0.62128000  0.07611000  1.0
  O  O184  1  0.26723000  0.52516000  0.94004000  1.0
  O  O185  1  0.26679000  0.47489000  0.55998000  1.0
  O  O186  1  0.73340000  0.47490000  0.05997000  1.0
  O  O187  1  0.73295000  0.52507000  0.44007000  1.0
  O  O188  1  0.51317000  0.62641000  0.96210000  1.0
  O  O189  1  0.51294000  0.37381000  0.53791000  1.0
  O  O190  1  0.48720000  0.37383000  0.03793000  1.0
  O  O191  1  0.48701000  0.62630000  0.46208000  1.0
  F  F192  1  0.15304000  0.90286000  0.72725000  1.0
  F  F193  1  0.15307000  0.09706000  0.77271000  1.0
  F  F194  1  0.84660000  0.09708000  0.27274000  1.0
  F  F195  1  0.84674000  0.90292000  0.22726000  1.0
  F  F196  1  0.36684000  0.80811000  0.74423000  1.0
  F  F197  1  0.36675000  0.19181000  0.75569000  1.0
  F  F198  1  0.63304000  0.19192000  0.25573000  1.0
  F  F199  1  0.63313000  0.80805000  0.24422000  1.0
  F  F200  1  0.30165000  0.94276000  0.80694000  1.0
  F  F201  1  0.30151000  0.05716000  0.69299000  1.0
  F  F202  1  0.69819000  0.05722000  0.19303000  1.0
  F  F203  1  0.69816000  0.94270000  0.30696000  1.0
  F  F204  1  0.02015000  0.93684000  0.87797000  1.0
  F  F205  1  0.01972000  0.06312000  0.62201000  1.0
  F  F206  1  0.97973000  0.06305000  0.12205000  1.0
  F  F207  1  0.97959000  0.93680000  0.37794000  1.0
  F  F208  1  0.77963000  0.84667000  0.84348000  1.0
  F  F209  1  0.77935000  0.15334000  0.65657000  1.0
  F  F210  1  0.22029000  0.15323000  0.15654000  1.0
  F  F211  1  0.22024000  0.84666000  0.34346000  1.0
  F  F212  1  0.87419000  0.95739000  0.80609000  1.0
  F  F213  1  0.87401000  0.04256000  0.69392000  1.0
  F  F214  1  0.12568000  0.04250000  0.19393000  1.0
  F  F215  1  0.12568000  0.95743000  0.30611000  1.0
