# generated using pymatgen
data_Cu2H26C23(NO4)2
_symmetry_space_group_name_H-M   'P 1'
_cell_length_a   8.63111000
_cell_length_b   12.98570000
_cell_length_c   27.82590000
_cell_angle_alpha   89.97870000
_cell_angle_beta   90.01500000
_cell_angle_gamma   89.99880000
_symmetry_Int_Tables_number   1
_chemical_formula_structural   Cu2H26C23(NO4)2
_chemical_formula_sum   'Cu8 H104 C92 N8 O32'
_cell_volume   3118.75451749
_cell_formula_units_Z   4
loop_
 _symmetry_equiv_pos_site_id
 _symmetry_equiv_pos_as_xyz
  1  'x, y, z'
loop_
 _atom_site_type_symbol
 _atom_site_label
 _atom_site_symmetry_multiplicity
 _atom_site_fract_x
 _atom_site_fract_y
 _atom_site_fract_z
 _atom_site_occupancy
  Cu  Cu0  1  0.94791000  0.04685000  0.46181000  1.0
  Cu  Cu1  1  0.94850000  0.45346000  0.03786000  1.0
  Cu  Cu2  1  0.55148000  0.95349000  0.96214000  1.0
  Cu  Cu3  1  0.55161000  0.54653000  0.53781000  1.0
  Cu  Cu4  1  0.05208000  0.95318000  0.53817000  1.0
  Cu  Cu5  1  0.05151000  0.54655000  0.96214000  1.0
  Cu  Cu6  1  0.44851000  0.04650000  0.03786000  1.0
  Cu  Cu7  1  0.44839000  0.45343000  0.46216000  1.0
  H  H8  1  0.12409000  0.26615000  0.59869000  1.0
  H  H9  1  0.12446000  0.23390000  0.90130000  1.0
  H  H10  1  0.37543000  0.73376000  0.09868000  1.0
  H  H11  1  0.37508000  0.76622000  0.40132000  1.0
  H  H12  1  0.87590000  0.73383000  0.40131000  1.0
  H  H13  1  0.87554000  0.76611000  0.09870000  1.0
  H  H14  1  0.62458000  0.26625000  0.90132000  1.0
  H  H15  1  0.62496000  0.23378000  0.59869000  1.0
  H  H16  1  0.22502000  0.29370000  0.54475000  1.0
  H  H17  1  0.22489000  0.20661000  0.95538000  1.0
  H  H18  1  0.27509000  0.70656000  0.04458000  1.0
  H  H19  1  0.27524000  0.79352000  0.45544000  1.0
  H  H20  1  0.77498000  0.70630000  0.45525000  1.0
  H  H21  1  0.77510000  0.79339000  0.04461000  1.0
  H  H22  1  0.72492000  0.29344000  0.95542000  1.0
  H  H23  1  0.72478000  0.20647000  0.54455000  1.0
  H  H24  1  0.89175000  0.36215000  0.56753000  1.0
  H  H25  1  0.89170000  0.13810000  0.93250000  1.0
  H  H26  1  0.60827000  0.63804000  0.06750000  1.0
  H  H27  1  0.60818000  0.86184000  0.43236000  1.0
  H  H28  1  0.10830000  0.63785000  0.43246000  1.0
  H  H29  1  0.10830000  0.86190000  0.06749000  1.0
  H  H30  1  0.39173000  0.36197000  0.93251000  1.0
  H  H31  1  0.39182000  0.13817000  0.56765000  1.0
  H  H32  1  0.98128000  0.37361000  0.51086000  1.0
  H  H33  1  0.98135000  0.12658000  0.98918000  1.0
  H  H34  1  0.51861000  0.62656000  0.01081000  1.0
  H  H35  1  0.51900000  0.87341000  0.48908000  1.0
  H  H36  1  0.01871000  0.62637000  0.48913000  1.0
  H  H37  1  0.01863000  0.87342000  0.01081000  1.0
  H  H38  1  0.48140000  0.37345000  0.98919000  1.0
  H  H39  1  0.48096000  0.12658000  0.51092000  1.0
  H  H40  1  0.99955000  0.53648000  0.55652000  1.0
  H  H41  1  0.99934000  0.96373000  0.94353000  1.0
  H  H42  1  0.50059000  0.46367000  0.05650000  1.0
  H  H43  1  0.50043000  0.03635000  0.44379000  1.0
  H  H44  1  0.00045000  0.46352000  0.44347000  1.0
  H  H45  1  0.00066000  0.03627000  0.05646000  1.0
  H  H46  1  0.49942000  0.53633000  0.94350000  1.0
  H  H47  1  0.49957000  0.96365000  0.55622000  1.0
  H  H48  1  0.09561000  0.47494000  0.60478000  1.0
  H  H49  1  0.09523000  0.02513000  0.89526000  1.0
  H  H50  1  0.40466000  0.52508000  0.10475000  1.0
  H  H51  1  0.40572000  0.97523000  0.39518000  1.0
  H  H52  1  0.90440000  0.52507000  0.39524000  1.0
  H  H53  1  0.90478000  0.97487000  0.10473000  1.0
  H  H54  1  0.59534000  0.47493000  0.89526000  1.0
  H  H55  1  0.59432000  0.02478000  0.60481000  1.0
  H  H56  1  0.79464000  0.25409000  0.43431000  1.0
  H  H57  1  0.79458000  0.24570000  0.06593000  1.0
  H  H58  1  0.70533000  0.74570000  0.93412000  1.0
  H  H59  1  0.70542000  0.75423000  0.56583000  1.0
  H  H60  1  0.20537000  0.74591000  0.56569000  1.0
  H  H61  1  0.20544000  0.75430000  0.93407000  1.0
  H  H62  1  0.29467000  0.25429000  0.06589000  1.0
  H  H63  1  0.29457000  0.24576000  0.43417000  1.0
  H  H64  1  0.60445000  0.31992000  0.37498000  1.0
  H  H65  1  0.60437000  0.17993000  0.12523000  1.0
  H  H66  1  0.89555000  0.68001000  0.87482000  1.0
  H  H67  1  0.89557000  0.82000000  0.62515000  1.0
  H  H68  1  0.39555000  0.68009000  0.62502000  1.0
  H  H69  1  0.39564000  0.82006000  0.87477000  1.0
  H  H70  1  0.10445000  0.31998000  0.12518000  1.0
  H  H71  1  0.10443000  0.17999000  0.37485000  1.0
  H  H72  1  0.64007000  0.02691000  0.30174000  1.0
  H  H73  1  0.63960000  0.47297000  0.19837000  1.0
  H  H74  1  0.86051000  0.97315000  0.80165000  1.0
  H  H75  1  0.86050000  0.52689000  0.69837000  1.0
  H  H76  1  0.35993000  0.97309000  0.69827000  1.0
  H  H77  1  0.36039000  0.52703000  0.80163000  1.0
  H  H78  1  0.13948000  0.02684000  0.19835000  1.0
  H  H79  1  0.13947000  0.47312000  0.30163000  1.0
  H  H80  1  0.83133000  0.97369000  0.36490000  1.0
  H  H81  1  0.83091000  0.52616000  0.13526000  1.0
  H  H82  1  0.66918000  0.02626000  0.86475000  1.0
  H  H83  1  0.66916000  0.47373000  0.63524000  1.0
  H  H84  1  0.16867000  0.02632000  0.63511000  1.0
  H  H85  1  0.16908000  0.47385000  0.86474000  1.0
  H  H86  1  0.33082000  0.97374000  0.13525000  1.0
  H  H87  1  0.33081000  0.52627000  0.36476000  1.0
  H  H88  1  0.42698000  0.27924000  0.30654000  1.0
  H  H89  1  0.42677000  0.22060000  0.19365000  1.0
  H  H90  1  0.07322000  0.72076000  0.80643000  1.0
  H  H91  1  0.07328000  0.77931000  0.69358000  1.0
  H  H92  1  0.57302000  0.72076000  0.69347000  1.0
  H  H93  1  0.57325000  0.77939000  0.80635000  1.0
  H  H94  1  0.92677000  0.27923000  0.19357000  1.0
  H  H95  1  0.92671000  0.22068000  0.30642000  1.0
  H  H96  1  0.42071000  0.15255000  0.28283000  1.0
  H  H97  1  0.42069000  0.34733000  0.21735000  1.0
  H  H98  1  0.07935000  0.84750000  0.78268000  1.0
  H  H99  1  0.07934000  0.65257000  0.71736000  1.0
  H  H100  1  0.57928000  0.84744000  0.71718000  1.0
  H  H101  1  0.57931000  0.65265000  0.78265000  1.0
  H  H102  1  0.92065000  0.15249000  0.21732000  1.0
  H  H103  1  0.92064000  0.34742000  0.28264000  1.0
  H  H104  1  0.67180000  0.31332000  0.26119000  1.0
  H  H105  1  0.67179000  0.18657000  0.23896000  1.0
  H  H106  1  0.82822000  0.68671000  0.76112000  1.0
  H  H107  1  0.82825000  0.81339000  0.73884000  1.0
  H  H108  1  0.32820000  0.68668000  0.73882000  1.0
  H  H109  1  0.32822000  0.81343000  0.76104000  1.0
  H  H110  1  0.17177000  0.31329000  0.23888000  1.0
  H  H111  1  0.17175000  0.18661000  0.26116000  1.0
  C  C112  1  0.05980000  0.17738000  0.53712000  1.0
  C  C113  1  0.05945000  0.32273000  0.96264000  1.0
  C  C114  1  0.44055000  0.82269000  0.03736000  1.0
  C  C115  1  0.44060000  0.67736000  0.46262000  1.0
  C  C116  1  0.94020000  0.82260000  0.46289000  1.0
  C  C117  1  0.94054000  0.67728000  0.03736000  1.0
  C  C118  1  0.55945000  0.17731000  0.96264000  1.0
  C  C119  1  0.55943000  0.32265000  0.53738000  1.0
  C  C120  1  0.10917000  0.27872000  0.55995000  1.0
  C  C121  1  0.10913000  0.22150000  0.94006000  1.0
  C  C122  1  0.39082000  0.72144000  0.05992000  1.0
  C  C123  1  0.39082000  0.77859000  0.44006000  1.0
  C  C124  1  0.89084000  0.72128000  0.44004000  1.0
  C  C125  1  0.89086000  0.77850000  0.05994000  1.0
  C  C126  1  0.60919000  0.27857000  0.94008000  1.0
  C  C127  1  0.60922000  0.22141000  0.55994000  1.0
  C  C128  1  0.00437000  0.37085000  0.54954000  1.0
  C  C129  1  0.00436000  0.12937000  0.95049000  1.0
  C  C130  1  0.49560000  0.62931000  0.04950000  1.0
  C  C131  1  0.49565000  0.87068000  0.45040000  1.0
  C  C132  1  0.99565000  0.62916000  0.45045000  1.0
  C  C133  1  0.99562000  0.87063000  0.04951000  1.0
  C  C134  1  0.50441000  0.37069000  0.95050000  1.0
  C  C135  1  0.50436000  0.12934000  0.54960000  1.0
  C  C136  1  0.07787000  0.47241000  0.56570000  1.0
  C  C137  1  0.07767000  0.02777000  0.93435000  1.0
  C  C138  1  0.42227000  0.52771000  0.06566000  1.0
  C  C139  1  0.42252000  0.97232000  0.43430000  1.0
  C  C140  1  0.92214000  0.52761000  0.43431000  1.0
  C  C141  1  0.92233000  0.97224000  0.06564000  1.0
  C  C142  1  0.57774000  0.47229000  0.93435000  1.0
  C  C143  1  0.57747000  0.02768000  0.56570000  1.0
  C  C144  1  0.23347000  0.49228000  0.54155000  1.0
  C  C145  1  0.23335000  0.00783000  0.95846000  1.0
  C  C146  1  0.26660000  0.50780000  0.04154000  1.0
  C  C147  1  0.26602000  0.99204000  0.45822000  1.0
  C  C148  1  0.76654000  0.50773000  0.45846000  1.0
  C  C149  1  0.76665000  0.99217000  0.04154000  1.0
  C  C150  1  0.73340000  0.49220000  0.95847000  1.0
  C  C151  1  0.73397000  0.00797000  0.54178000  1.0
  C  C152  1  0.75817000  0.20627000  0.40414000  1.0
  C  C153  1  0.75808000  0.29356000  0.09608000  1.0
  C  C154  1  0.74182000  0.79359000  0.90396000  1.0
  C  C155  1  0.74193000  0.70637000  0.59600000  1.0
  C  C156  1  0.24184000  0.79374000  0.59586000  1.0
  C  C157  1  0.24193000  0.70644000  0.90392000  1.0
  C  C158  1  0.25819000  0.20641000  0.09604000  1.0
  C  C159  1  0.25806000  0.29363000  0.40400000  1.0
  C  C160  1  0.65094000  0.24243000  0.37073000  1.0
  C  C161  1  0.65084000  0.25741000  0.12947000  1.0
  C  C162  1  0.84909000  0.75748000  0.87058000  1.0
  C  C163  1  0.84917000  0.74251000  0.62940000  1.0
  C  C164  1  0.34905000  0.75758000  0.62927000  1.0
  C  C165  1  0.34916000  0.74259000  0.87054000  1.0
  C  C166  1  0.15091000  0.24251000  0.12942000  1.0
  C  C167  1  0.15082000  0.25749000  0.37060000  1.0
  C  C168  1  0.60552000  0.17859000  0.33277000  1.0
  C  C169  1  0.60530000  0.32124000  0.16742000  1.0
  C  C170  1  0.89471000  0.82138000  0.83263000  1.0
  C  C171  1  0.89476000  0.67865000  0.66736000  1.0
  C  C172  1  0.39446000  0.82141000  0.66724000  1.0
  C  C173  1  0.39471000  0.67876000  0.83258000  1.0
  C  C174  1  0.10528000  0.17861000  0.16736000  1.0
  C  C175  1  0.10521000  0.32135000  0.33264000  1.0
  C  C176  1  0.67182000  0.08015000  0.33046000  1.0
  C  C177  1  0.67147000  0.41970000  0.16968000  1.0
  C  C178  1  0.82861000  0.91985000  0.83036000  1.0
  C  C179  1  0.82865000  0.58016000  0.66964000  1.0
  C  C180  1  0.32818000  0.91985000  0.66954000  1.0
  C  C181  1  0.32853000  0.58031000  0.83033000  1.0
  C  C182  1  0.17139000  0.08014000  0.16964000  1.0
  C  C183  1  0.17133000  0.41984000  0.33036000  1.0
  C  C184  1  0.77876000  0.05010000  0.36508000  1.0
  C  C185  1  0.77847000  0.44971000  0.13508000  1.0
  C  C186  1  0.72160000  0.94982000  0.86495000  1.0
  C  C187  1  0.72162000  0.55018000  0.63504000  1.0
  C  C188  1  0.22125000  0.94991000  0.63492000  1.0
  C  C189  1  0.22153000  0.55029000  0.86492000  1.0
  C  C190  1  0.27840000  0.05017000  0.13505000  1.0
  C  C191  1  0.27836000  0.44982000  0.36496000  1.0
  C  C192  1  0.49917000  0.21529000  0.29362000  1.0
  C  C193  1  0.49905000  0.28454000  0.20656000  1.0
  C  C194  1  0.00098000  0.78471000  0.79350000  1.0
  C  C195  1  0.00101000  0.71536000  0.70651000  1.0
  C  C196  1  0.50082000  0.78471000  0.70639000  1.0
  C  C197  1  0.50096000  0.71545000  0.79344000  1.0
  C  C198  1  0.99902000  0.21527000  0.20650000  1.0
  C  C199  1  0.99898000  0.28463000  0.29349000  1.0
  C  C200  1  0.59500000  0.24992000  0.25009000  1.0
  C  C201  1  0.90511000  0.75006000  0.74999000  1.0
  C  C202  1  0.40501000  0.75007000  0.74991000  1.0
  C  C203  1  0.09488000  0.24994000  0.25001000  1.0
  N  N204  1  0.82209000  0.11202000  0.40146000  1.0
  N  N205  1  0.82201000  0.38780000  0.09874000  1.0
  N  N206  1  0.67799000  0.88786000  0.90128000  1.0
  N  N207  1  0.67805000  0.61211000  0.59869000  1.0
  N  N208  1  0.17792000  0.88799000  0.59854000  1.0
  N  N209  1  0.17800000  0.61220000  0.90126000  1.0
  N  N210  1  0.32201000  0.11213000  0.09872000  1.0
  N  N211  1  0.32192000  0.38788000  0.40131000  1.0
  O  O212  1  0.00180000  0.18030000  0.49511000  1.0
  O  O213  1  0.00084000  0.32036000  0.00464000  1.0
  O  O214  1  0.49916000  0.82038000  0.99536000  1.0
  O  O215  1  0.49935000  0.67969000  0.50461000  1.0
  O  O216  1  0.99822000  0.81973000  0.50489000  1.0
  O  O217  1  0.99918000  0.67964000  0.99537000  1.0
  O  O218  1  0.50083000  0.17962000  0.00464000  1.0
  O  O219  1  0.50066000  0.32029000  0.49539000  1.0
  O  O220  1  0.08716000  0.09712000  0.56209000  1.0
  O  O221  1  0.08652000  0.40325000  0.93777000  1.0
  O  O222  1  0.41355000  0.90320000  0.06223000  1.0
  O  O223  1  0.41334000  0.59685000  0.43778000  1.0
  O  O224  1  0.91279000  0.90286000  0.43790000  1.0
  O  O225  1  0.91346000  0.59674000  0.06223000  1.0
  O  O226  1  0.58644000  0.09681000  0.93777000  1.0
  O  O227  1  0.58666000  0.40317000  0.56221000  1.0
  O  O228  1  0.24845000  0.45842000  0.49886000  1.0
  O  O229  1  0.24854000  0.04167000  0.00114000  1.0
  O  O230  1  0.25146000  0.54168000  0.99885000  1.0
  O  O231  1  0.25110000  0.95793000  0.50085000  1.0
  O  O232  1  0.75155000  0.54158000  0.50114000  1.0
  O  O233  1  0.75145000  0.95834000  0.99885000  1.0
  O  O234  1  0.74856000  0.45831000  0.00115000  1.0
  O  O235  1  0.74886000  0.04211000  0.49915000  1.0
  O  O236  1  0.33698000  0.53916000  0.56584000  1.0
  O  O237  1  0.33668000  0.96088000  0.93414000  1.0
  O  O238  1  0.16323000  0.46083000  0.06585000  1.0
  O  O239  1  0.16337000  0.03867000  0.43360000  1.0
  O  O240  1  0.66305000  0.46083000  0.43416000  1.0
  O  O241  1  0.66332000  0.03912000  0.06586000  1.0
  O  O242  1  0.83676000  0.53918000  0.93415000  1.0
  O  O243  1  0.83664000  0.96133000  0.56638000  1.0
