# generated using pymatgen
data_H6PdC8(N2O)2
_symmetry_space_group_name_H-M   'P 1'
_cell_length_a   16.37000000
_cell_length_b   16.37000000
_cell_length_c   16.37000000
_cell_angle_alpha   90.00000000
_cell_angle_beta   90.00000000
_cell_angle_gamma   90.00000000
_symmetry_Int_Tables_number   1
_chemical_formula_structural   H6PdC8(N2O)2
_chemical_formula_sum   'H72 Pd12 C96 N48 O24'
_cell_volume   4386.78185300
_cell_formula_units_Z   12
loop_
 _symmetry_equiv_pos_site_id
 _symmetry_equiv_pos_as_xyz
  1  'x, y, z'
loop_
 _atom_site_type_symbol
 _atom_site_label
 _atom_site_symmetry_multiplicity
 _atom_site_fract_x
 _atom_site_fract_y
 _atom_site_fract_z
 _atom_site_occupancy
  H  H0  1  0.57385000  0.76143000  0.41594000  1.0
  H  H1  1  0.92615000  0.73857000  0.41594000  1.0
  H  H2  1  0.92615000  0.76143000  0.08406000  1.0
  H  H3  1  0.57385000  0.73857000  0.08406000  1.0
  H  H4  1  0.41594000  0.57385000  0.76143000  1.0
  H  H5  1  0.41594000  0.92615000  0.73857000  1.0
  H  H6  1  0.08406000  0.92615000  0.76143000  1.0
  H  H7  1  0.08406000  0.57385000  0.73857000  1.0
  H  H8  1  0.76143000  0.41594000  0.57385000  1.0
  H  H9  1  0.73857000  0.41594000  0.92615000  1.0
  H  H10  1  0.76143000  0.08406000  0.92615000  1.0
  H  H11  1  0.73857000  0.08406000  0.57385000  1.0
  H  H12  1  0.26143000  0.07385000  0.58406000  1.0
  H  H13  1  0.23857000  0.42615000  0.58406000  1.0
  H  H14  1  0.26143000  0.42615000  0.91594000  1.0
  H  H15  1  0.23857000  0.07385000  0.91594000  1.0
  H  H16  1  0.07385000  0.91594000  0.23857000  1.0
  H  H17  1  0.42615000  0.91594000  0.26143000  1.0
  H  H18  1  0.42615000  0.58406000  0.23857000  1.0
  H  H19  1  0.07385000  0.58406000  0.26143000  1.0
  H  H20  1  0.91594000  0.26143000  0.42615000  1.0
  H  H21  1  0.91594000  0.23857000  0.07385000  1.0
  H  H22  1  0.58406000  0.26143000  0.07385000  1.0
  H  H23  1  0.58406000  0.23857000  0.42615000  1.0
  H  H24  1  0.42615000  0.23857000  0.58406000  1.0
  H  H25  1  0.07385000  0.26143000  0.58406000  1.0
  H  H26  1  0.07385000  0.23857000  0.91594000  1.0
  H  H27  1  0.42615000  0.26143000  0.91594000  1.0
  H  H28  1  0.58406000  0.42615000  0.23857000  1.0
  H  H29  1  0.58406000  0.07385000  0.26143000  1.0
  H  H30  1  0.91594000  0.07385000  0.23857000  1.0
  H  H31  1  0.91594000  0.42615000  0.26143000  1.0
  H  H32  1  0.23857000  0.58406000  0.42615000  1.0
  H  H33  1  0.26143000  0.58406000  0.07385000  1.0
  H  H34  1  0.23857000  0.91594000  0.07385000  1.0
  H  H35  1  0.26143000  0.91594000  0.42615000  1.0
  H  H36  1  0.73857000  0.92615000  0.41594000  1.0
  H  H37  1  0.76143000  0.57385000  0.41594000  1.0
  H  H38  1  0.73857000  0.57385000  0.08406000  1.0
  H  H39  1  0.76143000  0.92615000  0.08406000  1.0
  H  H40  1  0.92615000  0.08406000  0.76143000  1.0
  H  H41  1  0.57385000  0.08406000  0.73857000  1.0
  H  H42  1  0.57385000  0.41594000  0.76143000  1.0
  H  H43  1  0.92615000  0.41594000  0.73857000  1.0
  H  H44  1  0.08406000  0.73857000  0.57385000  1.0
  H  H45  1  0.08406000  0.76143000  0.92615000  1.0
  H  H46  1  0.41594000  0.73857000  0.92615000  1.0
  H  H47  1  0.41594000  0.76143000  0.57385000  1.0
  H  H48  1  0.68566000  0.68565000  0.49422000  1.0
  H  H49  1  0.81435000  0.81435000  0.49422000  1.0
  H  H50  1  0.81435000  0.68565000  0.00578000  1.0
  H  H51  1  0.68565000  0.81435000  0.00578000  1.0
  H  H52  1  0.49422000  0.68565000  0.68565000  1.0
  H  H53  1  0.49422000  0.81435000  0.81435000  1.0
  H  H54  1  0.00578000  0.81435000  0.68565000  1.0
  H  H55  1  0.00578000  0.68565000  0.81435000  1.0
  H  H56  1  0.68565000  0.49422000  0.68565000  1.0
  H  H57  1  0.81435000  0.49422000  0.81435000  1.0
  H  H58  1  0.68565000  0.00578000  0.81435000  1.0
  H  H59  1  0.81435000  0.00578000  0.68565000  1.0
  H  H60  1  0.18565000  0.18565000  0.50578000  1.0
  H  H61  1  0.31435000  0.31435000  0.50578000  1.0
  H  H62  1  0.18565000  0.31435000  0.99422000  1.0
  H  H63  1  0.31435000  0.18565000  0.99422000  1.0
  H  H64  1  0.18565000  0.99422000  0.31435000  1.0
  H  H65  1  0.31435000  0.99422000  0.18565000  1.0
  H  H66  1  0.31435000  0.50578000  0.31435000  1.0
  H  H67  1  0.18565000  0.50578000  0.18565000  1.0
  H  H68  1  0.99422000  0.18565000  0.31435000  1.0
  H  H69  1  0.99422000  0.31435000  0.18565000  1.0
  H  H70  1  0.50578000  0.18565000  0.18565000  1.0
  H  H71  1  0.50578000  0.31435000  0.31435000  1.0
  Pd  Pd72  1  0.50000000  0.75000000  0.25000000  1.0
  Pd  Pd73  1  0.00000000  0.75000000  0.25000000  1.0
  Pd  Pd74  1  0.25000000  0.50000000  0.75000000  1.0
  Pd  Pd75  1  0.25000000  0.00000000  0.75000000  1.0
  Pd  Pd76  1  0.75000000  0.25000000  0.50000000  1.0
  Pd  Pd77  1  0.75000000  0.25000000  0.00000000  1.0
  Pd  Pd78  1  0.50000000  0.25000000  0.75000000  1.0
  Pd  Pd79  1  0.00000000  0.25000000  0.75000000  1.0
  Pd  Pd80  1  0.75000000  0.50000000  0.25000000  1.0
  Pd  Pd81  1  0.75000000  0.00000000  0.25000000  1.0
  Pd  Pd82  1  0.25000000  0.75000000  0.50000000  1.0
  Pd  Pd83  1  0.25000000  0.75000000  0.00000000  1.0
  C  C84  1  0.60793000  0.71044000  0.38979000  1.0
  C  C85  1  0.89207000  0.78956000  0.38979000  1.0
  C  C86  1  0.89207000  0.71044000  0.11021000  1.0
  C  C87  1  0.60793000  0.78956000  0.11021000  1.0
  C  C88  1  0.38979000  0.60793000  0.71044000  1.0
  C  C89  1  0.38979000  0.89207000  0.78956000  1.0
  C  C90  1  0.11021000  0.89207000  0.71044000  1.0
  C  C91  1  0.11021000  0.60793000  0.78956000  1.0
  C  C92  1  0.71044000  0.38979000  0.60793000  1.0
  C  C93  1  0.78956000  0.38979000  0.89207000  1.0
  C  C94  1  0.71044000  0.11021000  0.89207000  1.0
  C  C95  1  0.78956000  0.11021000  0.60793000  1.0
  C  C96  1  0.21044000  0.10793000  0.61021000  1.0
  C  C97  1  0.28956000  0.39207000  0.61021000  1.0
  C  C98  1  0.21044000  0.39207000  0.88979000  1.0
  C  C99  1  0.28956000  0.10793000  0.88979000  1.0
  C  C100  1  0.10793000  0.88979000  0.28956000  1.0
  C  C101  1  0.39207000  0.88979000  0.21044000  1.0
  C  C102  1  0.39207000  0.61021000  0.28956000  1.0
  C  C103  1  0.10793000  0.61021000  0.21044000  1.0
  C  C104  1  0.88979000  0.21044000  0.39207000  1.0
  C  C105  1  0.88979000  0.28956000  0.10793000  1.0
  C  C106  1  0.61021000  0.21044000  0.10793000  1.0
  C  C107  1  0.61021000  0.28956000  0.39207000  1.0
  C  C108  1  0.39207000  0.28956000  0.61021000  1.0
  C  C109  1  0.10793000  0.21044000  0.61021000  1.0
  C  C110  1  0.10793000  0.28956000  0.88979000  1.0
  C  C111  1  0.39207000  0.21044000  0.88979000  1.0
  C  C112  1  0.61021000  0.39207000  0.28956000  1.0
  C  C113  1  0.61021000  0.10793000  0.21044000  1.0
  C  C114  1  0.88979000  0.10793000  0.28956000  1.0
  C  C115  1  0.88979000  0.39207000  0.21044000  1.0
  C  C116  1  0.28956000  0.61021000  0.39207000  1.0
  C  C117  1  0.21044000  0.61021000  0.10793000  1.0
  C  C118  1  0.28956000  0.88979000  0.10793000  1.0
  C  C119  1  0.21044000  0.88979000  0.39207000  1.0
  C  C120  1  0.78956000  0.89207000  0.38979000  1.0
  C  C121  1  0.71044000  0.60793000  0.38979000  1.0
  C  C122  1  0.78956000  0.60793000  0.11021000  1.0
  C  C123  1  0.71044000  0.89207000  0.11021000  1.0
  C  C124  1  0.89207000  0.11021000  0.71044000  1.0
  C  C125  1  0.60793000  0.11021000  0.78956000  1.0
  C  C126  1  0.60793000  0.38979000  0.71044000  1.0
  C  C127  1  0.89207000  0.38979000  0.78956000  1.0
  C  C128  1  0.11021000  0.78956000  0.60793000  1.0
  C  C129  1  0.11021000  0.71044000  0.89207000  1.0
  C  C130  1  0.38979000  0.78956000  0.89207000  1.0
  C  C131  1  0.38979000  0.71044000  0.60793000  1.0
  C  C132  1  0.62549000  0.62549000  0.27272000  1.0
  C  C133  1  0.66945000  0.66945000  0.43193000  1.0
  C  C134  1  0.87451000  0.87451000  0.27272000  1.0
  C  C135  1  0.83056000  0.83056000  0.43193000  1.0
  C  C136  1  0.87451000  0.62549000  0.22728000  1.0
  C  C137  1  0.83056000  0.66944000  0.06807000  1.0
  C  C138  1  0.62549000  0.87451000  0.22728000  1.0
  C  C139  1  0.66944000  0.83056000  0.06807000  1.0
  C  C140  1  0.27272000  0.62549000  0.62549000  1.0
  C  C141  1  0.43193000  0.66945000  0.66945000  1.0
  C  C142  1  0.27272000  0.87451000  0.87451000  1.0
  C  C143  1  0.43193000  0.83056000  0.83056000  1.0
  C  C144  1  0.22728000  0.87451000  0.62549000  1.0
  C  C145  1  0.06807000  0.83056000  0.66944000  1.0
  C  C146  1  0.22728000  0.62549000  0.87451000  1.0
  C  C147  1  0.06807000  0.66944000  0.83056000  1.0
  C  C148  1  0.62549000  0.27272000  0.62549000  1.0
  C  C149  1  0.66945000  0.43193000  0.66945000  1.0
  C  C150  1  0.87451000  0.27272000  0.87451000  1.0
  C  C151  1  0.83056000  0.43193000  0.83056000  1.0
  C  C152  1  0.62549000  0.22728000  0.87451000  1.0
  C  C153  1  0.66944000  0.06807000  0.83056000  1.0
  C  C154  1  0.87451000  0.22728000  0.62549000  1.0
  C  C155  1  0.83056000  0.06807000  0.66944000  1.0
  C  C156  1  0.12549000  0.12549000  0.72728000  1.0
  C  C157  1  0.16945000  0.16945000  0.56807000  1.0
  C  C158  1  0.37451000  0.37451000  0.72728000  1.0
  C  C159  1  0.33056000  0.33056000  0.56807000  1.0
  C  C160  1  0.12549000  0.37451000  0.77272000  1.0
  C  C161  1  0.16944000  0.33056000  0.93193000  1.0
  C  C162  1  0.37451000  0.12549000  0.77272000  1.0
  C  C163  1  0.33056000  0.16944000  0.93193000  1.0
  C  C164  1  0.12549000  0.77272000  0.37451000  1.0
  C  C165  1  0.16945000  0.93193000  0.33056000  1.0
  C  C166  1  0.37451000  0.77272000  0.12549000  1.0
  C  C167  1  0.33056000  0.93193000  0.16944000  1.0
  C  C168  1  0.37451000  0.72728000  0.37451000  1.0
  C  C169  1  0.33056000  0.56807000  0.33056000  1.0
  C  C170  1  0.12549000  0.72728000  0.12549000  1.0
  C  C171  1  0.16945000  0.56807000  0.16945000  1.0
  C  C172  1  0.77272000  0.12549000  0.37451000  1.0
  C  C173  1  0.93193000  0.16945000  0.33056000  1.0
  C  C174  1  0.77272000  0.37451000  0.12549000  1.0
  C  C175  1  0.93193000  0.33056000  0.16944000  1.0
  C  C176  1  0.72728000  0.12549000  0.12549000  1.0
  C  C177  1  0.56807000  0.16945000  0.16945000  1.0
  C  C178  1  0.72728000  0.37451000  0.37451000  1.0
  C  C179  1  0.56807000  0.33056000  0.33056000  1.0
  N  N180  1  0.58747000  0.69003000  0.31344000  1.0
  N  N181  1  0.91253000  0.80998000  0.31343000  1.0
  N  N182  1  0.91253000  0.69003000  0.18656000  1.0
  N  N183  1  0.58747000  0.80998000  0.18656000  1.0
  N  N184  1  0.31344000  0.58747000  0.69003000  1.0
  N  N185  1  0.31344000  0.91253000  0.80998000  1.0
  N  N186  1  0.18657000  0.91253000  0.69003000  1.0
  N  N187  1  0.18656000  0.58747000  0.80998000  1.0
  N  N188  1  0.69003000  0.31344000  0.58747000  1.0
  N  N189  1  0.80998000  0.31343000  0.91253000  1.0
  N  N190  1  0.69003000  0.18656000  0.91253000  1.0
  N  N191  1  0.80998000  0.18656000  0.58747000  1.0
  N  N192  1  0.19003000  0.08747000  0.68656000  1.0
  N  N193  1  0.30998000  0.41253000  0.68656000  1.0
  N  N194  1  0.19003000  0.41253000  0.81344000  1.0
  N  N195  1  0.30998000  0.08747000  0.81344000  1.0
  N  N196  1  0.08747000  0.81344000  0.30998000  1.0
  N  N197  1  0.41253000  0.81344000  0.19003000  1.0
  N  N198  1  0.41253000  0.68656000  0.30998000  1.0
  N  N199  1  0.08747000  0.68656000  0.19003000  1.0
  N  N200  1  0.81344000  0.19003000  0.41253000  1.0
  N  N201  1  0.81344000  0.30998000  0.08747000  1.0
  N  N202  1  0.68656000  0.19003000  0.08747000  1.0
  N  N203  1  0.68657000  0.30998000  0.41253000  1.0
  N  N204  1  0.41253000  0.30998000  0.68656000  1.0
  N  N205  1  0.08747000  0.19003000  0.68656000  1.0
  N  N206  1  0.08747000  0.30998000  0.81344000  1.0
  N  N207  1  0.41253000  0.19003000  0.81344000  1.0
  N  N208  1  0.68657000  0.41253000  0.30998000  1.0
  N  N209  1  0.68656000  0.08747000  0.19003000  1.0
  N  N210  1  0.81344000  0.08747000  0.30998000  1.0
  N  N211  1  0.81344000  0.41253000  0.19003000  1.0
  N  N212  1  0.30998000  0.68657000  0.41253000  1.0
  N  N213  1  0.19003000  0.68656000  0.08747000  1.0
  N  N214  1  0.30998000  0.81344000  0.08747000  1.0
  N  N215  1  0.19003000  0.81344000  0.41253000  1.0
  N  N216  1  0.80998000  0.91253000  0.31343000  1.0
  N  N217  1  0.69003000  0.58747000  0.31344000  1.0
  N  N218  1  0.80998000  0.58747000  0.18656000  1.0
  N  N219  1  0.69003000  0.91253000  0.18656000  1.0
  N  N220  1  0.91253000  0.18657000  0.69003000  1.0
  N  N221  1  0.58747000  0.18656000  0.80998000  1.0
  N  N222  1  0.58747000  0.31344000  0.69003000  1.0
  N  N223  1  0.91253000  0.31343000  0.80998000  1.0
  N  N224  1  0.18656000  0.80998000  0.58747000  1.0
  N  N225  1  0.18657000  0.69003000  0.91253000  1.0
  N  N226  1  0.31343000  0.80998000  0.91253000  1.0
  N  N227  1  0.31344000  0.69003000  0.58747000  1.0
  O  O228  1  0.60337000  0.60337000  0.20380000  1.0
  O  O229  1  0.89664000  0.89664000  0.20380000  1.0
  O  O230  1  0.89664000  0.60336000  0.29620000  1.0
  O  O231  1  0.60336000  0.89664000  0.29620000  1.0
  O  O232  1  0.20380000  0.60337000  0.60337000  1.0
  O  O233  1  0.20380000  0.89664000  0.89664000  1.0
  O  O234  1  0.29620000  0.89664000  0.60336000  1.0
  O  O235  1  0.29620000  0.60336000  0.89664000  1.0
  O  O236  1  0.60337000  0.20380000  0.60337000  1.0
  O  O237  1  0.89664000  0.20380000  0.89664000  1.0
  O  O238  1  0.60336000  0.29620000  0.89664000  1.0
  O  O239  1  0.89664000  0.29620000  0.60336000  1.0
  O  O240  1  0.10337000  0.10337000  0.79620000  1.0
  O  O241  1  0.39664000  0.39664000  0.79620000  1.0
  O  O242  1  0.10336000  0.39664000  0.70380000  1.0
  O  O243  1  0.39664000  0.10336000  0.70380000  1.0
  O  O244  1  0.10336000  0.70380000  0.39664000  1.0
  O  O245  1  0.39664000  0.70380000  0.10336000  1.0
  O  O246  1  0.39664000  0.79620000  0.39664000  1.0
  O  O247  1  0.10337000  0.79620000  0.10337000  1.0
  O  O248  1  0.70380000  0.10336000  0.39664000  1.0
  O  O249  1  0.70380000  0.39664000  0.10336000  1.0
  O  O250  1  0.79620000  0.10337000  0.10337000  1.0
  O  O251  1  0.79620000  0.39664000  0.39664000  1.0
