# generated using pymatgen
data_NiH14C22(NO)4
_symmetry_space_group_name_H-M   'P 1'
_cell_length_a   12.78360000
_cell_length_b   22.36920000
_cell_length_c   22.36920000
_cell_angle_alpha   90.00000000
_cell_angle_beta   90.00000000
_cell_angle_gamma   90.00000000
_symmetry_Int_Tables_number   1
_chemical_formula_structural   NiH14C22(NO)4
_chemical_formula_sum   'Ni8 H112 C176 N32 O32'
_cell_volume   6396.67194041
_cell_formula_units_Z   8
loop_
 _symmetry_equiv_pos_site_id
 _symmetry_equiv_pos_as_xyz
  1  'x, y, z'
loop_
 _atom_site_type_symbol
 _atom_site_label
 _atom_site_symmetry_multiplicity
 _atom_site_fract_x
 _atom_site_fract_y
 _atom_site_fract_z
 _atom_site_occupancy
  Ni  Ni0  1  0.24768000  0.25873000  0.74604000  1.0
  Ni  Ni1  1  0.24768000  0.74127000  0.25396000  1.0
  Ni  Ni2  1  0.24768000  0.75396000  0.75873000  1.0
  Ni  Ni3  1  0.24768000  0.24604000  0.24127000  1.0
  Ni  Ni4  1  0.75232000  0.24127000  0.24604000  1.0
  Ni  Ni5  1  0.75232000  0.75873000  0.75396000  1.0
  Ni  Ni6  1  0.75232000  0.74604000  0.25873000  1.0
  Ni  Ni7  1  0.75232000  0.25396000  0.74127000  1.0
  H  H8  1  0.73453000  0.96987000  0.77177000  1.0
  H  H9  1  0.73452000  0.03013000  0.22822000  1.0
  H  H10  1  0.73453000  0.72822000  0.46987000  1.0
  H  H11  1  0.73453000  0.27177000  0.53013000  1.0
  H  H12  1  0.26547000  0.53013000  0.27178000  1.0
  H  H13  1  0.26547000  0.46987000  0.72822000  1.0
  H  H14  1  0.26547000  0.77178000  0.96987000  1.0
  H  H15  1  0.26548000  0.22822000  0.03013000  1.0
  H  H16  1  0.83297000  0.06718000  0.76897000  1.0
  H  H17  1  0.83297000  0.93282000  0.23103000  1.0
  H  H18  1  0.83297000  0.73103000  0.56718000  1.0
  H  H19  1  0.83297000  0.26897000  0.43282000  1.0
  H  H20  1  0.16703000  0.43282000  0.26898000  1.0
  H  H21  1  0.16703000  0.56718000  0.73103000  1.0
  H  H22  1  0.16703000  0.76897000  0.06718000  1.0
  H  H23  1  0.16703000  0.23103000  0.93282000  1.0
  H  H24  1  0.02762000  0.88005000  0.79916000  1.0
  H  H25  1  0.02762000  0.11995000  0.20084000  1.0
  H  H26  1  0.02762000  0.70084000  0.38005000  1.0
  H  H27  1  0.02762000  0.29916000  0.61995000  1.0
  H  H28  1  0.97238000  0.61995000  0.29916000  1.0
  H  H29  1  0.97238000  0.38005000  0.70084000  1.0
  H  H30  1  0.97238000  0.79916000  0.88005000  1.0
  H  H31  1  0.97238000  0.20084000  0.11995000  1.0
  H  H32  1  0.92957000  0.12802000  0.72118000  1.0
  H  H33  1  0.92957000  0.87198000  0.27882000  1.0
  H  H34  1  0.92957000  0.77882000  0.62802000  1.0
  H  H35  1  0.92957000  0.22118000  0.37198000  1.0
  H  H36  1  0.07043000  0.37198000  0.22118000  1.0
  H  H37  1  0.07043000  0.62802000  0.77882000  1.0
  H  H38  1  0.07043000  0.72118000  0.12802000  1.0
  H  H39  1  0.07043000  0.27882000  0.87198000  1.0
  H  H40  1  0.04102000  0.21751000  0.70970000  1.0
  H  H41  1  0.04102000  0.78249000  0.29030000  1.0
  H  H42  1  0.04102000  0.79030000  0.71751000  1.0
  H  H43  1  0.04102000  0.20970000  0.28249000  1.0
  H  H44  1  0.95898000  0.28249000  0.20970000  1.0
  H  H45  1  0.95898000  0.71751000  0.79030000  1.0
  H  H46  1  0.95898000  0.70970000  0.21751000  1.0
  H  H47  1  0.95898000  0.29030000  0.78249000  1.0
  H  H48  1  0.28363000  0.14017000  0.80550000  1.0
  H  H49  1  0.28363000  0.85983000  0.19450000  1.0
  H  H50  1  0.28363000  0.69450000  0.64017000  1.0
  H  H51  1  0.28363000  0.30550000  0.35983000  1.0
  H  H52  1  0.71637000  0.35983000  0.30550000  1.0
  H  H53  1  0.71637000  0.64017000  0.69450000  1.0
  H  H54  1  0.71637000  0.80550000  0.14017000  1.0
  H  H55  1  0.71637000  0.19450000  0.85983000  1.0
  H  H56  1  0.18107000  0.04612000  0.82148000  1.0
  H  H57  1  0.18107000  0.95388000  0.17852000  1.0
  H  H58  1  0.18107000  0.67852000  0.54612000  1.0
  H  H59  1  0.18107000  0.32148000  0.45388000  1.0
  H  H60  1  0.81893000  0.45388000  0.32148000  1.0
  H  H61  1  0.81893000  0.54612000  0.67852000  1.0
  H  H62  1  0.81893000  0.82148000  0.04612000  1.0
  H  H63  1  0.81893000  0.17852000  0.95388000  1.0
  H  H64  1  0.70898000  0.17281000  0.44289000  1.0
  H  H65  1  0.70898000  0.82719000  0.55711000  1.0
  H  H66  1  0.70898000  0.05711000  0.67281000  1.0
  H  H67  1  0.70898000  0.94289000  0.32719000  1.0
  H  H68  1  0.29102000  0.32719000  0.94289000  1.0
  H  H69  1  0.29102000  0.67281000  0.05711000  1.0
  H  H70  1  0.29102000  0.44289000  0.17281000  1.0
  H  H71  1  0.29102000  0.55711000  0.82719000  1.0
  H  H72  1  0.60217000  0.16837000  0.53729000  1.0
  H  H73  1  0.60217000  0.83163000  0.46271000  1.0
  H  H74  1  0.60217000  0.96271000  0.66837000  1.0
  H  H75  1  0.60217000  0.03729000  0.33163000  1.0
  H  H76  1  0.39783000  0.33163000  0.03729000  1.0
  H  H77  1  0.39783000  0.66837000  0.96271000  1.0
  H  H78  1  0.39783000  0.53729000  0.16837000  1.0
  H  H79  1  0.39783000  0.46271000  0.83163000  1.0
  H  H80  1  0.47185000  0.28652000  0.36785000  1.0
  H  H81  1  0.47185000  0.71348000  0.63215000  1.0
  H  H82  1  0.47185000  0.13215000  0.78652000  1.0
  H  H83  1  0.47185000  0.86785000  0.21348000  1.0
  H  H84  1  0.52815000  0.21348000  0.86785000  1.0
  H  H85  1  0.52815000  0.78652000  0.13215000  1.0
  H  H86  1  0.52815000  0.36785000  0.28652000  1.0
  H  H87  1  0.52815000  0.63215000  0.71348000  1.0
  H  H88  1  0.55962000  0.21737000  0.61734000  1.0
  H  H89  1  0.55962000  0.78264000  0.38266000  1.0
  H  H90  1  0.55962000  0.88266000  0.71736000  1.0
  H  H91  1  0.55962000  0.11734000  0.28264000  1.0
  H  H92  1  0.44038000  0.28264000  0.11734000  1.0
  H  H93  1  0.44038000  0.71736000  0.88266000  1.0
  H  H94  1  0.44038000  0.61734000  0.21736000  1.0
  H  H95  1  0.44038000  0.38266000  0.78263000  1.0
  H  H96  1  0.45567000  0.22392000  0.71027000  1.0
  H  H97  1  0.45567000  0.77608000  0.28973000  1.0
  H  H98  1  0.45567000  0.78973000  0.72392000  1.0
  H  H99  1  0.45567000  0.21027000  0.27608000  1.0
  H  H100  1  0.54433000  0.27608000  0.21027000  1.0
  H  H101  1  0.54433000  0.72392000  0.78973000  1.0
  H  H102  1  0.54433000  0.71027000  0.22392000  1.0
  H  H103  1  0.54433000  0.28973000  0.77608000  1.0
  H  H104  1  0.18301000  0.26022000  0.61633000  1.0
  H  H105  1  0.18301000  0.73978000  0.38367000  1.0
  H  H106  1  0.18301000  0.88367000  0.76023000  1.0
  H  H107  1  0.18301000  0.11633000  0.23977000  1.0
  H  H108  1  0.81699000  0.23978000  0.11633000  1.0
  H  H109  1  0.81699000  0.76022000  0.88367000  1.0
  H  H110  1  0.81699000  0.61633000  0.26022000  1.0
  H  H111  1  0.81699000  0.38367000  0.73978000  1.0
  H  H112  1  0.27506000  0.25263000  0.51841000  1.0
  H  H113  1  0.27506000  0.74738000  0.48159000  1.0
  H  H114  1  0.27506000  0.98159000  0.75263000  1.0
  H  H115  1  0.27506000  0.01841000  0.24737000  1.0
  H  H116  1  0.72494000  0.24738000  0.01841000  1.0
  H  H117  1  0.72494000  0.75263000  0.98159000  1.0
  H  H118  1  0.72494000  0.51841000  0.25262000  1.0
  H  H119  1  0.72494000  0.48159000  0.74737000  1.0
  C  C120  1  0.82092000  0.85906000  0.77775000  1.0
  C  C121  1  0.82092000  0.14094000  0.22225000  1.0
  C  C122  1  0.82092000  0.72225000  0.35906000  1.0
  C  C123  1  0.82092000  0.27775000  0.64094000  1.0
  C  C124  1  0.17908000  0.64095000  0.27774000  1.0
  C  C125  1  0.17908000  0.35906000  0.72225000  1.0
  C  C126  1  0.17908000  0.77775000  0.85906000  1.0
  C  C127  1  0.17908000  0.22225000  0.14094000  1.0
  C  C128  1  0.87457000  0.91781000  0.78323000  1.0
  C  C129  1  0.87457000  0.08219000  0.21677000  1.0
  C  C130  1  0.87457000  0.71677000  0.41781000  1.0
  C  C131  1  0.87457000  0.28323000  0.58219000  1.0
  C  C132  1  0.12544000  0.58219000  0.28323000  1.0
  C  C133  1  0.12543000  0.41781000  0.71677000  1.0
  C  C134  1  0.12543000  0.78323000  0.91781000  1.0
  C  C135  1  0.12543000  0.21677000  0.08219000  1.0
  C  C136  1  0.81930000  0.97129000  0.77654000  1.0
  C  C137  1  0.81930000  0.02871000  0.22346000  1.0
  C  C138  1  0.81929000  0.72346000  0.47129000  1.0
  C  C139  1  0.81930000  0.27654000  0.52871000  1.0
  C  C140  1  0.18071000  0.52871000  0.27654000  1.0
  C  C141  1  0.18071000  0.47129000  0.72346000  1.0
  C  C142  1  0.18070000  0.77654000  0.97129000  1.0
  C  C143  1  0.18071000  0.22346000  0.02871000  1.0
  C  C144  1  0.87405000  0.02490000  0.77488000  1.0
  C  C145  1  0.87405000  0.97510000  0.22512000  1.0
  C  C146  1  0.87405000  0.72512000  0.52490000  1.0
  C  C147  1  0.87405000  0.27488000  0.47510000  1.0
  C  C148  1  0.12595000  0.47510000  0.27488000  1.0
  C  C149  1  0.12595000  0.52490000  0.72512000  1.0
  C  C150  1  0.12595000  0.77488000  0.02490000  1.0
  C  C151  1  0.12595000  0.22512000  0.97510000  1.0
  C  C152  1  0.98371000  0.02357000  0.77966000  1.0
  C  C153  1  0.98371000  0.97643000  0.22034000  1.0
  C  C154  1  0.98371000  0.72034000  0.52357000  1.0
  C  C155  1  0.98371000  0.27966000  0.47643000  1.0
  C  C156  1  0.01629000  0.47643000  0.27966000  1.0
  C  C157  1  0.01629000  0.52357000  0.72034000  1.0
  C  C158  1  0.01629000  0.77966000  0.02357000  1.0
  C  C159  1  0.01629000  0.22034000  0.97643000  1.0
  C  C160  1  0.98329000  0.92120000  0.79148000  1.0
  C  C161  1  0.98329000  0.07880000  0.20852000  1.0
  C  C162  1  0.98329000  0.70852000  0.42120000  1.0
  C  C163  1  0.98329000  0.29148000  0.57880000  1.0
  C  C164  1  0.01671000  0.57881000  0.29148000  1.0
  C  C165  1  0.01671000  0.42120000  0.70852000  1.0
  C  C166  1  0.01671000  0.79148000  0.92120000  1.0
  C  C167  1  0.01671000  0.20852000  0.07880000  1.0
  C  C168  1  0.04629000  0.07875000  0.77270000  1.0
  C  C169  1  0.04629000  0.92125000  0.22730000  1.0
  C  C170  1  0.04629000  0.72730000  0.57875000  1.0
  C  C171  1  0.04629000  0.27270000  0.42125000  1.0
  C  C172  1  0.95371000  0.42125000  0.27270000  1.0
  C  C173  1  0.95371000  0.57875000  0.72730000  1.0
  C  C174  1  0.95371000  0.77270000  0.07875000  1.0
  C  C175  1  0.95371000  0.22730000  0.92125000  1.0
  C  C176  1  0.00754000  0.12807000  0.74084000  1.0
  C  C177  1  0.00754000  0.87193000  0.25916000  1.0
  C  C178  1  0.00754000  0.75916000  0.62807000  1.0
  C  C179  1  0.00754000  0.24084000  0.37193000  1.0
  C  C180  1  0.99246000  0.37193000  0.24084000  1.0
  C  C181  1  0.99246000  0.62807000  0.75916000  1.0
  C  C182  1  0.99246000  0.74084000  0.12807000  1.0
  C  C183  1  0.99246000  0.25916000  0.87193000  1.0
  C  C184  1  0.06969000  0.17848000  0.73385000  1.0
  C  C185  1  0.06969000  0.82152000  0.26615000  1.0
  C  C186  1  0.06969000  0.76615000  0.67848000  1.0
  C  C187  1  0.06969000  0.23385000  0.32152000  1.0
  C  C188  1  0.93031000  0.32152000  0.23385000  1.0
  C  C189  1  0.93031000  0.67848000  0.76615000  1.0
  C  C190  1  0.93031000  0.73385000  0.17848000  1.0
  C  C191  1  0.93031000  0.26615000  0.82152000  1.0
  C  C192  1  0.20477000  0.13525000  0.78772000  1.0
  C  C193  1  0.20476000  0.86475000  0.21228000  1.0
  C  C194  1  0.20477000  0.71228000  0.63525000  1.0
  C  C195  1  0.20476000  0.28772000  0.36475000  1.0
  C  C196  1  0.79523000  0.36475000  0.28772000  1.0
  C  C197  1  0.79523000  0.63525000  0.71228000  1.0
  C  C198  1  0.79524000  0.78772000  0.13525000  1.0
  C  C199  1  0.79524000  0.21228000  0.86475000  1.0
  C  C200  1  0.14765000  0.08321000  0.79642000  1.0
  C  C201  1  0.14765000  0.91679000  0.20358000  1.0
  C  C202  1  0.14765000  0.70358000  0.58321000  1.0
  C  C203  1  0.14765000  0.29642000  0.41679000  1.0
  C  C204  1  0.85235000  0.41679000  0.29642000  1.0
  C  C205  1  0.85235000  0.58321000  0.70358000  1.0
  C  C206  1  0.85235000  0.79642000  0.08321000  1.0
  C  C207  1  0.85235000  0.20358000  0.91679000  1.0
  C  C208  1  0.66363000  0.23806000  0.34440000  1.0
  C  C209  1  0.66363000  0.76194000  0.65560000  1.0
  C  C210  1  0.66363000  0.15560000  0.73806000  1.0
  C  C211  1  0.66363000  0.84440000  0.26194000  1.0
  C  C212  1  0.33637000  0.26194000  0.84440000  1.0
  C  C213  1  0.33637000  0.73806000  0.15560000  1.0
  C  C214  1  0.33637000  0.34440000  0.23806000  1.0
  C  C215  1  0.33637000  0.65560000  0.76194000  1.0
  C  C216  1  0.60009000  0.23210000  0.39962000  1.0
  C  C217  1  0.60009000  0.76790000  0.60038000  1.0
  C  C218  1  0.60009000  0.10038000  0.73210000  1.0
  C  C219  1  0.60009000  0.89962000  0.26790000  1.0
  C  C220  1  0.39991000  0.26790000  0.89962000  1.0
  C  C221  1  0.39991000  0.73210000  0.10038000  1.0
  C  C222  1  0.39991000  0.39962000  0.23210000  1.0
  C  C223  1  0.39991000  0.60038000  0.76790000  1.0
  C  C224  1  0.63554000  0.19719000  0.44731000  1.0
  C  C225  1  0.63554000  0.80282000  0.55269000  1.0
  C  C226  1  0.63554000  0.05269000  0.69719000  1.0
  C  C227  1  0.63554000  0.94731000  0.30281000  1.0
  C  C228  1  0.36446000  0.30281000  0.94731000  1.0
  C  C229  1  0.36446000  0.69719000  0.05269000  1.0
  C  C230  1  0.36446000  0.44731000  0.19718000  1.0
  C  C231  1  0.36446000  0.55269000  0.80281000  1.0
  C  C232  1  0.57673000  0.19523000  0.49939000  1.0
  C  C233  1  0.57672000  0.80477000  0.50061000  1.0
  C  C234  1  0.57672000  0.00061000  0.69524000  1.0
  C  C235  1  0.57672000  0.99938000  0.30476000  1.0
  C  C236  1  0.42327000  0.30476000  0.99938000  1.0
  C  C237  1  0.42327000  0.69524000  0.00061000  1.0
  C  C238  1  0.42327000  0.49938000  0.19524000  1.0
  C  C239  1  0.42328000  0.50061000  0.80476000  1.0
  C  C240  1  0.48428000  0.22912000  0.50278000  1.0
  C  C241  1  0.48428000  0.77088000  0.49723000  1.0
  C  C242  1  0.48428000  0.99722000  0.72912000  1.0
  C  C243  1  0.48428000  0.00278000  0.27088000  1.0
  C  C244  1  0.51572000  0.27088000  0.00278000  1.0
  C  C245  1  0.51572000  0.72912000  0.99722000  1.0
  C  C246  1  0.51572000  0.50278000  0.22912000  1.0
  C  C247  1  0.51572000  0.49722000  0.77088000  1.0
  C  C248  1  0.50338000  0.26127000  0.40566000  1.0
  C  C249  1  0.50337000  0.73873000  0.59435000  1.0
  C  C250  1  0.50338000  0.09434000  0.76127000  1.0
  C  C251  1  0.50338000  0.90565000  0.23873000  1.0
  C  C252  1  0.49662000  0.23872000  0.90565000  1.0
  C  C253  1  0.49662000  0.76127000  0.09434000  1.0
  C  C254  1  0.49662000  0.40566000  0.26128000  1.0
  C  C255  1  0.49662000  0.59434000  0.73873000  1.0
  C  C256  1  0.42500000  0.23259000  0.55928000  1.0
  C  C257  1  0.42500000  0.76742000  0.44072000  1.0
  C  C258  1  0.42500000  0.94072000  0.73259000  1.0
  C  C259  1  0.42500000  0.05928000  0.26742000  1.0
  C  C260  1  0.57500000  0.26742000  0.05928000  1.0
  C  C261  1  0.57500000  0.73258000  0.94072000  1.0
  C  C262  1  0.57500000  0.55928000  0.23258000  1.0
  C  C263  1  0.57500000  0.44072000  0.76742000  1.0
  C  C264  1  0.47543000  0.22443000  0.61438000  1.0
  C  C265  1  0.47542000  0.77557000  0.38562000  1.0
  C  C266  1  0.47543000  0.88562000  0.72443000  1.0
  C  C267  1  0.47543000  0.11438000  0.27557000  1.0
  C  C268  1  0.52457000  0.27557000  0.11438000  1.0
  C  C269  1  0.52457000  0.72443000  0.88562000  1.0
  C  C270  1  0.52457000  0.61438000  0.22443000  1.0
  C  C271  1  0.52457000  0.38562000  0.77557000  1.0
  C  C272  1  0.41833000  0.22932000  0.66685000  1.0
  C  C273  1  0.41833000  0.77069000  0.33315000  1.0
  C  C274  1  0.41833000  0.83315000  0.72932000  1.0
  C  C275  1  0.41833000  0.16685000  0.27069000  1.0
  C  C276  1  0.58167000  0.27069000  0.16685000  1.0
  C  C277  1  0.58167000  0.72931000  0.83315000  1.0
  C  C278  1  0.58167000  0.66685000  0.22931000  1.0
  C  C279  1  0.58167000  0.33315000  0.77069000  1.0
  C  C280  1  0.26603000  0.24973000  0.61435000  1.0
  C  C281  1  0.26603000  0.75027000  0.38565000  1.0
  C  C282  1  0.26603000  0.88565000  0.74973000  1.0
  C  C283  1  0.26603000  0.11435000  0.25027000  1.0
  C  C284  1  0.73397000  0.25027000  0.11434000  1.0
  C  C285  1  0.73397000  0.74973000  0.88565000  1.0
  C  C286  1  0.73396000  0.61435000  0.24973000  1.0
  C  C287  1  0.73397000  0.38565000  0.75027000  1.0
  C  C288  1  0.31768000  0.24555000  0.55993000  1.0
  C  C289  1  0.31767000  0.75446000  0.44007000  1.0
  C  C290  1  0.31767000  0.94007000  0.74555000  1.0
  C  C291  1  0.31767000  0.05993000  0.25445000  1.0
  C  C292  1  0.68232000  0.25446000  0.05993000  1.0
  C  C293  1  0.68232000  0.74555000  0.94007000  1.0
  C  C294  1  0.68232000  0.55993000  0.24554000  1.0
  C  C295  1  0.68233000  0.44007000  0.75445000  1.0
  N  N296  1  0.03720000  0.97237000  0.78959000  1.0
  N  N297  1  0.03720000  0.02763000  0.21041000  1.0
  N  N298  1  0.03720000  0.71041000  0.47237000  1.0
  N  N299  1  0.03720000  0.28959000  0.52763000  1.0
  N  N300  1  0.96280000  0.52763000  0.28959000  1.0
  N  N301  1  0.96280000  0.47237000  0.71041000  1.0
  N  N302  1  0.96280000  0.78959000  0.97237000  1.0
  N  N303  1  0.96280000  0.21041000  0.02763000  1.0
  N  N304  1  0.16705000  0.18242000  0.75686000  1.0
  N  N305  1  0.16704000  0.81758000  0.24314000  1.0
  N  N306  1  0.16705000  0.74314000  0.68242000  1.0
  N  N307  1  0.16705000  0.25686000  0.31758000  1.0
  N  N308  1  0.83295000  0.31758000  0.25686000  1.0
  N  N309  1  0.83295000  0.68242000  0.74314000  1.0
  N  N310  1  0.83296000  0.75686000  0.18242000  1.0
  N  N311  1  0.83295000  0.24314000  0.81758000  1.0
  N  N312  1  0.44662000  0.26037000  0.45579000  1.0
  N  N313  1  0.44662000  0.73963000  0.54421000  1.0
  N  N314  1  0.44662000  0.04422000  0.76037000  1.0
  N  N315  1  0.44662000  0.95579000  0.23963000  1.0
  N  N316  1  0.55338000  0.23963000  0.95579000  1.0
  N  N317  1  0.55338000  0.76037000  0.04422000  1.0
  N  N318  1  0.55338000  0.45579000  0.26037000  1.0
  N  N319  1  0.55338000  0.54421000  0.73963000  1.0
  N  N320  1  0.31519000  0.24204000  0.66715000  1.0
  N  N321  1  0.31519000  0.75796000  0.33285000  1.0
  N  N322  1  0.31519000  0.83285000  0.74204000  1.0
  N  N323  1  0.31519000  0.16715000  0.25796000  1.0
  N  N324  1  0.68481000  0.25796000  0.16715000  1.0
  N  N325  1  0.68481000  0.74204000  0.83285000  1.0
  N  N326  1  0.68481000  0.66715000  0.24204000  1.0
  N  N327  1  0.68481000  0.33285000  0.75796000  1.0
  O  O328  1  0.87520000  0.81092000  0.78383000  1.0
  O  O329  1  0.87520000  0.18908000  0.21617000  1.0
  O  O330  1  0.87521000  0.71617000  0.31092000  1.0
  O  O331  1  0.87520000  0.28383000  0.68908000  1.0
  O  O332  1  0.12480000  0.68908000  0.28383000  1.0
  O  O333  1  0.12480000  0.31092000  0.71617000  1.0
  O  O334  1  0.12480000  0.78383000  0.81092000  1.0
  O  O335  1  0.12480000  0.21617000  0.18908000  1.0
  O  O336  1  0.72434000  0.85623000  0.76442000  1.0
  O  O337  1  0.72434000  0.14377000  0.23558000  1.0
  O  O338  1  0.72434000  0.73558000  0.35623000  1.0
  O  O339  1  0.72434000  0.26442000  0.64377000  1.0
  O  O340  1  0.27566000  0.64376000  0.26441000  1.0
  O  O341  1  0.27566000  0.35623000  0.73558000  1.0
  O  O342  1  0.27566000  0.76442000  0.85623000  1.0
  O  O343  1  0.27566000  0.23558000  0.14376000  1.0
  O  O344  1  0.75692000  0.21816000  0.34274000  1.0
  O  O345  1  0.75692000  0.78184000  0.65726000  1.0
  O  O346  1  0.75692000  0.15726000  0.71817000  1.0
  O  O347  1  0.75692000  0.84274000  0.28184000  1.0
  O  O348  1  0.24308000  0.28184000  0.84274000  1.0
  O  O349  1  0.24308000  0.71817000  0.15726000  1.0
  O  O350  1  0.24308000  0.34274000  0.21816000  1.0
  O  O351  1  0.24308000  0.65726000  0.78184000  1.0
  O  O352  1  0.62309000  0.26341000  0.29839000  1.0
  O  O353  1  0.62310000  0.73659000  0.70161000  1.0
  O  O354  1  0.62310000  0.20161000  0.76342000  1.0
  O  O355  1  0.62309000  0.79839000  0.23658000  1.0
  O  O356  1  0.37691000  0.23658000  0.79839000  1.0
  O  O357  1  0.37690000  0.76342000  0.20161000  1.0
  O  O358  1  0.37691000  0.29839000  0.26341000  1.0
  O  O359  1  0.37690000  0.70161000  0.73659000  1.0
