# generated using pymatgen
data_HoH19C24S(NO2)4
_symmetry_space_group_name_H-M   'P 1'
_cell_length_a   8.80007000
_cell_length_b   8.98294000
_cell_length_c   14.52360000
_cell_angle_alpha   95.25060000
_cell_angle_beta   91.06560000
_cell_angle_gamma   98.31750000
_symmetry_Int_Tables_number   1
_chemical_formula_structural   HoH19C24S(NO2)4
_chemical_formula_sum   'Ho2 H38 C48 S2 N8 O16'
_cell_volume   1130.66437712
_cell_formula_units_Z   2
loop_
 _symmetry_equiv_pos_site_id
 _symmetry_equiv_pos_as_xyz
  1  'x, y, z'
loop_
 _atom_site_type_symbol
 _atom_site_label
 _atom_site_symmetry_multiplicity
 _atom_site_fract_x
 _atom_site_fract_y
 _atom_site_fract_z
 _atom_site_occupancy
  Ho  Ho0  1  0.94734000  0.44049000  0.84453000  1.0
  Ho  Ho1  1  0.05266000  0.55951000  0.15547000  1.0
  H  H2  1  0.39182000  0.55100000  0.39804000  1.0
  H  H3  1  0.60818000  0.44900000  0.60196000  1.0
  H  H4  1  0.81017000  0.76125000  0.80818000  1.0
  H  H5  1  0.18983000  0.23875000  0.19182000  1.0
  H  H6  1  0.83815000  0.97927000  0.71109000  1.0
  H  H7  1  0.16185000  0.02073000  0.28891000  1.0
  H  H8  1  0.00289000  0.96860000  0.57260000  1.0
  H  H9  1  0.99711000  0.03140000  0.42739000  1.0
  H  H10  1  0.31663000  0.31238000  0.47729000  1.0
  H  H11  1  0.68337000  0.68762000  0.52271000  1.0
  H  H12  1  0.24275000  0.10842000  0.58081000  1.0
  H  H13  1  0.75724000  0.89158000  0.41919000  1.0
  H  H14  1  0.08839000  0.16434000  0.72038000  1.0
  H  H15  1  0.91161000  0.83566000  0.27962000  1.0
  H  H16  1  0.39870000  0.05642000  0.41972000  1.0
  H  H17  1  0.60130000  0.94358000  0.58028000  1.0
  H  H18  1  0.57687000  0.21389000  0.32330000  1.0
  H  H19  1  0.42312000  0.78611000  0.67670000  1.0
  H  H20  1  0.71800000  0.08721000  0.19852000  1.0
  H  H21  1  0.28200000  0.91279000  0.80149000  1.0
  H  H22  1  0.66873000  0.80567000  0.16781000  1.0
  H  H23  1  0.33128000  0.19434000  0.83219000  1.0
  H  H24  1  0.63633000  0.96439000  0.85321000  1.0
  H  H25  1  0.36367000  0.03562000  0.14679000  1.0
  H  H26  1  0.59075000  0.05632000  0.96083000  1.0
  H  H27  1  0.40926000  0.94368000  0.03917000  1.0
  H  H28  1  0.83110000  0.00351000  0.03433000  1.0
  H  H29  1  0.16890000  0.99649000  0.96567000  1.0
  H  H30  1  0.89607000  0.93682000  0.92632000  1.0
  H  H31  1  0.10393000  0.06318000  0.07368000  1.0
  H  H32  1  0.62359000  0.78339000  0.03029000  1.0
  H  H33  1  0.37641000  0.21661000  0.96971000  1.0
  H  H34  1  0.66345000  0.72415000  0.91495000  1.0
  H  H35  1  0.33655000  0.27585000  0.08505000  1.0
  H  H36  1  0.28276000  0.54899000  0.85833000  1.0
  H  H37  1  0.71724000  0.45101000  0.14167000  1.0
  H  H38  1  0.20526000  0.64896000  0.93435000  1.0
  H  H39  1  0.79474000  0.35104000  0.06565000  1.0
  C  C40  1  0.88284000  0.76186000  0.74845000  1.0
  C  C41  1  0.11716000  0.23814000  0.25155000  1.0
  C  C42  1  0.89726000  0.88270000  0.69298000  1.0
  C  C43  1  0.10274000  0.11730000  0.30702000  1.0
  C  C44  1  0.99069000  0.87756000  0.61764000  1.0
  C  C45  1  0.00931000  0.12244000  0.38236000  1.0
  C  C46  1  0.06737000  0.75184000  0.59826000  1.0
  C  C47  1  0.93263000  0.24815000  0.40174000  1.0
  C  C48  1  0.16933000  0.73508000  0.52366000  1.0
  C  C49  1  0.83067000  0.26492000  0.47634000  1.0
  C  C50  1  0.23015000  0.59969000  0.50498000  1.0
  C  C51  1  0.76985000  0.40030000  0.49502000  1.0
  C  C52  1  0.19682000  0.47283000  0.55713000  1.0
  C  C53  1  0.80318000  0.52716000  0.44287000  1.0
  C  C54  1  0.24738000  0.33190000  0.53753000  1.0
  C  C55  1  0.75261000  0.66810000  0.46247000  1.0
  C  C56  1  0.20688000  0.21915000  0.59480000  1.0
  C  C57  1  0.79312000  0.78085000  0.40520000  1.0
  C  C58  1  0.11955000  0.24936000  0.67249000  1.0
  C  C59  1  0.88045000  0.75064000  0.32751000  1.0
  C  C60  1  0.10545000  0.49292000  0.63595000  1.0
  C  C61  1  0.89455000  0.50707000  0.36405000  1.0
  C  C62  1  0.04189000  0.63220000  0.65659000  1.0
  C  C63  1  0.95811000  0.36780000  0.34341000  1.0
  C  C64  1  0.32294000  0.76916000  0.41103000  1.0
  C  C65  1  0.67706000  0.23084000  0.58897000  1.0
  C  C66  1  0.42590000  0.84515000  0.34614000  1.0
  C  C67  1  0.57410000  0.15485000  0.65386000  1.0
  C  C68  1  0.45683000  0.00388000  0.36262000  1.0
  C  C69  1  0.54317000  0.99612000  0.63738000  1.0
  C  C70  1  0.55815000  0.09109000  0.30959000  1.0
  C  C71  1  0.44185000  0.90891000  0.69041000  1.0
  C  C72  1  0.63608000  0.02012000  0.23941000  1.0
  C  C73  1  0.36393000  0.97988000  0.76060000  1.0
  C  C74  1  0.60708000  0.86311000  0.22122000  1.0
  C  C75  1  0.39292000  0.13689000  0.77878000  1.0
  C  C76  1  0.50165000  0.77533000  0.27229000  1.0
  C  C77  1  0.49835000  0.22467000  0.72771000  1.0
  C  C78  1  0.77306000  0.17780000  0.89044000  1.0
  C  C79  1  0.22694000  0.82220000  0.10956000  1.0
  C  C80  1  0.68544000  0.03150000  0.91652000  1.0
  C  C81  1  0.31456000  0.96850000  0.08348000  1.0
  C  C82  1  0.79229000  0.94294000  0.96684000  1.0
  C  C83  1  0.20772000  0.05706000  0.03316000  1.0
  C  C84  1  0.71556000  0.78193000  0.98038000  1.0
  C  C85  1  0.28444000  0.21807000  0.01961000  1.0
  C  C86  1  0.83690000  0.69396000  0.01331000  1.0
  C  C87  1  0.16310000  0.30605000  0.98669000  1.0
  S  S88  1  0.46538000  0.57620000  0.23466000  1.0
  S  S89  1  0.53462000  0.42380000  0.76534000  1.0
  N  N90  1  0.95301000  0.64080000  0.73160000  1.0
  N  N91  1  0.04699000  0.35920000  0.26840000  1.0
  N  N92  1  0.07092000  0.38197000  0.69314000  1.0
  N  N93  1  0.92908000  0.61803000  0.30686000  1.0
  N  N94  1  0.22726000  0.83897000  0.46493000  1.0
  N  N95  1  0.77274000  0.16103000  0.53507000  1.0
  N  N96  1  0.32575000  0.62361000  0.43290000  1.0
  N  N97  1  0.67425000  0.37639000  0.56710000  1.0
  O  O98  1  0.29869000  0.54608000  0.21270000  1.0
  O  O99  1  0.70131000  0.45392000  0.78731000  1.0
  O  O100  1  0.50519000  0.49279000  0.31244000  1.0
  O  O101  1  0.49481000  0.50721000  0.68756000  1.0
  O  O102  1  0.55762000  0.55153000  0.15385000  1.0
  O  O103  1  0.44237000  0.44847000  0.84615000  1.0
  O  O104  1  0.78990000  0.29608000  0.94837000  1.0
  O  O105  1  0.21010000  0.70392000  0.05163000  1.0
  O  O106  1  0.83478000  0.18327000  0.81179000  1.0
  O  O107  1  0.16522000  0.81673000  0.18821000  1.0
  O  O108  1  0.90147000  0.61557000  0.95205000  1.0
  O  O109  1  0.09853000  0.38443000  0.04795000  1.0
  O  O110  1  0.87668000  0.70696000  0.09837000  1.0
  O  O111  1  0.12332000  0.29304000  0.90163000  1.0
  O  O112  1  0.19165000  0.60060000  0.86956000  1.0
  O  O113  1  0.80835000  0.39940000  0.13044000  1.0
