# generated using pymatgen
data_TbH7C8O7
_symmetry_space_group_name_H-M   'P 1'
_cell_length_a   7.20165000
_cell_length_b   7.66668000
_cell_length_c   17.35230000
_cell_angle_alpha   92.03560000
_cell_angle_beta   89.99990000
_cell_angle_gamma   90.00000000
_symmetry_Int_Tables_number   1
_chemical_formula_structural   TbH7C8O7
_chemical_formula_sum   'Tb4 H28 C32 O28'
_cell_volume   957.46354366
_cell_formula_units_Z   4
loop_
 _symmetry_equiv_pos_site_id
 _symmetry_equiv_pos_as_xyz
  1  'x, y, z'
loop_
 _atom_site_type_symbol
 _atom_site_label
 _atom_site_symmetry_multiplicity
 _atom_site_fract_x
 _atom_site_fract_y
 _atom_site_fract_z
 _atom_site_occupancy
  Tb  Tb0  1  0.49285000  0.85546000  0.24653000  1.0
  Tb  Tb1  1  0.99285000  0.64454000  0.25347000  1.0
  Tb  Tb2  1  0.50715000  0.14454000  0.75347000  1.0
  Tb  Tb3  1  0.00714000  0.35546000  0.74653000  1.0
  H  H4  1  0.66197000  0.96473000  0.97957000  1.0
  H  H5  1  0.16197000  0.53527000  0.52043000  1.0
  H  H6  1  0.33803000  0.03527000  0.02043000  1.0
  H  H7  1  0.83803000  0.46473000  0.47957000  1.0
  H  H8  1  0.51510000  0.24748000  0.11265000  1.0
  H  H9  1  0.01510000  0.25252000  0.38735000  1.0
  H  H10  1  0.48490000  0.75252000  0.88735000  1.0
  H  H11  1  0.98490000  0.74748000  0.61265000  1.0
  H  H12  1  0.70856000  0.29989000  0.05509000  1.0
  H  H13  1  0.20856000  0.20011000  0.44491000  1.0
  H  H14  1  0.29144000  0.70011000  0.94491000  1.0
  H  H15  1  0.79144000  0.79989000  0.55509000  1.0
  H  H16  1  0.39988000  0.32504000  0.98742000  1.0
  H  H17  1  0.89988000  0.17496000  0.51259000  1.0
  H  H18  1  0.60012000  0.67496000  0.01258000  1.0
  H  H19  1  0.10012000  0.82504000  0.48742000  1.0
  H  H20  1  0.33219000  0.49158000  0.05467000  1.0
  H  H21  1  0.83219000  0.00842000  0.44534000  1.0
  H  H22  1  0.66781000  0.50842000  0.94533000  1.0
  H  H23  1  0.16781000  0.99158000  0.55467000  1.0
  H  H24  1  0.68923000  0.20653000  0.30762000  1.0
  H  H25  1  0.18923000  0.29347000  0.19238000  1.0
  H  H26  1  0.31077000  0.79347000  0.69238000  1.0
  H  H27  1  0.81077000  0.70653000  0.80762000  1.0
  H  H28  1  0.81697000  0.03616000  0.30184000  1.0
  H  H29  1  0.31697000  0.46384000  0.19816000  1.0
  H  H30  1  0.18304000  0.96384000  0.69816000  1.0
  H  H31  1  0.68303000  0.53616000  0.80184000  1.0
  C  C32  1  0.75517000  0.90564000  0.12405000  1.0
  C  C33  1  0.25517000  0.59436000  0.37596000  1.0
  C  C34  1  0.24482000  0.09436000  0.87595000  1.0
  C  C35  1  0.74483000  0.40564000  0.62404000  1.0
  C  C36  1  0.88558000  0.95093000  0.06124000  1.0
  C  C37  1  0.38558000  0.54907000  0.43876000  1.0
  C  C38  1  0.11441000  0.04907000  0.93876000  1.0
  C  C39  1  0.61441000  0.45094000  0.56123000  1.0
  C  C40  1  0.07761000  0.97220000  0.07318000  1.0
  C  C41  1  0.57760000  0.52780000  0.42682000  1.0
  C  C42  1  0.92239000  0.02780000  0.92683000  1.0
  C  C43  1  0.42239000  0.47221000  0.57317000  1.0
  C  C44  1  0.81103000  0.97897000  0.98827000  1.0
  C  C45  1  0.31103000  0.52103000  0.51173000  1.0
  C  C46  1  0.18897000  0.02103000  0.01173000  1.0
  C  C47  1  0.68896000  0.47897000  0.48827000  1.0
  C  C48  1  0.18026000  0.94624000  0.14717000  1.0
  C  C49  1  0.68026000  0.55376000  0.35283000  1.0
  C  C50  1  0.81974000  0.05376000  0.85283000  1.0
  C  C51  1  0.31974000  0.44624000  0.64718000  1.0
  C  C52  1  0.64894000  0.48401000  0.14601000  1.0
  C  C53  1  0.14894000  0.01599000  0.35399000  1.0
  C  C54  1  0.35106000  0.51599000  0.85399000  1.0
  C  C55  1  0.85107000  0.98401000  0.64601000  1.0
  C  C56  1  0.58484000  0.35495000  0.08367000  1.0
  C  C57  1  0.08484000  0.14506000  0.41633000  1.0
  C  C58  1  0.41516000  0.64505000  0.91633000  1.0
  C  C59  1  0.91516000  0.85495000  0.58367000  1.0
  C  C60  1  0.45283000  0.43256000  0.02477000  1.0
  C  C61  1  0.95283000  0.06744000  0.47523000  1.0
  C  C62  1  0.54717000  0.56744000  0.97523000  1.0
  C  C63  1  0.04717000  0.93256000  0.52477000  1.0
  O  O64  1  0.58190000  0.92565000  0.11529000  1.0
  O  O65  1  0.08190000  0.57435000  0.38471000  1.0
  O  O66  1  0.41809000  0.07435000  0.88471000  1.0
  O  O67  1  0.91809000  0.42565000  0.61529000  1.0
  O  O68  1  0.68943000  0.08147000  0.29166000  1.0
  O  O69  1  0.18943000  0.41853000  0.20834000  1.0
  O  O70  1  0.31057000  0.91853000  0.70834000  1.0
  O  O71  1  0.81057000  0.58147000  0.79166000  1.0
  O  O72  1  0.81871000  0.84982000  0.18767000  1.0
  O  O73  1  0.31871000  0.65019000  0.31233000  1.0
  O  O74  1  0.18129000  0.15018000  0.81233000  1.0
  O  O75  1  0.68129000  0.34981000  0.68767000  1.0
  O  O76  1  0.26312000  0.07348000  0.17961000  1.0
  O  O77  1  0.76312000  0.42652000  0.32038000  1.0
  O  O78  1  0.73688000  0.92652000  0.82039000  1.0
  O  O79  1  0.23689000  0.57347000  0.67962000  1.0
  O  O80  1  0.20221000  0.79006000  0.17133000  1.0
  O  O81  1  0.70222000  0.70995000  0.32867000  1.0
  O  O82  1  0.79778000  0.20994000  0.82867000  1.0
  O  O83  1  0.29779000  0.29005000  0.67133000  1.0
  O  O84  1  0.52463000  0.57226000  0.18363000  1.0
  O  O85  1  0.02463000  0.92774000  0.31637000  1.0
  O  O86  1  0.47537000  0.42774000  0.81637000  1.0
  O  O87  1  0.97538000  0.07226000  0.68363000  1.0
  O  O88  1  0.82169000  0.49761000  0.15895000  1.0
  O  O89  1  0.32169000  0.00240000  0.34105000  1.0
  O  O90  1  0.17831000  0.50240000  0.84105000  1.0
  O  O91  1  0.67831000  0.99761000  0.65895000  1.0
