# generated using pymatgen
data_SnH16C8O5
_symmetry_space_group_name_H-M   'P 1'
_cell_length_a   6.34262000
_cell_length_b   8.91118553
_cell_length_c   11.36055331
_cell_angle_alpha   69.91749376
_cell_angle_beta   73.80877285
_cell_angle_gamma   69.15441456
_symmetry_Int_Tables_number   1
_chemical_formula_structural   SnH16C8O5
_chemical_formula_sum   'Sn2 H32 C16 O10'
_cell_volume   554.53741663
_cell_formula_units_Z   2
loop_
 _symmetry_equiv_pos_site_id
 _symmetry_equiv_pos_as_xyz
  1  'x, y, z'
loop_
 _atom_site_type_symbol
 _atom_site_label
 _atom_site_symmetry_multiplicity
 _atom_site_fract_x
 _atom_site_fract_y
 _atom_site_fract_z
 _atom_site_occupancy
  Sn  Sn0  1  0.35210000  0.75015000  0.24992000  1.0
  Sn  Sn1  1  0.64790000  0.24985000  0.75008000  1.0
  H  H2  1  0.37980000  0.49272000  0.17411000  1.0
  H  H3  1  0.04670000  0.00750000  0.32587000  1.0
  H  H4  1  0.62020000  0.50728000  0.82589000  1.0
  H  H5  1  0.95330000  0.99250000  0.67413000  1.0
  H  H6  1  0.53431000  0.62245000  0.05335000  1.0
  H  H7  1  0.21046000  0.87768000  0.44654000  1.0
  H  H8  1  0.46569000  0.37755000  0.94665000  1.0
  H  H9  1  0.78956000  0.12232000  0.55345000  1.0
  H  H10  1  0.70938000  0.35973000  0.29161000  1.0
  H  H11  1  0.36086000  0.14044000  0.20840000  1.0
  H  H12  1  0.29063000  0.64027000  0.70839000  1.0
  H  H13  1  0.63914000  0.85956000  0.79160000  1.0
  H  H14  1  0.85858000  0.49908000  0.18347000  1.0
  H  H15  1  0.54125000  0.00101000  0.31659000  1.0
  H  H16  1  0.14142000  0.50092000  0.81653000  1.0
  H  H17  1  0.45875000  0.99899000  0.68341000  1.0
  H  H18  1  0.73295000  0.23758000  0.11586000  1.0
  H  H19  1  0.08658000  0.26255000  0.38412000  1.0
  H  H20  1  0.26705000  0.76242000  0.88414000  1.0
  H  H21  1  0.91341000  0.73745000  0.61588000  1.0
  H  H22  1  0.00817000  0.22362000  0.13343000  1.0
  H  H23  1  0.36536000  0.27642000  0.36672000  1.0
  H  H24  1  0.99183000  0.77638000  0.86657000  1.0
  H  H25  1  0.63464000  0.72358000  0.63328000  1.0
  H  H26  1  0.88059000  0.37940000  0.00633000  1.0
  H  H27  1  0.26645000  0.12063000  0.49373000  1.0
  H  H28  1  0.11942000  0.62060000  0.99367000  1.0
  H  H29  1  0.73355000  0.87937000  0.50627000  1.0
  H  H30  1  0.90097000  0.68799000  0.31936000  1.0
  H  H31  1  0.90828000  0.81188000  0.18053000  1.0
  H  H32  1  0.09903000  0.31201000  0.68064000  1.0
  H  H33  1  0.09172000  0.18812000  0.81947000  1.0
  C  C34  1  0.51197000  0.55527000  0.15503000  1.0
  C  C35  1  0.22239000  0.94494000  0.34488000  1.0
  C  C36  1  0.48803000  0.44473000  0.84497000  1.0
  C  C37  1  0.77761000  0.05506000  0.65512000  1.0
  C  C38  1  0.73750000  0.43192000  0.19102000  1.0
  C  C39  1  0.36056000  0.06820000  0.30901000  1.0
  C  C40  1  0.26250000  0.56808000  0.80898000  1.0
  C  C41  1  0.63944000  0.93180000  0.69099000  1.0
  C  C42  1  0.84551000  0.31165000  0.10731000  1.0
  C  C43  1  0.26460000  0.18842000  0.39276000  1.0
  C  C44  1  0.15450000  0.68835000  0.89269000  1.0
  C  C45  1  0.73539000  0.81158000  0.60724000  1.0
  C  C46  1  0.61520000  0.52094000  0.48510000  1.0
  C  C47  1  0.62117000  0.97906000  0.01496000  1.0
  C  C48  1  0.38480000  0.47908000  0.51488000  1.0
  C  C49  1  0.37882000  0.02092000  0.98505000  1.0
  O  O50  1  0.64998667  0.63339000  0.38329000  1.0
  O  O51  1  0.66674000  0.86639000  0.11669000  1.0
  O  O52  1  0.35001333  0.36659000  0.61673000  1.0
  O  O53  1  0.33322000  0.13363000  0.88330000  1.0
  O  O54  1  0.75163000  0.44174000  0.56296000  1.0
  O  O55  1  0.75612000  0.05845000  0.93726000  1.0
  O  O56  1  0.24838000  0.55825000  0.43705000  1.0
  O  O57  1  0.24388000  0.94156000  0.06273000  1.0
  O  O58  1  0.99965000  0.74996000  0.24993000  1.0
  O  O59  1  0.00035000  0.25004000  0.75007000  1.0
