# generated using pymatgen
data_Cu2P6H24C26S3Br2
_symmetry_space_group_name_H-M   'P 1'
_cell_length_a   9.57585000
_cell_length_b   13.06420000
_cell_length_c   13.81990000
_cell_angle_alpha   65.67180000
_cell_angle_beta   82.56940000
_cell_angle_gamma   88.77500000
_symmetry_Int_Tables_number   1
_chemical_formula_structural   Cu2P6H24C26S3Br2
_chemical_formula_sum   'Cu4 P12 H48 C52 S6 Br4'
_cell_volume   1561.15402320
_cell_formula_units_Z   2
loop_
 _symmetry_equiv_pos_site_id
 _symmetry_equiv_pos_as_xyz
  1  'x, y, z'
loop_
 _atom_site_type_symbol
 _atom_site_label
 _atom_site_symmetry_multiplicity
 _atom_site_fract_x
 _atom_site_fract_y
 _atom_site_fract_z
 _atom_site_occupancy
  Cu  Cu0  1  0.87243000  0.22245000  0.09395000  1.0
  Cu  Cu1  1  0.12757000  0.77754000  0.90604000  1.0
  Cu  Cu2  1  0.61805000  0.08483000  0.23313000  1.0
  Cu  Cu3  1  0.38193000  0.91518000  0.76687000  1.0
  P  P4  1  0.58498000  0.92839000  0.38380000  1.0
  P  P5  1  0.41502000  0.07162000  0.61620000  1.0
  P  P6  1  0.87106000  0.38850000  0.95478000  1.0
  P  P7  1  0.12895000  0.61150000  0.04521000  1.0
  P  P8  1  0.08255000  0.14904000  0.11932000  1.0
  P  P9  1  0.91744000  0.85095000  0.88067000  1.0
  P  P10  1  0.40618000  0.11341000  0.17332000  1.0
  P  P11  1  0.59380000  0.88659000  0.82668000  1.0
  P  P12  1  0.32587000  0.96102000  0.15607000  1.0
  P  P13  1  0.67412000  0.03898000  0.84393000  1.0
  P  P14  1  0.39700000  0.11817000  0.00905000  1.0
  P  P15  1  0.60299000  0.88182000  0.99096000  1.0
  H  H16  1  0.44986000  0.87512000  0.56203000  1.0
  H  H17  1  0.55015000  0.12489000  0.43797000  1.0
  H  H18  1  0.36759000  0.97807000  0.45791000  1.0
  H  H19  1  0.63241000  0.02193000  0.54209000  1.0
  H  H20  1  0.64744000  0.69599000  0.53061000  1.0
  H  H21  1  0.35255000  0.30402000  0.46939000  1.0
  H  H22  1  0.86447000  0.61423000  0.61010000  1.0
  H  H23  1  0.13551000  0.38578000  0.38991000  1.0
  H  H24  1  0.07608000  0.73661000  0.57622000  1.0
  H  H25  1  0.92391000  0.26339000  0.42379000  1.0
  H  H26  1  0.07673000  0.93974000  0.45230000  1.0
  H  H27  1  0.92328000  0.06026000  0.54769000  1.0
  H  H28  1  0.86279000  0.02086000  0.36904000  1.0
  H  H29  1  0.13723000  0.97915000  0.63094000  1.0
  H  H30  1  0.30176000  0.80713000  0.47203000  1.0
  H  H31  1  0.69824000  0.19288000  0.52797000  1.0
  H  H32  1  0.18600000  0.66387000  0.43265000  1.0
  H  H33  1  0.81400000  0.33615000  0.56735000  1.0
  H  H34  1  0.31573000  0.58500000  0.31184000  1.0
  H  H35  1  0.68425000  0.41501000  0.68818000  1.0
  H  H36  1  0.56187000  0.65090000  0.23042000  1.0
  H  H37  1  0.43812000  0.34909000  0.76960000  1.0
  H  H38  1  0.67600000  0.80012000  0.26343000  1.0
  H  H39  1  0.32399000  0.19988000  0.73658000  1.0
  H  H40  1  0.92864000  0.58651000  0.90658000  1.0
  H  H41  1  0.07137000  0.41349000  0.09342000  1.0
  H  H42  1  0.84558000  0.51530000  0.03886000  1.0
  H  H43  1  0.15444000  0.48469000  0.96115000  1.0
  H  H44  1  0.58709000  0.29869000  0.04717000  1.0
  H  H45  1  0.41292000  0.70129000  0.95282000  1.0
  H  H46  1  0.35149000  0.36529000  0.99537000  1.0
  H  H47  1  0.64852000  0.63468000  0.00461000  1.0
  H  H48  1  0.33349000  0.53898000  0.82900000  1.0
  H  H49  1  0.66651000  0.46101000  0.17100000  1.0
  H  H50  1  0.54858000  0.64728000  0.71923000  1.0
  H  H51  1  0.45142000  0.35272000  0.28078000  1.0
  H  H52  1  0.78414000  0.58122000  0.77147000  1.0
  H  H53  1  0.21586000  0.41879000  0.22855000  1.0
  H  H54  1  0.89436000  0.24355000  0.84477000  1.0
  H  H55  1  0.10565000  0.75645000  0.15523000  1.0
  H  H56  1  0.03485000  0.25348000  0.67653000  1.0
  H  H57  1  0.96518000  0.74651000  0.32348000  1.0
  H  H58  1  0.20435000  0.41457000  0.57035000  1.0
  H  H59  1  0.79568000  0.58541000  0.42966000  1.0
  H  H60  1  0.23030000  0.56697000  0.63152000  1.0
  H  H61  1  0.76972000  0.43302000  0.36848000  1.0
  H  H62  1  0.08547000  0.56195000  0.79380000  1.0
  H  H63  1  0.91454000  0.43806000  0.20619000  1.0
  C  C64  1  0.46924000  0.95321000  0.48871000  1.0
  C  C65  1  0.53076000  0.04679000  0.51130000  1.0
  C  C66  1  0.73998000  0.86456000  0.44662000  1.0
  C  C67  1  0.26002000  0.13544000  0.55338000  1.0
  C  C68  1  0.74105000  0.74970000  0.51465000  1.0
  C  C69  1  0.25895000  0.25031000  0.48535000  1.0
  C  C70  1  0.86246000  0.70387000  0.55953000  1.0
  C  C71  1  0.13754000  0.29613000  0.44047000  1.0
  C  C72  1  0.98267000  0.77229000  0.53883000  1.0
  C  C73  1  0.01732000  0.22772000  0.46117000  1.0
  C  C74  1  0.98261000  0.88612000  0.47058000  1.0
  C  C75  1  0.01740000  0.11388000  0.52941000  1.0
  C  C76  1  0.86221000  0.93218000  0.42393000  1.0
  C  C77  1  0.13780000  0.06783000  0.57606000  1.0
  C  C78  1  0.49750000  0.81334000  0.37085000  1.0
  C  C79  1  0.50250000  0.18667000  0.62915000  1.0
  C  C80  1  0.35945000  0.77399000  0.41850000  1.0
  C  C81  1  0.64054000  0.22603000  0.58151000  1.0
  C  C82  1  0.29427000  0.69234000  0.39693000  1.0
  C  C83  1  0.70571000  0.30768000  0.60307000  1.0
  C  C84  1  0.36678000  0.64793000  0.32947000  1.0
  C  C85  1  0.63320000  0.35208000  0.67054000  1.0
  C  C86  1  0.50511000  0.68559000  0.28302000  1.0
  C  C87  1  0.49488000  0.31442000  0.71698000  1.0
  C  C88  1  0.56948000  0.76865000  0.30239000  1.0
  C  C89  1  0.43051000  0.23136000  0.69761000  1.0
  C  C90  1  0.92869000  0.50820000  0.97946000  1.0
  C  C91  1  0.07132000  0.49179000  0.02054000  1.0
  C  C92  1  0.70015000  0.43434000  0.91163000  1.0
  C  C93  1  0.29986000  0.56566000  0.08837000  1.0
  C  C94  1  0.57809000  0.37405000  0.97445000  1.0
  C  C95  1  0.42192000  0.62594000  0.02554000  1.0
  C  C96  1  0.44616000  0.41162000  0.94508000  1.0
  C  C97  1  0.55384000  0.58836000  0.05491000  1.0
  C  C98  1  0.43595000  0.50864000  0.85254000  1.0
  C  C99  1  0.56406000  0.49136000  0.14746000  1.0
  C  C100  1  0.55749000  0.56983000  0.78992000  1.0
  C  C101  1  0.44251000  0.43017000  0.21009000  1.0
  C  C102  1  0.68933000  0.53286000  0.81948000  1.0
  C  C103  1  0.31067000  0.46714000  0.18052000  1.0
  C  C104  1  0.97894000  0.40205000  0.83095000  1.0
  C  C105  1  0.02108000  0.59795000  0.16905000  1.0
  C  C106  1  0.96601000  0.31561000  0.79662000  1.0
  C  C107  1  0.03402000  0.68438000  0.20338000  1.0
  C  C108  1  0.04541000  0.32096000  0.70253000  1.0
  C  C109  1  0.95461000  0.67903000  0.29748000  1.0
  C  C110  1  0.14052000  0.41147000  0.64280000  1.0
  C  C111  1  0.85951000  0.58852000  0.35721000  1.0
  C  C112  1  0.15492000  0.49693000  0.67698000  1.0
  C  C113  1  0.84510000  0.50306000  0.32302000  1.0
  C  C114  1  0.07350000  0.49305000  0.76996000  1.0
  C  C115  1  0.92651000  0.50694000  0.23003000  1.0
  S  S116  1  0.22100000  0.18989000  0.20728000  1.0
  S  S117  1  0.77897000  0.81011000  0.79271000  1.0
  S  S118  1  0.10680000  0.97301000  0.18015000  1.0
  S  S119  1  0.89320000  0.02698000  0.81985000  1.0
  S  S120  1  0.20783000  0.19871000  0.96905000  1.0
  S  S121  1  0.79216000  0.80128000  0.03095000  1.0
  Br  Br122  1  0.75237000  0.06424000  0.07838000  1.0
  Br  Br123  1  0.24757000  0.93578000  0.92160000  1.0
  Br  Br124  1  0.74924000  0.23280000  0.25978000  1.0
  Br  Br125  1  0.25073000  0.76723000  0.74018000  1.0
