# generated using pymatgen
data_CuH4C8N3O4
_symmetry_space_group_name_H-M   'P 1'
_cell_length_a   4.80991000
_cell_length_b   10.61270000
_cell_length_c   19.72100000
_cell_angle_alpha   89.99450000
_cell_angle_beta   89.99540000
_cell_angle_gamma   94.51500000
_symmetry_Int_Tables_number   1
_chemical_formula_structural   CuH4C8N3O4
_chemical_formula_sum   'Cu4 H16 C32 N12 O16'
_cell_volume   1003.55678483
_cell_formula_units_Z   4
loop_
 _symmetry_equiv_pos_site_id
 _symmetry_equiv_pos_as_xyz
  1  'x, y, z'
loop_
 _atom_site_type_symbol
 _atom_site_label
 _atom_site_symmetry_multiplicity
 _atom_site_fract_x
 _atom_site_fract_y
 _atom_site_fract_z
 _atom_site_occupancy
  Cu  Cu0  1  0.29679000  0.45616000  0.66215000  1.0
  Cu  Cu1  1  0.70322000  0.04390000  0.16212000  1.0
  Cu  Cu2  1  0.70324000  0.54382000  0.33786000  1.0
  Cu  Cu3  1  0.29676000  0.95614000  0.83787000  1.0
  H  H4  1  0.22832000  0.45234000  0.92277000  1.0
  H  H5  1  0.77151000  0.04760000  0.42272000  1.0
  H  H6  1  0.77175000  0.54765000  0.07723000  1.0
  H  H7  1  0.22839000  0.95238000  0.57726000  1.0
  H  H8  1  0.43344000  0.53891000  0.81230000  1.0
  H  H9  1  0.56644000  0.96107000  0.31225000  1.0
  H  H10  1  0.56667000  0.46107000  0.18770000  1.0
  H  H11  1  0.43348000  0.03893000  0.68772000  1.0
  H  H12  1  0.64202000  0.32368000  0.56766000  1.0
  H  H13  1  0.35800000  0.17637000  0.06761000  1.0
  H  H14  1  0.35806000  0.67630000  0.43236000  1.0
  H  H15  1  0.64193000  0.82368000  0.93239000  1.0
  H  H16  1  0.18922000  0.64175000  0.55337000  1.0
  H  H17  1  0.81081000  0.85830000  0.05338000  1.0
  H  H18  1  0.81086000  0.35823000  0.44665000  1.0
  H  H19  1  0.18911000  0.14175000  0.94662000  1.0
  C  C20  1  0.04003000  0.29228000  0.75615000  1.0
  C  C21  1  0.95993000  0.20773000  0.25611000  1.0
  C  C22  1  0.95996000  0.70772000  0.24386000  1.0
  C  C23  1  0.04007000  0.79227000  0.74388000  1.0
  C  C24  1  0.93077000  0.24498000  0.81754000  1.0
  C  C25  1  0.06916000  0.25499000  0.31750000  1.0
  C  C26  1  0.06922000  0.75503000  0.18247000  1.0
  C  C27  1  0.93083000  0.74499000  0.68249000  1.0
  C  C28  1  0.17371000  0.40567000  0.87475000  1.0
  C  C29  1  0.82614000  0.09430000  0.37471000  1.0
  C  C30  1  0.82634000  0.59432000  0.12525000  1.0
  C  C31  1  0.17379000  0.90569000  0.62527000  1.0
  C  C32  1  0.28631000  0.45536000  0.81409000  1.0
  C  C33  1  0.71358000  0.04462000  0.31405000  1.0
  C  C34  1  0.71376000  0.54463000  0.18591000  1.0
  C  C35  1  0.28637000  0.95537000  0.68593000  1.0
  C  C36  1  0.98784000  0.23049000  0.68800000  1.0
  C  C37  1  0.01219000  0.26953000  0.18796000  1.0
  C  C38  1  0.01215000  0.76950000  0.31201000  1.0
  C  C39  1  0.98783000  0.73047000  0.81204000  1.0
  C  C40  1  0.74981000  0.12243000  0.82301000  1.0
  C  C41  1  0.25013000  0.37754000  0.32300000  1.0
  C  C42  1  0.25018000  0.87758000  0.17699000  1.0
  C  C43  1  0.74987000  0.62244000  0.67701000  1.0
  C  C44  1  0.57735000  0.40157000  0.53699000  1.0
  C  C45  1  0.42268000  0.09846000  0.03696000  1.0
  C  C46  1  0.42273000  0.59840000  0.46302000  1.0
  C  C47  1  0.57726000  0.90159000  0.96303000  1.0
  C  C48  1  0.32794000  0.57868000  0.52913000  1.0
  C  C49  1  0.67208000  0.92136000  0.02914000  1.0
  C  C50  1  0.67216000  0.42130000  0.47088000  1.0
  C  C51  1  0.32783000  0.07868000  0.97086000  1.0
  N  N52  1  0.21624000  0.39739000  0.75576000  1.0
  N  N53  1  0.78370000  0.10263000  0.25573000  1.0
  N  N54  1  0.78380000  0.60260000  0.24424000  1.0
  N  N55  1  0.21627000  0.89738000  0.74426000  1.0
  N  N56  1  0.99849000  0.30167000  0.87700000  1.0
  N  N57  1  0.00139000  0.19829000  0.37698000  1.0
  N  N58  1  0.00153000  0.69835000  0.12300000  1.0
  N  N59  1  0.99858000  0.80168000  0.62302000  1.0
  N  N60  1  0.40618000  0.48050000  0.56543000  1.0
  N  N61  1  0.59383000  0.01956000  0.06541000  1.0
  N  N62  1  0.59387000  0.51947000  0.43458000  1.0
  N  N63  1  0.40609000  0.98049000  0.93459000  1.0
  O  O64  1  0.12093000  0.28666000  0.63790000  1.0
  O  O65  1  0.87911000  0.21339000  0.13787000  1.0
  O  O66  1  0.87906000  0.71332000  0.36211000  1.0
  O  O67  1  0.12094000  0.78663000  0.86212000  1.0
  O  O68  1  0.83269000  0.13153000  0.68320000  1.0
  O  O69  1  0.16742000  0.36847000  0.18316000  1.0
  O  O70  1  0.16728000  0.86848000  0.31682000  1.0
  O  O71  1  0.83264000  0.63153000  0.81684000  1.0
  O  O72  1  0.48710000  0.12648000  0.81403000  1.0
  O  O73  1  0.51283000  0.37349000  0.31401000  1.0
  O  O74  1  0.51289000  0.87354000  0.18596000  1.0
  O  O75  1  0.48716000  0.62648000  0.68599000  1.0
  O  O76  1  0.86473000  0.02583000  0.84128000  1.0
  O  O77  1  0.13522000  0.47414000  0.34126000  1.0
  O  O78  1  0.13525000  0.97418000  0.15873000  1.0
  O  O79  1  0.86478000  0.52584000  0.65875000  1.0
