# generated using pymatgen
data_CdH36C33(N3O2)2
_symmetry_space_group_name_H-M   'P 1'
_cell_length_a   11.45520000
_cell_length_b   15.00810000
_cell_length_c   19.74920000
_cell_angle_alpha   90.00000000
_cell_angle_beta   90.00020000
_cell_angle_gamma   92.39030000
_symmetry_Int_Tables_number   1
_chemical_formula_structural   CdH36C33(N3O2)2
_chemical_formula_sum   'Cd4 H144 C132 N24 O16'
_cell_volume   3392.34377783
_cell_formula_units_Z   4
loop_
 _symmetry_equiv_pos_site_id
 _symmetry_equiv_pos_as_xyz
  1  'x, y, z'
loop_
 _atom_site_type_symbol
 _atom_site_label
 _atom_site_symmetry_multiplicity
 _atom_site_fract_x
 _atom_site_fract_y
 _atom_site_fract_z
 _atom_site_occupancy
  Cd  Cd0  1  0.46047000  0.70887000  0.74625000  1.0
  Cd  Cd1  1  0.03953000  0.79112000  0.24625000  1.0
  Cd  Cd2  1  0.53953000  0.29113000  0.25375000  1.0
  Cd  Cd3  1  0.96046000  0.20887000  0.75375000  1.0
  H  H4  1  0.64562000  0.55908000  0.77568000  1.0
  H  H5  1  0.85438000  0.94091000  0.27568000  1.0
  H  H6  1  0.35438000  0.44092000  0.22432000  1.0
  H  H7  1  0.14562000  0.05907000  0.72432000  1.0
  H  H8  1  0.83463000  0.53247000  0.83660000  1.0
  H  H9  1  0.66538000  0.96753000  0.33659000  1.0
  H  H10  1  0.16538000  0.46754000  0.16340000  1.0
  H  H11  1  0.33462000  0.03246000  0.66340000  1.0
  H  H12  1  0.80835000  0.79159000  0.92777000  1.0
  H  H13  1  0.69165000  0.70841000  0.42777000  1.0
  H  H14  1  0.19165000  0.20841000  0.07223000  1.0
  H  H15  1  0.30834000  0.29159000  0.57223000  1.0
  H  H16  1  0.62239000  0.80803000  0.86263000  1.0
  H  H17  1  0.87761000  0.69196000  0.36263000  1.0
  H  H18  1  0.37762000  0.19197000  0.13737000  1.0
  H  H19  1  0.12237000  0.30802000  0.63736000  1.0
  H  H20  1  0.02142000  0.65967000  0.88030000  1.0
  H  H21  1  0.47859000  0.84033000  0.38030000  1.0
  H  H22  1  0.97858000  0.34033000  0.11970000  1.0
  H  H23  1  0.52141000  0.15968000  0.61970000  1.0
  H  H24  1  0.97029000  0.70325000  0.95772000  1.0
  H  H25  1  0.52972000  0.79676000  0.45772000  1.0
  H  H26  1  0.02972000  0.29675000  0.04228000  1.0
  H  H27  1  0.47027000  0.20325000  0.54228000  1.0
  H  H28  1  0.13095000  0.59037000  0.99516000  1.0
  H  H29  1  0.36905000  0.90964000  0.49515000  1.0
  H  H30  1  0.86905000  0.40964000  0.00484000  1.0
  H  H31  1  0.63095000  0.09037000  0.50484000  1.0
  H  H32  1  0.13545000  0.54704000  0.91087000  1.0
  H  H33  1  0.36456000  0.95296000  0.41087000  1.0
  H  H34  1  0.86456000  0.45296000  0.08913000  1.0
  H  H35  1  0.63544000  0.04704000  0.58913000  1.0
  H  H36  1  0.80810000  0.56293000  0.00180000  1.0
  H  H37  1  0.69190000  0.93707000  0.50180000  1.0
  H  H38  1  0.19190000  0.43707000  0.99820000  1.0
  H  H39  1  0.30810000  0.06293000  0.49820000  1.0
  H  H40  1  0.93236000  0.60149000  0.04961000  1.0
  H  H41  1  0.56763000  0.89851000  0.54961000  1.0
  H  H42  1  0.06763000  0.39851000  0.95039000  1.0
  H  H43  1  0.43237000  0.10149000  0.45039000  1.0
  H  H44  1  0.38845000  0.86997000  0.65568000  1.0
  H  H45  1  0.11156000  0.63003000  0.15569000  1.0
  H  H46  1  0.61155000  0.13004000  0.34431000  1.0
  H  H47  1  0.88844000  0.36996000  0.84431000  1.0
  H  H48  1  0.22970000  0.92003000  0.57777000  1.0
  H  H49  1  0.27030000  0.57997000  0.07778000  1.0
  H  H50  1  0.77029000  0.07997000  0.42222000  1.0
  H  H51  1  0.72970000  0.42003000  0.92223000  1.0
  H  H52  1  0.04816000  0.66755000  0.61418000  1.0
  H  H53  1  0.45183000  0.83245000  0.11418000  1.0
  H  H54  1  0.95184000  0.33245000  0.38581000  1.0
  H  H55  1  0.54816000  0.16755000  0.88582000  1.0
  H  H56  1  0.21331000  0.62784000  0.69032000  1.0
  H  H57  1  0.28670000  0.87216000  0.19032000  1.0
  H  H58  1  0.78670000  0.37216000  0.30968000  1.0
  H  H59  1  0.71330000  0.12784000  0.80968000  1.0
  H  H60  1  0.03288000  0.77865000  0.49769000  1.0
  H  H61  1  0.46712000  0.72135000  0.99769000  1.0
  H  H62  1  0.96712000  0.22135000  0.50231000  1.0
  H  H63  1  0.53287000  0.27865000  0.00231000  1.0
  H  H64  1  0.94391000  0.80651000  0.56719000  1.0
  H  H65  1  0.55609000  0.69350000  0.06719000  1.0
  H  H66  1  0.05608000  0.19350000  0.43281000  1.0
  H  H67  1  0.44391000  0.30651000  0.93281000  1.0
  H  H68  1  0.88401000  0.91267000  0.45971000  1.0
  H  H69  1  0.61600000  0.58734000  0.95971000  1.0
  H  H70  1  0.11599000  0.08733000  0.54029000  1.0
  H  H71  1  0.38401000  0.41267000  0.04029000  1.0
  H  H72  1  0.01340000  0.88186000  0.41686000  1.0
  H  H73  1  0.48660000  0.61814000  0.91686000  1.0
  H  H74  1  0.98660000  0.11814000  0.58314000  1.0
  H  H75  1  0.51340000  0.38186000  0.08314000  1.0
  H  H76  1  0.04661000  0.96780000  0.61731000  1.0
  H  H77  1  0.45339000  0.53220000  0.11731000  1.0
  H  H78  1  0.95339000  0.03221000  0.38269000  1.0
  H  H79  1  0.54662000  0.46780000  0.88269000  1.0
  H  H80  1  0.90525000  0.96563000  0.58041000  1.0
  H  H81  1  0.59476000  0.53437000  0.08041000  1.0
  H  H82  1  0.09475000  0.03437000  0.41959000  1.0
  H  H83  1  0.40526000  0.46563000  0.91959000  1.0
  H  H84  1  0.30279000  0.65519000  0.87459000  1.0
  H  H85  1  0.19721000  0.84481000  0.37459000  1.0
  H  H86  1  0.69721000  0.34482000  0.12541000  1.0
  H  H87  1  0.80278000  0.15518000  0.62541000  1.0
  H  H88  1  0.20486000  0.71982000  0.97650000  1.0
  H  H89  1  0.29516000  0.78018000  0.47650000  1.0
  H  H90  1  0.79516000  0.28019000  0.02350000  1.0
  H  H91  1  0.70484000  0.21982000  0.52349000  1.0
  H  H92  1  0.31074000  0.98091000  0.90310000  1.0
  H  H93  1  0.18925000  0.51910000  0.40310000  1.0
  H  H94  1  0.68925000  0.01910000  0.09690000  1.0
  H  H95  1  0.81076000  0.48090000  0.59689000  1.0
  H  H96  1  0.41319000  0.90490000  0.80691000  1.0
  H  H97  1  0.08680000  0.59510000  0.30691000  1.0
  H  H98  1  0.58680000  0.09511000  0.19308000  1.0
  H  H99  1  0.91320000  0.40489000  0.69308000  1.0
  H  H100  1  0.16095000  0.84218000  0.04349000  1.0
  H  H101  1  0.33905000  0.65781000  0.54350000  1.0
  H  H102  1  0.83906000  0.15782000  0.95651000  1.0
  H  H103  1  0.66095000  0.34219000  0.45650000  1.0
  H  H104  1  0.26788000  0.93087000  0.04021000  1.0
  H  H105  1  0.23212000  0.56913000  0.54021000  1.0
  H  H106  1  0.73212000  0.06914000  0.95979000  1.0
  H  H107  1  0.76788000  0.43087000  0.45979000  1.0
  H  H108  1  0.96604000  0.86965000  0.00167000  1.0
  H  H109  1  0.53396000  0.63035000  0.50167000  1.0
  H  H110  1  0.03396000  0.13035000  0.99833000  1.0
  H  H111  1  0.46605000  0.36965000  0.49833000  1.0
  H  H112  1  0.03059000  0.88109000  0.91932000  1.0
  H  H113  1  0.46940000  0.61891000  0.41932000  1.0
  H  H114  1  0.96940000  0.11891000  0.08068000  1.0
  H  H115  1  0.53061000  0.38109000  0.58068000  1.0
  H  H116  1  0.16067000  0.04655000  0.07419000  1.0
  H  H117  1  0.33933000  0.45344000  0.57419000  1.0
  H  H118  1  0.83933000  0.95345000  0.92582000  1.0
  H  H119  1  0.66067000  0.54656000  0.42581000  1.0
  H  H120  1  0.04403000  0.96949000  0.09482000  1.0
  H  H121  1  0.45598000  0.53051000  0.59483000  1.0
  H  H122  1  0.95597000  0.03051000  0.90518000  1.0
  H  H123  1  0.54403000  0.46950000  0.40518000  1.0
  H  H124  1  0.72402000  0.95189000  0.66666667  1.0
  H  H125  1  0.77598000  0.54811000  0.16661000  1.0
  H  H126  1  0.27599000  0.04811000  0.33339000  1.0
  H  H127  1  0.22401000  0.45188000  0.83339000  1.0
  H  H128  1  0.75019000  0.85994000  0.61188000  1.0
  H  H129  1  0.74981000  0.64006000  0.11188000  1.0
  H  H130  1  0.24980000  0.14006000  0.38812000  1.0
  H  H131  1  0.25019000  0.35994000  0.88812000  1.0
  H  H132  1  0.80536000  0.71674000  0.68605000  1.0
  H  H133  1  0.69465000  0.78327000  0.18606000  1.0
  H  H134  1  0.19464000  0.28327000  0.31395000  1.0
  H  H135  1  0.30535000  0.21673000  0.81395000  1.0
  H  H136  1  0.97710000  0.66578000  0.74997000  1.0
  H  H137  1  0.52291000  0.83422000  0.24997000  1.0
  H  H138  1  0.02290000  0.33422000  0.25003000  1.0
  H  H139  1  0.47709000  0.16577000  0.75003000  1.0
  H  H140  1  0.11052000  0.77801000  0.80815000  1.0
  H  H141  1  0.38949000  0.72200000  0.30815000  1.0
  H  H142  1  0.88949000  0.22199000  0.19185000  1.0
  H  H143  1  0.61051000  0.27799000  0.69185000  1.0
  H  H144  1  0.06452000  0.93853000  0.80346000  1.0
  H  H145  1  0.43548000  0.56148000  0.30346000  1.0
  H  H146  1  0.93548000  0.06147000  0.19655000  1.0
  H  H147  1  0.56452000  0.43852000  0.69654000  1.0
  C  C148  1  0.68499000  0.60833000  0.81039000  1.0
  C  C149  1  0.81501000  0.89166000  0.31039000  1.0
  C  C150  1  0.31501000  0.39167000  0.18961000  1.0
  C  C151  1  0.18498000  0.10832000  0.68961000  1.0
  C  C152  1  0.78924000  0.59415000  0.84390000  1.0
  C  C153  1  0.71077000  0.90585000  0.34389000  1.0
  C  C154  1  0.21077000  0.40585000  0.15610000  1.0
  C  C155  1  0.28923000  0.09415000  0.65610000  1.0
  C  C156  1  0.83686000  0.66046000  0.88678000  1.0
  C  C157  1  0.66314000  0.83954000  0.38678000  1.0
  C  C158  1  0.16314000  0.33954000  0.11322000  1.0
  C  C159  1  0.33685000  0.16046000  0.61322000  1.0
  C  C160  1  0.77521000  0.73816000  0.89464000  1.0
  C  C161  1  0.72480000  0.76184000  0.39464000  1.0
  C  C162  1  0.22479000  0.26184000  0.10536000  1.0
  C  C163  1  0.27519000  0.23816000  0.60536000  1.0
  C  C164  1  0.67148000  0.74743000  0.85901000  1.0
  C  C165  1  0.82852000  0.75256000  0.35901000  1.0
  C  C166  1  0.32852000  0.25257000  0.14099000  1.0
  C  C167  1  0.17147000  0.24743000  0.64099000  1.0
  C  C168  1  0.95400000  0.64956000  0.91969000  1.0
  C  C169  1  0.54600000  0.85044000  0.41969000  1.0
  C  C170  1  0.04600000  0.35044000  0.08031000  1.0
  C  C171  1  0.45400000  0.14956000  0.58030000  1.0
  C  C172  1  0.08867000  0.54179000  0.95942000  1.0
  C  C173  1  0.41133000  0.95821000  0.45941000  1.0
  C  C174  1  0.91133000  0.45821000  0.04058000  1.0
  C  C175  1  0.58867000  0.04179000  0.54058000  1.0
  C  C176  1  0.90073000  0.55124000  0.01175000  1.0
  C  C177  1  0.59927000  0.94876000  0.51175000  1.0
  C  C178  1  0.09927000  0.44876000  0.98825000  1.0
  C  C179  1  0.40073000  0.05124000  0.48824000  1.0
  C  C180  1  0.31068000  0.82759000  0.64511000  1.0
  C  C181  1  0.18933000  0.67241000  0.14512000  1.0
  C  C182  1  0.68932000  0.17242000  0.35488000  1.0
  C  C183  1  0.81067000  0.32758000  0.85488000  1.0
  C  C184  1  0.22285000  0.85502000  0.60225000  1.0
  C  C185  1  0.27715000  0.64498000  0.10225000  1.0
  C  C186  1  0.77714000  0.14499000  0.39775000  1.0
  C  C187  1  0.72286000  0.35501000  0.89775000  1.0
  C  C188  1  0.12573000  0.79779000  0.58980000  1.0
  C  C189  1  0.37427000  0.70221000  0.08981000  1.0
  C  C190  1  0.87427000  0.20221000  0.41019000  1.0
  C  C191  1  0.62573000  0.29779000  0.91019000  1.0
  C  C192  1  0.12217000  0.71456000  0.62179000  1.0
  C  C193  1  0.37783000  0.78544000  0.12179000  1.0
  C  C194  1  0.87783000  0.28544000  0.37821000  1.0
  C  C195  1  0.62216000  0.21456000  0.87821000  1.0
  C  C196  1  0.21325000  0.69194000  0.66410000  1.0
  C  C197  1  0.28674000  0.80805000  0.16410000  1.0
  C  C198  1  0.78675000  0.30806000  0.33590000  1.0
  C  C199  1  0.71325000  0.19194000  0.83590000  1.0
  C  C200  1  0.02935000  0.82268000  0.54227000  1.0
  C  C201  1  0.47065000  0.67732000  0.04227000  1.0
  C  C202  1  0.97065000  0.17732000  0.45773000  1.0
  C  C203  1  0.52935000  0.32268000  0.95773000  1.0
  C  C204  1  0.97964000  0.92748000  0.45485000  1.0
  C  C205  1  0.52037000  0.57253000  0.95485000  1.0
  C  C206  1  0.02036000  0.07252000  0.54515000  1.0
  C  C207  1  0.47964000  0.42748000  0.04515000  1.0
  C  C208  1  0.99962000  0.97730000  0.56954000  1.0
  C  C209  1  0.50038000  0.52271000  0.06954000  1.0
  C  C210  1  0.00038000  0.02271000  0.43046000  1.0
  C  C211  1  0.49962000  0.47730000  0.93046000  1.0
  C  C212  1  0.30419000  0.72689000  0.88407000  1.0
  C  C213  1  0.19581000  0.77311000  0.38408000  1.0
  C  C214  1  0.69581000  0.27312000  0.11593000  1.0
  C  C215  1  0.80419000  0.22688000  0.61593000  1.0
  C  C216  1  0.24918000  0.76347000  0.93977000  1.0
  C  C217  1  0.25083000  0.73653000  0.43977000  1.0
  C  C218  1  0.75083000  0.23654000  0.06023000  1.0
  C  C219  1  0.74917000  0.26346000  0.56023000  1.0
  C  C220  1  0.25198000  0.85576000  0.94883000  1.0
  C  C221  1  0.24802000  0.64423000  0.44884000  1.0
  C  C222  1  0.74802000  0.14424000  0.05117000  1.0
  C  C223  1  0.75198000  0.35576000  0.55116000  1.0
  C  C224  1  0.30917000  0.90834000  0.89929000  1.0
  C  C225  1  0.19082000  0.59166000  0.39930000  1.0
  C  C226  1  0.69082000  0.09166000  0.10070000  1.0
  C  C227  1  0.80919000  0.40834000  0.60069000  1.0
  C  C228  1  0.36409000  0.86710000  0.84549000  1.0
  C  C229  1  0.13591000  0.63289000  0.34550000  1.0
  C  C230  1  0.63590000  0.13290000  0.15450000  1.0
  C  C231  1  0.86410000  0.36710000  0.65450000  1.0
  C  C232  1  0.19802000  0.89637000  0.01062000  1.0
  C  C233  1  0.30198000  0.60363000  0.51063000  1.0
  C  C234  1  0.80198000  0.10363000  0.98938000  1.0
  C  C235  1  0.69802000  0.39637000  0.48937000  1.0
  C  C236  1  0.00667000  0.91808000  0.96495000  1.0
  C  C237  1  0.49333000  0.58192000  0.46495000  1.0
  C  C238  1  0.99333000  0.08192000  0.03505000  1.0
  C  C239  1  0.50667000  0.41808000  0.53505000  1.0
  C  C240  1  0.08084000  0.01286000  0.05396000  1.0
  C  C241  1  0.41916000  0.48714000  0.55396000  1.0
  C  C242  1  0.91915000  0.98714000  0.94604000  1.0
  C  C243  1  0.58085000  0.51286000  0.44604000  1.0
  C  C244  1  0.62389000  0.82973000  0.68902000  1.0
  C  C245  1  0.87611000  0.67027000  0.18902000  1.0
  C  C246  1  0.37611000  0.17028000  0.31098000  1.0
  C  C247  1  0.12389000  0.32973000  0.81099000  1.0
  C  C248  1  0.73449000  0.88001000  0.66459000  1.0
  C  C249  1  0.76551000  0.62000000  0.16459000  1.0
  C  C250  1  0.26551000  0.12000000  0.33541000  1.0
  C  C251  1  0.23449000  0.38000000  0.83541000  1.0
  C  C252  1  0.83909000  0.85590000  0.70677000  1.0
  C  C253  1  0.66092000  0.64410000  0.20678000  1.0
  C  C254  1  0.16092000  0.14410000  0.29323000  1.0
  C  C255  1  0.33909000  0.35589000  0.79323000  1.0
  C  C256  1  0.86417000  0.76512000  0.71145000  1.0
  C  C257  1  0.63584000  0.73488000  0.21145000  1.0
  C  C258  1  0.13583000  0.23488000  0.28855000  1.0
  C  C259  1  0.36417000  0.26512000  0.78856000  1.0
  C  C260  1  0.95985000  0.73665000  0.74765000  1.0
  C  C261  1  0.54016000  0.76335000  0.24765000  1.0
  C  C262  1  0.04015000  0.26335000  0.25235000  1.0
  C  C263  1  0.45984000  0.23665000  0.75235000  1.0
  C  C264  1  0.03384000  0.79895000  0.78063000  1.0
  C  C265  1  0.46616000  0.70106000  0.28063000  1.0
  C  C266  1  0.96616000  0.20105000  0.21937000  1.0
  C  C267  1  0.53383000  0.29894000  0.71938000  1.0
  C  C268  1  0.00914000  0.88865000  0.77754000  1.0
  C  C269  1  0.49086000  0.61136000  0.27754000  1.0
  C  C270  1  0.99086000  0.11135000  0.22246000  1.0
  C  C271  1  0.50914000  0.38864000  0.72247000  1.0
  C  C272  1  0.91261000  0.91897000  0.74118000  1.0
  C  C273  1  0.58738000  0.58103000  0.24118000  1.0
  C  C274  1  0.08738000  0.08103000  0.25882000  1.0
  C  C275  1  0.41261000  0.41896000  0.75882000  1.0
  C  C276  1  0.89945000  0.01903000  0.74033000  1.0
  C  C277  1  0.60054000  0.48098000  0.24033000  1.0
  C  C278  1  0.10055000  0.98097000  0.25968000  1.0
  C  C279  1  0.39946000  0.51902000  0.75968000  1.0
  N  N280  1  0.62665000  0.68379000  0.81765000  1.0
  N  N281  1  0.87335000  0.81620000  0.31765000  1.0
  N  N282  1  0.37335000  0.31621000  0.18235000  1.0
  N  N283  1  0.12664000  0.18379000  0.68235000  1.0
  N  N284  1  0.96618000  0.56109000  0.94836000  1.0
  N  N285  1  0.53383000  0.93891000  0.44836000  1.0
  N  N286  1  0.03382000  0.43891000  0.05164000  1.0
  N  N287  1  0.46617000  0.06109000  0.55164000  1.0
  N  N288  1  0.30604000  0.74754000  0.67572000  1.0
  N  N289  1  0.19397000  0.75246000  0.17573000  1.0
  N  N290  1  0.69397000  0.25246000  0.32427000  1.0
  N  N291  1  0.80603000  0.24754000  0.82427000  1.0
  N  N292  1  0.03996000  0.91431000  0.51893000  1.0
  N  N293  1  0.46004000  0.58569000  0.01893000  1.0
  N  N294  1  0.96004000  0.08569000  0.48107000  1.0
  N  N295  1  0.53997000  0.41431000  0.98107000  1.0
  N  N296  1  0.36244000  0.77770000  0.83811000  1.0
  N  N297  1  0.13756000  0.72230000  0.33811000  1.0
  N  N298  1  0.63756000  0.22230000  0.16189000  1.0
  N  N299  1  0.86244000  0.27770000  0.66188000  1.0
  N  N300  1  0.11206000  0.96148000  0.99392000  1.0
  N  N301  1  0.38794000  0.53852000  0.49392000  1.0
  N  N302  1  0.88794000  0.03852000  0.00609000  1.0
  N  N303  1  0.61206000  0.46148000  0.50609000  1.0
  O  O304  1  0.60077000  0.75252000  0.66383000  1.0
  O  O305  1  0.89922000  0.74749000  0.16384000  1.0
  O  O306  1  0.39922000  0.24749000  0.33617000  1.0
  O  O307  1  0.10078000  0.25251000  0.83617000  1.0
  O  O308  1  0.56217000  0.86490000  0.73465000  1.0
  O  O309  1  0.93785000  0.63510000  0.23464000  1.0
  O  O310  1  0.43784000  0.13511000  0.26536000  1.0
  O  O311  1  0.06216000  0.36488000  0.76536000  1.0
  O  O312  1  0.83422000  0.05637000  0.69822000  1.0
  O  O313  1  0.66578000  0.44363000  0.19822000  1.0
  O  O314  1  0.16579000  0.94363000  0.30178000  1.0
  O  O315  1  0.33422000  0.55636000  0.80178000  1.0
  O  O316  1  0.96282000  0.06303000  0.78380000  1.0
  O  O317  1  0.53717000  0.43697000  0.28380000  1.0
  O  O318  1  0.03718000  0.93697000  0.21621000  1.0
  O  O319  1  0.46283000  0.56302000  0.71620000  1.0
