# generated using pymatgen
data_CoH22C32N4O7
_symmetry_space_group_name_H-M   'P 1'
_cell_length_a   10.03150000
_cell_length_b   14.69160000
_cell_length_c   25.01890000
_cell_angle_alpha   90.00390000
_cell_angle_beta   90.00160000
_cell_angle_gamma   74.88400000
_symmetry_Int_Tables_number   1
_chemical_formula_structural   CoH22C32N4O7
_chemical_formula_sum   'Co4 H88 C128 N16 O28'
_cell_volume   3559.67549392
_cell_formula_units_Z   4
loop_
 _symmetry_equiv_pos_site_id
 _symmetry_equiv_pos_as_xyz
  1  'x, y, z'
loop_
 _atom_site_type_symbol
 _atom_site_label
 _atom_site_symmetry_multiplicity
 _atom_site_fract_x
 _atom_site_fract_y
 _atom_site_fract_z
 _atom_site_occupancy
  Co  Co0  1  0.47170000  0.63986000  0.02143000  1.0
  Co  Co1  1  0.52829000  0.36013000  0.97857000  1.0
  Co  Co2  1  0.02828000  0.86014000  0.52143000  1.0
  Co  Co3  1  0.97168000  0.13988000  0.47858000  1.0
  H  H4  1  0.68974000  0.62719000  0.93746000  1.0
  H  H5  1  0.71332000  0.62262000  0.83845000  1.0
  H  H6  1  0.27309000  0.65550000  0.82870000  1.0
  H  H7  1  0.26846000  0.66010000  0.92827000  1.0
  H  H8  1  0.68504000  0.60709000  0.68892000  1.0
  H  H9  1  0.74598000  0.63922000  0.59662000  1.0
  H  H10  1  0.31514000  0.71340000  0.55272000  1.0
  H  H11  1  0.25328000  0.68365000  0.64579000  1.0
  H  H12  1  0.60013000  0.79902000  0.43963000  1.0
  H  H13  1  0.53011000  0.77220000  0.34719000  1.0
  H  H14  1  0.35935000  0.54924000  0.40410000  1.0
  H  H15  1  0.42684000  0.57852000  0.49701000  1.0
  H  H16  1  0.64893000  0.71343000  0.20604000  1.0
  H  H17  1  0.63267000  0.70700000  0.10689000  1.0
  H  H18  1  0.30360000  0.58757000  0.11462000  1.0
  H  H19  1  0.30428000  0.58854000  0.21484000  1.0
  H  H20  1  0.94284000  0.37506000  0.94445000  1.0
  H  H21  1  0.18334000  0.39628000  0.94413000  1.0
  H  H22  1  0.29697000  0.13318000  0.02054000  1.0
  H  H23  1  0.28394000  0.96529000  0.03288000  1.0
  H  H24  1  0.60675000  0.63278000  0.75690000  1.0
  H  H25  1  0.56598000  0.68234000  0.28719000  1.0
  H  H26  1  0.31026000  0.37278000  0.06254000  1.0
  H  H27  1  0.28670000  0.37737000  0.16155000  1.0
  H  H28  1  0.72693000  0.34448000  0.17129000  1.0
  H  H29  1  0.73156000  0.33987000  0.07173000  1.0
  H  H30  1  0.31495000  0.39290000  0.31108000  1.0
  H  H31  1  0.25402000  0.36079000  0.40339000  1.0
  H  H32  1  0.68487000  0.28666000  0.44729000  1.0
  H  H33  1  0.74671000  0.31639000  0.35421000  1.0
  H  H34  1  0.39988000  0.20098000  0.56036000  1.0
  H  H35  1  0.46990000  0.22779000  0.65281000  1.0
  H  H36  1  0.64064000  0.45076000  0.59591000  1.0
  H  H37  1  0.57317000  0.42149000  0.50300000  1.0
  H  H38  1  0.35108000  0.28656000  0.79397000  1.0
  H  H39  1  0.36730000  0.29300000  0.89312000  1.0
  H  H40  1  0.69640000  0.41241000  0.88540000  1.0
  H  H41  1  0.69572000  0.41145000  0.78518000  1.0
  H  H42  1  0.05714000  0.62491000  0.05554000  1.0
  H  H43  1  0.81664000  0.60369000  0.05586000  1.0
  H  H44  1  0.70305000  0.86682000  0.97944000  1.0
  H  H45  1  0.71607000  0.03472000  0.96710000  1.0
  H  H46  1  0.39327000  0.36722000  0.24309000  1.0
  H  H47  1  0.43404000  0.31765000  0.71282000  1.0
  H  H48  1  0.81028000  0.87282000  0.43747000  1.0
  H  H49  1  0.78668000  0.87738000  0.33846000  1.0
  H  H50  1  0.22693000  0.84448000  0.32870000  1.0
  H  H51  1  0.23157000  0.83991000  0.42827000  1.0
  H  H52  1  0.81495000  0.89285000  0.18893000  1.0
  H  H53  1  0.75402000  0.86077000  0.09661000  1.0
  H  H54  1  0.18487000  0.78665000  0.05271000  1.0
  H  H55  1  0.24671000  0.81634000  0.14580000  1.0
  H  H56  1  0.89986000  0.70100000  0.93961000  1.0
  H  H57  1  0.96986000  0.72780000  0.84717000  1.0
  H  H58  1  0.14060000  0.95078000  0.90408000  1.0
  H  H59  1  0.07315000  0.92154000  0.99699000  1.0
  H  H60  1  0.85108000  0.78658000  0.70600000  1.0
  H  H61  1  0.86730000  0.79301000  0.60686000  1.0
  H  H62  1  0.19641000  0.91240000  0.61460000  1.0
  H  H63  1  0.19575000  0.91144000  0.71481000  1.0
  H  H64  1  0.55715000  0.12492000  0.44448000  1.0
  H  H65  1  0.31663000  0.10373000  0.44417000  1.0
  H  H66  1  0.20305000  0.36682000  0.52056000  1.0
  H  H67  1  0.21607000  0.53473000  0.53288000  1.0
  H  H68  1  0.89325000  0.86722000  0.25691000  1.0
  H  H69  1  0.93402000  0.81764000  0.78715000  1.0
  H  H70  1  0.18974000  0.12716000  0.56253000  1.0
  H  H71  1  0.21333000  0.12260000  0.66154000  1.0
  H  H72  1  0.77309000  0.15551000  0.67129000  1.0
  H  H73  1  0.76845000  0.16009000  0.57173000  1.0
  H  H74  1  0.18503000  0.10714000  0.81107000  1.0
  H  H75  1  0.24600000  0.13923000  0.90338000  1.0
  H  H76  1  0.81515000  0.21339000  0.94729000  1.0
  H  H77  1  0.75329000  0.18368000  0.85421000  1.0
  H  H78  1  0.10016000  0.29899000  0.06039000  1.0
  H  H79  1  0.03015000  0.27219000  0.15283000  1.0
  H  H80  1  0.85935000  0.04923000  0.09590000  1.0
  H  H81  1  0.92684000  0.07850000  0.00300000  1.0
  H  H82  1  0.14892000  0.21343000  0.29399000  1.0
  H  H83  1  0.13270000  0.20699000  0.39314000  1.0
  H  H84  1  0.80361000  0.08759000  0.38540000  1.0
  H  H85  1  0.80424000  0.08856000  0.28518000  1.0
  H  H86  1  0.44285000  0.87508000  0.55555000  1.0
  H  H87  1  0.68337000  0.89627000  0.55585000  1.0
  H  H88  1  0.79696000  0.63318000  0.47943000  1.0
  H  H89  1  0.78392000  0.46526000  0.46713000  1.0
  H  H90  1  0.10677000  0.13278000  0.74308000  1.0
  H  H91  1  0.06600000  0.18235000  0.21284000  1.0
  C  C92  1  0.60012000  0.63229000  0.91192000  1.0
  C  C93  1  0.61223000  0.63044000  0.85680000  1.0
  C  C94  1  0.49406000  0.63787000  0.82505000  1.0
  C  C95  1  0.36729000  0.64865000  0.85139000  1.0
  C  C96  1  0.36575000  0.65038000  0.90684000  1.0
  C  C97  1  0.41145000  0.64055000  0.73033000  1.0
  C  C98  1  0.46205000  0.64749000  0.67471000  1.0
  C  C99  1  0.60163000  0.63378000  0.66042000  1.0
  C  C100  1  0.63844000  0.64966000  0.60835000  1.0
  C  C101  1  0.53478000  0.67937000  0.56992000  1.0
  C  C102  1  0.39589000  0.69052000  0.58252000  1.0
  C  C103  1  0.36115000  0.67390000  0.63475000  1.0
  C  C104  1  0.52153000  0.68878000  0.47307000  1.0
  C  C105  1  0.54876000  0.74394000  0.43083000  1.0
  C  C106  1  0.51091000  0.72670000  0.37922000  1.0
  C  C107  1  0.44488000  0.65496000  0.36882000  1.0
  C  C108  1  0.41297000  0.60353000  0.41205000  1.0
  C  C109  1  0.45104000  0.61959000  0.46398000  1.0
  C  C110  1  0.40798000  0.63055000  0.31385000  1.0
  C  C111  1  0.47705000  0.65094000  0.21892000  1.0
  C  C112  1  0.57053000  0.68436000  0.18745000  1.0
  C  C113  1  0.56238000  0.68089000  0.13229000  1.0
  C  C114  1  0.37890000  0.61440000  0.13671000  1.0
  C  C115  1  0.37879000  0.61486000  0.19225000  1.0
  C  C116  1  0.72480000  0.47295000  0.00149000  1.0
  C  C117  1  0.86651000  0.48731000  0.00059000  1.0
  C  C118  1  0.96927000  0.42960000  0.96848000  1.0
  C  C119  1  0.10203000  0.44176000  0.96801000  1.0
  C  C120  1  0.38472000  0.07396000  0.01176000  1.0
  C  C121  1  0.37770000  0.98142000  0.01836000  1.0
  C  C122  1  0.49336000  0.90700000  0.00666000  1.0
  C  C123  1  0.48800000  0.80766000  0.01384000  1.0
  C  C124  1  0.39989000  0.36768000  0.08808000  1.0
  C  C125  1  0.38778000  0.36954000  0.14320000  1.0
  C  C126  1  0.50595000  0.36211000  0.17495000  1.0
  C  C127  1  0.63272000  0.35132000  0.14861000  1.0
  C  C128  1  0.63427000  0.34958000  0.09316000  1.0
  C  C129  1  0.58854000  0.35945000  0.26967000  1.0
  C  C130  1  0.53794000  0.35253000  0.32528000  1.0
  C  C131  1  0.39837000  0.36622000  0.33958000  1.0
  C  C132  1  0.36156000  0.35034000  0.39165000  1.0
  C  C133  1  0.46522000  0.32066000  0.43009000  1.0
  C  C134  1  0.60411000  0.30951000  0.41748000  1.0
  C  C135  1  0.63885000  0.32614000  0.36525000  1.0
  C  C136  1  0.47848000  0.31123000  0.52694000  1.0
  C  C137  1  0.45126000  0.25605000  0.56917000  1.0
  C  C138  1  0.48909000  0.27329000  0.62078000  1.0
  C  C139  1  0.55511000  0.34504000  0.63120000  1.0
  C  C140  1  0.58703000  0.39646000  0.58796000  1.0
  C  C141  1  0.54898000  0.38042000  0.53603000  1.0
  C  C142  1  0.59202000  0.36944000  0.68617000  1.0
  C  C143  1  0.52295000  0.34906000  0.78109000  1.0
  C  C144  1  0.42948000  0.31564000  0.81256000  1.0
  C  C145  1  0.43760000  0.31912000  0.86772000  1.0
  C  C146  1  0.62109000  0.38560000  0.86330000  1.0
  C  C147  1  0.62121000  0.38513000  0.80777000  1.0
  C  C148  1  0.27516000  0.52704000  0.99851000  1.0
  C  C149  1  0.13346000  0.51267000  0.99940000  1.0
  C  C150  1  0.03071000  0.57037000  0.03151000  1.0
  C  C151  1  0.89796000  0.55819000  0.03199000  1.0
  C  C152  1  0.61529000  0.92604000  0.98821000  1.0
  C  C153  1  0.62232000  0.01859000  0.98162000  1.0
  C  C154  1  0.50665000  0.09300000  0.99332000  1.0
  C  C155  1  0.51201000  0.19234000  0.98615000  1.0
  C  C156  1  0.89991000  0.86772000  0.41193000  1.0
  C  C157  1  0.88779000  0.86956000  0.35681000  1.0
  C  C158  1  0.00596000  0.86212000  0.32505000  1.0
  C  C159  1  0.13273000  0.85134000  0.35140000  1.0
  C  C160  1  0.13428000  0.84962000  0.40685000  1.0
  C  C161  1  0.08856000  0.85939000  0.23034000  1.0
  C  C162  1  0.03795000  0.85248000  0.17472000  1.0
  C  C163  1  0.89837000  0.86620000  0.16042000  1.0
  C  C164  1  0.86156000  0.85033000  0.10835000  1.0
  C  C165  1  0.96523000  0.82066000  0.06991000  1.0
  C  C166  1  0.10411000  0.80951000  0.08252000  1.0
  C  C167  1  0.13885000  0.82610000  0.13476000  1.0
  C  C168  1  0.97847000  0.81125000  0.97305000  1.0
  C  C169  1  0.95123000  0.75608000  0.93081000  1.0
  C  C170  1  0.98907000  0.77330000  0.87920000  1.0
  C  C171  1  0.05510000  0.84504000  0.86879000  1.0
  C  C172  1  0.08700000  0.89649000  0.91203000  1.0
  C  C173  1  0.04895000  0.88045000  0.96395000  1.0
  C  C174  1  0.09202000  0.86943000  0.81382000  1.0
  C  C175  1  0.02296000  0.84907000  0.71890000  1.0
  C  C176  1  0.92947000  0.81566000  0.68742000  1.0
  C  C177  1  0.93759000  0.81913000  0.63226000  1.0
  C  C178  1  0.12109000  0.88559000  0.63668000  1.0
  C  C179  1  0.12123000  0.88514000  0.69222000  1.0
  C  C180  1  0.77517000  0.02703000  0.50150000  1.0
  C  C181  1  0.63348000  0.01267000  0.50061000  1.0
  C  C182  1  0.53071000  0.07038000  0.46851000  1.0
  C  C183  1  0.39796000  0.05822000  0.46804000  1.0
  C  C184  1  0.11529000  0.42605000  0.51178000  1.0
  C  C185  1  0.12232000  0.51859000  0.51836000  1.0
  C  C186  1  0.00666000  0.59300000  0.50665000  1.0
  C  C187  1  0.01202000  0.69234000  0.51382000  1.0
  C  C188  1  0.10012000  0.13228000  0.58807000  1.0
  C  C189  1  0.11224000  0.13043000  0.64319000  1.0
  C  C190  1  0.99406000  0.13790000  0.67494000  1.0
  C  C191  1  0.86727000  0.14867000  0.64860000  1.0
  C  C192  1  0.86571000  0.15039000  0.59316000  1.0
  C  C193  1  0.91144000  0.14062000  0.76966000  1.0
  C  C194  1  0.96204000  0.14753000  0.82528000  1.0
  C  C195  1  0.10162000  0.13381000  0.83958000  1.0
  C  C196  1  0.13844000  0.14967000  0.89165000  1.0
  C  C197  1  0.03479000  0.17936000  0.93009000  1.0
  C  C198  1  0.89591000  0.19052000  0.91748000  1.0
  C  C199  1  0.86115000  0.17393000  0.86525000  1.0
  C  C200  1  0.02154000  0.18875000  0.02694000  1.0
  C  C201  1  0.04877000  0.24392000  0.06918000  1.0
  C  C202  1  0.01094000  0.22669000  0.12080000  1.0
  C  C203  1  0.94489000  0.15495000  0.13119000  1.0
  C  C204  1  0.91297000  0.10353000  0.08796000  1.0
  C  C205  1  0.95104000  0.11957000  0.03603000  1.0
  C  C206  1  0.90795000  0.13056000  0.18616000  1.0
  C  C207  1  0.97704000  0.15094000  0.28109000  1.0
  C  C208  1  0.07053000  0.18435000  0.31257000  1.0
  C  C209  1  0.06241000  0.18088000  0.36773000  1.0
  C  C210  1  0.87891000  0.11441000  0.36331000  1.0
  C  C211  1  0.87876000  0.11486000  0.30777000  1.0
  C  C212  1  0.22484000  0.97298000  0.49852000  1.0
  C  C213  1  0.36652000  0.98732000  0.49942000  1.0
  C  C214  1  0.46927000  0.92963000  0.53152000  1.0
  C  C215  1  0.60203000  0.94178000  0.53199000  1.0
  C  C216  1  0.88471000  0.57396000  0.48822000  1.0
  C  C217  1  0.87769000  0.48141000  0.48164000  1.0
  C  C218  1  0.99335000  0.40701000  0.49335000  1.0
  C  C219  1  0.98798000  0.30767000  0.48618000  1.0
  N  N220  1  0.47907000  0.64095000  0.93734000  1.0
  N  N221  1  0.50989000  0.63594000  0.76991000  1.0
  N  N222  1  0.48751000  0.65638000  0.27407000  1.0
  N  N223  1  0.46790000  0.64651000  0.10644000  1.0
  N  N224  1  0.52095000  0.35902000  0.06267000  1.0
  N  N225  1  0.49012000  0.36406000  0.23009000  1.0
  N  N226  1  0.51250000  0.34361000  0.72594000  1.0
  N  N227  1  0.53208000  0.35349000  0.89356000  1.0
  N  N228  1  0.02096000  0.85906000  0.43735000  1.0
  N  N229  1  0.99011000  0.86404000  0.26991000  1.0
  N  N230  1  0.01249000  0.84361000  0.77404000  1.0
  N  N231  1  0.03208000  0.85349000  0.60642000  1.0
  N  N232  1  0.97905000  0.14095000  0.56265000  1.0
  N  N233  1  0.00990000  0.13597000  0.73009000  1.0
  N  N234  1  0.98750000  0.15639000  0.22595000  1.0
  N  N235  1  0.96792000  0.14651000  0.39358000  1.0
  O  O236  1  0.29013000  0.64247000  0.74042000  1.0
  O  O237  1  0.57835000  0.70390000  0.52105000  1.0
  O  O238  1  0.31762000  0.58939000  0.30458000  1.0
  O  O239  1  0.70565000  0.40138000  0.97647000  1.0
  O  O240  1  0.63162000  0.53080000  0.02781000  1.0
  O  O241  1  0.37118000  0.78869000  0.01858000  1.0
  O  O242  1  0.59974000  0.74150000  0.01510000  1.0
  O  O243  1  0.70983000  0.35755000  0.25958000  1.0
  O  O244  1  0.42166000  0.29610000  0.47895000  1.0
  O  O245  1  0.68236000  0.41062000  0.69542000  1.0
  O  O246  1  0.29433000  0.59860000  0.02353000  1.0
  O  O247  1  0.36835000  0.46917000  0.97220000  1.0
  O  O248  1  0.62883000  0.21131000  0.98141000  1.0
  O  O249  1  0.40025000  0.25849000  0.98489000  1.0
  O  O250  1  0.20988000  0.85746000  0.24043000  1.0
  O  O251  1  0.92167000  0.79612000  0.02103000  1.0
  O  O252  1  0.18238000  0.91061000  0.80457000  1.0
  O  O253  1  0.79436000  0.09859000  0.47647000  1.0
  O  O254  1  0.86839000  0.96919000  0.52783000  1.0
  O  O255  1  0.12883000  0.71131000  0.51858000  1.0
  O  O256  1  0.90028000  0.75850000  0.51507000  1.0
  O  O257  1  0.79013000  0.14256000  0.75956000  1.0
  O  O258  1  0.07835000  0.20388000  0.97896000  1.0
  O  O259  1  0.81757000  0.08938000  0.19543000  1.0
  O  O260  1  0.20562000  0.90139000  0.52353000  1.0
  O  O261  1  0.13161000  0.03085000  0.47220000  1.0
  O  O262  1  0.87117000  0.28869000  0.48142000  1.0
  O  O263  1  0.09973000  0.24151000  0.48492000  1.0
