# generated using pymatgen
data_CdH8(C3N)4
_symmetry_space_group_name_H-M   'P 1'
_cell_length_a   8.41435000
_cell_length_b   8.98054000
_cell_length_c   12.84920000
_cell_angle_alpha   92.39870000
_cell_angle_beta   98.20650000
_cell_angle_gamma   105.33600000
_symmetry_Int_Tables_number   1
_chemical_formula_structural   CdH8(C3N)4
_chemical_formula_sum   'Cd3 H24 C36 N12'
_cell_volume   923.56353477
_cell_formula_units_Z   3
loop_
 _symmetry_equiv_pos_site_id
 _symmetry_equiv_pos_as_xyz
  1  'x, y, z'
loop_
 _atom_site_type_symbol
 _atom_site_label
 _atom_site_symmetry_multiplicity
 _atom_site_fract_x
 _atom_site_fract_y
 _atom_site_fract_z
 _atom_site_occupancy
  Cd  Cd0  1  0.99914000  0.99588000  0.99931000  1.0
  Cd  Cd1  1  0.78878000  0.17126000  0.59620000  1.0
  Cd  Cd2  1  0.38104000  0.59222000  0.07980000  1.0
  H  H3  1  0.18794000  0.85300000  0.19854000  1.0
  H  H4  1  0.27348000  0.89669000  0.39257000  1.0
  H  H5  1  0.22515000  0.13289000  0.48683000  1.0
  H  H6  1  0.09327000  0.30460000  0.38255000  1.0
  H  H7  1  0.04876000  0.46800000  0.27794000  1.0
  H  H8  1  0.90095000  0.61667000  0.15619000  1.0
  H  H9  1  0.75308000  0.49233000  0.97900000  1.0
  H  H10  1  0.76929000  0.22404000  0.92638000  1.0
  H  H11  1  0.89723000  0.85289000  0.62274000  1.0
  H  H12  1  0.93852000  0.62669000  0.51626000  1.0
  H  H13  1  0.85211000  0.60689000  0.32004000  1.0
  H  H14  1  0.73757000  0.80959000  0.23837000  1.0
  H  H15  1  0.61887000  0.96202000  0.18142000  1.0
  H  H16  1  0.49290000  0.16893000  0.11843000  1.0
  H  H17  1  0.48172000  0.38118000  0.25005000  1.0
  H  H18  1  0.59659000  0.37281000  0.43884000  1.0
  H  H19  1  0.49136000  0.83952000  0.54832000  1.0
  H  H20  1  0.25332000  0.68898000  0.62873000  1.0
  H  H21  1  0.14120000  0.83203000  0.76399000  1.0
  H  H22  1  0.26655000  0.11414000  0.80568000  1.0
  H  H23  1  0.32363000  0.35482000  0.78167000  1.0
  H  H24  1  0.47801000  0.63347000  0.82179000  1.0
  H  H25  1  0.77055000  0.72538000  0.78290000  1.0
  H  H26  1  0.89215000  0.53081000  0.69851000  1.0
  C  C27  1  0.16707000  0.95136000  0.24200000  1.0
  C  C28  1  0.21603000  0.97737000  0.35104000  1.0
  C  C29  1  0.18949000  0.10676000  0.40177000  1.0
  C  C30  1  0.11473000  0.20404000  0.34264000  1.0
  C  C31  1  0.06688000  0.16911000  0.23349000  1.0
  C  C32  1  0.98180000  0.26532000  0.16647000  1.0
  C  C33  1  0.98084000  0.41507000  0.20111000  1.0
  C  C34  1  0.89954000  0.49819000  0.13314000  1.0
  C  C35  1  0.81782000  0.43024000  0.03360000  1.0
  C  C36  1  0.82602000  0.28177000  0.00452000  1.0
  C  C37  1  0.86244000  0.83684000  0.53714000  1.0
  C  C38  1  0.88468000  0.71234000  0.47817000  1.0
  C  C39  1  0.83790000  0.70271000  0.36917000  1.0
  C  C40  1  0.77227000  0.81574000  0.32347000  1.0
  C  C41  1  0.75132000  0.93635000  0.38806000  1.0
  C  C42  1  0.67601000  0.05774000  0.34475000  1.0
  C  C43  1  0.61370000  0.05437000  0.23721000  1.0
  C  C44  1  0.54362000  0.17073000  0.20151000  1.0
  C  C45  1  0.53714000  0.28860000  0.27357000  1.0
  C  C46  1  0.60075000  0.28401000  0.37922000  1.0
  C  C47  1  0.43803000  0.89699000  0.60552000  1.0
  C  C48  1  0.30407000  0.81325000  0.65060000  1.0
  C  C49  1  0.24204000  0.89271000  0.72372000  1.0
  C  C50  1  0.31208000  0.05159000  0.74734000  1.0
  C  C51  1  0.44561000  0.12724000  0.69792000  1.0
  C  C52  1  0.52838000  0.29570000  0.72090000  1.0
  C  C53  1  0.45064000  0.39682000  0.76588000  1.0
  C  C54  1  0.53672000  0.55277000  0.78761000  1.0
  C  C55  1  0.69864000  0.60472000  0.76509000  1.0
  C  C56  1  0.76634000  0.49774000  0.71872000  1.0
  C  C57  1  0.37422000  0.63003000  0.24995000  1.0
  C  C58  1  0.02694000  0.34820000  0.58802000  1.0
  C  C59  1  0.21280000  0.72345000  0.00245000  1.0
  C  C60  1  0.30810000  0.34792000  0.01685000  1.0
  C  C61  1  0.90608000  0.02517000  0.83153000  1.0
  C  C62  1  0.62872000  0.72808000  0.04552000  1.0
  N  N63  1  0.09423000  0.04377000  0.18486000  1.0
  N  N64  1  0.90676000  0.20287000  0.06881000  1.0
  N  N65  1  0.79713000  0.94482000  0.49360000  1.0
  N  N66  1  0.66831000  0.17222000  0.41378000  1.0
  N  N67  1  0.50795000  0.04922000  0.62903000  1.0
  N  N68  1  0.68315000  0.34789000  0.69644000  1.0
  N  N69  1  0.36407000  0.65990000  0.33810000  1.0
  N  N70  1  0.14978000  0.44279000  0.57967000  1.0
  N  N71  1  0.13439000  0.81037000  0.97978000  1.0
  N  N72  1  0.25910000  0.21556000  0.98914000  1.0
  N  N73  1  0.86522000  0.04610000  0.74374000  1.0
  N  N74  1  0.75710000  0.80757000  0.03139000  1.0
