# generated using pymatgen
data_ZnH8C8(N3O2)2
_symmetry_space_group_name_H-M   'P 1'
_cell_length_a   8.66725000
_cell_length_b   9.89068000
_cell_length_c   13.62960000
_cell_angle_alpha   89.99990000
_cell_angle_beta   90.00000000
_cell_angle_gamma   99.21500000
_symmetry_Int_Tables_number   1
_chemical_formula_structural   ZnH8C8(N3O2)2
_chemical_formula_sum   'Zn4 H32 C32 N24 O16'
_cell_volume   1153.31850916
_cell_formula_units_Z   4
loop_
 _symmetry_equiv_pos_site_id
 _symmetry_equiv_pos_as_xyz
  1  'x, y, z'
loop_
 _atom_site_type_symbol
 _atom_site_label
 _atom_site_symmetry_multiplicity
 _atom_site_fract_x
 _atom_site_fract_y
 _atom_site_fract_z
 _atom_site_occupancy
  Zn  Zn0  1  0.29624000  0.85532000  0.95059000  1.0
  Zn  Zn1  1  0.70376000  0.64468000  0.45059000  1.0
  Zn  Zn2  1  0.70376000  0.14468000  0.04941000  1.0
  Zn  Zn3  1  0.29624000  0.35532000  0.54941000  1.0
  H  H4  1  0.94577000  0.67370000  0.99366000  1.0
  H  H5  1  0.05423000  0.82630000  0.49366000  1.0
  H  H6  1  0.05423000  0.32630000  0.00634000  1.0
  H  H7  1  0.94577000  0.17370000  0.50634000  1.0
  H  H8  1  0.22831000  0.68680000  0.74026000  1.0
  H  H9  1  0.77169000  0.81320000  0.24026000  1.0
  H  H10  1  0.77169000  0.31320000  0.25974000  1.0
  H  H11  1  0.22831000  0.18680000  0.75974000  1.0
  H  H12  1  0.86898000  0.41277000  0.70627000  1.0
  H  H13  1  0.13102000  0.08723000  0.20627000  1.0
  H  H14  1  0.13102000  0.58724000  0.29373000  1.0
  H  H15  1  0.86898000  0.91276000  0.79373000  1.0
  H  H16  1  0.05281000  0.47584000  0.65098000  1.0
  H  H17  1  0.94719000  0.02416000  0.15098000  1.0
  H  H18  1  0.94719000  0.52416000  0.34902000  1.0
  H  H19  1  0.05281000  0.97584000  0.84902000  1.0
  H  H20  1  0.67410000  0.82141000  0.96637000  1.0
  H  H21  1  0.32590000  0.67859000  0.46637000  1.0
  H  H22  1  0.32590000  0.17859000  0.03363000  1.0
  H  H23  1  0.67410000  0.32141000  0.53363000  1.0
  H  H24  1  0.27107000  0.61038000  0.10536000  1.0
  H  H25  1  0.72893000  0.88962000  0.60536000  1.0
  H  H26  1  0.72893000  0.38962000  0.89464000  1.0
  H  H27  1  0.27107000  0.11038000  0.39464000  1.0
  H  H28  1  0.60378000  0.42218000  0.16593000  1.0
  H  H29  1  0.39622000  0.07782000  0.66593000  1.0
  H  H30  1  0.39622000  0.57782000  0.83407000  1.0
  H  H31  1  0.60378000  0.92218000  0.33407000  1.0
  H  H32  1  0.40402000  0.42344000  0.19163000  1.0
  H  H33  1  0.59598000  0.07656000  0.69163000  1.0
  H  H34  1  0.59598000  0.57656000  0.80837000  1.0
  H  H35  1  0.40402000  0.92344000  0.30837000  1.0
  C  C36  1  0.98663000  0.65591000  0.92019000  1.0
  C  C37  1  0.01336000  0.84409000  0.42019000  1.0
  C  C38  1  0.01336000  0.34409000  0.07981000  1.0
  C  C39  1  0.98664000  0.15591000  0.57981000  1.0
  C  C40  1  0.13378000  0.66454000  0.79303000  1.0
  C  C41  1  0.86622000  0.83546000  0.29303000  1.0
  C  C42  1  0.86622000  0.33546000  0.20697000  1.0
  C  C43  1  0.13378000  0.16454000  0.70697000  1.0
  C  C44  1  0.95048000  0.50570000  0.68745000  1.0
  C  C45  1  0.04952000  0.99430000  0.18745000  1.0
  C  C46  1  0.04952000  0.49430000  0.31255000  1.0
  C  C47  1  0.95048000  0.00570000  0.81255000  1.0
  C  C48  1  0.87591000  0.59781000  0.61680000  1.0
  C  C49  1  0.12409000  0.90219000  0.11681000  1.0
  C  C50  1  0.12409000  0.40218000  0.38320000  1.0
  C  C51  1  0.87591000  0.09782000  0.88319000  1.0
  C  C52  1  0.59768000  0.74813000  0.01086000  1.0
  C  C53  1  0.40232000  0.75187000  0.51086000  1.0
  C  C54  1  0.40232000  0.25187000  0.98914000  1.0
  C  C55  1  0.59768000  0.24813000  0.48914000  1.0
  C  C56  1  0.39009000  0.64448000  0.08093000  1.0
  C  C57  1  0.60991000  0.85552000  0.58093000  1.0
  C  C58  1  0.60991000  0.35551000  0.91907000  1.0
  C  C59  1  0.39009000  0.14449000  0.41907000  1.0
  C  C60  1  0.51900000  0.48814000  0.18548000  1.0
  C  C61  1  0.48101000  0.01186000  0.68548000  1.0
  C  C62  1  0.48101000  0.51186000  0.81452000  1.0
  C  C63  1  0.51899000  0.98814000  0.31452000  1.0
  C  C64  1  0.55984000  0.56373000  0.28266000  1.0
  C  C65  1  0.44016000  0.93627000  0.78266000  1.0
  C  C66  1  0.44016000  0.43627000  0.71734000  1.0
  C  C67  1  0.55984000  0.06373000  0.21734000  1.0
  N  N68  1  0.00204000  0.57636000  0.77740000  1.0
  N  N69  1  0.99796000  0.92364000  0.27740000  1.0
  N  N70  1  0.99796000  0.42364000  0.22260000  1.0
  N  N71  1  0.00204000  0.07636000  0.72260000  1.0
  N  N72  1  0.90572000  0.57120000  0.85668000  1.0
  N  N73  1  0.09428000  0.92880000  0.35668000  1.0
  N  N74  1  0.09428000  0.42880000  0.14332000  1.0
  N  N75  1  0.90572000  0.07120000  0.64332000  1.0
  N  N76  1  0.12847000  0.71621000  0.88381000  1.0
  N  N77  1  0.87153000  0.78379000  0.38381000  1.0
  N  N78  1  0.87153000  0.28379000  0.11619000  1.0
  N  N79  1  0.12847000  0.21621000  0.61619000  1.0
  N  N80  1  0.51279000  0.58689000  0.10786000  1.0
  N  N81  1  0.48721000  0.91311000  0.60786000  1.0
  N  N82  1  0.48721000  0.41311000  0.89214000  1.0
  N  N83  1  0.51279000  0.08689000  0.39214000  1.0
  N  N84  1  0.64722000  0.65287000  0.06531000  1.0
  N  N85  1  0.35278000  0.84713000  0.56531000  1.0
  N  N86  1  0.35278000  0.34713000  0.93469000  1.0
  N  N87  1  0.64722000  0.15287000  0.43469000  1.0
  N  N88  1  0.43974000  0.74666000  0.01837000  1.0
  N  N89  1  0.56026000  0.75334000  0.51837000  1.0
  N  N90  1  0.56026000  0.25334000  0.98163000  1.0
  N  N91  1  0.43974000  0.24666000  0.48163000  1.0
  O  O92  1  0.80476000  0.53063000  0.54390000  1.0
  O  O93  1  0.19524000  0.96937000  0.04390000  1.0
  O  O94  1  0.19524000  0.46937000  0.45610000  1.0
  O  O95  1  0.80476000  0.03063000  0.95610000  1.0
  O  O96  1  0.89089000  0.72332000  0.63101000  1.0
  O  O97  1  0.10911000  0.77668000  0.13101000  1.0
  O  O98  1  0.10911000  0.27668000  0.36899000  1.0
  O  O99  1  0.89088000  0.22332000  0.86899000  1.0
  O  O100  1  0.64221000  0.50552000  0.34421000  1.0
  O  O101  1  0.35779000  0.99448000  0.84421000  1.0
  O  O102  1  0.35779000  0.49448000  0.65579000  1.0
  O  O103  1  0.64221000  0.00552000  0.15579000  1.0
  O  O104  1  0.51490000  0.67583000  0.29669000  1.0
  O  O105  1  0.48510000  0.82417000  0.79669000  1.0
  O  O106  1  0.48510000  0.32417000  0.70331000  1.0
  O  O107  1  0.51490000  0.17583000  0.20331000  1.0
