# generated using pymatgen
data_CuH9C10IN
_symmetry_space_group_name_H-M   'P 1'
_cell_length_a   4.34679000
_cell_length_b   9.83432000
_cell_length_c   11.09220000
_cell_angle_alpha   87.96200000
_cell_angle_beta   82.94520000
_cell_angle_gamma   79.92370000
_symmetry_Int_Tables_number   1
_chemical_formula_structural   CuH9C10IN
_chemical_formula_sum   'Cu2 H18 C20 I2 N2'
_cell_volume   463.27004805
_cell_formula_units_Z   2
loop_
 _symmetry_equiv_pos_site_id
 _symmetry_equiv_pos_as_xyz
  1  'x, y, z'
loop_
 _atom_site_type_symbol
 _atom_site_label
 _atom_site_symmetry_multiplicity
 _atom_site_fract_x
 _atom_site_fract_y
 _atom_site_fract_z
 _atom_site_occupancy
  Cu  Cu0  1  0.87825000  0.39826000  0.96864000  1.0
  Cu  Cu1  1  0.12177000  0.60175000  0.03137000  1.0
  H  H2  1  0.74155000  0.12034000  0.95535000  1.0
  H  H3  1  0.25846000  0.87967000  0.04466000  1.0
  H  H4  1  0.98375000  0.89987000  0.85020000  1.0
  H  H5  1  0.01624000  0.10014000  0.14981000  1.0
  H  H6  1  0.41285000  0.90402000  0.67787000  1.0
  H  H7  1  0.58712000  0.09598000  0.32213000  1.0
  H  H8  1  0.72940000  0.04580000  0.53675000  1.0
  H  H9  1  0.27056000  0.95419000  0.46325000  1.0
  H  H10  1  0.64906000  0.47975000  0.60170000  1.0
  H  H11  1  0.35096000  0.52024000  0.39829000  1.0
  H  H12  1  0.24386000  0.46396000  0.77650000  1.0
  H  H13  1  0.75616000  0.53604000  0.22350000  1.0
  H  H14  1  0.06083000  0.17774000  0.40892000  1.0
  H  H15  1  0.93916000  0.82224000  0.59108000  1.0
  H  H16  1  0.12345000  0.33578000  0.46658000  1.0
  H  H17  1  0.87656000  0.66421000  0.53341000  1.0
  H  H18  1  0.82811000  0.33574000  0.37046000  1.0
  H  H19  1  0.17189000  0.66425000  0.62953000  1.0
  C  C20  1  0.93013000  0.11934000  0.88051000  1.0
  C  C21  1  0.06987000  0.88067000  0.11949000  1.0
  C  C22  1  0.06621000  0.99560000  0.82060000  1.0
  C  C23  1  0.93377000  0.00441000  0.17941000  1.0
  C  C24  1  0.29969000  0.99839000  0.72513000  1.0
  C  C25  1  0.70028000  0.00162000  0.27487000  1.0
  C  C26  1  0.39187000  0.12586000  0.68784000  1.0
  C  C27  1  0.60812000  0.87415000  0.31217000  1.0
  C  C28  1  0.62134000  0.13849000  0.58758000  1.0
  C  C29  1  0.37864000  0.86151000  0.41242000  1.0
  C  C30  1  0.70979000  0.26392000  0.55350000  1.0
  C  C31  1  0.29020000  0.73608000  0.44650000  1.0
  C  C32  1  0.57113000  0.38139000  0.62434000  1.0
  C  C33  1  0.42889000  0.61861000  0.37566000  1.0
  C  C34  1  0.34640000  0.37344000  0.72201000  1.0
  C  C35  1  0.65362000  0.62656000  0.27799000  1.0
  C  C36  1  0.24791000  0.24638000  0.75539000  1.0
  C  C37  1  0.75209000  0.75363000  0.24461000  1.0
  C  C38  1  0.94300000  0.27847000  0.44452000  1.0
  C  C39  1  0.05700000  0.72152000  0.55547000  1.0
  I  I40  1  0.65168000  0.64855000  0.88973000  1.0
  I  I41  1  0.34833000  0.35145000  0.11027000  1.0
  N  N42  1  0.01967000  0.24051000  0.85222000  1.0
  N  N43  1  0.98033000  0.75949000  0.14778000  1.0
