# generated using pymatgen
data_NiH22C27N4Cl2O5
_symmetry_space_group_name_H-M   'P 1'
_cell_length_a   9.50889000
_cell_length_b   11.85310000
_cell_length_c   12.52480000
_cell_angle_alpha   67.41660000
_cell_angle_beta   75.95030000
_cell_angle_gamma   74.28500000
_symmetry_Int_Tables_number   1
_chemical_formula_structural   NiH22C27N4Cl2O5
_chemical_formula_sum   'Ni2 H44 C54 N8 Cl4 O10'
_cell_volume   1239.32029239
_cell_formula_units_Z   2
loop_
 _symmetry_equiv_pos_site_id
 _symmetry_equiv_pos_as_xyz
  1  'x, y, z'
loop_
 _atom_site_type_symbol
 _atom_site_label
 _atom_site_symmetry_multiplicity
 _atom_site_fract_x
 _atom_site_fract_y
 _atom_site_fract_z
 _atom_site_occupancy
  Ni  Ni0  1  0.50799000  0.61001000  0.78160000  1.0
  Ni  Ni1  1  0.49191000  0.39015000  0.21829000  1.0
  H  H2  1  0.77853000  0.03615000  0.87402000  1.0
  H  H3  1  0.22146000  0.96384000  0.12599000  1.0
  H  H4  1  0.18336000  0.78295000  0.81107000  1.0
  H  H5  1  0.81664000  0.21705000  0.18893000  1.0
  H  H6  1  0.03847000  0.63006000  0.82473000  1.0
  H  H7  1  0.96154000  0.36995000  0.17527000  1.0
  H  H8  1  0.31208000  0.06912000  0.77669000  1.0
  H  H9  1  0.68792000  0.93088000  0.22331000  1.0
  H  H10  1  0.93391000  0.28866000  0.92290000  1.0
  H  H11  1  0.06610000  0.71133000  0.07710000  1.0
  H  H12  1  0.09071000  0.43214000  0.91103000  1.0
  H  H13  1  0.90930000  0.56784000  0.08897000  1.0
  H  H14  1  0.94043000  0.29665000  0.69947000  1.0
  H  H15  1  0.05959000  0.70334000  0.30052000  1.0
  H  H16  1  0.75831000  0.41776000  0.81216000  1.0
  H  H17  1  0.24169000  0.58225000  0.18782000  1.0
  H  H18  1  0.56103000  0.64787000  0.52101000  1.0
  H  H19  1  0.43898000  0.35213000  0.47898000  1.0
  H  H20  1  0.73806000  0.53729000  0.39455000  1.0
  H  H21  1  0.26195000  0.46270000  0.60541000  1.0
  H  H22  1  0.04470000  0.40125000  0.40209000  1.0
  H  H23  1  0.95531000  0.59875000  0.59790000  1.0
  H  H24  1  0.91291000  0.32298000  0.40309000  1.0
  H  H25  1  0.08710000  0.67702000  0.59690000  1.0
  H  H26  1  0.12908000  0.23333000  0.57966000  1.0
  H  H27  1  0.87092000  0.76667000  0.42033000  1.0
  H  H28  1  0.98678000  0.15630000  0.59714000  1.0
  H  H29  1  0.01322000  0.84371000  0.40285000  1.0
  H  H30  1  0.09334000  0.12821000  0.40055000  1.0
  H  H31  1  0.90665000  0.87180000  0.59944000  1.0
  H  H32  1  0.23719000  0.20242000  0.38729000  1.0
  H  H33  1  0.76280000  0.79759000  0.61269000  1.0
  H  H34  1  0.16300000  0.90728000  0.46025000  1.0
  H  H35  1  0.83701000  0.09271000  0.53976000  1.0
  H  H36  1  0.30812000  0.70754000  0.57990000  1.0
  H  H37  1  0.69186000  0.29245000  0.42010000  1.0
  H  H38  1  0.50040000  0.89350000  0.70720000  1.0
  H  H39  1  0.49959000  0.10652000  0.29281000  1.0
  H  H40  1  0.36644000  0.10048000  0.59167000  1.0
  H  H41  1  0.63355000  0.89952000  0.40832000  1.0
  H  H42  1  0.32737000  0.56796000  0.97698000  1.0
  H  H43  1  0.67262000  0.43204000  0.02307000  1.0
  H  H44  1  0.43899000  0.64309000  0.98062000  1.0
  H  H45  1  0.56098000  0.35690000  0.01942000  1.0
  C  C46  1  0.74467000  0.64979000  0.86395000  1.0
  C  C47  1  0.25532000  0.35019000  0.13608000  1.0
  C  C48  1  0.82653000  0.74624000  0.85539000  1.0
  C  C49  1  0.17349000  0.25375000  0.14464000  1.0
  C  C50  1  0.75457000  0.86252000  0.86841000  1.0
  C  C51  1  0.24543000  0.13748000  0.13161000  1.0
  C  C52  1  0.83467000  0.94837000  0.86061000  1.0
  C  C53  1  0.16532000  0.05162000  0.13940000  1.0
  C  C54  1  0.99005000  0.91942000  0.83895000  1.0
  C  C55  1  0.00995000  0.08059000  0.16104000  1.0
  C  C56  1  0.06314000  0.80507000  0.82445000  1.0
  C  C57  1  0.93687000  0.19494000  0.17554000  1.0
  C  C58  1  0.98155000  0.71986000  0.83354000  1.0
  C  C59  1  0.01847000  0.28014000  0.16647000  1.0
  C  C60  1  0.38726000  0.41378000  0.83622000  1.0
  C  C61  1  0.61273000  0.58621000  0.16380000  1.0
  C  C62  1  0.28974000  0.33447000  0.83398000  1.0
  C  C63  1  0.71026000  0.66549000  0.16604000  1.0
  C  C64  1  0.34987000  0.23307000  0.79346000  1.0
  C  C65  1  0.65014000  0.76692000  0.20654000  1.0
  C  C66  1  0.26521000  0.14989000  0.80395000  1.0
  C  C67  1  0.73479000  0.85010000  0.19605000  1.0
  C  C68  1  0.11411000  0.17037000  0.85069000  1.0
  C  C69  1  0.88588000  0.82962000  0.14931000  1.0
  C  C70  1  0.05080000  0.27424000  0.88623000  1.0
  C  C71  1  0.94920000  0.72575000  0.11377000  1.0
  C  C72  1  0.13848000  0.35469000  0.87857000  1.0
  C  C73  1  0.86152000  0.64529000  0.12144000  1.0
  C  C74  1  0.85996000  0.37431000  0.65462000  1.0
  C  C75  1  0.14005000  0.62568000  0.34538000  1.0
  C  C76  1  0.75750000  0.44103000  0.71948000  1.0
  C  C77  1  0.24252000  0.55899000  0.28049000  1.0
  C  C78  1  0.64769000  0.56988000  0.55709000  1.0
  C  C79  1  0.35234000  0.43012000  0.44289000  1.0
  C  C80  1  0.74755000  0.50749000  0.48688000  1.0
  C  C81  1  0.25247000  0.49250000  0.51309000  1.0
  C  C82  1  0.85818000  0.40675000  0.53515000  1.0
  C  C83  1  0.14184000  0.59324000  0.46483000  1.0
  C  C84  1  0.96995000  0.33849000  0.46149000  1.0
  C  C85  1  0.03006000  0.66151000  0.53850000  1.0
  C  C86  1  0.06079000  0.21544000  0.53065000  1.0
  C  C87  1  0.93922000  0.78456000  0.46933000  1.0
  C  C88  1  0.16066000  0.14419000  0.45149000  1.0
  C  C89  1  0.83934000  0.85581000  0.54850000  1.0
  C  C90  1  0.24831000  0.02178000  0.51854000  1.0
  C  C91  1  0.75170000  0.97821000  0.48146000  1.0
  C  C92  1  0.23598000  0.90847000  0.51464000  1.0
  C  C93  1  0.76403000  0.09152000  0.48536000  1.0
  C  C94  1  0.31747000  0.79720000  0.58015000  1.0
  C  C95  1  0.68252000  0.20279000  0.41986000  1.0
  C  C96  1  0.42386000  0.90076000  0.65160000  1.0
  C  C97  1  0.57614000  0.09925000  0.34842000  1.0
  C  C98  1  0.34712000  0.01559000  0.58804000  1.0
  C  C99  1  0.65289000  0.98440000  0.41197000  1.0
  N  N100  1  0.08294000  0.99646000  0.83402000  1.0
  N  N101  1  0.91706000  0.00354000  0.16598000  1.0
  N  N102  1  0.01799000  0.09360000  0.85966000  1.0
  N  N103  1  0.98200000  0.90640000  0.14035000  1.0
  N  N104  1  0.65225000  0.53792000  0.67211000  1.0
  N  N105  1  0.34777000  0.46209000  0.32785000  1.0
  N  N106  1  0.40950000  0.79211000  0.64891000  1.0
  N  N107  1  0.59047000  0.20789000  0.35112000  1.0
  Cl  Cl108  1  0.56410000  0.89911000  0.90298000  1.0
  Cl  Cl109  1  0.43591000  0.10086000  0.09704000  1.0
  Cl  Cl110  1  0.53182000  0.21586000  0.72261000  1.0
  Cl  Cl111  1  0.46818000  0.78413000  0.27739000  1.0
  O  O112  1  0.64681000  0.69282000  0.79538000  1.0
  O  O113  1  0.35323000  0.30720000  0.20462000  1.0
  O  O114  1  0.77945000  0.53949000  0.93089000  1.0
  O  O115  1  0.22055000  0.46051000  0.06914000  1.0
  O  O116  1  0.48666000  0.36464000  0.89918000  1.0
  O  O117  1  0.51332000  0.63536000  0.10083000  1.0
  O  O118  1  0.36109000  0.52977000  0.77095000  1.0
  O  O119  1  0.63886000  0.47020000  0.22905000  1.0
  O  O120  1  0.38245000  0.63618000  0.92721000  1.0
  O  O121  1  0.61748000  0.36385000  0.07285000  1.0
