# generated using pymatgen
data_DyH7C8SNO7
_symmetry_space_group_name_H-M   'P 1'
_cell_length_a   7.01138000
_cell_length_b   10.39678986
_cell_length_c   10.39660518
_cell_angle_alpha   66.35293391
_cell_angle_beta   70.60048375
_cell_angle_gamma   70.59924216
_symmetry_Int_Tables_number   1
_chemical_formula_structural   DyH7C8SNO7
_chemical_formula_sum   'Dy2 H14 C16 S2 N2 O14'
_cell_volume   637.22413699
_cell_formula_units_Z   2
loop_
 _symmetry_equiv_pos_site_id
 _symmetry_equiv_pos_as_xyz
  1  'x, y, z'
loop_
 _atom_site_type_symbol
 _atom_site_label
 _atom_site_symmetry_multiplicity
 _atom_site_fract_x
 _atom_site_fract_y
 _atom_site_fract_z
 _atom_site_occupancy
  Dy  Dy0  1  0.51773000  0.17697000  0.17697000  1.0
  Dy  Dy1  1  0.48227000  0.82304000  0.82304000  1.0
  H  H2  1  0.67252000  0.36026000  0.72494000  1.0
  H  H3  1  0.32755000  0.27505000  0.63970000  1.0
  H  H4  1  0.32745000  0.63977000  0.27504000  1.0
  H  H5  1  0.67252000  0.72495000  0.36024000  1.0
  H  H6  1  0.90638000  0.19824000  0.57899000  1.0
  H  H7  1  0.09369000  0.42098000  0.80174000  1.0
  H  H8  1  0.09362000  0.80176000  0.42102000  1.0
  H  H9  1  0.90637000  0.57898000  0.19824000  1.0
  H  H10  1  0.58018000  0.60799000  0.60797000  1.0
  H  H11  1  0.41984000  0.39204000  0.39196000  1.0
  H  H12  1  0.98077000  0.08957000  0.08956000  1.0
  H  H13  1  0.01922000  0.91042000  0.91043000  1.0
  H  H14  1  0.93275000  0.18683000  0.18684000  1.0
  H  H15  1  0.06728000  0.81315000  0.81316000  1.0
  C  C16  1  0.73244000  0.40045000  0.60851000  1.0
  C  C17  1  0.26761000  0.39149000  0.59952000  1.0
  C  C18  1  0.26754000  0.59957000  0.39148000  1.0
  C  C19  1  0.73245000  0.60851000  0.40043000  1.0
  C  C20  1  0.86042000  0.31431000  0.52700000  1.0
  C  C21  1  0.13961000  0.47299000  0.68567000  1.0
  C  C22  1  0.13957000  0.68568000  0.47301000  1.0
  C  C23  1  0.86044000  0.52698000  0.31431000  1.0
  C  C24  1  0.93033000  0.37559000  0.37560000  1.0
  C  C25  1  0.06969000  0.62439000  0.62440000  1.0
  C  C26  1  0.49708000  0.06725000  0.51572000  1.0
  C  C27  1  0.50290000  0.48429000  0.93275000  1.0
  C  C28  1  0.50289000  0.93275000  0.48429000  1.0
  C  C29  1  0.49707000  0.51572000  0.06724000  1.0
  C  C30  1  0.61911000  0.97817000  0.97819000  1.0
  C  C31  1  0.38085000  0.02186000  0.02187000  1.0
  S  S32  1  0.08023000  0.27009000  0.27013000  1.0
  S  S33  1  0.91977000  0.72985000  0.72992000  1.0
  N  N34  1  0.67187000  0.54453000  0.54452000  1.0
  N  N35  1  0.32813000  0.45549000  0.45545000  1.0
  O  O36  1  0.50978000  0.18071000  0.40793000  1.0
  O  O37  1  0.49020000  0.59209000  0.81928000  1.0
  O  O38  1  0.49017000  0.81929000  0.59210000  1.0
  O  O39  1  0.50976000  0.40792000  0.18072000  1.0
  O  O40  1  0.47885000  0.05361000  0.64573000  1.0
  O  O41  1  0.52114000  0.35429000  0.94639000  1.0
  O  O42  1  0.52116000  0.94638000  0.35430000  1.0
  O  O43  1  0.47881000  0.64573000  0.05361000  1.0
  O  O44  1  0.72130000  0.02407000  0.02409000  1.0
  O  O45  1  0.27866000  0.97596000  0.97596000  1.0
  O  O46  1  0.69411000  0.89903000  0.89906000  1.0
  O  O47  1  0.30588000  0.10099000  0.10098000  1.0
  O  O48  1  0.86724000  0.14526000  0.14528000  1.0
  O  O49  1  0.13276000  0.85472000  0.85474000  1.0
