# generated using pymatgen
data_Nd2Cu3H30C24(NO4)6
_symmetry_space_group_name_H-M   'P 1'
_cell_length_a   13.41570000
_cell_length_b   13.41570000
_cell_length_c   14.72950000
_cell_angle_alpha   90.00000000
_cell_angle_beta   90.00010000
_cell_angle_gamma   60.00000000
_symmetry_Int_Tables_number   1
_chemical_formula_structural   Nd2Cu3H30C24(NO4)6
_chemical_formula_sum   'Nd4 Cu6 H60 C48 N12 O48'
_cell_volume   2295.85952979
_cell_formula_units_Z   2
loop_
 _symmetry_equiv_pos_site_id
 _symmetry_equiv_pos_as_xyz
  1  'x, y, z'
loop_
 _atom_site_type_symbol
 _atom_site_label
 _atom_site_symmetry_multiplicity
 _atom_site_fract_x
 _atom_site_fract_y
 _atom_site_fract_z
 _atom_site_occupancy
  Nd  Nd0  1  0.33333333  0.33333333  0.33165000  1.0
  Nd  Nd1  1  0.66666667  0.66666667  0.16835000  1.0
  Nd  Nd2  1  0.66666667  0.66666667  0.66835000  1.0
  Nd  Nd3  1  0.33333333  0.33333333  0.83165000  1.0
  Cu  Cu4  1  0.50000000  0.00000000  0.50000000  1.0
  Cu  Cu5  1  0.50000000  0.50000000  0.50000000  1.0
  Cu  Cu6  1  0.00000000  0.50000000  0.50000000  1.0
  Cu  Cu7  1  0.50000000  0.50000000  0.00000000  1.0
  Cu  Cu8  1  0.50000000  0.00000000  0.00000000  1.0
  Cu  Cu9  1  0.00000000  0.50000000  0.00000000  1.0
  H  H10  1  0.36161000  0.96093000  0.58165000  1.0
  H  H11  1  0.16926000  0.13704000  0.52682000  1.0
  H  H12  1  0.25938000  0.02776000  0.44825000  1.0
  H  H13  1  0.31443000  0.07979000  0.70208000  1.0
  H  H14  1  0.26064000  0.20069000  0.63138000  1.0
  H  H15  1  0.67747000  0.36161000  0.58165000  1.0
  H  H16  1  0.69370000  0.16926000  0.52682000  1.0
  H  H17  1  0.71286000  0.25937000  0.44825000  1.0
  H  H18  1  0.60578000  0.31443000  0.70208000  1.0
  H  H19  1  0.53867000  0.26064000  0.63138000  1.0
  H  H20  1  0.96092000  0.67747000  0.58165000  1.0
  H  H21  1  0.13704000  0.69370000  0.52682000  1.0
  H  H22  1  0.02777000  0.71285000  0.44825000  1.0
  H  H23  1  0.07979000  0.60578000  0.70208000  1.0
  H  H24  1  0.20069000  0.53867000  0.63138000  1.0
  H  H25  1  0.63839000  0.32253000  0.91835000  1.0
  H  H26  1  0.83074000  0.30630000  0.97318000  1.0
  H  H27  1  0.74062000  0.28714000  0.05175000  1.0
  H  H28  1  0.68557000  0.39421000  0.79792000  1.0
  H  H29  1  0.73936000  0.46133000  0.86862000  1.0
  H  H30  1  0.32254000  0.03907000  0.91835000  1.0
  H  H31  1  0.30630000  0.86296000  0.97318000  1.0
  H  H32  1  0.28714000  0.97223000  0.05175000  1.0
  H  H33  1  0.39422000  0.92021000  0.79792000  1.0
  H  H34  1  0.46133000  0.79931000  0.86862000  1.0
  H  H35  1  0.03908000  0.63838000  0.91835000  1.0
  H  H36  1  0.86296000  0.83074000  0.97318000  1.0
  H  H37  1  0.97223000  0.74063000  0.05175000  1.0
  H  H38  1  0.92021000  0.68557000  0.79792000  1.0
  H  H39  1  0.79931000  0.73936000  0.86861000  1.0
  H  H40  1  0.63839000  0.03907000  0.41835000  1.0
  H  H41  1  0.83074000  0.86296000  0.47318000  1.0
  H  H42  1  0.74062000  0.97224000  0.55175000  1.0
  H  H43  1  0.68557000  0.92021000  0.29792000  1.0
  H  H44  1  0.73936000  0.79931000  0.36862000  1.0
  H  H45  1  0.32253000  0.63839000  0.41835000  1.0
  H  H46  1  0.30630000  0.83074000  0.47318000  1.0
  H  H47  1  0.28714000  0.74063000  0.55175000  1.0
  H  H48  1  0.39422000  0.68557000  0.29792000  1.0
  H  H49  1  0.46133000  0.73936000  0.36862000  1.0
  H  H50  1  0.03908000  0.32253000  0.41835000  1.0
  H  H51  1  0.86296000  0.30630000  0.47318000  1.0
  H  H52  1  0.97223000  0.28715000  0.55175000  1.0
  H  H53  1  0.92021000  0.39422000  0.29792000  1.0
  H  H54  1  0.79931000  0.46133000  0.36862000  1.0
  H  H55  1  0.36161000  0.67747000  0.08165000  1.0
  H  H56  1  0.16926000  0.69370000  0.02682000  1.0
  H  H57  1  0.25938000  0.71285000  0.94825000  1.0
  H  H58  1  0.31443000  0.60579000  0.20208000  1.0
  H  H59  1  0.26064000  0.53867000  0.13138000  1.0
  H  H60  1  0.67746000  0.96093000  0.08165000  1.0
  H  H61  1  0.69370000  0.13704000  0.02682000  1.0
  H  H62  1  0.71286000  0.02777000  0.94825000  1.0
  H  H63  1  0.60578000  0.07979000  0.20208000  1.0
  H  H64  1  0.53867000  0.20069000  0.13138000  1.0
  H  H65  1  0.96092000  0.36162000  0.08165000  1.0
  H  H66  1  0.13704000  0.16926000  0.02682000  1.0
  H  H67  1  0.02777000  0.25937000  0.94825000  1.0
  H  H68  1  0.07979000  0.31442000  0.20208000  1.0
  H  H69  1  0.20069000  0.26064000  0.13139000  1.0
  C  C70  1  0.26502000  0.18228000  0.43451000  1.0
  C  C71  1  0.25463000  0.09455000  0.49412000  1.0
  C  C72  1  0.33406000  0.11325000  0.64063000  1.0
  C  C73  1  0.43997000  0.12415000  0.65912000  1.0
  C  C74  1  0.55271000  0.26501000  0.43451000  1.0
  C  C75  1  0.65082000  0.25463000  0.49412000  1.0
  C  C76  1  0.55269000  0.33406000  0.64063000  1.0
  C  C77  1  0.43588000  0.43997000  0.65912000  1.0
  C  C78  1  0.18228000  0.55270000  0.43451000  1.0
  C  C79  1  0.09455000  0.65082000  0.49412000  1.0
  C  C80  1  0.11325000  0.55269000  0.64063000  1.0
  C  C81  1  0.12415000  0.43588000  0.65912000  1.0
  C  C82  1  0.73498000  0.44730000  0.06549000  1.0
  C  C83  1  0.74537000  0.34918000  0.00588000  1.0
  C  C84  1  0.66594000  0.44731000  0.85937000  1.0
  C  C85  1  0.56003000  0.56412000  0.84089000  1.0
  C  C86  1  0.44729000  0.81772000  0.06549000  1.0
  C  C87  1  0.34918000  0.90544000  0.00588000  1.0
  C  C88  1  0.44731000  0.88675000  0.85937000  1.0
  C  C89  1  0.56412000  0.87585000  0.84089000  1.0
  C  C90  1  0.81772000  0.73498000  0.06549000  1.0
  C  C91  1  0.90545000  0.74537000  0.00588000  1.0
  C  C92  1  0.88675000  0.66594000  0.85937000  1.0
  C  C93  1  0.87585000  0.56003000  0.84089000  1.0
  C  C94  1  0.73499000  0.81771000  0.56549000  1.0
  C  C95  1  0.74537000  0.90545000  0.50588000  1.0
  C  C96  1  0.66594000  0.88675000  0.35937000  1.0
  C  C97  1  0.56003000  0.87585000  0.34088000  1.0
  C  C98  1  0.44730000  0.73498000  0.56549000  1.0
  C  C99  1  0.34918000  0.74537000  0.50588000  1.0
  C  C100  1  0.44731000  0.66594000  0.35937000  1.0
  C  C101  1  0.56412000  0.56003000  0.34088000  1.0
  C  C102  1  0.81772000  0.44730000  0.56549000  1.0
  C  C103  1  0.90545000  0.34918000  0.50588000  1.0
  C  C104  1  0.88675000  0.44731000  0.35937000  1.0
  C  C105  1  0.87585000  0.56412000  0.34088000  1.0
  C  C106  1  0.26502000  0.55270000  0.93451000  1.0
  C  C107  1  0.25463000  0.65082000  0.99412000  1.0
  C  C108  1  0.33406000  0.55269000  0.14063000  1.0
  C  C109  1  0.43997000  0.43588000  0.15911000  1.0
  C  C110  1  0.55271000  0.18228000  0.93451000  1.0
  C  C111  1  0.65082000  0.09456000  0.99412000  1.0
  C  C112  1  0.55269000  0.11325000  0.14063000  1.0
  C  C113  1  0.43588000  0.12415000  0.15911000  1.0
  C  C114  1  0.18228000  0.26502000  0.93451000  1.0
  C  C115  1  0.09455000  0.25463000  0.99412000  1.0
  C  C116  1  0.11325000  0.33406000  0.14063000  1.0
  C  C117  1  0.12415000  0.43997000  0.15911000  1.0
  N  N118  1  0.34815000  0.04071000  0.56088000  1.0
  N  N119  1  0.61114000  0.34815000  0.56088000  1.0
  N  N120  1  0.04071000  0.61114000  0.56088000  1.0
  N  N121  1  0.65185000  0.38886000  0.93912000  1.0
  N  N122  1  0.38886000  0.95929000  0.93912000  1.0
  N  N123  1  0.95929000  0.65185000  0.93912000  1.0
  N  N124  1  0.65185000  0.95929000  0.43912000  1.0
  N  N125  1  0.38886000  0.65185000  0.43912000  1.0
  N  N126  1  0.95929000  0.38886000  0.43912000  1.0
  N  N127  1  0.34815000  0.61114000  0.06088000  1.0
  N  N128  1  0.61114000  0.04071000  0.06088000  1.0
  N  N129  1  0.04071000  0.34815000  0.06088000  1.0
  O  O130  1  0.35704000  0.18792000  0.44257000  1.0
  O  O131  1  0.18556000  0.24327000  0.37919000  1.0
  O  O132  1  0.52507000  0.07685000  0.60441000  1.0
  O  O133  1  0.43942000  0.18074000  0.72776000  1.0
  O  O134  1  0.45505000  0.35703000  0.44257000  1.0
  O  O135  1  0.57117000  0.18556000  0.37919000  1.0
  O  O136  1  0.39808000  0.52507000  0.60441000  1.0
  O  O137  1  0.37984000  0.43942000  0.72776000  1.0
  O  O138  1  0.18792000  0.45504000  0.44257000  1.0
  O  O139  1  0.24327000  0.57117000  0.37919000  1.0
  O  O140  1  0.07685000  0.39809000  0.60441000  1.0
  O  O141  1  0.18074000  0.37984000  0.72776000  1.0
  O  O142  1  0.64297000  0.54495000  0.05743000  1.0
  O  O143  1  0.81444000  0.42883000  0.12081000  1.0
  O  O144  1  0.47494000  0.60191000  0.89559000  1.0
  O  O145  1  0.56059000  0.62016000  0.77224000  1.0
  O  O146  1  0.54495000  0.81208000  0.05744000  1.0
  O  O147  1  0.42882000  0.75673000  0.12081000  1.0
  O  O148  1  0.60191000  0.92315000  0.89559000  1.0
  O  O149  1  0.62016000  0.81925000  0.77224000  1.0
  O  O150  1  0.81208000  0.64297000  0.05744000  1.0
  O  O151  1  0.75673000  0.81444000  0.12081000  1.0
  O  O152  1  0.92315000  0.47493000  0.89559000  1.0
  O  O153  1  0.81926000  0.56058000  0.77223000  1.0
  O  O154  1  0.64296000  0.81208000  0.55743000  1.0
  O  O155  1  0.81444000  0.75673000  0.62081000  1.0
  O  O156  1  0.47493000  0.92315000  0.39559000  1.0
  O  O157  1  0.56058000  0.81926000  0.27224000  1.0
  O  O158  1  0.54495000  0.64297000  0.55743000  1.0
  O  O159  1  0.42883000  0.81444000  0.62081000  1.0
  O  O160  1  0.60192000  0.47493000  0.39559000  1.0
  O  O161  1  0.62016000  0.56058000  0.27224000  1.0
  O  O162  1  0.81208000  0.54496000  0.55743000  1.0
  O  O163  1  0.75673000  0.42883000  0.62081000  1.0
  O  O164  1  0.92315000  0.60192000  0.39559000  1.0
  O  O165  1  0.81926000  0.62016000  0.27224000  1.0
  O  O166  1  0.35703000  0.45505000  0.94257000  1.0
  O  O167  1  0.18556000  0.57117000  0.87919000  1.0
  O  O168  1  0.52506000  0.39809000  0.10441000  1.0
  O  O169  1  0.43941000  0.37984000  0.22776000  1.0
  O  O170  1  0.45505000  0.18792000  0.94256000  1.0
  O  O171  1  0.57117000  0.24328000  0.87919000  1.0
  O  O172  1  0.39809000  0.07684000  0.10441000  1.0
  O  O173  1  0.37984000  0.18075000  0.22776000  1.0
  O  O174  1  0.18792000  0.35703000  0.94256000  1.0
  O  O175  1  0.24327000  0.18556000  0.87919000  1.0
  O  O176  1  0.07685000  0.52507000  0.10441000  1.0
  O  O177  1  0.18074000  0.43942000  0.22777000  1.0
