# generated using pymatgen
data_CuH9C14SN6
_symmetry_space_group_name_H-M   'P 1'
_cell_length_a   5.71395000
_cell_length_b   5.71414000
_cell_length_c   20.69690000
_cell_angle_alpha   89.99890000
_cell_angle_beta   89.99820000
_cell_angle_gamma   101.02400000
_symmetry_Int_Tables_number   1
_chemical_formula_structural   CuH9C14SN6
_chemical_formula_sum   'Cu2 H18 C28 S2 N12'
_cell_volume   663.29051850
_cell_formula_units_Z   2
loop_
 _symmetry_equiv_pos_site_id
 _symmetry_equiv_pos_as_xyz
  1  'x, y, z'
loop_
 _atom_site_type_symbol
 _atom_site_label
 _atom_site_symmetry_multiplicity
 _atom_site_fract_x
 _atom_site_fract_y
 _atom_site_fract_z
 _atom_site_occupancy
  Cu  Cu0  1  0.60808000  0.61452000  0.75000000  1.0
  Cu  Cu1  1  0.61440000  0.60808000  0.25000000  1.0
  H  H2  1  0.97678000  0.94343000  0.68846000  1.0
  H  H3  1  0.94341000  0.97667000  0.31152000  1.0
  H  H4  1  0.94341000  0.97670000  0.18846000  1.0
  H  H5  1  0.97676000  0.94345000  0.81153000  1.0
  H  H6  1  0.31268000  0.93871000  0.61186000  1.0
  H  H7  1  0.93873000  0.31257000  0.38813000  1.0
  H  H8  1  0.93871000  0.31263000  0.11186000  1.0
  H  H9  1  0.31265000  0.93876000  0.88814000  1.0
  H  H10  1  0.99619000  0.21136000  0.56610000  1.0
  H  H11  1  0.21135000  0.99620000  0.43390000  1.0
  H  H12  1  0.21135000  0.99622000  0.06611000  1.0
  H  H13  1  0.99619000  0.21141000  0.93391000  1.0
  H  H14  1  0.67828000  0.23900000  0.64710000  1.0
  H  H15  1  0.23894000  0.67830000  0.35290000  1.0
  H  H16  1  0.23895000  0.67833000  0.14711000  1.0
  H  H17  1  0.67831000  0.23903000  0.85291000  1.0
  H  H18  1  0.89459000  0.89441000  0.50000000  1.0
  H  H19  1  0.89453000  0.89452000  0.00001000  1.0
  C  C20  1  0.41944000  0.08694000  0.75000000  1.0
  C  C21  1  0.08683000  0.41951000  0.25000000  1.0
  C  C22  1  0.98789000  0.78316000  0.66092000  1.0
  C  C23  1  0.78313000  0.98782000  0.33907000  1.0
  C  C24  1  0.78313000  0.98784000  0.16092000  1.0
  C  C25  1  0.98790000  0.78321000  0.83908000  1.0
  C  C26  1  0.17351000  0.78148000  0.61794000  1.0
  C  C27  1  0.78148000  0.17344000  0.38205000  1.0
  C  C28  1  0.78148000  0.17349000  0.11795000  1.0
  C  C29  1  0.17349000  0.78151000  0.88205000  1.0
  C  C30  1  0.18221000  0.57359000  0.58281000  1.0
  C  C31  1  0.57363000  0.18213000  0.41719000  1.0
  C  C32  1  0.57361000  0.18220000  0.08280000  1.0
  C  C33  1  0.18221000  0.57367000  0.91719000  1.0
  C  C34  1  0.99803000  0.37612000  0.59253000  1.0
  C  C35  1  0.37611000  0.99800000  0.40747000  1.0
  C  C36  1  0.37608000  0.99802000  0.09253000  1.0
  C  C37  1  0.99805000  0.37619000  0.90748000  1.0
  C  C38  1  0.82053000  0.39127000  0.63736000  1.0
  C  C39  1  0.39120000  0.82052000  0.36264000  1.0
  C  C40  1  0.39121000  0.82055000  0.13736000  1.0
  C  C41  1  0.82054000  0.39128000  0.86264000  1.0
  C  C42  1  0.38238000  0.56826000  0.53819000  1.0
  C  C43  1  0.56833000  0.38226000  0.46182000  1.0
  C  C44  1  0.56830000  0.38233000  0.03819000  1.0
  C  C45  1  0.38234000  0.56834000  0.96182000  1.0
  C  C46  1  0.74413000  0.74397000  0.50001000  1.0
  C  C47  1  0.74408000  0.74408000  0.00001000  1.0
  S  S48  1  0.28083000  0.31197000  0.75000000  1.0
  S  S49  1  0.31189000  0.28089000  0.25000000  1.0
  N  N50  1  0.51488000  0.92014000  0.75000000  1.0
  N  N51  1  0.92009000  0.51497000  0.25000000  1.0
  N  N52  1  0.81492000  0.59052000  0.67203000  1.0
  N  N53  1  0.59047000  0.81490000  0.32795000  1.0
  N  N54  1  0.59048000  0.81494000  0.17204000  1.0
  N  N55  1  0.81493000  0.59055000  0.82796000  1.0
  N  N56  1  0.37647000  0.37639000  0.50000000  1.0
  N  N57  1  0.37644000  0.37648000  0.00000000  1.0
  N  N58  1  0.56213000  0.76041000  0.53893000  1.0
  N  N59  1  0.76053000  0.56198000  0.46107000  1.0
  N  N60  1  0.76050000  0.56207000  0.03893000  1.0
  N  N61  1  0.56208000  0.76050000  0.96108000  1.0
