# generated using pymatgen
data_CdH8(C6N5)2
_symmetry_space_group_name_H-M   'P 1'
_cell_length_a   6.92078000
_cell_length_b   10.12640000
_cell_length_c   10.12640000
_cell_angle_alpha   70.09830000
_cell_angle_beta   81.64030000
_cell_angle_gamma   81.64030000
_symmetry_Int_Tables_number   1
_chemical_formula_structural   CdH8(C6N5)2
_chemical_formula_sum   'Cd2 H16 C24 N20'
_cell_volume   656.69331980
_cell_formula_units_Z   2
loop_
 _symmetry_equiv_pos_site_id
 _symmetry_equiv_pos_as_xyz
  1  'x, y, z'
loop_
 _atom_site_type_symbol
 _atom_site_label
 _atom_site_symmetry_multiplicity
 _atom_site_fract_x
 _atom_site_fract_y
 _atom_site_fract_z
 _atom_site_occupancy
  Cd  Cd0  1  0.25000000  0.38124000  0.61876000  1.0
  Cd  Cd1  1  0.75000000  0.61876000  0.38124000  1.0
  H  H2  1  0.82349000  0.95724000  0.92182000  1.0
  H  H3  1  0.67651000  0.07818000  0.04276000  1.0
  H  H4  1  0.17651000  0.04276000  0.07818000  1.0
  H  H5  1  0.32349000  0.92182000  0.95723000  1.0
  H  H6  1  0.96149000  0.78337000  0.79810000  1.0
  H  H7  1  0.53851000  0.20190000  0.21663000  1.0
  H  H8  1  0.03851000  0.21663000  0.20190000  1.0
  H  H9  1  0.46149000  0.79810000  0.78337000  1.0
  H  H10  1  0.31683000  0.09960000  0.51217000  1.0
  H  H11  1  0.18318000  0.48784000  0.90040000  1.0
  H  H12  1  0.68318000  0.90040000  0.48783000  1.0
  H  H13  1  0.81682000  0.51217000  0.09960000  1.0
  H  H14  1  0.95070000  0.19699000  0.83536000  1.0
  H  H15  1  0.54930000  0.16464000  0.80301000  1.0
  H  H16  1  0.04930000  0.80301000  0.16464000  1.0
  H  H17  1  0.45070000  0.83537000  0.19699000  1.0
  C  C18  1  0.93347000  0.98551000  0.83130000  1.0
  C  C19  1  0.56652000  0.16869000  0.01450000  1.0
  C  C20  1  0.06653000  0.01450000  0.16869000  1.0
  C  C21  1  0.43347000  0.83131000  0.98550000  1.0
  C  C22  1  0.00793000  0.88903000  0.76220000  1.0
  C  C23  1  0.49207000  0.23780000  0.11097000  1.0
  C  C24  1  0.99207000  0.11097000  0.23780000  1.0
  C  C25  1  0.50793000  0.76220000  0.88903000  1.0
  C  C26  1  0.14886000  0.92727000  0.64516000  1.0
  C  C27  1  0.35114000  0.35484000  0.07273000  1.0
  C  C28  1  0.85114000  0.07273000  0.35484000  1.0
  C  C29  1  0.64886000  0.64516000  0.92727000  1.0
  C  C30  1  0.20791000  0.06364000  0.60213000  1.0
  C  C31  1  0.29209000  0.39787000  0.93636000  1.0
  C  C32  1  0.79209000  0.93636000  0.39787000  1.0
  C  C33  1  0.70791000  0.60213000  0.06364000  1.0
  C  C34  1  0.00308000  0.11774000  0.78401000  1.0
  C  C35  1  0.49692000  0.21600000  0.88226000  1.0
  C  C36  1  0.99692000  0.88226000  0.21600000  1.0
  C  C37  1  0.50308000  0.78401000  0.11773000  1.0
  C  C38  1  0.23734000  0.82076000  0.58079000  1.0
  C  C39  1  0.26266000  0.41921000  0.17924000  1.0
  C  C40  1  0.76267000  0.17924000  0.41921000  1.0
  C  C41  1  0.73733000  0.58079000  0.82076000  1.0
  N  N42  1  0.13809000  0.15543000  0.67162000  1.0
  N  N43  1  0.36191000  0.32838000  0.84457000  1.0
  N  N44  1  0.86191000  0.84457000  0.32837000  1.0
  N  N45  1  0.63809000  0.67162000  0.15543000  1.0
  N  N46  1  0.37046000  0.83767000  0.46627000  1.0
  N  N47  1  0.12953000  0.53372000  0.16233000  1.0
  N  N48  1  0.62954000  0.16233000  0.53373000  1.0
  N  N49  1  0.87046000  0.46628000  0.83767000  1.0
  N  N50  1  0.41665000  0.70807000  0.45693000  1.0
  N  N51  1  0.08335000  0.54307000  0.29193000  1.0
  N  N52  1  0.58335000  0.29193000  0.54307000  1.0
  N  N53  1  0.91665000  0.45693000  0.70807000  1.0
  N  N54  1  0.31390000  0.61727000  0.56191000  1.0
  N  N55  1  0.18610000  0.43809000  0.38273000  1.0
  N  N56  1  0.68610000  0.38273000  0.43809000  1.0
  N  N57  1  0.81390000  0.56191000  0.61727000  1.0
  N  N58  1  0.20086000  0.68445000  0.64104000  1.0
  N  N59  1  0.29914000  0.35895000  0.31556000  1.0
  N  N60  1  0.79914000  0.31555000  0.35896000  1.0
  N  N61  1  0.70086000  0.64104000  0.68445000  1.0
