# generated using pymatgen
data_AlH7C12O6F
_symmetry_space_group_name_H-M   'P 1'
_cell_length_a   6.69435000
_cell_length_b   11.15140000
_cell_length_c   15.32728062
_cell_angle_alpha   91.67194532
_cell_angle_beta   102.55234334
_cell_angle_gamma   106.58970000
_symmetry_Int_Tables_number   1
_chemical_formula_structural   AlH7C12O6F
_chemical_formula_sum   'Al2 H14 C24 O12 F2'
_cell_volume   1065.26143243
_cell_formula_units_Z   2
loop_
 _symmetry_equiv_pos_site_id
 _symmetry_equiv_pos_as_xyz
  1  'x, y, z'
loop_
 _atom_site_type_symbol
 _atom_site_label
 _atom_site_symmetry_multiplicity
 _atom_site_fract_x
 _atom_site_fract_y
 _atom_site_fract_z
 _atom_site_occupancy
  Al  Al0  1  0.00075000  0.50085000  0.50491000  1.0
  Al  Al1  1  0.49842000  0.49611000  0.50549000  1.0
  H  H2  1  0.14488000  0.35422000  0.43981000  1.0
  H  H3  1  0.84754000  0.63844000  0.57638000  1.0
  H  H4  1  0.19781000  0.47829000  0.06663000  1.0
  H  H5  1  0.76044000  0.45569000  0.94219000  1.0
  H  H6  1  0.09106000  0.53228000  0.77765000  1.0
  H  H7  1  0.17412000  0.54825000  0.94244000  1.0
  H  H8  1  0.94735000  0.54427000  0.23545000  1.0
  H  H9  1  0.87068000  0.54666000  0.07164000  1.0
  H  H10  1  0.14518000  0.10040000  0.35609000  1.0
  H  H11  1  0.07395000  0.11969000  0.46053000  1.0
  H  H12  1  0.94704000  0.88462000  0.46188000  1.0
  H  H13  1  0.02095000  0.86571000  0.35855000  1.0
  H  H14  1  0.30738000  0.49637000  0.30171000  1.0
  H  H15  1  0.66031000  0.44957000  0.70786000  1.0
  C  C16  1  0.64840000  0.27296000  0.50486000  1.0
  C  C17  1  0.67224000  0.51119000  0.34279000  1.0
  C  C18  1  0.35862000  0.72433000  0.51283000  1.0
  C  C19  1  0.32933000  0.49064000  0.66786000  1.0
  C  C20  1  0.62207000  0.51692000  0.24517000  1.0
  C  C21  1  0.38001000  0.49211000  0.76604000  1.0
  C  C22  1  0.40932000  0.50186000  0.19576000  1.0
  C  C23  1  0.36483000  0.49677000  0.10196000  1.0
  C  C24  1  0.57170000  0.47104000  0.81435000  1.0
  C  C25  1  0.61482000  0.47603000  0.90819000  1.0
  C  C26  1  0.23888000  0.51763000  0.81475000  1.0
  C  C27  1  0.28469000  0.52425000  0.90743000  1.0
  C  C28  1  0.78422000  0.53233000  0.19788000  1.0
  C  C29  1  0.73958000  0.53124000  0.10543000  1.0
  C  C30  1  0.52678000  0.51083000  0.05536000  1.0
  C  C31  1  0.47515000  0.50363000  0.95611000  1.0
  C  C32  1  0.57875000  0.13512000  0.51112000  1.0
  C  C33  1  0.43297000  0.86356000  0.51602000  1.0
  C  C34  1  0.36759000  0.06183000  0.47454000  1.0
  C  C35  1  0.64483000  0.93702000  0.55576000  1.0
  C  C36  1  0.29778000  0.93195000  0.47651000  1.0
  C  C37  1  0.71532000  0.06764000  0.55329000  1.0
  C  C38  1  0.15036000  0.06756000  0.42320000  1.0
  C  C39  1  0.07136000  0.91975000  0.42477000  1.0
  O  O40  1  0.84502000  0.32748000  0.50847000  1.0
  O  O41  1  0.52200000  0.51345000  0.38349000  1.0
  O  O42  1  0.49916000  0.66666667  0.51920000  1.0
  O  O43  1  0.15358000  0.50748000  0.62760000  1.0
  O  O44  1  0.15778000  0.67353000  0.50204000  1.0
  O  O45  1  0.47240000  0.47465000  0.62716000  1.0
  O  O46  1  0.49972000  0.32528000  0.49409000  1.0
  O  O47  1  0.85377000  0.50122000  0.38219000  1.0
  O  O48  1  0.20103000  0.44276000  0.46156000  1.0
  O  O49  1  0.79561000  0.55278000  0.54813000  1.0
  O  O50  1  0.24383000  0.48835000  0.23553000  1.0
  O  O51  1  0.71633000  0.44533000  0.77345000  1.0
  F  F52  1  0.79151000  0.88432000  0.60038000  1.0
  F  F53  1  0.92167000  0.12714000  0.59555000  1.0
