# generated using pymatgen
data_MnH12C12(NO3)2
_symmetry_space_group_name_H-M   'P 1'
_cell_length_a   7.03456000
_cell_length_b   8.46055000
_cell_length_c   9.95614000
_cell_angle_alpha   89.74870000
_cell_angle_beta   88.65400000
_cell_angle_gamma   80.86770000
_symmetry_Int_Tables_number   1
_chemical_formula_structural   MnH12C12(NO3)2
_chemical_formula_sum   'Mn2 H24 C24 N4 O12'
_cell_volume   584.87962462
_cell_formula_units_Z   2
loop_
 _symmetry_equiv_pos_site_id
 _symmetry_equiv_pos_as_xyz
  1  'x, y, z'
loop_
 _atom_site_type_symbol
 _atom_site_label
 _atom_site_symmetry_multiplicity
 _atom_site_fract_x
 _atom_site_fract_y
 _atom_site_fract_z
 _atom_site_occupancy
  Mn  Mn0  1  0.00000000  0.50000000  0.00000000  1.0
  Mn  Mn1  1  0.50000000  0.50000000  0.50000000  1.0
  H  H2  1  0.20764000  0.71941000  0.88292000  1.0
  H  H3  1  0.28173000  0.31095000  0.38016000  1.0
  H  H4  1  0.79236000  0.28059000  0.11708000  1.0
  H  H5  1  0.71828000  0.68905000  0.61984000  1.0
  H  H6  1  0.03775000  0.70254000  0.77947000  1.0
  H  H7  1  0.46486000  0.31207000  0.27957000  1.0
  H  H8  1  0.96225000  0.29746000  0.22053000  1.0
  H  H9  1  0.53514000  0.68793000  0.72042000  1.0
  H  H10  1  0.37595000  0.49206000  0.79511000  1.0
  H  H11  1  0.15040000  0.51994000  0.28920000  1.0
  H  H12  1  0.62404000  0.50794000  0.20489000  1.0
  H  H13  1  0.84961000  0.48006000  0.71080000  1.0
  H  H14  1  0.72139000  0.95158000  0.70076000  1.0
  H  H15  1  0.74991000  0.04741000  0.24102000  1.0
  H  H16  1  0.27861000  0.04842000  0.29924000  1.0
  H  H17  1  0.25009000  0.95258000  0.75898000  1.0
  H  H18  1  0.65218000  0.03602000  0.94223000  1.0
  H  H19  1  0.84437000  0.94731000  0.47391000  1.0
  H  H20  1  0.34781000  0.96399000  0.05777000  1.0
  H  H21  1  0.15562000  0.05268000  0.52609000  1.0
  H  H22  1  0.62104000  0.15097000  0.51906000  1.0
  H  H23  1  0.86157000  0.86712000  0.04494000  1.0
  H  H24  1  0.37895000  0.84902000  0.48093000  1.0
  H  H25  1  0.13845000  0.13288000  0.95507000  1.0
  C  C26  1  0.45566000  0.37276000  0.77786000  1.0
  C  C27  1  0.06075000  0.63659000  0.28382000  1.0
  C  C28  1  0.54434000  0.62724000  0.22214000  1.0
  C  C29  1  0.93926000  0.36341000  0.71618000  1.0
  C  C30  1  0.64699000  0.07080000  0.72623000  1.0
  C  C31  1  0.83825000  0.93152000  0.25692000  1.0
  C  C32  1  0.35300000  0.92920000  0.27377000  1.0
  C  C33  1  0.16175000  0.06848000  0.74309000  1.0
  C  C34  1  0.44531000  0.31998000  0.02714000  1.0
  C  C35  1  0.07271000  0.67275000  0.53490000  1.0
  C  C36  1  0.55469000  0.68002000  0.97286000  1.0
  C  C37  1  0.92730000  0.32725000  0.46511000  1.0
  C  C38  1  0.60837000  0.11684000  0.85937000  1.0
  C  C39  1  0.89028000  0.87651000  0.38460000  1.0
  C  C40  1  0.39163000  0.88317000  0.14063000  1.0
  C  C41  1  0.10972000  0.12349000  0.61540000  1.0
  C  C42  1  0.50462000  0.26911000  0.88570000  1.0
  C  C43  1  0.00958000  0.72844000  0.39897000  1.0
  C  C44  1  0.49537000  0.73090000  0.11431000  1.0
  C  C45  1  0.99043000  0.27156000  0.60103000  1.0
  C  C46  1  0.59401000  0.18087000  0.62461000  1.0
  C  C47  1  0.89709000  0.83186000  0.14787000  1.0
  C  C48  1  0.40598000  0.81913000  0.37539000  1.0
  C  C49  1  0.10292000  0.16814000  0.85214000  1.0
  N  N50  1  0.50768000  0.33380000  0.64902000  1.0
  N  N51  1  0.00083000  0.68472000  0.16158000  1.0
  N  N52  1  0.49231000  0.66619000  0.35098000  1.0
  N  N53  1  0.99918000  0.31528000  0.83842000  1.0
  O  O54  1  0.29457000  0.42193000  0.04599000  1.0
  O  O55  1  0.23487000  0.58430000  0.55399000  1.0
  O  O56  1  0.70542000  0.57807000  0.95401000  1.0
  O  O57  1  0.76513000  0.41570000  0.44601000  1.0
  O  O58  1  0.55027000  0.25680000  0.12275000  1.0
  O  O59  1  0.95461000  0.71974000  0.63212000  1.0
  O  O60  1  0.44973000  0.74319000  0.87725000  1.0
  O  O61  1  0.04539000  0.28026000  0.36788000  1.0
  O  O62  1  0.07490000  0.69463000  0.87679000  1.0
  O  O63  1  0.41911000  0.32720000  0.37625000  1.0
  O  O64  1  0.92511000  0.30536000  0.12321000  1.0
  O  O65  1  0.58089000  0.67281000  0.62374000  1.0
