# generated using pymatgen
data_BaH3C7NO5
_symmetry_space_group_name_H-M   'P 1'
_cell_length_a   4.40015000
_cell_length_b   9.73462000
_cell_length_c   10.30767054
_cell_angle_alpha   85.50397144
_cell_angle_beta   79.48423607
_cell_angle_gamma   80.19350000
_symmetry_Int_Tables_number   1
_chemical_formula_structural   BaH3C7NO5
_chemical_formula_sum   'Ba2 H6 C14 N2 O10'
_cell_volume   427.24814825
_cell_formula_units_Z   2
loop_
 _symmetry_equiv_pos_site_id
 _symmetry_equiv_pos_as_xyz
  1  'x, y, z'
loop_
 _atom_site_type_symbol
 _atom_site_label
 _atom_site_symmetry_multiplicity
 _atom_site_fract_x
 _atom_site_fract_y
 _atom_site_fract_z
 _atom_site_occupancy
  Ba  Ba0  1  0.02734000  0.25580000  0.92427000  1.0
  Ba  Ba1  1  0.97274000  0.74418000  0.07570000  1.0
  H  H2  1  0.76731000  0.98939000  0.54056000  1.0
  H  H3  1  0.23278000  0.01059000  0.45945000  1.0
  H  H4  1  0.71973000  0.78884000  0.40839000  1.0
  H  H5  1  0.28030000  0.21118000  0.59161000  1.0
  H  H6  1  0.59455000  0.56729000  0.53354000  1.0
  H  H7  1  0.40545000  0.43270000  0.46645000  1.0
  C  C8  1  0.73213000  0.99253000  0.80439000  1.0
  C  C9  1  0.26792000  0.00746000  0.19561000  1.0
  C  C10  1  0.67115000  0.87900000  0.72512000  1.0
  C  C11  1  0.32885000  0.12101000  0.27489000  1.0
  C  C12  1  0.71485000  0.89054000  0.58817000  1.0
  C  C13  1  0.28522000  0.10945000  0.41184000  1.0
  C  C14  1  0.68907000  0.77957000  0.51570000  1.0
  C  C15  1  0.31100000  0.22042000  0.48431000  1.0
  C  C16  1  0.61309000  0.65803000  0.58480000  1.0
  C  C17  1  0.38695000  0.34195000  0.41520000  1.0
  C  C18  1  0.42745000  0.52696000  0.79936000  1.0
  C  C19  1  0.57239000  0.47306000  0.20063000  1.0
  C  C20  1  0.55259000  0.65009000  0.72205000  1.0
  C  C21  1  0.44730000  0.34992000  0.27796000  1.0
  N  N22  1  0.58608000  0.75999000  0.79037000  1.0
  N  N23  1  0.41389000  0.24002000  0.20962000  1.0
  O  O24  1  0.94660000  0.96031000  0.87292000  1.0
  O  O25  1  0.05343000  0.03966000  0.12708000  1.0
  O  O26  1  0.57867000  0.11325000  0.78857000  1.0
  O  O27  1  0.42144000  0.88676000  0.21146000  1.0
  O  O28  1  0.59155000  0.40792000  0.78065000  1.0
  O  O29  1  0.40831000  0.59211000  0.21932000  1.0
  O  O30  1  0.15944000  0.55184000  0.87031000  1.0
  O  O31  1  0.84038000  0.44816000  0.12970000  1.0
  O  O32  1  0.53513000  0.75136000  0.92017000  1.0
  O  O33  1  0.46493000  0.24863000  0.07982000  1.0
