# generated using pymatgen
data_BiH8C12Cl
_symmetry_space_group_name_H-M   'P 1'
_cell_length_a   8.66458000
_cell_length_b   9.17702000
_cell_length_c   12.81450000
_cell_angle_alpha   90.00000000
_cell_angle_beta   90.00020000
_cell_angle_gamma   89.99960000
_symmetry_Int_Tables_number   1
_chemical_formula_structural   BiH8C12Cl
_chemical_formula_sum   'Bi4 H32 C48 Cl4'
_cell_volume   1018.94527440
_cell_formula_units_Z   4
loop_
 _symmetry_equiv_pos_site_id
 _symmetry_equiv_pos_as_xyz
  1  'x, y, z'
loop_
 _atom_site_type_symbol
 _atom_site_label
 _atom_site_symmetry_multiplicity
 _atom_site_fract_x
 _atom_site_fract_y
 _atom_site_fract_z
 _atom_site_occupancy
  Bi  Bi0  1  0.99206000  0.16447000  0.22494000  1.0
  Bi  Bi1  1  0.49206000  0.33553000  0.77506000  1.0
  Bi  Bi2  1  0.00794000  0.66447000  0.27506000  1.0
  Bi  Bi3  1  0.50794000  0.83553000  0.72494000  1.0
  H  H4  1  0.49985000  0.39549000  0.37350000  1.0
  H  H5  1  0.99985000  0.10451000  0.62650000  1.0
  H  H6  1  0.50015000  0.89549000  0.12650000  1.0
  H  H7  1  0.00015000  0.60451000  0.87350000  1.0
  H  H8  1  0.67737000  0.32411000  0.23295000  1.0
  H  H9  1  0.17737000  0.17589000  0.76705000  1.0
  H  H10  1  0.32264000  0.82411000  0.26705000  1.0
  H  H11  1  0.82263000  0.67590000  0.73295000  1.0
  H  H12  1  0.58427000  0.17478000  0.08313000  1.0
  H  H13  1  0.08426000  0.32521000  0.91687000  1.0
  H  H14  1  0.41574000  0.67478000  0.41686000  1.0
  H  H15  1  0.91573000  0.82522000  0.58313000  1.0
  H  H16  1  0.30909000  0.10138000  0.07390000  1.0
  H  H17  1  0.80908000  0.39861000  0.92611000  1.0
  H  H18  1  0.69092000  0.60138000  0.42610000  1.0
  H  H19  1  0.19091000  0.89862000  0.57389000  1.0
  H  H20  1  0.79343000  0.33157000  0.42090000  1.0
  H  H21  1  0.29343000  0.16843000  0.57910000  1.0
  H  H22  1  0.20657000  0.83158000  0.07910000  1.0
  H  H23  1  0.70657000  0.66843000  0.92090000  1.0
  H  H24  1  0.86621000  0.48561000  0.57214000  1.0
  H  H25  1  0.36621000  0.01439000  0.42786000  1.0
  H  H26  1  0.13379000  0.98561000  0.92786000  1.0
  H  H27  1  0.63379000  0.51439000  0.07214000  1.0
  H  H28  1  0.14387000  0.53886000  0.60673000  1.0
  H  H29  1  0.64387000  0.96114000  0.39327000  1.0
  H  H30  1  0.85612000  0.03886000  0.89327000  1.0
  H  H31  1  0.35612000  0.46114000  0.10673000  1.0
  H  H32  1  0.34473000  0.45057000  0.48763000  1.0
  H  H33  1  0.84473000  0.04943000  0.51237000  1.0
  H  H34  1  0.65527000  0.95057000  0.01237000  1.0
  H  H35  1  0.15527000  0.54943000  0.98763000  1.0
  C  C36  1  0.24804000  0.20763000  0.21904000  1.0
  C  C37  1  0.74803000  0.29236000  0.78096000  1.0
  C  C38  1  0.75197000  0.70764000  0.28096000  1.0
  C  C39  1  0.25196000  0.79236000  0.71904000  1.0
  C  C40  1  0.29973000  0.29205000  0.30459000  1.0
  C  C41  1  0.79973000  0.20795000  0.69541000  1.0
  C  C42  1  0.70027000  0.79206000  0.19541000  1.0
  C  C43  1  0.20027000  0.70795000  0.80458000  1.0
  C  C44  1  0.45636000  0.33034000  0.30889000  1.0
  C  C45  1  0.95635000  0.16966000  0.69111000  1.0
  C  C46  1  0.54365000  0.83034000  0.19111000  1.0
  C  C47  1  0.04364000  0.66966000  0.80889000  1.0
  C  C48  1  0.55759000  0.28793000  0.23000000  1.0
  C  C49  1  0.05758000  0.21207000  0.77000000  1.0
  C  C50  1  0.44242000  0.78793000  0.27000000  1.0
  C  C51  1  0.94241000  0.71207000  0.73000000  1.0
  C  C52  1  0.50537000  0.20523000  0.14578000  1.0
  C  C53  1  0.00536000  0.29476000  0.85422000  1.0
  C  C54  1  0.49464000  0.70523000  0.35422000  1.0
  C  C55  1  0.99463000  0.79477000  0.64578000  1.0
  C  C56  1  0.34969000  0.16438000  0.14072000  1.0
  C  C57  1  0.84968000  0.33562000  0.85928000  1.0
  C  C58  1  0.65032000  0.66438000  0.35928000  1.0
  C  C59  1  0.15031000  0.83563000  0.64072000  1.0
  C  C60  1  0.18560000  0.34045000  0.38299000  1.0
  C  C61  1  0.68560000  0.15955000  0.61701000  1.0
  C  C62  1  0.81440000  0.84045000  0.11701000  1.0
  C  C63  1  0.31440000  0.65955000  0.88299000  1.0
  C  C64  1  0.02865000  0.30437000  0.36738000  1.0
  C  C65  1  0.52864000  0.19563000  0.63262000  1.0
  C  C66  1  0.97136000  0.80437000  0.13262000  1.0
  C  C67  1  0.47135000  0.69563000  0.86738000  1.0
  C  C68  1  0.91466000  0.35788000  0.43411000  1.0
  C  C69  1  0.41465000  0.14212000  0.56589000  1.0
  C  C70  1  0.08535000  0.85789000  0.06589000  1.0
  C  C71  1  0.58534000  0.64212000  0.93411000  1.0
  C  C72  1  0.95527000  0.44466000  0.51972000  1.0
  C  C73  1  0.45527000  0.05534000  0.48028000  1.0
  C  C74  1  0.04473000  0.94466000  0.98028000  1.0
  C  C75  1  0.54473000  0.55534000  0.01972000  1.0
  C  C76  1  0.11079000  0.47505000  0.53872000  1.0
  C  C77  1  0.61079000  0.02495000  0.46128000  1.0
  C  C78  1  0.88921000  0.97505000  0.96128000  1.0
  C  C79  1  0.38921000  0.52495000  0.03872000  1.0
  C  C80  1  0.22459000  0.42444000  0.47087000  1.0
  C  C81  1  0.72459000  0.07556000  0.52913000  1.0
  C  C82  1  0.77541000  0.92444000  0.02913000  1.0
  C  C83  1  0.27541000  0.57556000  0.97087000  1.0
  Cl  Cl84  1  0.94741000  0.43494000  0.13110000  1.0
  Cl  Cl85  1  0.44741000  0.06506000  0.86890000  1.0
  Cl  Cl86  1  0.05259000  0.93494000  0.36890000  1.0
  Cl  Cl87  1  0.55259000  0.56506000  0.63110000  1.0
