# generated using pymatgen
data_AgH8C15N2O3F7
_symmetry_space_group_name_H-M   'P 1'
_cell_length_a   8.21700000
_cell_length_b   20.25770000
_cell_length_c   20.25540000
_cell_angle_alpha   118.19700000
_cell_angle_beta   97.78290000
_cell_angle_gamma   97.77070000
_symmetry_Int_Tables_number   1
_chemical_formula_structural   AgH8C15N2O3F7
_chemical_formula_sum   'Ag6 H48 C90 N12 O18 F42'
_cell_volume   2866.54137795
_cell_formula_units_Z   6
loop_
 _symmetry_equiv_pos_site_id
 _symmetry_equiv_pos_as_xyz
  1  'x, y, z'
loop_
 _atom_site_type_symbol
 _atom_site_label
 _atom_site_symmetry_multiplicity
 _atom_site_fract_x
 _atom_site_fract_y
 _atom_site_fract_z
 _atom_site_occupancy
  Ag  Ag0  1  0.64232000  0.96057000  0.46254000  1.0
  Ag  Ag1  1  0.18006000  0.53759000  0.49807000  1.0
  Ag  Ag2  1  0.68183000  0.50196000  0.03939000  1.0
  Ag  Ag3  1  0.35768000  0.03943000  0.53746000  1.0
  Ag  Ag4  1  0.81994000  0.46241000  0.50193000  1.0
  Ag  Ag5  1  0.31817000  0.49804000  0.96061000  1.0
  H  H6  1  0.76491000  0.13098000  0.50632000  1.0
  H  H7  1  0.25848000  0.49361000  0.62468000  1.0
  H  H8  1  0.63418000  0.37528000  0.86890000  1.0
  H  H9  1  0.23509000  0.86902000  0.49368000  1.0
  H  H10  1  0.74152000  0.50639000  0.37532000  1.0
  H  H11  1  0.36582000  0.62472000  0.13110000  1.0
  H  H12  1  0.19745000  0.23345000  0.69803000  1.0
  H  H13  1  0.49954000  0.30203000  0.53548000  1.0
  H  H14  1  0.96452000  0.46452000  0.76657000  1.0
  H  H15  1  0.80255000  0.76655000  0.30197000  1.0
  H  H16  1  0.50046000  0.69797000  0.46452000  1.0
  H  H17  1  0.03548000  0.53548000  0.23344000  1.0
  H  H18  1  0.18069000  0.10149000  0.68392000  1.0
  H  H19  1  0.49639000  0.31606000  0.41754000  1.0
  H  H20  1  0.07920000  0.58246000  0.89850000  1.0
  H  H21  1  0.81931000  0.89851000  0.31608000  1.0
  H  H22  1  0.50362000  0.68394000  0.58246000  1.0
  H  H23  1  0.92080000  0.41754000  0.10150000  1.0
  H  H24  1  0.94394000  0.99278000  0.58360000  1.0
  H  H25  1  0.36018000  0.41642000  0.40922000  1.0
  H  H26  1  0.95096000  0.59086000  0.00714000  1.0
  H  H27  1  0.05607000  0.00722000  0.41640000  1.0
  H  H28  1  0.63982000  0.58358000  0.59078000  1.0
  H  H29  1  0.04904000  0.40914000  0.99286000  1.0
  H  H30  1  0.86672000  0.38224000  0.60169000  1.0
  H  H31  1  0.26469000  0.39831000  0.78068000  1.0
  H  H32  1  0.48422000  0.21931000  0.61762000  1.0
  H  H33  1  0.13328000  0.61776000  0.39831000  1.0
  H  H34  1  0.73531000  0.60169000  0.21932000  1.0
  H  H35  1  0.51578000  0.78069000  0.38238000  1.0
  H  H36  1  0.06330000  0.18285000  0.47102000  1.0
  H  H37  1  0.59192000  0.52889000  0.71182000  1.0
  H  H38  1  0.88032000  0.28815000  0.81710000  1.0
  H  H39  1  0.93670000  0.81715000  0.52899000  1.0
  H  H40  1  0.40808000  0.47111000  0.28818000  1.0
  H  H41  1  0.11968000  0.71185000  0.18290000  1.0
  H  H42  1  0.02545000  0.21098000  0.36293000  1.0
  H  H43  1  0.66259000  0.63696000  0.84804000  1.0
  H  H44  1  0.81450000  0.15199000  0.78903000  1.0
  H  H45  1  0.97455000  0.78902000  0.63707000  1.0
  H  H46  1  0.33741000  0.36304000  0.15196000  1.0
  H  H47  1  0.18550000  0.84801000  0.21097000  1.0
  H  H48  1  0.91504000  0.32648000  0.38135000  1.0
  H  H49  1  0.53375000  0.61860000  0.94516000  1.0
  H  H50  1  0.58857000  0.05486000  0.67351000  1.0
  H  H51  1  0.08496000  0.67352000  0.61865000  1.0
  H  H52  1  0.46625000  0.38140000  0.05484000  1.0
  H  H53  1  0.41143000  0.94514000  0.32649000  1.0
  C  C54  1  0.86071000  0.12777000  0.54696000  1.0
  C  C55  1  0.31368000  0.45301000  0.58084000  1.0
  C  C56  1  0.73320000  0.41914000  0.87215000  1.0
  C  C57  1  0.13929000  0.87223000  0.45304000  1.0
  C  C58  1  0.68632000  0.54699000  0.41916000  1.0
  C  C59  1  0.26680000  0.58086000  0.12785000  1.0
  C  C60  1  0.98476000  0.19207000  0.60294000  1.0
  C  C61  1  0.38179000  0.39706000  0.58918000  1.0
  C  C62  1  0.79306000  0.41079000  0.80787000  1.0
  C  C63  1  0.01524000  0.80793000  0.39706000  1.0
  C  C64  1  0.61821000  0.60294000  0.41082000  1.0
  C  C65  1  0.20694000  0.58921000  0.19213000  1.0
  C  C66  1  0.10079000  0.18355000  0.65416000  1.0
  C  C67  1  0.44668000  0.34588000  0.52946000  1.0
  C  C68  1  0.91763000  0.47053000  0.81642000  1.0
  C  C69  1  0.89922000  0.81645000  0.34584000  1.0
  C  C70  1  0.55332000  0.65412000  0.47054000  1.0
  C  C71  1  0.08237000  0.52947000  0.18358000  1.0
  C  C72  1  0.09125000  0.11107000  0.64637000  1.0
  C  C73  1  0.44468000  0.35362000  0.46473000  1.0
  C  C74  1  0.98032000  0.53527000  0.88889000  1.0
  C  C75  1  0.90875000  0.88893000  0.35363000  1.0
  C  C76  1  0.55532000  0.64638000  0.53527000  1.0
  C  C77  1  0.01968000  0.46473000  0.11111000  1.0
  C  C78  1  0.96129000  0.05023000  0.59060000  1.0
  C  C79  1  0.37052000  0.40940000  0.45967000  1.0
  C  C80  1  0.91105000  0.54037000  0.94970000  1.0
  C  C81  1  0.03871000  0.94977000  0.40940000  1.0
  C  C82  1  0.62948000  0.59059000  0.54033000  1.0
  C  C83  1  0.08896000  0.45963000  0.05030000  1.0
  C  C84  1  0.99033000  0.27033000  0.61311000  1.0
  C  C85  1  0.37699000  0.38688000  0.65727000  1.0
  C  C86  1  0.72007000  0.34272000  0.72960000  1.0
  C  C87  1  0.00967000  0.72968000  0.38690000  1.0
  C  C88  1  0.62301000  0.61312000  0.34273000  1.0
  C  C89  1  0.27993000  0.65728000  0.27040000  1.0
  C  C90  1  0.90322000  0.34334000  0.54960000  1.0
  C  C91  1  0.35325000  0.45039000  0.79383000  1.0
  C  C92  1  0.55970000  0.20617000  0.65656000  1.0
  C  C93  1  0.09678000  0.65666000  0.45040000  1.0
  C  C94  1  0.64675000  0.54961000  0.20617000  1.0
  C  C95  1  0.44030000  0.79382000  0.34344000  1.0
  C  C96  1  0.96313000  0.27978000  0.54426000  1.0
  C  C97  1  0.41847000  0.45571000  0.73558000  1.0
  C  C98  1  0.68313000  0.26442000  0.72014000  1.0
  C  C99  1  0.03687000  0.72022000  0.45574000  1.0
  C  C100  1  0.58153000  0.54429000  0.26442000  1.0
  C  C101  1  0.31686000  0.73558000  0.27986000  1.0
  C  C102  1  0.00778000  0.23064000  0.47623000  1.0
  C  C103  1  0.53124000  0.52371000  0.75443000  1.0
  C  C104  1  0.77697000  0.24557000  0.76932000  1.0
  C  C105  1  0.99222000  0.76936000  0.52377000  1.0
  C  C106  1  0.46876000  0.47629000  0.24557000  1.0
  C  C107  1  0.22303000  0.75442000  0.23068000  1.0
  C  C108  1  0.98992000  0.24687000  0.41637000  1.0
  C  C109  1  0.57349000  0.58357000  0.83051000  1.0
  C  C110  1  0.74299000  0.16951000  0.75313000  1.0
  C  C111  1  0.01008000  0.75313000  0.58363000  1.0
  C  C112  1  0.42651000  0.41643000  0.16949000  1.0
  C  C113  1  0.25701000  0.83049000  0.24687000  1.0
  C  C114  1  0.92916000  0.31082000  0.42597000  1.0
  C  C115  1  0.50313000  0.57399000  0.88488000  1.0
  C  C116  1  0.61831000  0.11513000  0.68917000  1.0
  C  C117  1  0.07084000  0.68918000  0.57403000  1.0
  C  C118  1  0.49687000  0.42601000  0.11512000  1.0
  C  C119  1  0.38169000  0.88487000  0.31083000  1.0
  C  C120  1  0.61331000  0.89523000  0.56959000  1.0
  C  C121  1  0.04430000  0.43053000  0.32569000  1.0
  C  C122  1  0.71827000  0.67432000  0.10487000  1.0
  C  C123  1  0.38669000  0.10478000  0.43041000  1.0
  C  C124  1  0.95570000  0.56947000  0.67431000  1.0
  C  C125  1  0.28174000  0.32568000  0.89513000  1.0
  C  C126  1  0.56961000  0.85867000  0.61998000  1.0
  C  C127  1  0.95001000  0.38010000  0.23876000  1.0
  C  C128  1  0.71102000  0.76124000  0.14139000  1.0
  C  C129  1  0.43039000  0.14134000  0.38001000  1.0
  C  C130  1  0.04999000  0.61990000  0.76124000  1.0
  C  C131  1  0.28898000  0.23876000  0.85861000  1.0
  C  C132  1  0.54166000  0.91631000  0.69987000  1.0
  C  C133  1  0.84210000  0.30023000  0.21654000  1.0
  C  C134  1  0.62540000  0.78344000  0.08368000  1.0
  C  C135  1  0.45833000  0.08369000  0.30013000  1.0
  C  C136  1  0.15790000  0.69977000  0.78346000  1.0
  C  C137  1  0.37459000  0.21656000  0.91632000  1.0
  C  C138  1  0.53691000  0.88678000  0.75859000  1.0
  C  C139  1  0.77858000  0.24155000  0.12827000  1.0
  C  C140  1  0.64996000  0.87166000  0.11314000  1.0
  C  C141  1  0.46308000  0.11322000  0.24141000  1.0
  C  C142  1  0.22142000  0.75845000  0.87173000  1.0
  C  C143  1  0.35004000  0.12834000  0.88685000  1.0
  N  N144  1  0.84713000  0.05852000  0.54219000  1.0
  N  N145  1  0.30487000  0.45782000  0.51637000  1.0
  N  N146  1  0.78870000  0.48365000  0.94141000  1.0
  N  N147  1  0.15287000  0.94148000  0.45781000  1.0
  N  N148  1  0.69513000  0.54218000  0.48363000  1.0
  N  N149  1  0.21130000  0.51635000  0.05859000  1.0
  N  N150  1  0.88641000  0.35854000  0.49162000  1.0
  N  N151  1  0.39463000  0.50839000  0.86700000  1.0
  N  N152  1  0.52778000  0.13302000  0.64141000  1.0
  N  N153  1  0.11359000  0.64146000  0.50838000  1.0
  N  N154  1  0.60537000  0.49161000  0.13301000  1.0
  N  N155  1  0.47222000  0.86698000  0.35859000  1.0
  O  O156  1  0.01929000  0.32642000  0.67859000  1.0
  O  O157  1  0.34043000  0.32140000  0.64786000  1.0
  O  O158  1  0.69278000  0.35212000  0.67351000  1.0
  O  O159  1  0.98071000  0.67358000  0.32141000  1.0
  O  O160  1  0.65957000  0.67860000  0.35214000  1.0
  O  O161  1  0.30722000  0.64788000  0.32649000  1.0
  O  O162  1  0.50378000  0.92940000  0.55876000  1.0
  O  O163  1  0.94561000  0.44150000  0.37071000  1.0
  O  O164  1  0.57457000  0.62929000  0.07068000  1.0
  O  O165  1  0.49622000  0.07060000  0.44123000  1.0
  O  O166  1  0.05439000  0.55851000  0.62929000  1.0
  O  O167  1  0.42543000  0.37071000  0.92932000  1.0
  O  O168  1  0.74446000  0.88512000  0.54481000  1.0
  O  O169  1  0.20026000  0.45521000  0.34032000  1.0
  O  O170  1  0.85960000  0.65971000  0.11500000  1.0
  O  O171  1  0.25554000  0.11488000  0.45519000  1.0
  O  O172  1  0.79974000  0.54479000  0.65968000  1.0
  O  O173  1  0.14040000  0.34029000  0.88500000  1.0
  F  F174  1  0.42256000  0.80165000  0.57985000  1.0
  F  F175  1  0.84296000  0.42018000  0.22186000  1.0
  F  F176  1  0.62088000  0.77814000  0.19836000  1.0
  F  F177  1  0.57745000  0.19835000  0.42015000  1.0
  F  F178  1  0.15705000  0.57982000  0.77814000  1.0
  F  F179  1  0.37912000  0.22186000  0.80164000  1.0
  F  F180  1  0.69341000  0.82390000  0.63295000  1.0
  F  F181  1  0.06072000  0.36713000  0.19099000  1.0
  F  F182  1  0.86956000  0.80901000  0.17619000  1.0
  F  F183  1  0.30659000  0.17610000  0.36705000  1.0
  F  F184  1  0.93928000  0.63287000  0.80901000  1.0
  F  F185  1  0.13044000  0.19099000  0.82381000  1.0
  F  F186  1  0.67190000  0.98074000  0.73336000  1.0
  F  F187  1  0.93877000  0.26669000  0.24747000  1.0
  F  F188  1  0.69132000  0.75252000  0.01928000  1.0
  F  F189  1  0.32810000  0.01926000  0.26664000  1.0
  F  F190  1  0.06123000  0.73331000  0.75253000  1.0
  F  F191  1  0.30868000  0.24748000  0.98072000  1.0
  F  F192  1  0.39320000  0.93748000  0.69071000  1.0
  F  F193  1  0.70281000  0.30936000  0.24685000  1.0
  F  F194  1  0.45579000  0.75304000  0.06242000  1.0
  F  F195  1  0.60680000  0.06252000  0.30929000  1.0
  F  F196  1  0.29719000  0.69064000  0.75315000  1.0
  F  F197  1  0.54421000  0.24695000  0.93757000  1.0
  F  F198  1  0.69006000  0.87868000  0.78341000  1.0
  F  F199  1  0.90689000  0.21682000  0.09532000  1.0
  F  F200  1  0.81116000  0.90470000  0.12139000  1.0
  F  F201  1  0.30994000  0.12132000  0.21659000  1.0
  F  F202  1  0.09311000  0.78318000  0.90468000  1.0
  F  F203  1  0.18883000  0.09530000  0.87861000  1.0
  F  F204  1  0.42508000  0.81793000  0.72561000  1.0
  F  F205  1  0.69957000  0.27453000  0.09244000  1.0
  F  F206  1  0.60669000  0.90750000  0.18193000  1.0
  F  F207  1  0.57492000  0.18207000  0.27439000  1.0
  F  F208  1  0.30043000  0.72547000  0.90756000  1.0
  F  F209  1  0.39330000  0.09250000  0.81806000  1.0
  F  F210  1  0.48711000  0.93773000  0.82041000  1.0
  F  F211  1  0.66707000  0.17966000  0.11735000  1.0
  F  F212  1  0.54922000  0.88242000  0.06208000  1.0
  F  F213  1  0.51288000  0.06227000  0.17959000  1.0
  F  F214  1  0.33293000  0.82034000  0.88265000  1.0
  F  F215  1  0.45078000  0.11757000  0.93791000  1.0
