# generated using pymatgen
data_DyH23C30S4O9
_symmetry_space_group_name_H-M   'P 1'
_cell_length_a   9.04533000
_cell_length_b   11.42910000
_cell_length_c   15.62180000
_cell_angle_alpha   90.63100000
_cell_angle_beta   100.36300000
_cell_angle_gamma   109.04200000
_symmetry_Int_Tables_number   1
_chemical_formula_structural   DyH23C30S4O9
_chemical_formula_sum   'Dy2 H46 C60 S8 O18'
_cell_volume   1497.48183319
_cell_formula_units_Z   2
loop_
 _symmetry_equiv_pos_site_id
 _symmetry_equiv_pos_as_xyz
  1  'x, y, z'
loop_
 _atom_site_type_symbol
 _atom_site_label
 _atom_site_symmetry_multiplicity
 _atom_site_fract_x
 _atom_site_fract_y
 _atom_site_fract_z
 _atom_site_occupancy
  Dy  Dy0  1  0.20185000  0.47828000  0.50623000  1.0
  Dy  Dy1  1  0.79815000  0.52173000  0.49377000  1.0
  H  H2  1  0.50652000  0.64619000  0.47518000  1.0
  H  H3  1  0.49348000  0.35381000  0.52482000  1.0
  H  H4  1  0.12356000  0.99270000  0.99216000  1.0
  H  H5  1  0.87644000  0.00730000  0.00784000  1.0
  H  H6  1  0.51989000  0.78273000  0.61041000  1.0
  H  H7  1  0.48011000  0.21728000  0.38959000  1.0
  H  H8  1  0.36916000  0.81603000  0.53529000  1.0
  H  H9  1  0.63084000  0.18398000  0.46471000  1.0
  H  H10  1  0.55598000  0.88355000  0.42983000  1.0
  H  H11  1  0.44402000  0.11645000  0.57017000  1.0
  H  H12  1  0.70669000  0.84756000  0.50394000  1.0
  H  H13  1  0.29331000  0.15244000  0.49606000  1.0
  H  H14  1  0.64068000  0.96961000  0.53293000  1.0
  H  H15  1  0.35933000  0.03039000  0.46707000  1.0
  H  H16  1  0.21668000  0.27970000  0.28447000  1.0
  H  H17  1  0.78332000  0.72030000  0.71552000  1.0
  H  H18  1  0.16814000  0.19173000  0.13012000  1.0
  H  H19  1  0.83186000  0.80827000  0.86987000  1.0
  H  H20  1  0.34292000  0.30658000  0.03004000  1.0
  H  H21  1  0.65708000  0.69343000  0.96996000  1.0
  H  H22  1  0.55916000  0.50481000  0.08252000  1.0
  H  H23  1  0.44085000  0.49520000  0.91748000  1.0
  H  H24  1  0.82621000  0.50987000  0.20800000  1.0
  H  H25  1  0.17378000  0.49013000  0.79200000  1.0
  H  H26  1  0.03025000  0.42285000  0.17935000  1.0
  H  H27  1  0.96973000  0.57714000  0.82065000  1.0
  H  H28  1  0.22816000  0.53248000  0.08935000  1.0
  H  H29  1  0.77183000  0.46751000  0.91066000  1.0
  H  H30  1  0.21855000  0.73240000  0.02963000  1.0
  H  H31  1  0.78146000  0.26759000  0.97038000  1.0
  H  H32  1  0.73279000  0.32340000  0.66193000  1.0
  H  H33  1  0.26721000  0.67660000  0.33807000  1.0
  H  H34  1  0.57753000  0.17563000  0.75591000  1.0
  H  H35  1  0.42247000  0.82436000  0.24408000  1.0
  H  H36  1  0.64151000  0.98204000  0.78976000  1.0
  H  H37  1  0.35849000  0.01796000  0.21023000  1.0
  H  H38  1  0.85349000  0.93730000  0.72936000  1.0
  H  H39  1  0.14651000  0.06270000  0.27064000  1.0
  H  H40  1  0.17598000  0.04275000  0.78080000  1.0
  H  H41  1  0.82402000  0.95725000  0.21919000  1.0
  H  H42  1  0.37476000  0.02565000  0.90584000  1.0
  H  H43  1  0.62524000  0.97436000  0.09416000  1.0
  H  H44  1  0.47477000  0.84485000  0.90915000  1.0
  H  H45  1  0.52523000  0.15516000  0.09085000  1.0
  H  H46  1  0.36742000  0.68209000  0.78507000  1.0
  H  H47  1  0.63257000  0.31791000  0.21493000  1.0
  C  C48  1  0.47521000  0.78768000  0.54063000  1.0
  C  C49  1  0.52479000  0.21232000  0.45937000  1.0
  C  C50  1  0.60147000  0.87689000  0.49898000  1.0
  C  C51  1  0.39853000  0.12311000  0.50102000  1.0
  C  C52  1  0.44242000  0.47852000  0.36398000  1.0
  C  C53  1  0.55758000  0.52149000  0.63602000  1.0
  C  C54  1  0.41701000  0.43645000  0.27063000  1.0
  C  C55  1  0.58298000  0.56355000  0.72937000  1.0
  C  C56  1  0.29138000  0.32634000  0.23903000  1.0
  C  C57  1  0.70862000  0.67366000  0.76097000  1.0
  C  C58  1  0.26417000  0.27856000  0.15331000  1.0
  C  C59  1  0.73583000  0.72145000  0.84669000  1.0
  C  C60  1  0.36204000  0.34317000  0.09738000  1.0
  C  C61  1  0.63796000  0.65683000  0.90262000  1.0
  C  C62  1  0.48467000  0.45439000  0.12688000  1.0
  C  C63  1  0.51533000  0.54561000  0.87312000  1.0
  C  C64  1  0.51462000  0.50272000  0.21365000  1.0
  C  C65  1  0.48538000  0.49728000  0.78635000  1.0
  C  C66  1  0.89898000  0.66676000  0.13125000  1.0
  C  C67  1  0.10101000  0.33324000  0.86875000  1.0
  C  C68  1  0.90953000  0.55711000  0.16695000  1.0
  C  C69  1  0.09046000  0.44288000  0.83305000  1.0
  C  C70  1  0.02659000  0.50942000  0.15180000  1.0
  C  C71  1  0.97340000  0.49058000  0.84821000  1.0
  C  C72  1  0.13794000  0.57101000  0.10162000  1.0
  C  C73  1  0.86205000  0.42898000  0.89839000  1.0
  C  C74  1  0.13200000  0.68158000  0.06791000  1.0
  C  C75  1  0.86800000  0.31842000  0.93209000  1.0
  C  C76  1  0.01346000  0.73060000  0.08157000  1.0
  C  C77  1  0.98654000  0.26938000  0.91844000  1.0
  C  C78  1  0.01113000  0.84827000  0.04576000  1.0
  C  C79  1  0.98889000  0.15171000  0.95425000  1.0
  C  C80  1  0.96913000  0.30495000  0.58862000  1.0
  C  C81  1  0.03087000  0.69505000  0.41138000  1.0
  C  C82  1  0.87869000  0.21440000  0.64272000  1.0
  C  C83  1  0.12131000  0.78560000  0.35728000  1.0
  C  C84  1  0.75757000  0.23826000  0.67745000  1.0
  C  C85  1  0.24243000  0.76174000  0.32255000  1.0
  C  C86  1  0.67145000  0.15584000  0.72979000  1.0
  C  C87  1  0.32855000  0.84416000  0.27021000  1.0
  C  C88  1  0.70756000  0.04761000  0.74859000  1.0
  C  C89  1  0.29244000  0.95239000  0.25140000  1.0
  C  C90  1  0.82771000  0.02256000  0.71528000  1.0
  C  C91  1  0.17230000  0.97745000  0.28471000  1.0
  C  C92  1  0.91485000  0.10429000  0.66172000  1.0
  C  C93  1  0.08516000  0.89571000  0.33828000  1.0
  C  C94  1  0.15138000  0.86911000  0.71402000  1.0
  C  C95  1  0.84862000  0.13089000  0.28598000  1.0
  C  C96  1  0.21485000  0.96190000  0.78269000  1.0
  C  C97  1  0.78515000  0.03810000  0.21731000  1.0
  C  C98  1  0.32885000  0.95270000  0.85276000  1.0
  C  C99  1  0.67115000  0.04731000  0.14724000  1.0
  C  C100  1  0.38445000  0.85183000  0.85484000  1.0
  C  C101  1  0.61554000  0.14817000  0.14516000  1.0
  C  C102  1  0.32388000  0.76023000  0.78615000  1.0
  C  C103  1  0.67612000  0.23977000  0.21385000  1.0
  C  C104  1  0.20537000  0.76571000  0.71652000  1.0
  C  C105  1  0.79463000  0.23429000  0.28348000  1.0
  C  C106  1  0.13762000  0.66343000  0.64586000  1.0
  C  C107  1  0.86237000  0.33657000  0.35414000  1.0
  S  S108  1  0.66934000  0.64351000  0.25485000  1.0
  S  S109  1  0.33066000  0.35649000  0.74516000  1.0
  S  S110  1  0.74543000  0.72554000  0.14714000  1.0
  S  S111  1  0.25457000  0.27446000  0.85286000  1.0
  S  S112  1  0.06346000  0.07092000  0.61537000  1.0
  S  S113  1  0.93655000  0.92908000  0.38463000  1.0
  S  S114  1  0.01306000  0.88218000  0.62122000  1.0
  S  S115  1  0.98694000  0.11782000  0.37877000  1.0
  O  O116  1  0.41980000  0.66406000  0.49740000  1.0
  O  O117  1  0.58020000  0.33594000  0.50260000  1.0
  O  O118  1  0.32841000  0.43404000  0.40408000  1.0
  O  O119  1  0.67158000  0.56596000  0.59592000  1.0
  O  O120  1  0.57717000  0.55810000  0.40027000  1.0
  O  O121  1  0.42283000  0.44190000  0.59973000  1.0
  O  O122  1  0.89296000  0.88374000  0.04337000  1.0
  O  O123  1  0.10702000  0.11626000  0.95662000  1.0
  O  O124  1  0.13993000  0.91387000  0.01675000  1.0
  O  O125  1  0.86006000  0.08612000  0.98326000  1.0
  O  O126  1  0.09613000  0.29392000  0.57087000  1.0
  O  O127  1  0.90387000  0.70608000  0.42912000  1.0
  O  O128  1  0.92478000  0.39649000  0.56097000  1.0
  O  O129  1  0.07524000  0.60351000  0.43903000  1.0
  O  O130  1  0.22171000  0.59788000  0.63038000  1.0
  O  O131  1  0.77829000  0.40212000  0.36962000  1.0
  O  O132  1  0.99750000  0.64915000  0.60436000  1.0
  O  O133  1  0.00250000  0.35085000  0.39564000  1.0
