# generated using pymatgen
data_Zn5H14(C10O11)2
_symmetry_space_group_name_H-M   'P 1'
_cell_length_a   7.36297000
_cell_length_b   14.24270000
_cell_length_c   16.86230000
_cell_angle_alpha   89.99990000
_cell_angle_beta   90.00000000
_cell_angle_gamma   95.06810000
_symmetry_Int_Tables_number   1
_chemical_formula_structural   Zn5H14(C10O11)2
_chemical_formula_sum   'Zn10 H28 C40 O44'
_cell_volume   1761.41189747
_cell_formula_units_Z   2
loop_
 _symmetry_equiv_pos_site_id
 _symmetry_equiv_pos_as_xyz
  1  'x, y, z'
loop_
 _atom_site_type_symbol
 _atom_site_label
 _atom_site_symmetry_multiplicity
 _atom_site_fract_x
 _atom_site_fract_y
 _atom_site_fract_z
 _atom_site_occupancy
  Zn  Zn0  1  0.28464000  0.81335000  0.98291000  1.0
  Zn  Zn1  1  0.21536000  0.68665000  0.48291000  1.0
  Zn  Zn2  1  0.71536000  0.18665000  0.01709000  1.0
  Zn  Zn3  1  0.78464000  0.31336000  0.51709000  1.0
  Zn  Zn4  1  0.00000000  0.00000000  0.00000000  1.0
  Zn  Zn5  1  0.50000000  0.50000000  0.50000000  1.0
  Zn  Zn6  1  0.31953000  0.02368000  0.87784000  1.0
  Zn  Zn7  1  0.18047000  0.47632000  0.37784000  1.0
  Zn  Zn8  1  0.68047000  0.97632000  0.12216000  1.0
  Zn  Zn9  1  0.81953000  0.52368000  0.62216000  1.0
  H  H10  1  0.09092000  0.83735000  0.70171000  1.0
  H  H11  1  0.40908000  0.66265000  0.20171000  1.0
  H  H12  1  0.90908000  0.16265000  0.29829000  1.0
  H  H13  1  0.59092000  0.33735000  0.79829000  1.0
  H  H14  1  0.42416000  0.76692000  0.72700000  1.0
  H  H15  1  0.07584000  0.73308000  0.22700000  1.0
  H  H16  1  0.57584000  0.23308000  0.27300000  1.0
  H  H17  1  0.92416000  0.26693000  0.77300000  1.0
  H  H18  1  0.32999000  0.97988000  0.03023000  1.0
  H  H19  1  0.17001000  0.52012000  0.53023000  1.0
  H  H20  1  0.67001000  0.02012000  0.96977000  1.0
  H  H21  1  0.82999000  0.47988000  0.46977000  1.0
  H  H22  1  0.25829000  0.13502000  0.74324000  1.0
  H  H23  1  0.24171000  0.36498000  0.24324000  1.0
  H  H24  1  0.74171000  0.86498000  0.25676000  1.0
  H  H25  1  0.75829000  0.63502000  0.75676000  1.0
  H  H26  1  0.25780000  0.02812000  0.72729000  1.0
  H  H27  1  0.24220000  0.47187000  0.22729000  1.0
  H  H28  1  0.74220000  0.97187000  0.27271000  1.0
  H  H29  1  0.75780000  0.52812000  0.77272000  1.0
  H  H30  1  0.97973000  0.72694000  0.91299000  1.0
  H  H31  1  0.52027000  0.77306000  0.41299000  1.0
  H  H32  1  0.02027000  0.27306000  0.08701000  1.0
  H  H33  1  0.47974000  0.22693000  0.58701000  1.0
  H  H34  1  0.14461000  0.70522000  0.85913000  1.0
  H  H35  1  0.35538000  0.79478000  0.35913000  1.0
  H  H36  1  0.85539000  0.29478000  0.14087000  1.0
  H  H37  1  0.64462000  0.20522000  0.64088000  1.0
  C  C38  1  0.97152000  0.90498000  0.83674000  1.0
  C  C39  1  0.52849000  0.59501000  0.33674000  1.0
  C  C40  1  0.02849000  0.09502000  0.16326000  1.0
  C  C41  1  0.47151000  0.40498000  0.66326000  1.0
  C  C42  1  0.85623000  0.85389000  0.77411000  1.0
  C  C43  1  0.64377000  0.64611000  0.27411000  1.0
  C  C44  1  0.14377000  0.14611000  0.22589000  1.0
  C  C45  1  0.35623000  0.35389000  0.72589000  1.0
  C  C46  1  0.94429000  0.82067000  0.70761000  1.0
  C  C47  1  0.55571000  0.67933000  0.20761000  1.0
  C  C48  1  0.05571000  0.17933000  0.29239000  1.0
  C  C49  1  0.44429000  0.32067000  0.79239000  1.0
  C  C50  1  0.66623000  0.83382000  0.78186000  1.0
  C  C51  1  0.83377000  0.66618000  0.28186000  1.0
  C  C52  1  0.33377000  0.16619000  0.21813000  1.0
  C  C53  1  0.16623000  0.33382000  0.71814000  1.0
  C  C54  1  0.85137000  0.76429000  0.65031000  1.0
  C  C55  1  0.64863000  0.73571000  0.15031000  1.0
  C  C56  1  0.14863000  0.23571000  0.34969000  1.0
  C  C57  1  0.35137000  0.26429000  0.84969000  1.0
  C  C58  1  0.66147000  0.74458000  0.65783000  1.0
  C  C59  1  0.83853000  0.75542000  0.15784000  1.0
  C  C60  1  0.33853000  0.25542000  0.34217000  1.0
  C  C61  1  0.16147000  0.24458000  0.84217000  1.0
  C  C62  1  0.57184000  0.78096000  0.72261000  1.0
  C  C63  1  0.92816000  0.71904000  0.22261000  1.0
  C  C64  1  0.42817000  0.21905000  0.27739000  1.0
  C  C65  1  0.07184000  0.28096000  0.77739000  1.0
  C  C66  1  0.55043000  0.86967000  0.84722000  1.0
  C  C67  1  0.94957000  0.63033000  0.34722000  1.0
  C  C68  1  0.44957000  0.13034000  0.15278000  1.0
  C  C69  1  0.05043000  0.36967000  0.65278000  1.0
  C  C70  1  0.54708000  0.68631000  0.59895000  1.0
  C  C71  1  0.95292000  0.81368000  0.09895000  1.0
  C  C72  1  0.45292000  0.31369000  0.40105000  1.0
  C  C73  1  0.04708000  0.18631000  0.90105000  1.0
  C  C74  1  0.96526000  0.72609000  0.58627000  1.0
  C  C75  1  0.53474000  0.77391000  0.08627000  1.0
  C  C76  1  0.03474000  0.27391000  0.41373000  1.0
  C  C77  1  0.46526000  0.22609000  0.91373000  1.0
  O  O78  1  0.12978000  0.93966000  0.81430000  1.0
  O  O79  1  0.37022000  0.56034000  0.31430000  1.0
  O  O80  1  0.87022000  0.06035000  0.18570000  1.0
  O  O81  1  0.62978000  0.43965000  0.68570000  1.0
  O  O82  1  0.90755000  0.90599000  0.90643000  1.0
  O  O83  1  0.59245000  0.59401000  0.40643000  1.0
  O  O84  1  0.09245000  0.09401000  0.09357000  1.0
  O  O85  1  0.40755000  0.40599000  0.59357000  1.0
  O  O86  1  0.55029000  0.95867000  0.85415000  1.0
  O  O87  1  0.94971000  0.54133000  0.35415000  1.0
  O  O88  1  0.44972000  0.04133000  0.14585000  1.0
  O  O89  1  0.05028000  0.45867000  0.64586000  1.0
  O  O90  1  0.45210000  0.80681000  0.88470000  1.0
  O  O91  1  0.04790000  0.69319000  0.38470000  1.0
  O  O92  1  0.54790000  0.19319000  0.11530000  1.0
  O  O93  1  0.95211000  0.30681000  0.61530000  1.0
  O  O94  1  0.58945000  0.60239000  0.58631000  1.0
  O  O95  1  0.91055000  0.89760000  0.08631000  1.0
  O  O96  1  0.41054000  0.39760000  0.41369000  1.0
  O  O97  1  0.08946000  0.10239000  0.91369000  1.0
  O  O98  1  0.41608000  0.72431000  0.56842000  1.0
  O  O99  1  0.08392000  0.77569000  0.06842000  1.0
  O  O100  1  0.58391000  0.27569000  0.43158000  1.0
  O  O101  1  0.91608000  0.22431000  0.93158000  1.0
  O  O102  1  0.97368000  0.63683000  0.57967000  1.0
  O  O103  1  0.52632000  0.86318000  0.07967000  1.0
  O  O104  1  0.02631000  0.36317000  0.42033000  1.0
  O  O105  1  0.47368000  0.13682000  0.92033000  1.0
  O  O106  1  0.06273000  0.78294000  0.54333000  1.0
  O  O107  1  0.43727000  0.71707000  0.04333000  1.0
  O  O108  1  0.93727000  0.21707000  0.45667000  1.0
  O  O109  1  0.56273000  0.28293000  0.95667000  1.0
  O  O110  1  0.25658000  0.95458000  0.98536000  1.0
  O  O111  1  0.24341000  0.54542000  0.48536000  1.0
  O  O112  1  0.74341000  0.04542000  0.01464000  1.0
  O  O113  1  0.75659000  0.45458000  0.51464000  1.0
  O  O114  1  0.10833000  0.71585000  0.91367000  1.0
  O  O115  1  0.39167000  0.78416000  0.41367000  1.0
  O  O116  1  0.89167000  0.28416000  0.08633000  1.0
  O  O117  1  0.60834000  0.21585000  0.58634000  1.0
  O  O118  1  0.33677000  0.08323000  0.74465000  1.0
  O  O119  1  0.16323000  0.41677000  0.24465000  1.0
  O  O120  1  0.66323000  0.91677000  0.25535000  1.0
  O  O121  1  0.83677000  0.58323000  0.75535000  1.0
