# generated using pymatgen
data_ZnH4(C3O2)3
_symmetry_space_group_name_H-M   'P 1'
_cell_length_a   13.72960000
_cell_length_b   19.66460000
_cell_length_c   19.66460000
_cell_angle_alpha   89.99790000
_cell_angle_beta   89.99990000
_cell_angle_gamma   90.00000000
_symmetry_Int_Tables_number   1
_chemical_formula_structural   ZnH4(C3O2)3
_chemical_formula_sum   'Zn16 H64 C144 O96'
_cell_volume   5309.18816892
_cell_formula_units_Z   16
loop_
 _symmetry_equiv_pos_site_id
 _symmetry_equiv_pos_as_xyz
  1  'x, y, z'
loop_
 _atom_site_type_symbol
 _atom_site_label
 _atom_site_symmetry_multiplicity
 _atom_site_fract_x
 _atom_site_fract_y
 _atom_site_fract_z
 _atom_site_occupancy
  Zn  Zn0  1  0.37993000  0.98958000  0.46723000  1.0
  Zn  Zn1  1  0.87993000  0.01042000  0.53277000  1.0
  Zn  Zn2  1  0.12992000  0.03276000  0.48958000  1.0
  Zn  Zn3  1  0.62992000  0.96725000  0.51042000  1.0
  Zn  Zn4  1  0.37008000  0.51042000  0.96724000  1.0
  Zn  Zn5  1  0.87008000  0.48958000  0.03276000  1.0
  Zn  Zn6  1  0.62007000  0.46723000  0.98958000  1.0
  Zn  Zn7  1  0.12007000  0.53277000  0.01042000  1.0
  Zn  Zn8  1  0.00000000  0.48788000  0.48788000  1.0
  Zn  Zn9  1  0.50000000  0.51213000  0.51212000  1.0
  Zn  Zn10  1  0.74999000  0.01212000  0.98788000  1.0
  Zn  Zn11  1  0.25000000  0.98788000  0.01212000  1.0
  Zn  Zn12  1  0.25000000  0.53252000  0.46748000  1.0
  Zn  Zn13  1  0.75000000  0.46748000  0.53252000  1.0
  Zn  Zn14  1  0.00000000  0.03253000  0.03253000  1.0
  Zn  Zn15  1  0.50000000  0.96747000  0.96747000  1.0
  H  H16  1  0.58831000  0.91570000  0.15127000  1.0
  H  H17  1  0.65432000  0.90650000  0.26890000  1.0
  H  H18  1  0.40204000  0.67446000  0.40693000  1.0
  H  H19  1  0.40087000  0.66976000  0.49915000  1.0
  H  H20  1  0.28435000  0.06675000  0.31377000  1.0
  H  H21  1  0.96149000  0.73586000  0.48670000  1.0
  H  H22  1  0.03367000  0.85162000  0.49300000  1.0
  H  H23  1  0.53981000  0.50830000  0.82933000  1.0
  H  H24  1  0.08831000  0.08430000  0.84872000  1.0
  H  H25  1  0.15432000  0.09350000  0.73109000  1.0
  H  H26  1  0.90204000  0.32554000  0.59307000  1.0
  H  H27  1  0.90087000  0.33024000  0.50085000  1.0
  H  H28  1  0.78435000  0.93326000  0.68622000  1.0
  H  H29  1  0.46149000  0.26414000  0.51330000  1.0
  H  H30  1  0.53367000  0.14838000  0.50700000  1.0
  H  H31  1  0.03981000  0.49170000  0.17067000  1.0
  H  H32  1  0.33832000  0.34872000  0.41572000  1.0
  H  H33  1  0.40432000  0.23109000  0.40651000  1.0
  H  H34  1  0.15202000  0.09310000  0.17447000  1.0
  H  H35  1  0.15087000  0.00089000  0.16976000  1.0
  H  H36  1  0.03430000  0.18622000  0.56671000  1.0
  H  H37  1  0.71149000  0.01326000  0.23587000  1.0
  H  H38  1  0.78366000  0.00699000  0.35163000  1.0
  H  H39  1  0.28980000  0.67069000  0.00825000  1.0
  H  H40  1  0.83832000  0.65128000  0.58428000  1.0
  H  H41  1  0.90432000  0.76891000  0.59349000  1.0
  H  H42  1  0.65202000  0.90690000  0.82552000  1.0
  H  H43  1  0.65087000  0.99911000  0.83024000  1.0
  H  H44  1  0.53430000  0.81378000  0.43329000  1.0
  H  H45  1  0.21149000  0.98674000  0.76413000  1.0
  H  H46  1  0.28367000  0.99302000  0.64837000  1.0
  H  H47  1  0.78979000  0.32931000  0.99175000  1.0
  H  H48  1  0.16168000  0.58428000  0.65128000  1.0
  H  H49  1  0.09568000  0.59349000  0.76891000  1.0
  H  H50  1  0.34798000  0.82552000  0.90690000  1.0
  H  H51  1  0.34913000  0.83024000  0.99911000  1.0
  H  H52  1  0.46570000  0.43329000  0.81378000  1.0
  H  H53  1  0.78851000  0.76413000  0.98674000  1.0
  H  H54  1  0.71633000  0.64837000  0.99301000  1.0
  H  H55  1  0.21021000  0.99175000  0.32931000  1.0
  H  H56  1  0.66168000  0.41572000  0.34872000  1.0
  H  H57  1  0.59568000  0.40651000  0.23109000  1.0
  H  H58  1  0.84798000  0.17447000  0.09310000  1.0
  H  H59  1  0.84913000  0.16976000  0.00089000  1.0
  H  H60  1  0.96570000  0.56671000  0.18622000  1.0
  H  H61  1  0.28851000  0.23587000  0.01326000  1.0
  H  H62  1  0.21633000  0.35163000  0.00699000  1.0
  H  H63  1  0.71021000  0.00826000  0.67069000  1.0
  H  H64  1  0.41169000  0.15128000  0.91570000  1.0
  H  H65  1  0.34568000  0.26891000  0.90650000  1.0
  H  H66  1  0.59796000  0.40693000  0.67446000  1.0
  H  H67  1  0.59913000  0.49915000  0.66976000  1.0
  H  H68  1  0.71565000  0.31378000  0.06675000  1.0
  H  H69  1  0.03851000  0.48670000  0.73586000  1.0
  H  H70  1  0.96633000  0.49300000  0.85162000  1.0
  H  H71  1  0.46019000  0.82933000  0.50830000  1.0
  H  H72  1  0.91169000  0.84872000  0.08430000  1.0
  H  H73  1  0.84568000  0.73109000  0.09350000  1.0
  H  H74  1  0.09796000  0.59307000  0.32554000  1.0
  H  H75  1  0.09913000  0.50085000  0.33024000  1.0
  H  H76  1  0.21565000  0.68622000  0.93325000  1.0
  H  H77  1  0.53851000  0.51330000  0.26414000  1.0
  H  H78  1  0.46633000  0.50700000  0.14838000  1.0
  H  H79  1  0.96019000  0.17067000  0.49170000  1.0
  C  C80  1  0.56933000  0.94548000  0.38588000  1.0
  C  C81  1  0.22068000  0.88958000  0.48352000  1.0
  C  C82  1  0.41291000  0.95974000  0.10979000  1.0
  C  C83  1  0.39108000  0.96801000  0.23823000  1.0
  C  C84  1  0.44690000  0.95131000  0.18155000  1.0
  C  C85  1  0.42931000  0.96351000  0.30412000  1.0
  C  C86  1  0.54274000  0.92778000  0.19490000  1.0
  C  C87  1  0.52399000  0.94284000  0.31764000  1.0
  C  C88  1  0.57980000  0.92331000  0.26016000  1.0
  C  C89  1  0.18160000  0.81879000  0.47764000  1.0
  C  C90  1  0.19681000  0.69621000  0.46345000  1.0
  C  C91  1  0.36053000  0.68510000  0.45342000  1.0
  C  C92  1  0.09789000  0.68426000  0.47240000  1.0
  C  C93  1  0.05287000  0.61581000  0.47729000  1.0
  C  C94  1  0.23832000  0.76122000  0.46617000  1.0
  C  C95  1  0.28004000  0.01081000  0.31067000  1.0
  C  C96  1  0.03965000  0.74314000  0.48115000  1.0
  C  C97  1  0.07988000  0.80754000  0.48394000  1.0
  C  C98  1  0.06933000  0.05452000  0.61411000  1.0
  C  C99  1  0.72068000  0.11043000  0.51648000  1.0
  C  C100  1  0.91291000  0.04025000  0.89021000  1.0
  C  C101  1  0.89107000  0.03199000  0.76176000  1.0
  C  C102  1  0.94690000  0.04869000  0.81845000  1.0
  C  C103  1  0.92931000  0.03649000  0.69588000  1.0
  C  C104  1  0.04274000  0.07222000  0.80510000  1.0
  C  C105  1  0.02399000  0.05716000  0.68236000  1.0
  C  C106  1  0.07980000  0.07669000  0.73984000  1.0
  C  C107  1  0.68159000  0.18121000  0.52236000  1.0
  C  C108  1  0.69681000  0.30379000  0.53655000  1.0
  C  C109  1  0.86053000  0.31490000  0.54658000  1.0
  C  C110  1  0.59789000  0.31574000  0.52760000  1.0
  C  C111  1  0.55287000  0.38419000  0.52271000  1.0
  C  C112  1  0.73832000  0.23878000  0.53383000  1.0
  C  C113  1  0.78003000  0.98919000  0.68933000  1.0
  C  C114  1  0.53965000  0.25686000  0.51885000  1.0
  C  C115  1  0.57988000  0.19246000  0.51606000  1.0
  C  C116  1  0.31933000  0.11411000  0.44548000  1.0
  C  C117  1  0.97067000  0.01647000  0.38959000  1.0
  C  C118  1  0.16291000  0.39020000  0.45974000  1.0
  C  C119  1  0.14106000  0.26176000  0.46798000  1.0
  C  C120  1  0.19689000  0.31844000  0.45130000  1.0
  C  C121  1  0.17930000  0.19588000  0.46350000  1.0
  C  C122  1  0.29274000  0.30509000  0.42779000  1.0
  C  C123  1  0.27399000  0.18235000  0.44284000  1.0
  C  C124  1  0.32980000  0.23984000  0.42332000  1.0
  C  C125  1  0.93159000  0.02235000  0.31880000  1.0
  C  C126  1  0.94680000  0.03655000  0.19622000  1.0
  C  C127  1  0.11052000  0.04660000  0.18511000  1.0
  C  C128  1  0.84789000  0.02759000  0.18426000  1.0
  C  C129  1  0.80288000  0.02269000  0.11582000  1.0
  C  C130  1  0.98831000  0.03382000  0.26123000  1.0
  C  C131  1  0.03000000  0.18931000  0.51077000  1.0
  C  C132  1  0.78965000  0.01883000  0.24315000  1.0
  C  C133  1  0.82987000  0.01604000  0.30755000  1.0
  C  C134  1  0.81932000  0.88589000  0.55452000  1.0
  C  C135  1  0.47067000  0.98353000  0.61041000  1.0
  C  C136  1  0.66291000  0.60980000  0.54026000  1.0
  C  C137  1  0.64106000  0.73824000  0.53201000  1.0
  C  C138  1  0.69689000  0.68156000  0.54870000  1.0
  C  C139  1  0.67930000  0.80413000  0.53651000  1.0
  C  C140  1  0.79274000  0.69491000  0.57221000  1.0
  C  C141  1  0.77399000  0.81765000  0.55717000  1.0
  C  C142  1  0.82979000  0.76017000  0.57668000  1.0
  C  C143  1  0.43159000  0.97765000  0.68120000  1.0
  C  C144  1  0.44681000  0.96345000  0.80378000  1.0
  C  C145  1  0.61052000  0.95340000  0.81489000  1.0
  C  C146  1  0.34789000  0.97241000  0.81574000  1.0
  C  C147  1  0.30288000  0.97730000  0.88418000  1.0
  C  C148  1  0.48831000  0.96618000  0.73877000  1.0
  C  C149  1  0.53000000  0.81069000  0.48923000  1.0
  C  C150  1  0.28965000  0.98117000  0.75685000  1.0
  C  C151  1  0.32987000  0.98396000  0.69245000  1.0
  C  C152  1  0.18067000  0.55452000  0.88589000  1.0
  C  C153  1  0.52933000  0.61041000  0.98353000  1.0
  C  C154  1  0.33709000  0.54026000  0.60980000  1.0
  C  C155  1  0.35895000  0.53202000  0.73824000  1.0
  C  C156  1  0.30311000  0.54870000  0.68156000  1.0
  C  C157  1  0.32070000  0.53650000  0.80412000  1.0
  C  C158  1  0.20726000  0.57221000  0.69491000  1.0
  C  C159  1  0.22601000  0.55716000  0.81765000  1.0
  C  C160  1  0.17020000  0.57668000  0.76016000  1.0
  C  C161  1  0.56841000  0.68120000  0.97765000  1.0
  C  C162  1  0.55320000  0.80378000  0.96345000  1.0
  C  C163  1  0.38948000  0.81489000  0.95340000  1.0
  C  C164  1  0.65211000  0.81574000  0.97241000  1.0
  C  C165  1  0.69712000  0.88418000  0.97731000  1.0
  C  C166  1  0.51169000  0.73877000  0.96618000  1.0
  C  C167  1  0.46999000  0.48923000  0.81069000  1.0
  C  C168  1  0.71035000  0.75685000  0.98117000  1.0
  C  C169  1  0.67013000  0.69245000  0.98396000  1.0
  C  C170  1  0.68067000  0.44548000  0.11411000  1.0
  C  C171  1  0.02933000  0.38958000  0.01648000  1.0
  C  C172  1  0.83709000  0.45974000  0.39020000  1.0
  C  C173  1  0.85894000  0.46798000  0.26176000  1.0
  C  C174  1  0.80311000  0.45130000  0.31844000  1.0
  C  C175  1  0.82070000  0.46350000  0.19588000  1.0
  C  C176  1  0.70726000  0.42779000  0.30509000  1.0
  C  C177  1  0.72601000  0.44284000  0.18235000  1.0
  C  C178  1  0.67020000  0.42332000  0.23984000  1.0
  C  C179  1  0.06841000  0.31880000  0.02235000  1.0
  C  C180  1  0.05320000  0.19622000  0.03655000  1.0
  C  C181  1  0.88948000  0.18511000  0.04660000  1.0
  C  C182  1  0.15211000  0.18426000  0.02759000  1.0
  C  C183  1  0.19712000  0.11582000  0.02269000  1.0
  C  C184  1  0.01170000  0.26123000  0.03382000  1.0
  C  C185  1  0.96999000  0.51077000  0.18931000  1.0
  C  C186  1  0.21035000  0.24315000  0.01883000  1.0
  C  C187  1  0.17013000  0.30755000  0.01604000  1.0
  C  C188  1  0.43067000  0.38588000  0.94548000  1.0
  C  C189  1  0.77932000  0.48352000  0.88958000  1.0
  C  C190  1  0.58709000  0.10979000  0.95975000  1.0
  C  C191  1  0.60892000  0.23823000  0.96802000  1.0
  C  C192  1  0.55310000  0.18155000  0.95132000  1.0
  C  C193  1  0.57069000  0.30412000  0.96351000  1.0
  C  C194  1  0.45726000  0.19490000  0.92778000  1.0
  C  C195  1  0.47601000  0.31764000  0.94284000  1.0
  C  C196  1  0.42020000  0.26016000  0.92331000  1.0
  C  C197  1  0.81841000  0.47764000  0.81879000  1.0
  C  C198  1  0.80320000  0.46345000  0.69621000  1.0
  C  C199  1  0.63947000  0.45342000  0.68510000  1.0
  C  C200  1  0.90211000  0.47240000  0.68426000  1.0
  C  C201  1  0.94713000  0.47729000  0.61581000  1.0
  C  C202  1  0.76168000  0.46617000  0.76122000  1.0
  C  C203  1  0.71997000  0.31067000  0.01081000  1.0
  C  C204  1  0.96035000  0.48115000  0.74314000  1.0
  C  C205  1  0.92012000  0.48394000  0.80754000  1.0
  C  C206  1  0.93067000  0.61411000  0.05453000  1.0
  C  C207  1  0.27932000  0.51649000  0.11043000  1.0
  C  C208  1  0.08709000  0.89021000  0.04025000  1.0
  C  C209  1  0.10893000  0.76176000  0.03199000  1.0
  C  C210  1  0.05310000  0.81845000  0.04869000  1.0
  C  C211  1  0.07069000  0.69588000  0.03649000  1.0
  C  C212  1  0.95726000  0.80510000  0.07222000  1.0
  C  C213  1  0.97601000  0.68236000  0.05716000  1.0
  C  C214  1  0.92021000  0.73984000  0.07669000  1.0
  C  C215  1  0.31840000  0.52236000  0.18121000  1.0
  C  C216  1  0.30319000  0.53655000  0.30379000  1.0
  C  C217  1  0.13947000  0.54658000  0.31490000  1.0
  C  C218  1  0.40211000  0.52760000  0.31574000  1.0
  C  C219  1  0.44713000  0.52271000  0.38419000  1.0
  C  C220  1  0.26169000  0.53383000  0.23878000  1.0
  C  C221  1  0.21997000  0.68933000  0.98919000  1.0
  C  C222  1  0.46035000  0.51885000  0.25686000  1.0
  C  C223  1  0.42012000  0.51606000  0.19246000  1.0
  O  O224  1  0.51583000  0.96003000  0.43957000  1.0
  O  O225  1  0.35860000  0.98172000  0.35000000  1.0
  O  O226  1  0.31066000  0.89917000  0.46963000  1.0
  O  O227  1  0.15993000  0.93452000  0.50218000  1.0
  O  O228  1  0.10628000  0.56124000  0.46535000  1.0
  O  O229  1  0.47667000  0.94715000  0.06443000  1.0
  O  O230  1  0.29605000  0.98962000  0.24152000  1.0
  O  O231  1  0.33708000  0.75648000  0.45610000  1.0
  O  O232  1  0.96547000  0.60843000  0.49291000  1.0
  O  O233  1  0.26850000  0.64928000  0.45053000  1.0
  O  O234  1  0.32521000  0.97835000  0.09995000  1.0
  O  O235  1  0.65840000  0.93520000  0.39409000  1.0
  O  O236  1  0.01583000  0.03997000  0.56043000  1.0
  O  O237  1  0.85859000  0.01828000  0.65000000  1.0
  O  O238  1  0.81066000  0.10083000  0.53037000  1.0
  O  O239  1  0.65993000  0.06548000  0.49783000  1.0
  O  O240  1  0.60628000  0.43876000  0.53465000  1.0
  O  O241  1  0.97668000  0.05284000  0.93557000  1.0
  O  O242  1  0.79605000  0.01039000  0.75847000  1.0
  O  O243  1  0.83708000  0.24352000  0.54389000  1.0
  O  O244  1  0.46547000  0.39157000  0.50709000  1.0
  O  O245  1  0.76850000  0.35072000  0.54947000  1.0
  O  O246  1  0.82521000  0.02164000  0.90005000  1.0
  O  O247  1  0.15840000  0.06480000  0.60590000  1.0
  O  O248  1  0.26582000  0.06043000  0.46003000  1.0
  O  O249  1  0.10858000  0.14999000  0.48170000  1.0
  O  O250  1  0.06066000  0.03034000  0.39917000  1.0
  O  O251  1  0.90991000  0.99784000  0.43453000  1.0
  O  O252  1  0.85628000  0.03466000  0.06125000  1.0
  O  O253  1  0.22669000  0.43557000  0.44716000  1.0
  O  O254  1  0.04602000  0.25846000  0.48957000  1.0
  O  O255  1  0.08707000  0.04389000  0.25649000  1.0
  O  O256  1  0.71548000  0.00706000  0.10842000  1.0
  O  O257  1  0.01849000  0.04948000  0.14929000  1.0
  O  O258  1  0.07522000  0.40005000  0.47835000  1.0
  O  O259  1  0.40839000  0.10590000  0.43521000  1.0
  O  O260  1  0.76581000  0.93958000  0.53998000  1.0
  O  O261  1  0.60858000  0.85001000  0.51830000  1.0
  O  O262  1  0.56066000  0.96966000  0.60083000  1.0
  O  O263  1  0.40991000  0.00217000  0.56546000  1.0
  O  O264  1  0.35628000  0.96534000  0.93876000  1.0
  O  O265  1  0.72668000  0.56443000  0.55284000  1.0
  O  O266  1  0.54603000  0.74154000  0.51043000  1.0
  O  O267  1  0.58707000  0.95610000  0.74351000  1.0
  O  O268  1  0.21549000  0.99294000  0.89158000  1.0
  O  O269  1  0.51849000  0.95052000  0.85071000  1.0
  O  O270  1  0.57521000  0.59995000  0.52165000  1.0
  O  O271  1  0.90839000  0.89410000  0.56479000  1.0
  O  O272  1  0.23418000  0.53997000  0.93958000  1.0
  O  O273  1  0.39142000  0.51830000  0.85001000  1.0
  O  O274  1  0.43934000  0.60083000  0.96966000  1.0
  O  O275  1  0.59008000  0.56547000  0.00217000  1.0
  O  O276  1  0.64372000  0.93876000  0.96535000  1.0
  O  O277  1  0.27332000  0.55284000  0.56443000  1.0
  O  O278  1  0.45398000  0.51043000  0.74154000  1.0
  O  O279  1  0.41293000  0.74351000  0.95611000  1.0
  O  O280  1  0.78451000  0.89157000  0.99294000  1.0
  O  O281  1  0.48151000  0.85071000  0.95052000  1.0
  O  O282  1  0.42479000  0.52165000  0.59995000  1.0
  O  O283  1  0.09161000  0.56479000  0.89410000  1.0
  O  O284  1  0.73418000  0.46002000  0.06043000  1.0
  O  O285  1  0.89142000  0.48170000  0.14999000  1.0
  O  O286  1  0.93934000  0.39917000  0.03035000  1.0
  O  O287  1  0.09008000  0.43453000  0.99783000  1.0
  O  O288  1  0.14372000  0.06124000  0.03466000  1.0
  O  O289  1  0.77332000  0.44716000  0.43557000  1.0
  O  O290  1  0.95398000  0.48957000  0.25846000  1.0
  O  O291  1  0.91293000  0.25649000  0.04390000  1.0
  O  O292  1  0.28451000  0.10843000  0.00706000  1.0
  O  O293  1  0.98151000  0.14929000  0.04949000  1.0
  O  O294  1  0.92479000  0.47835000  0.40005000  1.0
  O  O295  1  0.59161000  0.43521000  0.10591000  1.0
  O  O296  1  0.48417000  0.43957000  0.96003000  1.0
  O  O297  1  0.64140000  0.35000000  0.98172000  1.0
  O  O298  1  0.68934000  0.46963000  0.89917000  1.0
  O  O299  1  0.84006000  0.50217000  0.93452000  1.0
  O  O300  1  0.89372000  0.46535000  0.56124000  1.0
  O  O301  1  0.52332000  0.06443000  0.94716000  1.0
  O  O302  1  0.70395000  0.24152000  0.98962000  1.0
  O  O303  1  0.66292000  0.45610000  0.75648000  1.0
  O  O304  1  0.03453000  0.49291000  0.60843000  1.0
  O  O305  1  0.73150000  0.45053000  0.64928000  1.0
  O  O306  1  0.67479000  0.09995000  0.97835000  1.0
  O  O307  1  0.34160000  0.39410000  0.93520000  1.0
  O  O308  1  0.98417000  0.56043000  0.03997000  1.0
  O  O309  1  0.14141000  0.65000000  0.01828000  1.0
  O  O310  1  0.18934000  0.53037000  0.10083000  1.0
  O  O311  1  0.34006000  0.49783000  0.06548000  1.0
  O  O312  1  0.39372000  0.53465000  0.43876000  1.0
  O  O313  1  0.02333000  0.93557000  0.05284000  1.0
  O  O314  1  0.20395000  0.75847000  0.01039000  1.0
  O  O315  1  0.16292000  0.54390000  0.24352000  1.0
  O  O316  1  0.53453000  0.50709000  0.39157000  1.0
  O  O317  1  0.23150000  0.54947000  0.35072000  1.0
  O  O318  1  0.17479000  0.90005000  0.02165000  1.0
  O  O319  1  0.84161000  0.60591000  0.06481000  1.0
