# generated using pymatgen
data_ZnH16C13NO6
_symmetry_space_group_name_H-M   'P 1'
_cell_length_a   9.93545000
_cell_length_b   11.04170000
_cell_length_c   11.89260000
_cell_angle_alpha   86.74970000
_cell_angle_beta   77.74980000
_cell_angle_gamma   84.48660000
_symmetry_Int_Tables_number   1
_chemical_formula_structural   ZnH16C13NO6
_chemical_formula_sum   'Zn2 H32 C26 N2 O12'
_cell_volume   1268.17916091
_cell_formula_units_Z   2
loop_
 _symmetry_equiv_pos_site_id
 _symmetry_equiv_pos_as_xyz
  1  'x, y, z'
loop_
 _atom_site_type_symbol
 _atom_site_label
 _atom_site_symmetry_multiplicity
 _atom_site_fract_x
 _atom_site_fract_y
 _atom_site_fract_z
 _atom_site_occupancy
  Zn  Zn0  1  0.63991000  0.51282000  0.47525000  1.0
  Zn  Zn1  1  0.35034000  0.47880000  0.53681000  1.0
  H  H2  1  0.37992000  0.10171000  0.57429000  1.0
  H  H3  1  0.59092000  0.08535000  0.07446000  1.0
  H  H4  1  0.76920000  0.08490000  0.07563000  1.0
  H  H5  1  0.11681000  0.84343000  0.44170000  1.0
  H  H6  1  0.28221000  0.86250000  0.35276000  1.0
  H  H7  1  0.06040000  0.06497000  0.44809000  1.0
  H  H8  1  0.23374000  0.09245000  0.38746000  1.0
  H  H9  1  0.21742000  0.01198000  0.19978000  1.0
  H  H10  1  0.07854000  0.12498000  0.24082000  1.0
  H  H11  1  0.04874000  0.96824000  0.25795000  1.0
  H  H12  1  0.82980000  0.77392000  0.32616000  1.0
  H  H13  1  0.60006000  0.88396000  0.50509000  1.0
  H  H14  1  0.73990000  0.65076000  0.29517000  1.0
  H  H15  1  0.02216000  0.71671000  0.15549000  1.0
  H  H16  1  0.92830000  0.59682000  0.12876000  1.0
  H  H17  1  0.73299000  0.74943000  0.09424000  1.0
  H  H18  1  0.89087000  0.77895000  0.99921000  1.0
  H  H19  1  0.82700000  0.87029000  0.12019000  1.0
  H  H20  1  0.16105000  0.40083000  0.79471000  1.0
  H  H21  1  0.26256000  0.29666000  0.69363000  1.0
  H  H22  1  0.98251000  0.24780000  0.84952000  1.0
  H  H23  1  0.08480000  0.14707000  0.74800000  1.0
  H  H24  1  0.86197000  0.44291000  0.58856000  1.0
  H  H25  1  0.27865000  0.13611000  0.85672000  1.0
  H  H26  1  0.12420000  0.09137000  0.94763000  1.0
  H  H27  1  0.17824000  0.23825000  0.95830000  1.0
  H  H28  1  0.12262000  0.56026000  0.43813000  1.0
  H  H29  1  0.84203000  0.07558000  0.27800000  1.0
  H  H30  1  0.74164000  0.21820000  0.30084000  1.0
  H  H31  1  0.63500000  0.97624000  0.25552000  1.0
  H  H32  1  0.52919000  0.11263000  0.28799000  1.0
  H  H33  1  0.65642000  0.21837000  0.11102000  1.0
  C  C34  1  0.42419000  0.72502000  0.50044000  1.0
  C  C35  1  0.58343000  0.13156000  0.49184000  1.0
  C  C36  1  0.49639000  0.93007000  0.51702000  1.0
  C  C37  1  0.47968000  0.05861000  0.53210000  1.0
  C  C38  1  0.06657000  0.50207000  0.50543000  1.0
  C  C39  1  0.92139000  0.49246000  0.51592000  1.0
  C  C40  1  0.73792000  0.11869000  0.31062000  1.0
  C  C41  1  0.63408000  0.07616000  0.24692000  1.0
  C  C42  1  0.66461000  0.11842000  0.12010000  1.0
  C  C43  1  0.20192000  0.90328000  0.42219000  1.0
  C  C44  1  0.15293000  0.03149000  0.38545000  1.0
  C  C45  1  0.56260000  0.26571000  0.50748000  1.0
  C  C46  1  0.12259000  0.03445000  0.26446000  1.0
  C  C47  1  0.84195000  0.68452000  0.28668000  1.0
  C  C48  1  0.91718000  0.68914000  0.16171000  1.0
  C  C49  1  0.83748000  0.77691000  0.09000000  1.0
  C  C50  1  0.15732000  0.32480000  0.73986000  1.0
  C  C51  1  0.08962000  0.21852000  0.80762000  1.0
  C  C52  1  0.17229000  0.16837000  0.89763000  1.0
  C  C53  1  0.48589000  0.47976000  0.28811000  1.0
  C  C54  1  0.50317000  0.50454000  0.72264000  1.0
  C  C55  1  0.48466000  0.47901000  0.16693000  1.0
  C  C56  1  0.50216000  0.49782000  0.84453000  1.0
  C  C57  1  0.49013000  0.48383000  0.06301000  1.0
  C  C58  1  0.49618000  0.49043000  0.94850000  1.0
  C  C59  1  0.39284000  0.85958000  0.51320000  1.0
  N  N60  1  0.14136000  0.44703000  0.57354000  1.0
  N  N61  1  0.84926000  0.54427000  0.44423000  1.0
  O  O62  1  0.55061000  0.68423000  0.49110000  1.0
  O  O63  1  0.25879000  0.90735000  0.52484000  1.0
  O  O64  1  0.92546000  0.60123000  0.34952000  1.0
  O  O65  1  0.07451000  0.36846000  0.65515000  1.0
  O  O66  1  0.44095000  0.30885000  0.55477000  1.0
  O  O67  1  0.32335000  0.66142000  0.50151000  1.0
  O  O68  1  0.66580000  0.32772000  0.47121000  1.0
  O  O69  1  0.59794000  0.50912000  0.31089000  1.0
  O  O70  1  0.38477000  0.51790000  0.69634000  1.0
  O  O71  1  0.37752000  0.45215000  0.35919000  1.0
  O  O72  1  0.62069000  0.49595000  0.65439000  1.0
  O  O73  1  0.70929000  0.08377000  0.43273000  1.0
