# generated using pymatgen
data_CoH12C15N4O5
_symmetry_space_group_name_H-M   'P 1'
_cell_length_a   9.27666000
_cell_length_b   10.18640000
_cell_length_c   10.99150000
_cell_angle_alpha   97.68490000
_cell_angle_beta   110.27300000
_cell_angle_gamma   98.70020000
_symmetry_Int_Tables_number   1
_chemical_formula_structural   CoH12C15N4O5
_chemical_formula_sum   'Co2 H24 C30 N8 O10'
_cell_volume   943.49314572
_cell_formula_units_Z   2
loop_
 _symmetry_equiv_pos_site_id
 _symmetry_equiv_pos_as_xyz
  1  'x, y, z'
loop_
 _atom_site_type_symbol
 _atom_site_label
 _atom_site_symmetry_multiplicity
 _atom_site_fract_x
 _atom_site_fract_y
 _atom_site_fract_z
 _atom_site_occupancy
  Co  Co0  1  0.41383000  0.50774000  0.78624000  1.0
  Co  Co1  1  0.58617000  0.49226000  0.21376000  1.0
  H  H2  1  0.00070000  0.07538000  0.13909000  1.0
  H  H3  1  0.99930000  0.92461000  0.86091000  1.0
  H  H4  1  0.27362000  0.35741000  0.96457000  1.0
  H  H5  1  0.72638000  0.64259000  0.03544000  1.0
  H  H6  1  0.68187000  0.73254000  0.42325000  1.0
  H  H7  1  0.31813000  0.26746000  0.57674000  1.0
  H  H8  1  0.75913000  0.29746000  0.99869000  1.0
  H  H9  1  0.24088000  0.70254000  0.00131000  1.0
  H  H10  1  0.08126000  0.58496000  0.69308000  1.0
  H  H11  1  0.91874000  0.41504000  0.30693000  1.0
  H  H12  1  0.80862000  0.88594000  0.02253000  1.0
  H  H13  1  0.19138000  0.11405000  0.97747000  1.0
  H  H14  1  0.38109000  0.96358000  0.75227000  1.0
  H  H15  1  0.61891000  0.03642000  0.24772000  1.0
  H  H16  1  0.98848000  0.31727000  0.94537000  1.0
  H  H17  1  0.01152000  0.68273000  0.05463000  1.0
  H  H18  1  0.66985000  0.33970000  0.46792000  1.0
  H  H19  1  0.33015000  0.66031000  0.53208000  1.0
  H  H20  1  0.71776000  0.38565000  0.75219000  1.0
  H  H21  1  0.28224000  0.61435000  0.24781000  1.0
  H  H22  1  0.78842000  0.55453000  0.83491000  1.0
  H  H23  1  0.21158000  0.44547000  0.16509000  1.0
  H  H24  1  0.77562000  0.75379000  0.68231000  1.0
  H  H25  1  0.22438000  0.24621000  0.31768000  1.0
  C  C26  1  0.51133000  0.76285000  0.84212000  1.0
  C  C27  1  0.48867000  0.23715000  0.15788000  1.0
  C  C28  1  0.46583000  0.23534000  0.80151000  1.0
  C  C29  1  0.53418000  0.76466000  0.19849000  1.0
  C  C30  1  0.58645000  0.90959000  0.88417000  1.0
  C  C31  1  0.41355000  0.09041000  0.11582000  1.0
  C  C32  1  0.56168000  0.14021000  0.86727000  1.0
  C  C33  1  0.43833000  0.85979000  0.13273000  1.0
  C  C34  1  0.71257000  0.18881000  0.96420000  1.0
  C  C35  1  0.28743000  0.81118000  0.03580000  1.0
  C  C36  1  0.08348000  0.51613000  0.76061000  1.0
  C  C37  1  0.91653000  0.48388000  0.23940000  1.0
  C  C38  1  0.73977000  0.95735000  0.97861000  1.0
  C  C39  1  0.26023000  0.04264000  0.02138000  1.0
  C  C40  1  0.49882000  0.00092000  0.82723000  1.0
  C  C41  1  0.50118000  0.99908000  0.17277000  1.0
  C  C42  1  0.03416000  0.37940000  0.88859000  1.0
  C  C43  1  0.96584000  0.62060000  0.11141000  1.0
  C  C44  1  0.80211000  0.09683000  0.01761000  1.0
  C  C45  1  0.19789000  0.90316000  0.98238000  1.0
  C  C46  1  0.68754000  0.44817000  0.50065000  1.0
  C  C47  1  0.31246000  0.55183000  0.49935000  1.0
  C  C48  1  0.96330000  0.45779000  0.79932000  1.0
  C  C49  1  0.03670000  0.54221000  0.20069000  1.0
  C  C50  1  0.74330000  0.52667000  0.62942000  1.0
  C  C51  1  0.25670000  0.47333000  0.37058000  1.0
  C  C52  1  0.79781000  0.47942000  0.75781000  1.0
  C  C53  1  0.20219000  0.52058000  0.24219000  1.0
  C  C54  1  0.74271000  0.65954000  0.61098000  1.0
  C  C55  1  0.25729000  0.34047000  0.38902000  1.0
  N  N56  1  0.21786000  0.47642000  0.82193000  1.0
  N  N57  1  0.78214000  0.52358000  0.17807000  1.0
  N  N58  1  0.65514000  0.52788000  0.41049000  1.0
  N  N59  1  0.34485000  0.47212000  0.58951000  1.0
  N  N60  1  0.18526000  0.39270000  0.89880000  1.0
  N  N61  1  0.81473000  0.60731000  0.10120000  1.0
  N  N62  1  0.68930000  0.65625000  0.47963000  1.0
  N  N63  1  0.31070000  0.34375000  0.52037000  1.0
  O  O64  1  0.59032000  0.67272000  0.88796000  1.0
  O  O65  1  0.40968000  0.32728000  0.11204000  1.0
  O  O66  1  0.37149000  0.72350000  0.76124000  1.0
  O  O67  1  0.62851000  0.27649000  0.23876000  1.0
  O  O68  1  0.51704000  0.36273000  0.85531000  1.0
  O  O69  1  0.48296000  0.63727000  0.14469000  1.0
  O  O70  1  0.95284000  0.14964000  0.10819000  1.0
  O  O71  1  0.04716000  0.85035000  0.89181000  1.0
  O  O72  1  0.34552000  0.18636000  0.69804000  1.0
  O  O73  1  0.65449000  0.81364000  0.30196000  1.0
