# generated using pymatgen
data_HoH14C15(NO4)2
_symmetry_space_group_name_H-M   'P 1'
_cell_length_a   8.58282000
_cell_length_b   10.21940000
_cell_length_c   10.84760000
_cell_angle_alpha   65.88690000
_cell_angle_beta   68.75270000
_cell_angle_gamma   78.43450000
_symmetry_Int_Tables_number   1
_chemical_formula_structural   HoH14C15(NO4)2
_chemical_formula_sum   'Ho2 H28 C30 N4 O16'
_cell_volume   807.86255542
_cell_formula_units_Z   2
loop_
 _symmetry_equiv_pos_site_id
 _symmetry_equiv_pos_as_xyz
  1  'x, y, z'
loop_
 _atom_site_type_symbol
 _atom_site_label
 _atom_site_symmetry_multiplicity
 _atom_site_fract_x
 _atom_site_fract_y
 _atom_site_fract_z
 _atom_site_occupancy
  Ho  Ho0  1  0.65875000  0.43892000  0.14631000  1.0
  Ho  Ho1  1  0.34125000  0.56108000  0.85368000  1.0
  H  H2  1  0.92224000  0.58740000  0.87518000  1.0
  H  H3  1  0.07776000  0.41259000  0.12483000  1.0
  H  H4  1  0.75992000  0.57255000  0.84238000  1.0
  H  H5  1  0.24008000  0.42745000  0.15762000  1.0
  H  H6  1  0.22278000  0.64030000  0.47607000  1.0
  H  H7  1  0.77723000  0.35971000  0.52393000  1.0
  H  H8  1  0.07551000  0.32067000  0.38474000  1.0
  H  H9  1  0.92450000  0.67933000  0.61526000  1.0
  H  H10  1  0.71985000  0.80359000  0.97947000  1.0
  H  H11  1  0.28015000  0.19640000  0.02054000  1.0
  H  H12  1  0.21367000  0.97682000  0.00747000  1.0
  H  H13  1  0.78633000  0.02317000  0.99253000  1.0
  H  H14  1  0.16434000  0.13568000  0.25096000  1.0
  H  H15  1  0.83567000  0.86432000  0.74904000  1.0
  H  H16  1  0.69286000  0.05592000  0.58505000  1.0
  H  H17  1  0.30714000  0.94409000  0.41495000  1.0
  H  H18  1  0.68872000  0.82052000  0.44287000  1.0
  H  H19  1  0.31129000  0.17948000  0.55713000  1.0
  H  H20  1  0.62966000  0.93209000  0.28884000  1.0
  H  H21  1  0.37034000  0.06791000  0.71116000  1.0
  H  H22  1  0.91627000  0.97526000  0.17251000  1.0
  H  H23  1  0.08372000  0.02474000  0.82749000  1.0
  H  H24  1  0.97974000  0.82515000  0.30681000  1.0
  H  H25  1  0.02026000  0.17485000  0.69319000  1.0
  H  H26  1  0.56896000  0.66487000  0.35730000  1.0
  H  H27  1  0.43104000  0.33513000  0.64270000  1.0
  H  H28  1  0.04347000  0.74784000  0.09508000  1.0
  H  H29  1  0.95653000  0.25216000  0.90492000  1.0
  C  C30  1  0.34101000  0.45768000  0.33477000  1.0
  C  C31  1  0.65898000  0.54233000  0.66523000  1.0
  C  C32  1  0.16535000  0.47958000  0.42071000  1.0
  C  C33  1  0.83465000  0.52043000  0.57930000  1.0
  C  C34  1  0.12437000  0.58001000  0.48664000  1.0
  C  C35  1  0.87563000  0.42000000  0.51337000  1.0
  C  C36  1  0.04066000  0.39983000  0.43467000  1.0
  C  C37  1  0.95933000  0.60017000  0.56532000  1.0
  C  C38  1  0.42611000  0.74685000  0.98115000  1.0
  C  C39  1  0.57389000  0.25315000  0.01885000  1.0
  C  C40  1  0.46270000  0.87699000  0.99290000  1.0
  C  C41  1  0.53730000  0.12301000  0.00710000  1.0
  C  C42  1  0.62412000  0.88996000  0.98872000  1.0
  C  C43  1  0.37587000  0.11003000  0.01128000  1.0
  C  C44  1  0.33878000  0.98745000  0.00439000  1.0
  C  C45  1  0.66122000  0.01255000  0.99561000  1.0
  C  C46  1  0.83397000  0.22417000  0.31280000  1.0
  C  C47  1  0.16603000  0.77583000  0.68720000  1.0
  C  C48  1  0.92001000  0.10721000  0.40835000  1.0
  C  C49  1  0.07999000  0.89279000  0.59164000  1.0
  C  C50  1  0.09311000  0.07572000  0.36006000  1.0
  C  C51  1  0.90689000  0.92429000  0.63993000  1.0
  C  C52  1  0.82727000  0.03053000  0.54900000  1.0
  C  C53  1  0.17273000  0.96947000  0.45099000  1.0
  C  C54  1  0.80420000  0.68112000  0.20967000  1.0
  C  C55  1  0.19580000  0.31887000  0.79034000  1.0
  C  C56  1  0.71066000  0.83871000  0.33112000  1.0
  C  C57  1  0.28934000  0.16129000  0.66888000  1.0
  C  C58  1  0.89733000  0.86162000  0.24001000  1.0
  C  C59  1  0.10267000  0.13838000  0.75999000  1.0
  N  N60  1  0.67985000  0.71213000  0.31503000  1.0
  N  N61  1  0.32015000  0.28787000  0.68498000  1.0
  N  N62  1  0.92831000  0.77251000  0.15561000  1.0
  N  N63  1  0.07169000  0.22748000  0.84439000  1.0
  O  O64  1  0.37211000  0.37688000  0.26206000  1.0
  O  O65  1  0.62789000  0.62312000  0.73794000  1.0
  O  O66  1  0.82739000  0.52647000  0.90879000  1.0
  O  O67  1  0.17261000  0.47353000  0.09121000  1.0
  O  O68  1  0.45852000  0.51958000  0.33039000  1.0
  O  O69  1  0.54148000  0.48041000  0.66962000  1.0
  O  O70  1  0.50956000  0.62962000  0.02532000  1.0
  O  O71  1  0.49044000  0.37038000  0.97468000  1.0
  O  O72  1  0.31541000  0.75868000  0.92354000  1.0
  O  O73  1  0.68459000  0.24132000  0.07647000  1.0
  O  O74  1  0.67653000  0.25046000  0.36071000  1.0
  O  O75  1  0.32347000  0.74953000  0.63929000  1.0
  O  O76  1  0.91807000  0.29742000  0.18476000  1.0
  O  O77  1  0.08193000  0.70258000  0.81525000  1.0
  O  O78  1  0.80684000  0.58443000  0.16474000  1.0
  O  O79  1  0.19316000  0.41557000  0.83526000  1.0
