# generated using pymatgen
data_ZnH26C34(NO)10
_symmetry_space_group_name_H-M   'P 1'
_cell_length_a   7.66897000
_cell_length_b   9.92475000
_cell_length_c   11.71650000
_cell_angle_alpha   69.23300000
_cell_angle_beta   89.76860000
_cell_angle_gamma   81.87600000
_symmetry_Int_Tables_number   1
_chemical_formula_structural   ZnH26C34(NO)10
_chemical_formula_sum   'Zn1 H26 C34 N10 O10'
_cell_volume   824.44410193
_cell_formula_units_Z   1
loop_
 _symmetry_equiv_pos_site_id
 _symmetry_equiv_pos_as_xyz
  1  'x, y, z'
loop_
 _atom_site_type_symbol
 _atom_site_label
 _atom_site_symmetry_multiplicity
 _atom_site_fract_x
 _atom_site_fract_y
 _atom_site_fract_z
 _atom_site_occupancy
  Zn  Zn0  1  0.50000000  0.00000000  0.00000000  1.0
  H  H1  1  0.01729000  0.79553000  0.64244000  1.0
  H  H2  1  0.98271000  0.20447000  0.35756000  1.0
  H  H3  1  0.55850000  0.75384000  0.23217000  1.0
  H  H4  1  0.44150000  0.24615000  0.76783000  1.0
  H  H5  1  0.30551000  0.80748000  0.90500000  1.0
  H  H6  1  0.69449000  0.19252000  0.09500000  1.0
  H  H7  1  0.16059000  0.04581000  0.89549000  1.0
  H  H8  1  0.83940000  0.95418000  0.10451000  1.0
  H  H9  1  0.15917000  0.19058000  0.92092000  1.0
  H  H10  1  0.84083000  0.80942000  0.07908000  1.0
  H  H11  1  0.70123000  0.68351000  0.39488000  1.0
  H  H12  1  0.29877000  0.31649000  0.60512000  1.0
  H  H13  1  0.83621000  0.87306000  0.44397000  1.0
  H  H14  1  0.16379000  0.12695000  0.55603000  1.0
  H  H15  1  0.92044000  0.35563000  0.71016000  1.0
  H  H16  1  0.07956000  0.64437000  0.28984000  1.0
  H  H17  1  0.36319000  0.38438000  0.19242000  1.0
  H  H18  1  0.63681000  0.61562000  0.80758000  1.0
  H  H19  1  0.52218000  0.48724000  0.32060000  1.0
  H  H20  1  0.47781000  0.51275000  0.67940000  1.0
  H  H21  1  0.41207000  0.78082000  0.65660000  1.0
  H  H22  1  0.58793000  0.21918000  0.34340000  1.0
  H  H23  1  0.72198000  0.40368000  0.52224000  1.0
  H  H24  1  0.27802000  0.59632000  0.47776000  1.0
  H  H25  1  0.24545000  0.30306000  0.06157000  1.0
  H  H26  1  0.75455000  0.69694000  0.93843000  1.0
  C  C27  1  0.78431000  0.65497000  0.47766000  1.0
  C  C28  1  0.21569000  0.34503000  0.52234000  1.0
  C  C29  1  0.85905000  0.75994000  0.50571000  1.0
  C  C30  1  0.14095000  0.24006000  0.49429000  1.0
  C  C31  1  0.95995000  0.71718000  0.61434000  1.0
  C  C32  1  0.04005000  0.28282000  0.38566000  1.0
  C  C33  1  0.98619000  0.56995000  0.69099000  1.0
  C  C34  1  0.01381000  0.43005000  0.30901000  1.0
  C  C35  1  0.90744000  0.47150000  0.65482000  1.0
  C  C36  1  0.09256000  0.52850000  0.34518000  1.0
  C  C37  1  0.08653000  0.52455000  0.80722000  1.0
  C  C38  1  0.91347000  0.47545000  0.19278000  1.0
  C  C39  1  0.22740000  0.53778000  0.95757000  1.0
  C  C40  1  0.77260000  0.46222000  0.04243000  1.0
  C  C41  1  0.31918000  0.58947000  0.03890000  1.0
  C  C42  1  0.68082000  0.41053000  0.96110000  1.0
  C  C43  1  0.38325000  0.49838000  0.15699000  1.0
  C  C44  1  0.61676000  0.50161000  0.84301000  1.0
  C  C45  1  0.47150000  0.55555000  0.22850000  1.0
  C  C46  1  0.52850000  0.44445000  0.77150000  1.0
  C  C47  1  0.49365000  0.70125000  0.18076000  1.0
  C  C48  1  0.50634000  0.29875000  0.81925000  1.0
  C  C49  1  0.34937000  0.73453000  0.99731000  1.0
  C  C50  1  0.65063000  0.26547000  0.00269000  1.0
  C  C51  1  0.58185000  0.92872000  0.76095000  1.0
  C  C52  1  0.41815000  0.07128000  0.23904000  1.0
  C  C53  1  0.54182000  0.96905000  0.62525000  1.0
  C  C54  1  0.45817000  0.03095000  0.37475000  1.0
  C  C55  1  0.45212000  0.87719000  0.58816000  1.0
  C  C56  1  0.54788000  0.12282000  0.41184000  1.0
  C  C57  1  0.59026000  0.09374000  0.53545000  1.0
  C  C58  1  0.40973000  0.90626000  0.46454000  1.0
  C  C59  1  0.68751000  0.19465000  0.57132000  1.0
  C  C60  1  0.31249000  0.80535000  0.42869000  1.0
  N  N61  1  0.43516000  0.78871000  0.06664000  1.0
  N  N62  1  0.56484000  0.21129000  0.93336000  1.0
  N  N63  1  0.15503000  0.62054000  0.84655000  1.0
  N  N64  1  0.84497000  0.37946000  0.15345000  1.0
  N  N65  1  0.11449000  0.38652000  0.88831000  1.0
  N  N66  1  0.88551000  0.61348000  0.11169000  1.0
  N  N67  1  0.20328000  0.39761000  0.98303000  1.0
  N  N68  1  0.79672000  0.60239000  0.01696000  1.0
  N  N69  1  0.80833000  0.51414000  0.55092000  1.0
  N  N70  1  0.19168000  0.48586000  0.44907000  1.0
  O  O71  1  0.49016000  0.00482000  0.81376000  1.0
  O  O72  1  0.50985000  0.99518000  0.18624000  1.0
  O  O73  1  0.69442000  0.81665000  0.81016000  1.0
  O  O74  1  0.30559000  0.18335000  0.18984000  1.0
  O  O75  1  0.79010000  0.15250000  0.66204000  1.0
  O  O76  1  0.20988000  0.84750000  0.33796000  1.0
  O  O77  1  0.65003000  0.33244000  0.49552000  1.0
  O  O78  1  0.34997000  0.66756000  0.50448000  1.0
  O  O79  1  0.20569000  0.08427000  0.95332000  1.0
  O  O80  1  0.79431000  0.91573000  0.04668000  1.0
