# generated using pymatgen
data_Zn2H56C79N4O13
_symmetry_space_group_name_H-M   'P 1'
_cell_length_a   12.59450000
_cell_length_b   13.49470000
_cell_length_c   27.50845185
_cell_angle_alpha   86.11641234
_cell_angle_beta   78.97297918
_cell_angle_gamma   79.33520000
_symmetry_Int_Tables_number   1
_chemical_formula_structural   Zn2H56C79N4O13
_chemical_formula_sum   'Zn2 H56 C79 N4 O13'
_cell_volume   4507.18788427
_cell_formula_units_Z   1
loop_
 _symmetry_equiv_pos_site_id
 _symmetry_equiv_pos_as_xyz
  1  'x, y, z'
loop_
 _atom_site_type_symbol
 _atom_site_label
 _atom_site_symmetry_multiplicity
 _atom_site_fract_x
 _atom_site_fract_y
 _atom_site_fract_z
 _atom_site_occupancy
  Zn  Zn0  1  0.89949000  0.49597000  0.48562000  1.0
  Zn  Zn1  1  0.10279000  0.50881000  0.51120000  1.0
  H  H2  1  0.00543000  0.49041000  0.67448000  1.0
  H  H3  1  0.56009000  0.28900000  0.86270000  1.0
  H  H4  1  0.49193000  0.26823000  0.03113000  1.0
  H  H5  1  0.98689000  0.47545000  0.32684000  1.0
  H  H6  1  0.41717000  0.26891000  0.12151000  1.0
  H  H7  1  0.08645000  0.86696000  0.61639000  1.0
  H  H8  1  0.14492000  0.02941000  0.62300000  1.0
  H  H9  1  0.95264000  0.18060000  0.48796000  1.0
  H  H10  1  0.82194000  0.80244000  0.43151000  1.0
  H  H11  1  0.86393000  0.10020000  0.46116000  1.0
  H  H12  1  0.78144000  0.98984000  0.41696000  1.0
  H  H13  1  0.00876000  0.75700000  0.56999000  1.0
  H  H14  1  0.84152000  0.34247000  0.43583000  1.0
  H  H15  1  0.47244000  0.30885000  0.42556000  1.0
  H  H16  1  0.67574000  0.28445000  0.41655000  1.0
  H  H17  1  0.14775000  0.63139000  0.58157000  1.0
  H  H18  1  0.61506000  0.76825000  0.88071000  1.0
  H  H19  1  0.49589000  0.60054000  0.57576000  1.0
  H  H20  1  0.30595000  0.67284000  0.61521000  1.0
  H  H21  1  0.28796000  0.40050000  0.46184000  1.0
  H  H22  1  0.28845000  0.52252000  0.36387000  1.0
  H  H23  1  0.37014000  0.53357000  0.27302000  1.0
  H  H24  1  0.38264000  0.77698000  0.02474000  1.0
  H  H25  1  0.50637000  0.77222000  0.96622000  1.0
  H  H26  1  0.69465000  0.55144000  0.62755000  1.0
  H  H27  1  0.54264000  0.44236000  0.66906000  1.0
  H  H28  1  0.54508000  0.39899000  0.73112000  1.0
  H  H29  1  0.42517000  0.47819000  0.71580000  1.0
  H  H30  1  0.52887000  0.58064000  0.75582000  1.0
  H  H31  1  0.53053000  0.62107000  0.69358000  1.0
  H  H32  1  0.92530000  0.40289000  0.26565000  1.0
  H  H33  1  0.88318000  0.53597000  0.26511000  1.0
  H  H34  1  0.88815000  0.46788000  0.21147000  1.0
  H  H35  1  0.04987000  0.55341000  0.19903000  1.0
  H  H36  1  0.09196000  0.42168000  0.20067000  1.0
  H  H37  1  0.30765000  0.30071000  0.90475000  1.0
  H  H38  1  0.42206000  0.21161000  0.87758000  1.0
  H  H39  1  0.32466000  0.17321000  0.92716000  1.0
  H  H40  1  0.49215000  0.19332000  0.95897000  1.0
  H  H41  1  0.37453000  0.27667000  0.98611000  1.0
  H  H42  1  0.33378000  0.13451000  0.57856000  1.0
  H  H43  1  0.29871000  0.24390000  0.54089000  1.0
  H  H44  1  0.33455000  0.25638000  0.59945000  1.0
  H  H45  1  0.13111000  0.30174000  0.60491000  1.0
  H  H46  1  0.16496000  0.19266000  0.64237000  1.0
  H  H47  1  0.07936000  0.39544000  0.73776000  1.0
  H  H48  1  0.08386000  0.52592000  0.73927000  1.0
  H  H49  1  0.09201000  0.44780000  0.79345000  1.0
  H  H50  1  0.90429000  0.55073000  0.80018000  1.0
  H  H51  1  0.90018000  0.42123000  0.79960000  1.0
  H  H52  1  0.72496000  0.62501000  0.52840000  1.0
  H  H53  1  0.36583000  0.91064000  0.06925000  1.0
  H  H54  1  0.24094000  0.90048000  0.05025000  1.0
  H  H55  1  0.23838000  0.96947000  0.10311000  1.0
  H  H56  1  0.18335000  0.80664000  0.13218000  1.0
  H  H57  1  0.30516000  0.81473000  0.14998000  1.0
  C  C58  1  0.94631000  0.69731000  0.48964000  1.0
  C  C59  1  0.86416000  0.50456000  0.73422000  1.0
  C  C60  1  0.74854000  0.52280000  0.74427000  1.0
  C  C61  1  0.57397000  0.52468000  0.89357000  1.0
  C  C62  1  0.61033000  0.61326000  0.87164000  1.0
  C  C63  1  0.58600000  0.70100000  0.89833000  1.0
  C  C64  1  0.59420000  0.43596000  0.86616000  1.0
  C  C65  1  0.85510000  0.52127000  0.64652000  1.0
  C  C66  1  0.13321000  0.49723000  0.35000000  1.0
  C  C67  1  0.42316000  0.61635000  0.01972000  1.0
  C  C68  1  0.44786000  0.42942000  0.01973000  1.0
  C  C69  1  0.91209000  0.51819000  0.59346000  1.0
  C  C70  1  0.41072000  0.52235000  0.04485000  1.0
  C  C71  1  0.37660000  0.70515000  0.04459000  1.0
  C  C72  1  0.32122000  0.70763000  0.09416000  1.0
  C  C73  1  0.31760000  0.61469000  0.12081000  1.0
  C  C74  1  0.36363000  0.52240000  0.09645000  1.0
  C  C75  1  0.36518000  0.42830000  0.12298000  1.0
  C  C76  1  0.31946000  0.42241000  0.17637000  1.0
  C  C77  1  0.26554000  0.61073000  0.17383000  1.0
  C  C78  1  0.28606000  0.52075000  0.28535000  1.0
  C  C79  1  0.24124000  0.51422000  0.33555000  1.0
  C  C80  1  0.04448000  0.31051000  0.51994000  1.0
  C  C81  1  0.07083000  0.48794000  0.31404000  1.0
  C  C82  1  0.11397000  0.49474000  0.26347000  1.0
  C  C83  1  0.22296000  0.51079000  0.25018000  1.0
  C  C84  1  0.48839000  0.61570000  0.96964000  1.0
  C  C85  1  0.51598000  0.52372000  0.94347000  1.0
  C  C86  1  0.48427000  0.43189000  0.96592000  1.0
  C  C87  1  0.52480000  0.70215000  0.94638000  1.0
  C  C88  1  0.54870000  0.35320000  0.88636000  1.0
  C  C89  1  0.45339000  0.33929000  0.04832000  1.0
  C  C90  1  0.41314000  0.33905000  0.09924000  1.0
  C  C91  1  0.08270000  0.49104000  0.40382000  1.0
  C  C92  1  0.49042000  0.34984000  0.93541000  1.0
  C  C93  1  0.10434000  0.06239000  0.59242000  1.0
  C  C94  1  0.05163000  0.20336000  0.53881000  1.0
  C  C95  1  0.85312000  0.85262000  0.45257000  1.0
  C  C96  1  0.83219000  0.95741000  0.44407000  1.0
  C  C97  1  0.87822000  0.01910000  0.46916000  1.0
  C  C98  1  0.94219000  0.97906000  0.50521000  1.0
  C  C99  1  0.95669000  0.87315000  0.51675000  1.0
  C  C100  1  0.99478000  0.04228000  0.53035000  1.0
  C  C101  1  0.05083000  0.00053000  0.56940000  1.0
  C  C102  1  0.67308000  0.61381000  0.82040000  1.0
  C  C103  1  0.05032000  0.89700000  0.58417000  1.0
  C  C104  1  0.00703000  0.83584000  0.55861000  1.0
  C  C105  1  0.99545000  0.14428000  0.51699000  1.0
  C  C106  1  0.10830000  0.16249000  0.57774000  1.0
  C  C107  1  0.91644000  0.80999000  0.48746000  1.0
  C  C108  1  0.66661000  0.34853000  0.44007000  1.0
  C  C109  1  0.23255000  0.60064000  0.56558000  1.0
  C  C110  1  0.32119000  0.62418000  0.58372000  1.0
  C  C111  1  0.42679000  0.58459000  0.56113000  1.0
  C  C112  1  0.44427000  0.52267000  0.51998000  1.0
  C  C113  1  0.65846000  0.43235000  0.81523000  1.0
  C  C114  1  0.34993000  0.49513000  0.50676000  1.0
  C  C115  1  0.55166000  0.48023000  0.49285000  1.0
  C  C116  1  0.56075000  0.39840000  0.46119000  1.0
  C  C117  1  0.46362000  0.37009000  0.45078000  1.0
  C  C118  1  0.36189000  0.41947000  0.47107000  1.0
  C  C119  1  0.65003000  0.51562000  0.49506000  1.0
  C  C120  1  0.75804000  0.38059000  0.44967000  1.0
  C  C121  1  0.68489000  0.54052000  0.70697000  1.0
  C  C122  1  0.74059000  0.53903000  0.65788000  1.0
  C  C123  1  0.91622000  0.50443000  0.68468000  1.0
  C  C124  1  0.56085000  0.55749000  0.71749000  1.0
  C  C125  1  0.51552000  0.46379000  0.70793000  1.0
  C  C126  1  0.04851000  0.48569000  0.22381000  1.0
  C  C127  1  0.92976000  0.47240000  0.24267000  1.0
  C  C128  1  0.43242000  0.26062000  0.95119000  1.0
  C  C129  1  0.36867000  0.23522000  0.91277000  1.0
  C  C130  1  0.17020000  0.22190000  0.60376000  1.0
  C  C131  1  0.29169000  0.21357000  0.57917000  1.0
  C  C132  1  0.92774000  0.48481000  0.77633000  1.0
  C  C133  1  0.05261000  0.46224000  0.76072000  1.0
  C  C134  1  0.65377000  0.61972000  0.51120000  1.0
  C  C135  1  0.27032000  0.80846000  0.11676000  1.0
  C  C136  1  0.27994000  0.90175000  0.08267000  1.0
  N  N137  1  0.69258000  0.52265000  0.79537000  1.0
  N  N138  1  0.27258000  0.51489000  0.19827000  1.0
  N  N139  1  0.74934000  0.46444000  0.47566000  1.0
  N  N140  1  0.24633000  0.53668000  0.52915000  1.0
  O  O141  1  0.88504000  0.64777000  0.47264000  1.0
  O  O142  1  0.21667000  0.68538000  0.19742000  1.0
  O  O143  1  0.68131000  0.35586000  0.79059000  1.0
  O  O144  1  0.32043000  0.34235000  0.20080000  1.0
  O  O145  1  0.03251000  0.65805000  0.50652000  1.0
  O  O146  1  0.85119000  0.52401000  0.56094000  1.0
  O  O147  1  0.01643000  0.50909000  0.58452000  1.0
  O  O148  1  0.95465000  0.35020000  0.50606000  1.0
  O  O149  1  0.12621000  0.35469000  0.51865000  1.0
  O  O150  1  0.98497000  0.47293000  0.41465000  1.0
  O  O151  1  0.14129000  0.50545000  0.43486000  1.0
  O  O152  1  0.70722000  0.68872000  0.79987000  1.0
  O  O153  1  0.58609000  0.69329000  0.50296000  1.0
