# generated using pymatgen
data_ErAgH6C12(NO2)4
_symmetry_space_group_name_H-M   'P 1'
_cell_length_a   8.03235000
_cell_length_b   10.03340000
_cell_length_c   18.39680000
_cell_angle_alpha   90.00000000
_cell_angle_beta   90.00000000
_cell_angle_gamma   95.40180000
_symmetry_Int_Tables_number   1
_chemical_formula_structural   ErAgH6C12(NO2)4
_chemical_formula_sum   'Er4 Ag4 H24 C48 N16 O32'
_cell_volume   1476.04651492
_cell_formula_units_Z   4
loop_
 _symmetry_equiv_pos_site_id
 _symmetry_equiv_pos_as_xyz
  1  'x, y, z'
loop_
 _atom_site_type_symbol
 _atom_site_label
 _atom_site_symmetry_multiplicity
 _atom_site_fract_x
 _atom_site_fract_y
 _atom_site_fract_z
 _atom_site_occupancy
  Er  Er0  1  0.24279000  0.36130000  0.10645000  1.0
  Er  Er1  1  0.25721000  0.63870000  0.60645000  1.0
  Er  Er2  1  0.75721000  0.63870000  0.89355000  1.0
  Er  Er3  1  0.74279000  0.36130000  0.39355000  1.0
  Ag  Ag4  1  0.89581000  0.85213000  0.07302000  1.0
  Ag  Ag5  1  0.60420000  0.14787000  0.57302000  1.0
  Ag  Ag6  1  0.10420000  0.14787000  0.92698000  1.0
  Ag  Ag7  1  0.39580000  0.85212000  0.42698000  1.0
  H  H8  1  0.38133000  0.55544000  0.38185000  1.0
  H  H9  1  0.11866000  0.44455000  0.88185000  1.0
  H  H10  1  0.61866000  0.44455000  0.61815000  1.0
  H  H11  1  0.88134000  0.55545000  0.11815000  1.0
  H  H12  1  0.23089000  0.86610000  0.25630000  1.0
  H  H13  1  0.26912000  0.13390000  0.75629000  1.0
  H  H14  1  0.76911000  0.13389000  0.74370000  1.0
  H  H15  1  0.73089000  0.86611000  0.24371000  1.0
  H  H16  1  0.19512000  0.70941000  0.14833000  1.0
  H  H17  1  0.30488000  0.29059000  0.64833000  1.0
  H  H18  1  0.80488000  0.29058000  0.85167000  1.0
  H  H19  1  0.69512000  0.70941000  0.35168000  1.0
  H  H20  1  0.48273000  0.85988000  0.08461000  1.0
  H  H21  1  0.01727000  0.14012000  0.58460000  1.0
  H  H22  1  0.51727000  0.14012000  0.91540000  1.0
  H  H23  1  0.98273000  0.85988000  0.41539000  1.0
  H  H24  1  0.88654000  0.15248000  0.08487000  1.0
  H  H25  1  0.61346000  0.84752000  0.58487000  1.0
  H  H26  1  0.11346000  0.84752000  0.91514000  1.0
  H  H27  1  0.38654000  0.15247000  0.41513000  1.0
  H  H28  1  0.68661000  0.33164000  0.09347000  1.0
  H  H29  1  0.81339000  0.66836000  0.59347000  1.0
  H  H30  1  0.31339000  0.66836000  0.90653000  1.0
  H  H31  1  0.18661000  0.33164000  0.40653000  1.0
  C  C32  1  0.40211000  0.37260000  0.27074000  1.0
  C  C33  1  0.09789000  0.62740000  0.77074000  1.0
  C  C34  1  0.59789000  0.62740000  0.72926000  1.0
  C  C35  1  0.90210000  0.37260000  0.22926000  1.0
  C  C36  1  0.33683000  0.50872000  0.26892000  1.0
  C  C37  1  0.16317000  0.49128000  0.76892000  1.0
  C  C38  1  0.66317000  0.49128000  0.73108000  1.0
  C  C39  1  0.83683000  0.50872000  0.23108000  1.0
  C  C40  1  0.34344000  0.59193000  0.32952000  1.0
  C  C41  1  0.15656000  0.40806000  0.82952000  1.0
  C  C42  1  0.65656000  0.40806000  0.67048000  1.0
  C  C43  1  0.84344000  0.59194000  0.17048000  1.0
  C  C44  1  0.25695000  0.76158000  0.26063000  1.0
  C  C45  1  0.24305000  0.23842000  0.76063000  1.0
  C  C46  1  0.74305000  0.23841000  0.73937000  1.0
  C  C47  1  0.75695000  0.76158000  0.23937000  1.0
  C  C48  1  0.23811000  0.67570000  0.20076000  1.0
  C  C49  1  0.26189000  0.32430000  0.70076000  1.0
  C  C50  1  0.76189000  0.32430000  0.79924000  1.0
  C  C51  1  0.73811000  0.67570000  0.29923000  1.0
  C  C52  1  0.23340000  0.03437000  0.09343000  1.0
  C  C53  1  0.26660000  0.96563000  0.59343000  1.0
  C  C54  1  0.76660000  0.96563000  0.90658000  1.0
  C  C55  1  0.73340000  0.03438000  0.40657000  1.0
  C  C56  1  0.42024000  0.06502000  0.09247000  1.0
  C  C57  1  0.07977000  0.93498000  0.59247000  1.0
  C  C58  1  0.57976000  0.93498000  0.90753000  1.0
  C  C59  1  0.92024000  0.06502000  0.40752000  1.0
  C  C60  1  0.52972000  0.96536000  0.08726000  1.0
  C  C61  1  0.97028000  0.03464000  0.58725000  1.0
  C  C62  1  0.47028000  0.03464000  0.91275000  1.0
  C  C63  1  0.02972000  0.96536000  0.41274000  1.0
  C  C64  1  0.75198000  0.12741000  0.08665000  1.0
  C  C65  1  0.74803000  0.87259000  0.58665000  1.0
  C  C66  1  0.24803000  0.87259000  0.91335000  1.0
  C  C67  1  0.25197000  0.12741000  0.41335000  1.0
  C  C68  1  0.64138000  0.22613000  0.09151000  1.0
  C  C69  1  0.85862000  0.77387000  0.59151000  1.0
  C  C70  1  0.35862000  0.77387000  0.90849000  1.0
  C  C71  1  0.14138000  0.22613000  0.40848000  1.0
  C  C72  1  0.95661000  0.43153000  0.98805000  1.0
  C  C73  1  0.54340000  0.56848000  0.48804000  1.0
  C  C74  1  0.04339000  0.56848000  0.01196000  1.0
  C  C75  1  0.45661000  0.43153000  0.51195000  1.0
  C  C76  1  0.54306000  0.53926000  0.03220000  1.0
  C  C77  1  0.95693000  0.46073000  0.53220000  1.0
  C  C78  1  0.45693000  0.46074000  0.96780000  1.0
  C  C79  1  0.04307000  0.53927000  0.46780000  1.0
  N  N80  1  0.27654000  0.54872000  0.20528000  1.0
  N  N81  1  0.22346000  0.45128000  0.70528000  1.0
  N  N82  1  0.72346000  0.45128000  0.79472000  1.0
  N  N83  1  0.77654000  0.54872000  0.29472000  1.0
  N  N84  1  0.30535000  0.71860000  0.32562000  1.0
  N  N85  1  0.19465000  0.28139000  0.82561000  1.0
  N  N86  1  0.69465000  0.28139000  0.67439000  1.0
  N  N87  1  0.80535000  0.71861000  0.17439000  1.0
  N  N88  1  0.47613000  0.19568000  0.09351000  1.0
  N  N89  1  0.02387000  0.80432000  0.59351000  1.0
  N  N90  1  0.52387000  0.80432000  0.90650000  1.0
  N  N91  1  0.97613000  0.19568000  0.40648000  1.0
  N  N92  1  0.69587000  0.99711000  0.08338000  1.0
  N  N93  1  0.80413000  0.00289000  0.58338000  1.0
  N  N94  1  0.30413000  0.00289000  0.91662000  1.0
  N  N95  1  0.19587000  0.99711000  0.41661000  1.0
  O  O96  1  0.35846000  0.29553000  0.21822000  1.0
  O  O97  1  0.14153000  0.70447000  0.71822000  1.0
  O  O98  1  0.64153000  0.70447000  0.78178000  1.0
  O  O99  1  0.85846000  0.29553000  0.28178000  1.0
  O  O100  1  0.49631000  0.34792000  0.32344000  1.0
  O  O101  1  0.00369000  0.65208000  0.82344000  1.0
  O  O102  1  0.50369000  0.65208000  0.67656000  1.0
  O  O103  1  0.99630000  0.34792000  0.17656000  1.0
  O  O104  1  0.17677000  0.91292000  0.09141000  1.0
  O  O105  1  0.32323000  0.08709000  0.59141000  1.0
  O  O106  1  0.82323000  0.08708000  0.90859000  1.0
  O  O107  1  0.67677000  0.91292000  0.40858000  1.0
  O  O108  1  0.14875000  0.13574000  0.09423000  1.0
  O  O109  1  0.35126000  0.86426000  0.59424000  1.0
  O  O110  1  0.85125000  0.86425000  0.90577000  1.0
  O  O111  1  0.64875000  0.13575000  0.40577000  1.0
  O  O112  1  0.01279000  0.32899000  0.01561000  1.0
  O  O113  1  0.48722000  0.67102000  0.51561000  1.0
  O  O114  1  0.98721000  0.67102000  0.98440000  1.0
  O  O115  1  0.51279000  0.32899000  0.48439000  1.0
  O  O116  1  0.49718000  0.50192000  0.09551000  1.0
  O  O117  1  0.00282000  0.49807000  0.59551000  1.0
  O  O118  1  0.50282000  0.49808000  0.90449000  1.0
  O  O119  1  0.99717000  0.50192000  0.40449000  1.0
  O  O120  1  0.83874000  0.43392000  0.94252000  1.0
  O  O121  1  0.66127000  0.56609000  0.44252000  1.0
  O  O122  1  0.16127000  0.56609000  0.05748000  1.0
  O  O123  1  0.33874000  0.43392000  0.55748000  1.0
  O  O124  1  0.65344000  0.63298000  0.01581000  1.0
  O  O125  1  0.84656000  0.36702000  0.51580000  1.0
  O  O126  1  0.34655000  0.36703000  0.98420000  1.0
  O  O127  1  0.15344000  0.63298000  0.48420000  1.0
