# generated using pymatgen
data_Zn4H32C36O17
_symmetry_space_group_name_H-M   'P 1'
_cell_length_a   17.80450000
_cell_length_b   18.64630000
_cell_length_c   23.36510000
_cell_angle_alpha   66.59720000
_cell_angle_beta   69.70220000
_cell_angle_gamma   89.94600000
_symmetry_Int_Tables_number   1
_chemical_formula_structural   Zn4H32C36O17
_chemical_formula_sum   'Zn8 H64 C72 O34'
_cell_volume   6591.83042011
_cell_formula_units_Z   2
loop_
 _symmetry_equiv_pos_site_id
 _symmetry_equiv_pos_as_xyz
  1  'x, y, z'
loop_
 _atom_site_type_symbol
 _atom_site_label
 _atom_site_symmetry_multiplicity
 _atom_site_fract_x
 _atom_site_fract_y
 _atom_site_fract_z
 _atom_site_occupancy
  Zn  Zn0  1  0.11844000  0.53101000  0.94152000  1.0
  Zn  Zn1  1  0.97223000  0.55960000  0.05132000  1.0
  Zn  Zn2  1  0.97603000  0.38924000  0.05096000  1.0
  Zn  Zn3  1  0.93872000  0.53052000  0.93480000  1.0
  Zn  Zn4  1  0.38515000  0.97690000  0.05012000  1.0
  Zn  Zn5  1  0.52918000  0.11601000  0.93694000  1.0
  Zn  Zn6  1  0.52366000  0.94603000  0.93723000  1.0
  Zn  Zn7  1  0.56741000  0.97273000  0.05112000  1.0
  H  H8  1  0.49768000  0.86741000  0.26383000  1.0
  H  H9  1  0.26013000  0.87430000  0.25318000  1.0
  H  H10  1  0.25155000  0.63160000  0.73680000  1.0
  H  H11  1  0.01502000  0.63773000  0.72422000  1.0
  H  H12  1  0.62990000  0.01870000  0.72971000  1.0
  H  H13  1  0.62726000  0.24992000  0.73051000  1.0
  H  H14  1  0.87000000  0.25510000  0.25819000  1.0
  H  H15  1  0.86800000  0.48651000  0.25876000  1.0
  H  H16  1  0.19773000  0.30137000  0.91100000  1.0
  H  H17  1  0.12579000  0.22965000  0.98738000  1.0
  H  H18  1  0.21488000  0.13778000  0.98493000  1.0
  H  H19  1  0.28649000  0.21016000  0.90876000  1.0
  H  H20  1  0.21462000  0.12364000  0.09607000  1.0
  H  H21  1  0.28642000  0.18450000  0.10029000  1.0
  H  H22  1  0.12634000  0.21654000  0.09881000  1.0
  H  H23  1  0.19942000  0.27755000  0.10156000  1.0
  H  H24  1  0.30201000  0.39089000  0.91434000  1.0
  H  H25  1  0.30264000  0.38189000  0.99196000  1.0
  H  H26  1  0.39117000  0.28946000  0.99065000  1.0
  H  H27  1  0.39096000  0.29911000  0.91283000  1.0
  H  H28  1  0.89067000  0.80045000  0.90485000  1.0
  H  H29  1  0.88789000  0.78783000  0.98479000  1.0
  H  H30  1  0.79895000  0.88015000  0.98602000  1.0
  H  H31  1  0.80193000  0.89173000  0.90623000  1.0
  H  H32  1  0.69595000  0.77694000  0.09171000  1.0
  H  H33  1  0.62366000  0.71538000  0.08856000  1.0
  H  H34  1  0.78331000  0.68313000  0.09077000  1.0
  H  H35  1  0.71133000  0.62322000  0.08573000  1.0
  H  H36  1  0.78919000  0.71280000  0.89716000  1.0
  H  H37  1  0.71634000  0.63989000  0.97076000  1.0
  H  H38  1  0.62687000  0.73133000  0.97323000  1.0
  H  H39  1  0.69946000  0.80391000  0.89937000  1.0
  H  H40  1  0.16212000  0.79324000  0.93706000  1.0
  H  H41  1  0.24639000  0.75724000  0.89604000  1.0
  H  H42  1  0.33353000  0.85283000  0.89380000  1.0
  H  H43  1  0.24877000  0.88761000  0.93567000  1.0
  H  H44  1  0.39390000  0.74398000  0.96067000  1.0
  H  H45  1  0.35293000  0.70262000  0.04955000  1.0
  H  H46  1  0.30566000  0.64820000  0.96371000  1.0
  H  H47  1  0.26464000  0.60816000  0.05260000  1.0
  H  H48  1  0.10189000  0.73506000  0.06508000  1.0
  H  H49  1  0.14324000  0.65920000  0.11232000  1.0
  H  H50  1  0.23183000  0.75344000  0.11015000  1.0
  H  H51  1  0.18987000  0.82927000  0.06350000  1.0
  H  H52  1  0.89926000  0.26716000  0.92951000  1.0
  H  H53  1  0.85502000  0.34325000  0.88426000  1.0
  H  H54  1  0.76875000  0.24768000  0.88563000  1.0
  H  H55  1  0.81215000  0.17205000  0.93223000  1.0
  H  H56  1  0.64948000  0.29812000  0.94545000  1.0
  H  H57  1  0.60650000  0.25717000  0.03426000  1.0
  H  H58  1  0.73637000  0.39242000  0.94542000  1.0
  H  H59  1  0.69376000  0.34994000  0.03427000  1.0
  H  H60  1  0.83943000  0.20525000  0.05750000  1.0
  H  H61  1  0.75648000  0.23931000  0.10083000  1.0
  H  H62  1  0.66719000  0.14668000  0.10200000  1.0
  H  H63  1  0.75024000  0.11121000  0.06026000  1.0
  H  H64  1  0.16405000  0.78434000  0.43095000  1.0
  H  H65  1  0.41211000  0.77842000  0.44220000  1.0
  H  H66  1  0.10195000  0.72688000  0.54600000  1.0
  H  H67  1  0.34916000  0.72075000  0.55906000  1.0
  H  H68  1  0.72998000  0.34392000  0.55317000  1.0
  H  H69  1  0.73180000  0.10286000  0.55222000  1.0
  H  H70  1  0.77957000  0.40216000  0.43716000  1.0
  H  H71  1  0.78053000  0.16103000  0.43652000  1.0
  C  C72  1  0.14177000  0.63503000  0.00325000  1.0
  C  C73  1  0.90893000  0.41191000  0.17628000  1.0
  C  C74  1  0.14435000  0.36389000  0.00106000  1.0
  C  C75  1  0.86093000  0.36579000  0.99047000  1.0
  C  C76  1  0.09093000  0.59330000  0.81311000  1.0
  C  C77  1  0.86113000  0.64341000  0.98912000  1.0
  C  C78  1  0.36014000  0.14172000  0.99692000  1.0
  C  C79  1  0.58333000  0.09323000  0.81194000  1.0
  C  C80  1  0.35580000  0.86314000  0.99819000  1.0
  C  C81  1  0.64418000  0.86528000  0.99235000  1.0
  C  C82  1  0.41971000  0.91264000  0.17583000  1.0
  C  C83  1  0.64686000  0.13985000  0.99234000  1.0
  C  C84  1  0.38248000  0.87444000  0.25134000  1.0
  C  C85  1  0.43193000  0.85510000  0.28889000  1.0
  C  C86  1  0.39623000  0.82009000  0.35889000  1.0
  C  C87  1  0.31044000  0.80340000  0.39260000  1.0
  C  C88  1  0.26211000  0.82363000  0.35285000  1.0
  C  C89  1  0.29780000  0.85889000  0.28300000  1.0
  C  C90  1  0.27364000  0.76789000  0.46361000  1.0
  C  C91  1  0.24021000  0.73700000  0.52550000  1.0
  C  C92  1  0.20293000  0.70159000  0.59646000  1.0
  C  C93  1  0.25065000  0.68154000  0.63674000  1.0
  C  C94  1  0.21433000  0.64661000  0.70660000  1.0
  C  C95  1  0.12962000  0.63103000  0.73766000  1.0
  C  C96  1  0.08078000  0.65006000  0.69956000  1.0
  C  C97  1  0.11708000  0.68500000  0.62964000  1.0
  C  C98  1  0.62406000  0.13091000  0.73685000  1.0
  C  C99  1  0.64419000  0.08278000  0.70232000  1.0
  C  C100  1  0.68305000  0.11772000  0.63267000  1.0
  C  C101  1  0.70202000  0.20142000  0.59642000  1.0
  C  C102  1  0.68182000  0.24848000  0.63316000  1.0
  C  C103  1  0.64272000  0.21348000  0.70280000  1.0
  C  C104  1  0.73912000  0.23699000  0.52556000  1.0
  C  C105  1  0.76972000  0.26817000  0.46357000  1.0
  C  C106  1  0.80418000  0.30372000  0.39259000  1.0
  C  C107  1  0.82215000  0.25662000  0.35583000  1.0
  C  C108  1  0.85632000  0.29162000  0.28591000  1.0
  C  C109  1  0.87251000  0.37425000  0.25162000  1.0
  C  C110  1  0.85522000  0.42239000  0.28624000  1.0
  C  C111  1  0.82130000  0.38743000  0.35618000  1.0
  C  C112  1  0.18920000  0.25920000  0.96248000  1.0
  C  C113  1  0.24831000  0.19824000  0.96099000  1.0
  C  C114  1  0.30330000  0.20254000  0.99872000  1.0
  C  C115  1  0.24829000  0.18392000  0.07212000  1.0
  C  C116  1  0.18988000  0.24545000  0.07342000  1.0
  C  C117  1  0.20410000  0.30545000  0.00095000  1.0
  C  C118  1  0.29235000  0.34771000  0.96563000  1.0
  C  C119  1  0.35106000  0.28672000  0.96462000  1.0
  C  C120  1  0.84975000  0.78666000  0.95684000  1.0
  C  C121  1  0.79059000  0.84776000  0.95777000  1.0
  C  C122  1  0.70187000  0.80494000  0.99090000  1.0
  C  C123  1  0.68719000  0.74480000  0.06346000  1.0
  C  C124  1  0.74556000  0.68336000  0.06225000  1.0
  C  C125  1  0.80153000  0.70217000  0.98892000  1.0
  C  C126  1  0.74945000  0.70012000  0.94911000  1.0
  C  C127  1  0.69020000  0.76069000  0.95057000  1.0
  C  C128  1  0.21884000  0.77132000  0.93949000  1.0
  C  C129  1  0.27676000  0.83437000  0.93821000  1.0
  C  C130  1  0.29687000  0.80042000  0.00241000  1.0
  C  C131  1  0.33694000  0.72631000  0.00475000  1.0
  C  C132  1  0.27843000  0.66326000  0.00661000  1.0
  C  C133  1  0.19858000  0.69448000  0.00493000  1.0
  C  C134  1  0.15926000  0.71391000  0.06580000  1.0
  C  C135  1  0.21771000  0.77645000  0.06448000  1.0
  C  C136  1  0.84127000  0.28781000  0.92984000  1.0
  C  C137  1  0.78337000  0.22460000  0.93103000  1.0
  C  C138  1  0.70365000  0.19961000  0.99382000  1.0
  C  C139  1  0.66425000  0.27429000  0.99071000  1.0
  C  C140  1  0.72218000  0.33644000  0.99050000  1.0
  C  C141  1  0.80172000  0.30490000  0.99255000  1.0
  C  C142  1  0.78254000  0.22709000  0.05618000  1.0
  C  C143  1  0.72376000  0.16515000  0.05734000  1.0
  O  O144  1  0.00101000  0.50320000  0.99352000  1.0
  O  O145  1  0.17179000  0.60708000  0.95975000  1.0
  O  O146  1  0.91965000  0.48734000  0.14735000  1.0
  O  O147  1  0.07050000  0.33490000  0.03999000  1.0
  O  O148  1  0.06825000  0.61895000  0.04416000  1.0
  O  O149  1  0.17175000  0.43667000  0.96156000  1.0
  O  O150  1  0.92625000  0.36541000  0.14727000  1.0
  O  O151  1  0.89932000  0.33949000  0.02964000  1.0
  O  O152  1  0.01354000  0.57998000  0.83934000  1.0
  O  O153  1  0.86885000  0.43792000  0.94925000  1.0
  O  O154  1  0.13904000  0.57773000  0.84465000  1.0
  O  O155  1  0.90063000  0.63564000  0.02706000  1.0
  O  O156  1  0.86763000  0.60702000  0.95195000  1.0
  O  O157  1  0.50166000  0.00221000  0.99512000  1.0
  O  O158  1  0.32850000  0.06883000  0.03192000  1.0
  O  O159  1  0.56465000  0.13971000  0.84088000  1.0
  O  O160  1  0.42712000  0.87939000  0.95314000  1.0
  O  O161  1  0.43491000  0.16801000  0.96016000  1.0
  O  O162  1  0.32986000  0.89533000  0.03884000  1.0
  O  O163  1  0.57097000  0.01775000  0.84085000  1.0
  O  O164  1  0.60347000  0.87699000  0.95501000  1.0
  O  O165  1  0.49689000  0.92233000  0.14809000  1.0
  O  O166  1  0.64098000  0.89952000  0.03075000  1.0
  O  O167  1  0.37030000  0.93233000  0.14574000  1.0
  O  O168  1  0.61775000  0.16643000  0.94636000  1.0
  O  O169  1  0.63287000  0.06841000  0.03619000  1.0
  O  O170  1  0.17948000  0.80906000  0.38216000  1.0
  O  O171  1  0.44589000  0.80227000  0.39423000  1.0
  O  O172  1  0.06789000  0.70291000  0.59389000  1.0
  O  O173  1  0.33329000  0.69606000  0.60790000  1.0
  O  O174  1  0.70008000  0.32902000  0.60106000  1.0
  O  O175  1  0.70229000  0.06966000  0.60009000  1.0
  O  O176  1  0.80484000  0.43548000  0.38887000  1.0
  O  O177  1  0.80629000  0.17602000  0.38821000  1.0
