# generated using pymatgen
data_RbH5C14N4O
_symmetry_space_group_name_H-M   'P 1'
_cell_length_a   8.50871000
_cell_length_b   9.38150000
_cell_length_c   17.74170000
_cell_angle_alpha   90.00010000
_cell_angle_beta   90.00010000
_cell_angle_gamma   71.94100000
_symmetry_Int_Tables_number   1
_chemical_formula_structural   RbH5C14N4O
_chemical_formula_sum   'Rb4 H20 C56 N16 O4'
_cell_volume   1346.45548267
_cell_formula_units_Z   4
loop_
 _symmetry_equiv_pos_site_id
 _symmetry_equiv_pos_as_xyz
  1  'x, y, z'
loop_
 _atom_site_type_symbol
 _atom_site_label
 _atom_site_symmetry_multiplicity
 _atom_site_fract_x
 _atom_site_fract_y
 _atom_site_fract_z
 _atom_site_occupancy
  Rb  Rb0  1  0.87084000  0.77907000  0.16526000  1.0
  Rb  Rb1  1  0.62916000  0.22093000  0.66526000  1.0
  Rb  Rb2  1  0.12916000  0.22093000  0.83474000  1.0
  Rb  Rb3  1  0.37084000  0.77907000  0.33473000  1.0
  H  H4  1  0.80884000  0.43283000  0.02677000  1.0
  H  H5  1  0.69115000  0.56717000  0.52677000  1.0
  H  H6  1  0.19115000  0.56717000  0.97323000  1.0
  H  H7  1  0.30885000  0.43283000  0.47323000  1.0
  H  H8  1  0.59466000  0.47873000  0.12842000  1.0
  H  H9  1  0.90533000  0.52128000  0.62841000  1.0
  H  H10  1  0.40534000  0.52127000  0.87159000  1.0
  H  H11  1  0.09466000  0.47873000  0.37158000  1.0
  H  H12  1  0.35252000  0.70917000  0.12534000  1.0
  H  H13  1  0.14747000  0.29084000  0.62534000  1.0
  H  H14  1  0.64748000  0.29083000  0.87466000  1.0
  H  H15  1  0.85252000  0.70917000  0.37466000  1.0
  H  H16  1  0.32006000  0.89305000  0.02040000  1.0
  H  H17  1  0.17994000  0.10695000  0.52041000  1.0
  H  H18  1  0.67994000  0.10694000  0.97960000  1.0
  H  H19  1  0.82006000  0.89306000  0.47960000  1.0
  H  H20  1  0.53503000  0.85184000  0.92215000  1.0
  H  H21  1  0.96497000  0.14816000  0.42215000  1.0
  H  H22  1  0.46497000  0.14816000  0.07785000  1.0
  H  H23  1  0.03503000  0.85184000  0.57785000  1.0
  C  C24  1  0.81505000  0.61087000  0.91031000  1.0
  C  C25  1  0.68495000  0.38913000  0.41031000  1.0
  C  C26  1  0.18495000  0.38913000  0.08969000  1.0
  C  C27  1  0.31505000  0.61087000  0.58969000  1.0
  C  C28  1  0.80833000  0.73213000  0.85178000  1.0
  C  C29  1  0.69167000  0.26786000  0.35178000  1.0
  C  C30  1  0.19167000  0.26786000  0.14822000  1.0
  C  C31  1  0.30833000  0.73214000  0.64822000  1.0
  C  C32  1  0.75315000  0.70896000  0.77967000  1.0
  C  C33  1  0.74685000  0.29104000  0.27967000  1.0
  C  C34  1  0.24685000  0.29104000  0.22033000  1.0
  C  C35  1  0.25315000  0.70896000  0.72033000  1.0
  C  C36  1  0.86644000  0.84951000  0.87598000  1.0
  C  C37  1  0.63356000  0.15049000  0.37598000  1.0
  C  C38  1  0.13355000  0.15049000  0.12402000  1.0
  C  C39  1  0.36644000  0.84951000  0.62402000  1.0
  C  C40  1  0.92735000  0.84666000  0.95033000  1.0
  C  C41  1  0.57265000  0.15334000  0.45033000  1.0
  C  C42  1  0.07265000  0.15334000  0.04967000  1.0
  C  C43  1  0.42735000  0.84666000  0.54967000  1.0
  C  C44  1  0.86451000  0.97464000  0.83151000  1.0
  C  C45  1  0.63550000  0.02536000  0.33151000  1.0
  C  C46  1  0.13549000  0.02537000  0.16849000  1.0
  C  C47  1  0.36450000  0.97464000  0.66849000  1.0
  C  C48  1  0.69574000  0.58488000  0.76683000  1.0
  C  C49  1  0.80426000  0.41511000  0.26683000  1.0
  C  C50  1  0.30426000  0.41511000  0.23317000  1.0
  C  C51  1  0.19574000  0.58489000  0.73317000  1.0
  C  C52  1  0.76105000  0.79775000  0.71633000  1.0
  C  C53  1  0.73895000  0.20225000  0.21633000  1.0
  C  C54  1  0.23894000  0.20225000  0.28367000  1.0
  C  C55  1  0.26106000  0.79775000  0.78367000  1.0
  C  C56  1  0.68799000  0.64097000  0.96946000  1.0
  C  C57  1  0.81201000  0.35903000  0.46946000  1.0
  C  C58  1  0.31202000  0.35902000  0.03054000  1.0
  C  C59  1  0.18798000  0.64097000  0.53054000  1.0
  C  C60  1  0.70335000  0.53450000  0.02738000  1.0
  C  C61  1  0.79665000  0.46550000  0.52738000  1.0
  C  C62  1  0.29666000  0.46549000  0.97262000  1.0
  C  C63  1  0.20334000  0.53451000  0.47262000  1.0
  C  C64  1  0.58395000  0.56040000  0.08355000  1.0
  C  C65  1  0.91605000  0.43960000  0.58355000  1.0
  C  C66  1  0.41606000  0.43959000  0.91645000  1.0
  C  C67  1  0.08395000  0.56041000  0.41645000  1.0
  C  C68  1  0.44701000  0.69050000  0.08170000  1.0
  C  C69  1  0.05299000  0.30950000  0.58170000  1.0
  C  C70  1  0.55299000  0.30950000  0.91830000  1.0
  C  C71  1  0.94701000  0.69050000  0.41829000  1.0
  C  C72  1  0.42951000  0.79494000  0.02355000  1.0
  C  C73  1  0.07049000  0.20506000  0.52355000  1.0
  C  C74  1  0.57049000  0.20506000  0.97645000  1.0
  C  C75  1  0.92951000  0.79494000  0.47645000  1.0
  C  C76  1  0.55028000  0.77114000  0.96784000  1.0
  C  C77  1  0.94972000  0.22886000  0.46784000  1.0
  C  C78  1  0.44973000  0.22886000  0.03217000  1.0
  C  C79  1  0.05028000  0.77114000  0.53216000  1.0
  N  N80  1  0.64923000  0.48129000  0.75668000  1.0
  N  N81  1  0.85077000  0.51870000  0.25668000  1.0
  N  N82  1  0.35078000  0.51870000  0.24332000  1.0
  N  N83  1  0.14922000  0.48129000  0.74332000  1.0
  N  N84  1  0.86037000  0.08160000  0.79636000  1.0
  N  N85  1  0.63964000  0.91840000  0.29636000  1.0
  N  N86  1  0.13963000  0.91840000  0.20364000  1.0
  N  N87  1  0.36037000  0.08161000  0.70364000  1.0
  N  N88  1  0.76955000  0.87034000  0.66363000  1.0
  N  N89  1  0.73045000  0.12966000  0.16363000  1.0
  N  N90  1  0.23045000  0.12966000  0.33637000  1.0
  N  N91  1  0.26955000  0.87034000  0.83637000  1.0
  N  N92  1  0.97666000  0.84121000  0.01224000  1.0
  N  N93  1  0.52334000  0.15879000  0.51224000  1.0
  N  N94  1  0.02335000  0.15879000  0.98776000  1.0
  N  N95  1  0.47666000  0.84120000  0.48776000  1.0
  O  O96  1  0.92895000  0.49205000  0.90495000  1.0
  O  O97  1  0.57105000  0.50795000  0.40494000  1.0
  O  O98  1  0.07104000  0.50794000  0.09506000  1.0
  O  O99  1  0.42895000  0.49205000  0.59506000  1.0
