# generated using pymatgen
data_Zn4H33C42N3O16
_symmetry_space_group_name_H-M   'P 1'
_cell_length_a   20.79580000
_cell_length_b   21.42611911
_cell_length_c   21.53260000
_cell_angle_alpha   62.22230217
_cell_angle_beta   61.32700000
_cell_angle_gamma   60.97691667
_symmetry_Int_Tables_number   1
_chemical_formula_structural   Zn4H33C42N3O16
_chemical_formula_sum   'Zn8 H66 C84 N6 O32'
_cell_volume   7012.28695034
_cell_formula_units_Z   2
loop_
 _symmetry_equiv_pos_site_id
 _symmetry_equiv_pos_as_xyz
  1  'x, y, z'
loop_
 _atom_site_type_symbol
 _atom_site_label
 _atom_site_symmetry_multiplicity
 _atom_site_fract_x
 _atom_site_fract_y
 _atom_site_fract_z
 _atom_site_occupancy
  Zn  Zn0  1  0.03423000  0.03545000  0.04373000  1.0
  Zn  Zn1  1  0.04335000  0.88701000  0.04764000  1.0
  Zn  Zn2  1  0.04152000  0.02453000  0.90050000  1.0
  Zn  Zn3  1  0.88083000  0.02845000  0.04841000  1.0
  Zn  Zn4  1  0.45777000  0.45685000  0.47483000  1.0
  Zn  Zn5  1  0.46527000  0.60030000  0.47357000  1.0
  Zn  Zn6  1  0.61708000  0.45236000  0.47552000  1.0
  Zn  Zn7  1  0.45737000  0.46251000  0.61908000  1.0
  H  H8  1  0.11568000  0.94587000  0.22213000  1.0
  H  H9  1  0.18922000  0.87248000  0.31436000  1.0
  H  H10  1  0.21110000  0.75314000  0.15190000  1.0
  H  H11  1  0.37176000  0.56770000  0.30032000  1.0
  H  H12  1  0.26495000  0.65167000  0.17502000  1.0
  H  H13  1  0.31625000  0.51834000  0.20122000  1.0
  H  H14  1  0.36468000  0.50436000  0.25767000  1.0
  H  H15  1  0.26084000  0.53859000  0.28728000  1.0
  H  H16  1  0.40014000  0.60118000  0.09346000  1.0
  H  H17  1  0.43863000  0.59660000  0.15412000  1.0
  H  H18  1  0.38683000  0.68514000  0.10316000  1.0
  H  H19  1  0.22137000  0.10370000  0.94105000  1.0
  H  H20  1  0.30952000  0.18198000  0.87238000  1.0
  H  H21  1  0.13474000  0.20842000  0.75898000  1.0
  H  H22  1  0.26661000  0.38521000  0.58901000  1.0
  H  H23  1  0.13338000  0.28566000  0.67180000  1.0
  H  H24  1  0.15822000  0.33758000  0.53842000  1.0
  H  H25  1  0.22844000  0.37104000  0.52450000  1.0
  H  H26  1  0.24701000  0.27273000  0.55608000  1.0
  H  H27  1  0.05564000  0.41891000  0.62602000  1.0
  H  H28  1  0.12635000  0.44815000  0.61863000  1.0
  H  H29  1  0.07150000  0.40227000  0.70754000  1.0
  H  H30  1  0.93046000  0.21889000  0.10435000  1.0
  H  H31  1  0.86608000  0.30721000  0.18056000  1.0
  H  H32  1  0.73638000  0.14074000  0.22315000  1.0
  H  H33  1  0.57017000  0.27684000  0.39931000  1.0
  H  H34  1  0.63908000  0.15450000  0.29446000  1.0
  H  H35  1  0.49919000  0.18685000  0.35365000  1.0
  H  H36  1  0.49432000  0.24800000  0.39077000  1.0
  H  H37  1  0.52160000  0.27038000  0.29286000  1.0
  H  H38  1  0.59331000  0.07872000  0.42620000  1.0
  H  H39  1  0.59559000  0.14147000  0.45690000  1.0
  H  H40  1  0.68376000  0.08605000  0.40539000  1.0
  H  H41  1  0.10466000  0.73535000  0.94654000  1.0
  H  H42  1  0.16887000  0.64369000  0.87370000  1.0
  H  H43  1  0.21740000  0.88562000  0.75865000  1.0
  H  H44  1  0.37554000  0.75243000  0.58032000  1.0
  H  H45  1  0.27022000  0.90535000  0.65598000  1.0
  H  H46  1  0.32768000  0.94973000  0.52372000  1.0
  H  H47  1  0.37350000  0.85877000  0.51423000  1.0
  H  H48  1  0.27014000  0.89890000  0.54246000  1.0
  H  H49  1  0.40779000  0.90045000  0.61079000  1.0
  H  H50  1  0.44208000  0.80650000  0.61074000  1.0
  H  H51  1  0.38875000  0.82826000  0.69617000  1.0
  H  H52  1  0.94818000  0.74043000  0.22850000  1.0
  H  H53  1  0.88555000  0.64108000  0.31838000  1.0
  H  H54  1  0.74417000  0.87958000  0.16455000  1.0
  H  H55  1  0.57810000  0.73262000  0.30687000  1.0
  H  H56  1  0.64200000  0.88993000  0.18844000  1.0
  H  H57  1  0.50254000  0.92870000  0.22462000  1.0
  H  H58  1  0.50067000  0.83692000  0.27871000  1.0
  H  H59  1  0.52882000  0.88365000  0.30661000  1.0
  H  H60  1  0.59272000  0.87658000  0.11121000  1.0
  H  H61  1  0.60112000  0.78243000  0.16808000  1.0
  H  H62  1  0.68628000  0.80821000  0.11237000  1.0
  H  H63  1  0.93262000  0.08676000  0.75898000  1.0
  H  H64  1  0.86539000  0.16197000  0.66179000  1.0
  H  H65  1  0.73622000  0.20287000  0.90940000  1.0
  H  H66  1  0.56639000  0.37894000  0.76698000  1.0
  H  H67  1  0.63487000  0.27001000  0.92263000  1.0
  H  H68  1  0.49708000  0.33639000  0.96352000  1.0
  H  H69  1  0.49235000  0.37904000  0.87244000  1.0
  H  H70  1  0.51432000  0.28039000  0.91310000  1.0
  H  H71  1  0.59694000  0.40134000  0.91919000  1.0
  H  H72  1  0.60104000  0.43446000  0.82522000  1.0
  H  H73  1  0.68770000  0.37620000  0.84891000  1.0
  C  C74  1  0.11626000  0.89344000  0.12950000  1.0
  C  C75  1  0.16036000  0.85177000  0.18291000  1.0
  C  C76  1  0.15302000  0.88761000  0.22769000  1.0
  C  C77  1  0.19310000  0.84768000  0.27796000  1.0
  C  C78  1  0.24111000  0.77255000  0.28483000  1.0
  C  C79  1  0.24862000  0.73656000  0.23943000  1.0
  C  C80  1  0.20773000  0.77728000  0.18840000  1.0
  C  C81  1  0.33491000  0.62574000  0.29697000  1.0
  C  C82  1  0.33176000  0.65670000  0.34216000  1.0
  C  C83  1  0.38068000  0.60794000  0.39107000  1.0
  C  C84  1  0.28253000  0.73417000  0.34015000  1.0
  C  C85  1  0.31329000  0.62176000  0.19719000  1.0
  C  C86  1  0.31382000  0.54111000  0.23892000  1.0
  C  C87  1  0.38917000  0.62667000  0.13310000  1.0
  C  C88  1  0.12476000  0.10418000  0.89263000  1.0
  C  C89  1  0.17441000  0.15242000  0.85212000  1.0
  C  C90  1  0.22235000  0.14426000  0.88631000  1.0
  C  C91  1  0.27002000  0.18711000  0.84924000  1.0
  C  C92  1  0.26994000  0.24003000  0.77921000  1.0
  C  C93  1  0.21955000  0.25036000  0.74579000  1.0
  C  C94  1  0.17287000  0.20474000  0.78263000  1.0
  C  C95  1  0.26901000  0.34400000  0.64285000  1.0
  C  C96  1  0.32061000  0.33620000  0.67066000  1.0
  C  C97  1  0.37066000  0.38390000  0.62373000  1.0
  C  C98  1  0.32483000  0.28232000  0.74307000  1.0
  C  C99  1  0.16189000  0.32796000  0.64102000  1.0
  C  C100  1  0.20174000  0.32716000  0.56030000  1.0
  C  C101  1  0.10019000  0.40379000  0.64897000  1.0
  C  C102  1  0.87575000  0.12416000  0.11414000  1.0
  C  C103  1  0.83542000  0.17609000  0.15997000  1.0
  C  C104  1  0.87377000  0.22210000  0.14721000  1.0
  C  C105  1  0.83889000  0.27005000  0.18902000  1.0
  C  C106  1  0.76639000  0.27294000  0.24505000  1.0
  C  C107  1  0.72799000  0.22585000  0.25888000  1.0
  C  C108  1  0.76314000  0.17789000  0.21517000  1.0
  C  C109  1  0.62602000  0.27678000  0.35575000  1.0
  C  C110  1  0.65950000  0.32369000  0.34617000  1.0
  C  C111  1  0.61478000  0.37129000  0.39647000  1.0
  C  C112  1  0.73332000  0.32673000  0.28715000  1.0
  C  C113  1  0.61246000  0.17985000  0.33881000  1.0
  C  C114  1  0.52696000  0.22433000  0.34429000  1.0
  C  C115  1  0.62202000  0.11778000  0.41108000  1.0
  C  C116  1  0.11977000  0.86886000  0.89874000  1.0
  C  C117  1  0.15847000  0.81515000  0.85527000  1.0
  C  C118  1  0.14382000  0.74701000  0.88955000  1.0
  C  C119  1  0.17900000  0.69685000  0.85002000  1.0
  C  C120  1  0.23040000  0.71187000  0.77701000  1.0
  C  C121  1  0.24517000  0.78059000  0.74232000  1.0
  C  C122  1  0.20811000  0.83223000  0.78227000  1.0
  C  C123  1  0.33434000  0.73990000  0.63605000  1.0
  C  C124  1  0.32530000  0.67110000  0.66666667  1.0
  C  C125  1  0.37593000  0.61872000  0.62136000  1.0
  C  C126  1  0.26811000  0.65307000  0.73981000  1.0
  C  C127  1  0.31800000  0.86329000  0.62909000  1.0
  C  C128  1  0.32255000  0.89384000  0.54770000  1.0
  C  C129  1  0.39355000  0.84874000  0.63744000  1.0
  C  C130  1  0.88694000  0.87299000  0.13890000  1.0
  C  C131  1  0.84824000  0.81548000  0.19247000  1.0
  C  C132  1  0.88975000  0.74823000  0.23508000  1.0
  C  C133  1  0.85578000  0.69379000  0.28396000  1.0
  C  C134  1  0.78097000  0.70347000  0.29137000  1.0
  C  C135  1  0.73920000  0.77111000  0.24818000  1.0
  C  C136  1  0.77354000  0.82699000  0.19909000  1.0
  C  C137  1  0.63591000  0.72296000  0.30346000  1.0
  C  C138  1  0.67239000  0.65566000  0.34687000  1.0
  C  C139  1  0.62644000  0.60388000  0.39512000  1.0
  C  C140  1  0.74927000  0.64109000  0.34517000  1.0
  C  C141  1  0.61735000  0.84575000  0.21095000  1.0
  C  C142  1  0.53254000  0.87487000  0.25848000  1.0
  C  C143  1  0.62508000  0.82712000  0.14667000  1.0
  C  C144  1  0.87883000  0.09681000  0.89499000  1.0
  C  C145  1  0.83676000  0.14139000  0.83936000  1.0
  C  C146  1  0.87497000  0.12888000  0.76960000  1.0
  C  C147  1  0.83864000  0.17006000  0.71637000  1.0
  C  C148  1  0.76510000  0.22544000  0.72973000  1.0
  C  C149  1  0.72652000  0.23861000  0.79979000  1.0
  C  C150  1  0.76301000  0.19529000  0.85472000  1.0
  C  C151  1  0.62296000  0.33567000  0.75498000  1.0
  C  C152  1  0.65712000  0.32733000  0.68530000  1.0
  C  C153  1  0.61322000  0.37940000  0.63211000  1.0
  C  C154  1  0.73164000  0.26823000  0.66787000  1.0
  C  C155  1  0.61044000  0.31722000  0.88025000  1.0
  C  C156  1  0.52367000  0.32888000  0.90830000  1.0
  C  C157  1  0.62517000  0.38629000  0.86761000  1.0
  N  N158  1  0.29619000  0.66128000  0.24756000  1.0
  N  N159  1  0.21953000  0.30497000  0.67650000  1.0
  N  N160  1  0.65581000  0.22972000  0.31568000  1.0
  N  N161  1  0.29658000  0.79425000  0.66920000  1.0
  N  N162  1  0.66459000  0.77956000  0.25651000  1.0
  N  N163  1  0.65311000  0.29462000  0.81127000  1.0
  O  O164  1  0.99538000  0.99508000  0.00905000  1.0
  O  O165  1  0.12034000  0.85732000  0.09358000  1.0
  O  O166  1  0.07703000  0.96267000  0.12396000  1.0
  O  O167  1  0.39666000  0.64025000  0.41579000  1.0
  O  O168  1  0.40381000  0.53697000  0.40320000  1.0
  O  O169  1  0.27291000  0.76738000  0.37974000  1.0
  O  O170  1  0.09293000  0.09972000  0.85727000  1.0
  O  O171  1  0.11857000  0.06970000  0.96113000  1.0
  O  O172  1  0.40037000  0.39473000  0.65574000  1.0
  O  O173  1  0.37925000  0.41062000  0.55397000  1.0
  O  O174  1  0.36986000  0.26892000  0.77337000  1.0
  O  O175  1  0.83883000  0.08931000  0.11635000  1.0
  O  O176  1  0.94665000  0.11921000  0.07488000  1.0
  O  O177  1  0.65148000  0.39623000  0.40737000  1.0
  O  O178  1  0.54124000  0.38208000  0.42530000  1.0
  O  O179  1  0.76674000  0.37001000  0.26969000  1.0
  O  O180  1  0.11635000  0.93711000  0.86353000  1.0
  O  O181  1  0.09255000  0.84105000  0.96910000  1.0
  O  O182  1  0.38357000  0.54983000  0.65431000  1.0
  O  O183  1  0.40953000  0.64782000  0.55224000  1.0
  O  O184  1  0.24978000  0.59600000  0.77058000  1.0
  O  O185  1  0.84612000  0.93894000  0.10924000  1.0
  O  O186  1  0.95980000  0.85005000  0.12751000  1.0
  O  O187  1  0.66107000  0.53456000  0.42117000  1.0
  O  O188  1  0.55301000  0.63580000  0.40532000  1.0
  O  O189  1  0.78648000  0.58483000  0.38425000  1.0
  O  O190  1  0.83998000  0.09254000  0.96355000  1.0
  O  O191  1  0.95207000  0.06591000  0.86775000  1.0
  O  O192  1  0.64977000  0.38574000  0.56351000  1.0
  O  O193  1  0.54105000  0.41483000  0.66097000  1.0
  O  O194  1  0.76597000  0.25160000  0.60933000  1.0
  O  O195  1  0.50166000  0.49119000  0.51013000  1.0
