# generated using pymatgen
data_CuH8C6IN2O
_symmetry_space_group_name_H-M   'P 1'
_cell_length_a   7.61432000
_cell_length_b   8.03966000
_cell_length_c   15.36190000
_cell_angle_alpha   90.00010000
_cell_angle_beta   90.00010000
_cell_angle_gamma   67.80900000
_symmetry_Int_Tables_number   1
_chemical_formula_structural   CuH8C6IN2O
_chemical_formula_sum   'Cu4 H32 C24 I4 N8 O4'
_cell_volume   870.74674749
_cell_formula_units_Z   4
loop_
 _symmetry_equiv_pos_site_id
 _symmetry_equiv_pos_as_xyz
  1  'x, y, z'
loop_
 _atom_site_type_symbol
 _atom_site_label
 _atom_site_symmetry_multiplicity
 _atom_site_fract_x
 _atom_site_fract_y
 _atom_site_fract_z
 _atom_site_occupancy
  Cu  Cu0  1  0.33747000  0.48642000  0.46225000  1.0
  Cu  Cu1  1  0.33745000  0.98642000  0.03775000  1.0
  Cu  Cu2  1  0.66255000  0.51357000  0.53775000  1.0
  Cu  Cu3  1  0.66254000  0.01358000  0.96225000  1.0
  H  H4  1  0.77107000  0.04603000  0.51602000  1.0
  H  H5  1  0.77106000  0.54603000  0.98398000  1.0
  H  H6  1  0.22894000  0.95396000  0.48398000  1.0
  H  H7  1  0.22893000  0.45397000  0.01602000  1.0
  H  H8  1  0.65246000  0.92367000  0.46042000  1.0
  H  H9  1  0.65246000  0.42367000  0.03958000  1.0
  H  H10  1  0.34755000  0.07633000  0.53958000  1.0
  H  H11  1  0.34754000  0.57633000  0.96042000  1.0
  H  H12  1  0.72763000  0.00290000  0.31906000  1.0
  H  H13  1  0.72764000  0.50291000  0.18094000  1.0
  H  H14  1  0.27236000  0.99710000  0.68094000  1.0
  H  H15  1  0.27237000  0.49710000  0.81906000  1.0
  H  H16  1  0.67718000  0.20365000  0.38156000  1.0
  H  H17  1  0.67718000  0.70365000  0.11844000  1.0
  H  H18  1  0.32282000  0.79635000  0.61844000  1.0
  H  H19  1  0.32282000  0.29635000  0.88156000  1.0
  H  H20  1  0.88291000  0.30037000  0.29550000  1.0
  H  H21  1  0.88291000  0.80037000  0.20451000  1.0
  H  H22  1  0.11708000  0.69964000  0.70451000  1.0
  H  H23  1  0.11709000  0.19963000  0.79550000  1.0
  H  H24  1  0.92663000  0.11045000  0.22584000  1.0
  H  H25  1  0.92662000  0.61044000  0.27416000  1.0
  H  H26  1  0.07337000  0.88956000  0.77416000  1.0
  H  H27  1  0.07338000  0.38954000  0.72584000  1.0
  H  H28  1  0.27336000  0.99006000  0.27606000  1.0
  H  H29  1  0.27335000  0.49006000  0.22394000  1.0
  H  H30  1  0.72664000  0.00996000  0.72394000  1.0
  H  H31  1  0.72665000  0.50994000  0.77606000  1.0
  H  H32  1  0.20184000  0.18243000  0.20862000  1.0
  H  H33  1  0.20184000  0.68242000  0.29139000  1.0
  H  H34  1  0.79815000  0.81759000  0.79138000  1.0
  H  H35  1  0.79816000  0.31758000  0.70862000  1.0
  C  C36  1  0.94614000  0.80002000  0.46563000  1.0
  C  C37  1  0.94614000  0.30001000  0.03437000  1.0
  C  C38  1  0.05387000  0.19998000  0.53437000  1.0
  C  C39  1  0.05386000  0.69999000  0.96563000  1.0
  C  C40  1  0.77694000  0.96170000  0.45877000  1.0
  C  C41  1  0.77693000  0.46171000  0.04123000  1.0
  C  C42  1  0.22307000  0.03829000  0.54123000  1.0
  C  C43  1  0.22307000  0.53830000  0.95877000  1.0
  C  C44  1  0.77598000  0.06293000  0.37421000  1.0
  C  C45  1  0.77598000  0.56294000  0.12579000  1.0
  C  C46  1  0.22402000  0.93707000  0.62579000  1.0
  C  C47  1  0.22403000  0.43707000  0.87421000  1.0
  C  C48  1  0.97473000  0.15775000  0.28547000  1.0
  C  C49  1  0.97472000  0.65775000  0.21453000  1.0
  C  C50  1  0.02527000  0.84226000  0.71453000  1.0
  C  C51  1  0.02528000  0.34224000  0.78547000  1.0
  C  C52  1  0.18163000  0.13377000  0.27349000  1.0
  C  C53  1  0.18163000  0.63378000  0.22651000  1.0
  C  C54  1  0.81836000  0.86624000  0.72651000  1.0
  C  C55  1  0.81837000  0.36622000  0.77349000  1.0
  C  C56  1  0.25070000  0.22662000  0.33747000  1.0
  C  C57  1  0.25070000  0.72663000  0.16253000  1.0
  C  C58  1  0.74930000  0.77338000  0.66253000  1.0
  C  C59  1  0.74931000  0.27337000  0.83746000  1.0
  I  I60  1  0.44810000  0.36253000  0.61969000  1.0
  I  I61  1  0.44809000  0.86253000  0.88031000  1.0
  I  I62  1  0.55190000  0.63747000  0.38031000  1.0
  I  I63  1  0.55190000  0.13747000  0.11969000  1.0
  N  N64  1  0.08883000  0.67670000  0.46986000  1.0
  N  N65  1  0.08882000  0.17671000  0.03014000  1.0
  N  N66  1  0.91118000  0.32329000  0.53014000  1.0
  N  N67  1  0.91118000  0.82329000  0.96986000  1.0
  N  N68  1  0.30715000  0.30465000  0.38699000  1.0
  N  N69  1  0.30713000  0.80465000  0.11302000  1.0
  N  N70  1  0.69286000  0.69534000  0.61302000  1.0
  N  N71  1  0.69286000  0.19533000  0.88698000  1.0
  O  O72  1  0.96445000  0.05352000  0.35874000  1.0
  O  O73  1  0.96445000  0.55352000  0.14126000  1.0
  O  O74  1  0.03555000  0.94648000  0.64126000  1.0
  O  O75  1  0.03555000  0.44648000  0.85874000  1.0
