# generated using pymatgen
data_SbH14C6NClO2F3
_symmetry_space_group_name_H-M   'P 1'
_cell_length_a   8.21865000
_cell_length_b   8.88622727
_cell_length_c   9.10671000
_cell_angle_alpha   75.20671854
_cell_angle_beta   64.87800000
_cell_angle_gamma   62.68272035
_symmetry_Int_Tables_number   1
_chemical_formula_structural   SbH14C6NClO2F3
_chemical_formula_sum   'Sb2 H28 C12 N2 Cl2 O4 F6'
_cell_volume   533.50447757
_cell_formula_units_Z   2
loop_
 _symmetry_equiv_pos_site_id
 _symmetry_equiv_pos_as_xyz
  1  'x, y, z'
loop_
 _atom_site_type_symbol
 _atom_site_label
 _atom_site_symmetry_multiplicity
 _atom_site_fract_x
 _atom_site_fract_y
 _atom_site_fract_z
 _atom_site_occupancy
  Sb  Sb0  1  0.82025000  0.74554000  0.28517000  1.0
  Sb  Sb1  1  0.17976000  0.25446000  0.71483000  1.0
  H  H2  1  0.08933000  0.37800000  0.15011000  1.0
  H  H3  1  0.91067000  0.62200000  0.84989000  1.0
  H  H4  1  0.15745000  0.20769000  0.05453000  1.0
  H  H5  1  0.84255000  0.79231000  0.94546000  1.0
  H  H6  1  0.64118000  0.79646000  0.74036000  1.0
  H  H7  1  0.35882000  0.20354000  0.25964000  1.0
  H  H8  1  0.56913000  0.95167000  0.87016000  1.0
  H  H9  1  0.43086000  0.04833000  0.12984000  1.0
  H  H10  1  0.60302000  0.58359000  0.96943000  1.0
  H  H11  1  0.39699000  0.41641000  0.03057000  1.0
  H  H12  1  0.37946000  0.77177000  0.00208000  1.0
  H  H13  1  0.62055000  0.22822000  0.99792000  1.0
  H  H14  1  0.57145000  0.30711000  0.61179000  1.0
  H  H15  1  0.42854000  0.69289000  0.38821000  1.0
  H  H16  1  0.70837000  0.31558000  0.71533000  1.0
  H  H17  1  0.29163000  0.68442000  0.28467000  1.0
  H  H18  1  0.42515000  0.59105000  0.82778000  1.0
  H  H19  1  0.57485000  0.40895000  0.17222000  1.0
  H  H20  1  0.55274000  0.59729000  0.61400000  1.0
  H  H21  1  0.44727000  0.40270000  0.38600000  1.0
  H  H22  1  0.24504000  0.84669000  0.60375000  1.0
  H  H23  1  0.75497000  0.15331000  0.39625000  1.0
  H  H24  1  0.15004000  0.81217000  0.81832000  1.0
  H  H25  1  0.84997000  0.18783000  0.18168000  1.0
  H  H26  1  0.89118000  0.96576000  0.69439000  1.0
  H  H27  1  0.10882000  0.03424000  0.30561000  1.0
  H  H28  1  0.97893000  0.78241000  0.58920000  1.0
  H  H29  1  0.02107000  0.21759000  0.41081000  1.0
  C  C30  1  0.36040000  0.18510000  0.14436000  1.0
  C  C31  1  0.63960000  0.81490000  0.85564000  1.0
  C  C32  1  0.46667000  0.28142000  0.00598000  1.0
  C  C33  1  0.53333000  0.71858000  0.99402000  1.0
  C  C34  1  0.44071000  0.64792000  0.28091000  1.0
  C  C35  1  0.55928000  0.35208000  0.71909000  1.0
  C  C36  1  0.54527000  0.45675000  0.28535000  1.0
  C  C37  1  0.45473000  0.54326000  0.71465000  1.0
  C  C38  1  0.83384000  0.22353000  0.29635000  1.0
  C  C39  1  0.16616000  0.77647000  0.70365000  1.0
  C  C40  1  0.03235000  0.17290000  0.30379000  1.0
  C  C41  1  0.96765000  0.82710000  0.69621000  1.0
  N  N42  1  0.15363000  0.24555000  0.15573000  1.0
  N  N43  1  0.84637000  0.75445000  0.84427000  1.0
  Cl  Cl44  1  0.50000000  0.00000000  0.50000000  1.0
  Cl  Cl45  1  0.00000000  0.50000000  0.50000000  1.0
  O  O46  1  0.45899000  0.26439000  0.85696000  1.0
  O  O47  1  0.54101000  0.73561000  0.14304000  1.0
  O  O48  1  0.72643000  0.40319000  0.30743000  1.0
  O  O49  1  0.27357000  0.59681000  0.69257000  1.0
  F  F50  1  0.20891000  0.08417000  0.90619000  1.0
  F  F51  1  0.79108000  0.91584000  0.09381000  1.0
  F  F52  1  0.95169000  0.40629000  0.88922000  1.0
  F  F53  1  0.04831000  0.59371000  0.11078000  1.0
  F  F54  1  0.01220000  0.15769000  0.70799000  1.0
  F  F55  1  0.98779000  0.84232000  0.29201000  1.0
