# generated using pymatgen
data_BiH20C14N3O10
_symmetry_space_group_name_H-M   'P 1'
_cell_length_a   8.04954000
_cell_length_b   8.99395000
_cell_length_c   23.28550000
_cell_angle_alpha   96.84230000
_cell_angle_beta   89.99980000
_cell_angle_gamma   89.99870000
_symmetry_Int_Tables_number   1
_chemical_formula_structural   BiH20C14N3O10
_chemical_formula_sum   'Bi4 H80 C56 N12 O40'
_cell_volume   1673.79748013
_cell_formula_units_Z   4
loop_
 _symmetry_equiv_pos_site_id
 _symmetry_equiv_pos_as_xyz
  1  'x, y, z'
loop_
 _atom_site_type_symbol
 _atom_site_label
 _atom_site_symmetry_multiplicity
 _atom_site_fract_x
 _atom_site_fract_y
 _atom_site_fract_z
 _atom_site_occupancy
  Bi  Bi0  1  0.77108000  0.88571000  0.16117000  1.0
  Bi  Bi1  1  0.27110000  0.61429000  0.33884000  1.0
  Bi  Bi2  1  0.22890000  0.11430000  0.83884000  1.0
  Bi  Bi3  1  0.72892000  0.38572000  0.66117000  1.0
  H  H4  1  0.81251000  0.26077000  0.06572000  1.0
  H  H5  1  0.31252000  0.23921000  0.43428000  1.0
  H  H6  1  0.18749000  0.73922000  0.93428000  1.0
  H  H7  1  0.68750000  0.76079000  0.56572000  1.0
  H  H8  1  0.98581000  0.36257000  0.38664000  1.0
  H  H9  1  0.48580000  0.13740000  0.11337000  1.0
  H  H10  1  0.01420000  0.63741000  0.61337000  1.0
  H  H11  1  0.51418000  0.86260000  0.88663000  1.0
  H  H12  1  0.00464000  0.55535000  0.14210000  1.0
  H  H13  1  0.50465000  0.94464000  0.35791000  1.0
  H  H14  1  0.99536000  0.44463000  0.85790000  1.0
  H  H15  1  0.49537000  0.05536000  0.64209000  1.0
  H  H16  1  0.20151000  0.61767000  0.16963000  1.0
  H  H17  1  0.70152000  0.88232000  0.33037000  1.0
  H  H18  1  0.79848000  0.38231000  0.83037000  1.0
  H  H19  1  0.29849000  0.11768000  0.66963000  1.0
  H  H20  1  0.50484000  0.75644000  0.03574000  1.0
  H  H21  1  0.00486000  0.74355000  0.46426000  1.0
  H  H22  1  0.49515000  0.24356000  0.96425000  1.0
  H  H23  1  0.99514000  0.25644000  0.53573000  1.0
  H  H24  1  0.61516000  0.59193000  0.01107000  1.0
  H  H25  1  0.11517000  0.90806000  0.48894000  1.0
  H  H26  1  0.38484000  0.40808000  0.98893000  1.0
  H  H27  1  0.88484000  0.09193000  0.51106000  1.0
  H  H28  1  0.88828000  0.92020000  0.00411000  1.0
  H  H29  1  0.38829000  0.57979000  0.49590000  1.0
  H  H30  1  0.11172000  0.07981000  0.99589000  1.0
  H  H31  1  0.61171000  0.42023000  0.50410000  1.0
  H  H32  1  0.70244000  0.84501000  0.97150000  1.0
  H  H33  1  0.20246000  0.65497000  0.52850000  1.0
  H  H34  1  0.29755000  0.15500000  0.02849000  1.0
  H  H35  1  0.79754000  0.34503000  0.47150000  1.0
  H  H36  1  0.95783000  0.31464000  0.20901000  1.0
  H  H37  1  0.45783000  0.18535000  0.29098000  1.0
  H  H38  1  0.04216000  0.68536000  0.79099000  1.0
  H  H39  1  0.54215000  0.81465000  0.70902000  1.0
  H  H40  1  0.14628000  0.24538000  0.17700000  1.0
  H  H41  1  0.64628000  0.25461000  0.32300000  1.0
  H  H42  1  0.85371000  0.75462000  0.82301000  1.0
  H  H43  1  0.35370000  0.74540000  0.67699000  1.0
  H  H44  1  0.80016000  0.14502000  0.26868000  1.0
  H  H45  1  0.30015000  0.35496000  0.23132000  1.0
  H  H46  1  0.19984000  0.85498000  0.73132000  1.0
  H  H47  1  0.69983000  0.64504000  0.76868000  1.0
  H  H48  1  0.93382000  0.01199000  0.29453000  1.0
  H  H49  1  0.43382000  0.48800000  0.20547000  1.0
  H  H50  1  0.06617000  0.98800000  0.70547000  1.0
  H  H51  1  0.56617000  0.51201000  0.79453000  1.0
  H  H52  1  0.26502000  0.06087000  0.22253000  1.0
  H  H53  1  0.76502000  0.43912000  0.27747000  1.0
  H  H54  1  0.73497000  0.93912000  0.77748000  1.0
  H  H55  1  0.23498000  0.56088000  0.72252000  1.0
  H  H56  1  0.14548000  0.91974000  0.24836000  1.0
  H  H57  1  0.64547000  0.58026000  0.25164000  1.0
  H  H58  1  0.85451000  0.08026000  0.75165000  1.0
  H  H59  1  0.35453000  0.41975000  0.74835000  1.0
  H  H60  1  0.30372000  0.83819000  0.15855000  1.0
  H  H61  1  0.80371000  0.66179000  0.34145000  1.0
  H  H62  1  0.69629000  0.16180000  0.84145000  1.0
  H  H63  1  0.19629000  0.33821000  0.65855000  1.0
  H  H64  1  0.19731000  0.97004000  0.12135000  1.0
  H  H65  1  0.69730000  0.52995000  0.37865000  1.0
  H  H66  1  0.80270000  0.02995000  0.87866000  1.0
  H  H67  1  0.30270000  0.47005000  0.62134000  1.0
  H  H68  1  0.09637000  0.84375000  0.05321000  1.0
  H  H69  1  0.59637000  0.65624000  0.44679000  1.0
  H  H70  1  0.90365000  0.15626000  0.94679000  1.0
  H  H71  1  0.40364000  0.34376000  0.55321000  1.0
  H  H72  1  0.17105000  0.66501000  0.06314000  1.0
  H  H73  1  0.67107000  0.83497000  0.43687000  1.0
  H  H74  1  0.82894000  0.33498000  0.93687000  1.0
  H  H75  1  0.32894000  0.16503000  0.56313000  1.0
  H  H76  1  0.87619000  0.57022000  0.06554000  1.0
  H  H77  1  0.37619000  0.92977000  0.43447000  1.0
  H  H78  1  0.12381000  0.42978000  0.93446000  1.0
  H  H79  1  0.62382000  0.07024000  0.56553000  1.0
  H  H80  1  0.93118000  0.63585000  0.99932000  1.0
  H  H81  1  0.43119000  0.86413000  0.50068000  1.0
  H  H82  1  0.06883000  0.36415000  0.00068000  1.0
  H  H83  1  0.56882000  0.13586000  0.49931000  1.0
  C  C84  1  0.99130000  0.66652000  0.22656000  1.0
  C  C85  1  0.49130000  0.83347000  0.27344000  1.0
  C  C86  1  0.00870000  0.33347000  0.77344000  1.0
  C  C87  1  0.50870000  0.16653000  0.72656000  1.0
  C  C88  1  0.07021000  0.64943000  0.16689000  1.0
  C  C89  1  0.57021000  0.85057000  0.33311000  1.0
  C  C90  1  0.92979000  0.35056000  0.83311000  1.0
  C  C91  1  0.42980000  0.14944000  0.66689000  1.0
  C  C92  1  0.55319000  0.61933000  0.10199000  1.0
  C  C93  1  0.05320000  0.88066000  0.39801000  1.0
  C  C94  1  0.44680000  0.38067000  0.89800000  1.0
  C  C95  1  0.94681000  0.11934000  0.60199000  1.0
  C  C96  1  0.60604000  0.68343000  0.04702000  1.0
  C  C97  1  0.10605000  0.81656000  0.45298000  1.0
  C  C98  1  0.39396000  0.31658000  0.95297000  1.0
  C  C99  1  0.89395000  0.18344000  0.54702000  1.0
  C  C100  1  0.66841000  0.02923000  0.03905000  1.0
  C  C101  1  0.16842000  0.47075000  0.46095000  1.0
  C  C102  1  0.33158000  0.97076000  0.96095000  1.0
  C  C103  1  0.83158000  0.52926000  0.53905000  1.0
  C  C104  1  0.76075000  0.88794000  0.01310000  1.0
  C  C105  1  0.26076000  0.61204000  0.48690000  1.0
  C  C106  1  0.23925000  0.11206000  0.98690000  1.0
  C  C107  1  0.73924000  0.38797000  0.51310000  1.0
  C  C108  1  0.93782000  0.18909000  0.12501000  1.0
  C  C109  1  0.43783000  0.31090000  0.37499000  1.0
  C  C110  1  0.06217000  0.81090000  0.87499000  1.0
  C  C111  1  0.56217000  0.68911000  0.62501000  1.0
  C  C112  1  0.01515000  0.21701000  0.18418000  1.0
  C  C113  1  0.51515000  0.28297000  0.31582000  1.0
  C  C114  1  0.98485000  0.78298000  0.81582000  1.0
  C  C115  1  0.48484000  0.71703000  0.68418000  1.0
  C  C116  1  0.01481000  0.23562000  0.31359000  1.0
  C  C117  1  0.51480000  0.26437000  0.18641000  1.0
  C  C118  1  0.98520000  0.76438000  0.68641000  1.0
  C  C119  1  0.48519000  0.73563000  0.81359000  1.0
  C  C120  1  0.93101000  0.11438000  0.27294000  1.0
  C  C121  1  0.43100000  0.38561000  0.22706000  1.0
  C  C122  1  0.06898000  0.88562000  0.72706000  1.0
  C  C123  1  0.56898000  0.61440000  0.77294000  1.0
  C  C124  1  0.15428000  0.99046000  0.21333000  1.0
  C  C125  1  0.65428000  0.50953000  0.28667000  1.0
  C  C126  1  0.84572000  0.00953000  0.78668000  1.0
  C  C127  1  0.34572000  0.49047000  0.71332000  1.0
  C  C128  1  0.18483000  0.89697000  0.15544000  1.0
  C  C129  1  0.68482000  0.60301000  0.34456000  1.0
  C  C130  1  0.81518000  0.10302000  0.84457000  1.0
  C  C131  1  0.31518000  0.39699000  0.65543000  1.0
  C  C132  1  0.06555000  0.74225000  0.07254000  1.0
  C  C133  1  0.56556000  0.75775000  0.42746000  1.0
  C  C134  1  0.93445000  0.25776000  0.92746000  1.0
  C  C135  1  0.43445000  0.24226000  0.57253000  1.0
  C  C136  1  0.90804000  0.67133000  0.04567000  1.0
  C  C137  1  0.40805000  0.82866000  0.45434000  1.0
  C  C138  1  0.09196000  0.32867000  0.95433000  1.0
  C  C139  1  0.59196000  0.17135000  0.54566000  1.0
  N  N140  1  0.05291000  0.78361000  0.13631000  1.0
  N  N141  1  0.55291000  0.71639000  0.36369000  1.0
  N  N142  1  0.94709000  0.21639000  0.86369000  1.0
  N  N143  1  0.44710000  0.28361000  0.63631000  1.0
  N  N144  1  0.76155000  0.77128000  0.05292000  1.0
  N  N145  1  0.26157000  0.72871000  0.44708000  1.0
  N  N146  1  0.23845000  0.22872000  0.94708000  1.0
  N  N147  1  0.73844000  0.27130000  0.55292000  1.0
  N  N148  1  0.00215000  0.08260000  0.21489000  1.0
  N  N149  1  0.50214000  0.41739000  0.28511000  1.0
  N  N150  1  0.99785000  0.91740000  0.78511000  1.0
  N  N151  1  0.49785000  0.58261000  0.71489000  1.0
  O  O152  1  0.87444000  0.76347000  0.23707000  1.0
  O  O153  1  0.37445000  0.73653000  0.26293000  1.0
  O  O154  1  0.12556000  0.23653000  0.76293000  1.0
  O  O155  1  0.62556000  0.26347000  0.73707000  1.0
  O  O156  1  0.03841000  0.57939000  0.26181000  1.0
  O  O157  1  0.53841000  0.92061000  0.23820000  1.0
  O  O158  1  0.96158000  0.42061000  0.73819000  1.0
  O  O159  1  0.46159000  0.07940000  0.76181000  1.0
  O  O160  1  0.64205000  0.65529000  0.14872000  1.0
  O  O161  1  0.14207000  0.84469000  0.35129000  1.0
  O  O162  1  0.35793000  0.34471000  0.85128000  1.0
  O  O163  1  0.85795000  0.15531000  0.64872000  1.0
  O  O164  1  0.42722000  0.53940000  0.10011000  1.0
  O  O165  1  0.92722000  0.96059000  0.39989000  1.0
  O  O166  1  0.57278000  0.46060000  0.89987000  1.0
  O  O167  1  0.07279000  0.03941000  0.60011000  1.0
  O  O168  1  0.56714000  0.01123000  0.08024000  1.0
  O  O169  1  0.06715000  0.48875000  0.41977000  1.0
  O  O170  1  0.43285000  0.98877000  0.91976000  1.0
  O  O171  1  0.93286000  0.51125000  0.58023000  1.0
  O  O172  1  0.69747000  0.15196000  0.01970000  1.0
  O  O173  1  0.19749000  0.34802000  0.48030000  1.0
  O  O174  1  0.30253000  0.84804000  0.98030000  1.0
  O  O175  1  0.80253000  0.65199000  0.51970000  1.0
  O  O176  1  0.92992000  0.05991000  0.09973000  1.0
  O  O177  1  0.42991000  0.44008000  0.40027000  1.0
  O  O178  1  0.07009000  0.94008000  0.90027000  1.0
  O  O179  1  0.57009000  0.55993000  0.59973000  1.0
  O  O180  1  0.88300000  0.30527000  0.10043000  1.0
  O  O181  1  0.38301000  0.19472000  0.39957000  1.0
  O  O182  1  0.11699000  0.69472000  0.89958000  1.0
  O  O183  1  0.61700000  0.80529000  0.60043000  1.0
  O  O184  1  0.92050000  0.28171000  0.35861000  1.0
  O  O185  1  0.42050000  0.21828000  0.14139000  1.0
  O  O186  1  0.07950000  0.71829000  0.64139000  1.0
  O  O187  1  0.57949000  0.78172000  0.85861000  1.0
  O  O188  1  0.15497000  0.28548000  0.30516000  1.0
  O  O189  1  0.65496000  0.21451000  0.19484000  1.0
  O  O190  1  0.84504000  0.71451000  0.69484000  1.0
  O  O191  1  0.34502000  0.78550000  0.80516000  1.0
