# generated using pymatgen
data_FeH18C24(N2O)2
_symmetry_space_group_name_H-M   'P 1'
_cell_length_a   19.25730000
_cell_length_b   19.25730000
_cell_length_c   19.34241947
_cell_angle_alpha   119.85460049
_cell_angle_beta   119.84960128
_cell_angle_gamma   90.00450000
_symmetry_Int_Tables_number   1
_chemical_formula_structural   FeH18C24(N2O)2
_chemical_formula_sum   'Fe8 H144 C192 N32 O16'
_cell_volume   5094.48225417
_cell_formula_units_Z   8
loop_
 _symmetry_equiv_pos_site_id
 _symmetry_equiv_pos_as_xyz
  1  'x, y, z'
loop_
 _atom_site_type_symbol
 _atom_site_label
 _atom_site_symmetry_multiplicity
 _atom_site_fract_x
 _atom_site_fract_y
 _atom_site_fract_z
 _atom_site_occupancy
  Fe  Fe0  1  0.27973000  0.27977000  0.55938000  1.0
  Fe  Fe1  1  0.72024000  0.72024000  0.44056000  1.0
  Fe  Fe2  1  0.97032000  0.47034000  0.94056000  1.0
  Fe  Fe3  1  0.52961000  0.02966000  0.05940000  1.0
  Fe  Fe4  1  0.62499000  0.67090000  0.74997000  1.0
  Fe  Fe5  1  0.12504000  0.07909000  0.75011000  1.0
  Fe  Fe6  1  0.92105000  0.37508000  0.25012000  1.0
  Fe  Fe7  1  0.32910000  0.87499000  0.25000000  1.0
  H  H8  1  0.89219000  0.84925000  0.00076000  1.0
  H  H9  1  0.94719000  0.89174000  0.16848000  1.0
  H  H10  1  0.86638000  0.81386000  0.19214000  1.0
  H  H11  1  0.73124000  0.69739000  0.05027000  1.0
  H  H12  1  0.67923000  0.57073000  0.91665000  1.0
  H  H13  1  0.59346000  0.43971000  0.84816000  1.0
  H  H14  1  0.44993000  0.32993000  0.73436000  1.0
  H  H15  1  0.34068000  0.46316000  0.61775000  1.0
  H  H16  1  0.47914000  0.57756000  0.72347000  1.0
  H  H17  1  0.09182000  0.42323000  0.57722000  1.0
  H  H18  1  0.94407000  0.34408000  0.50211000  1.0
  H  H19  1  0.89223000  0.18624000  0.40187000  1.0
  H  H20  1  0.99009000  0.10709000  0.38077000  1.0
  H  H21  1  0.09942000  0.06819000  0.43024000  1.0
  H  H22  1  0.18664000  0.96858000  0.43481000  1.0
  H  H23  1  0.27022000  0.89174000  0.37520000  1.0
  H  H24  1  0.29411000  0.04341000  0.28915000  1.0
  H  H25  1  0.21206000  0.12658000  0.34483000  1.0
  H  H26  1  0.10851000  0.15164000  0.00085000  1.0
  H  H27  1  0.22136000  0.27687000  0.16849000  1.0
  H  H28  1  0.32581000  0.37823000  0.19194000  1.0
  H  H29  1  0.31890000  0.35269000  0.04993000  1.0
  H  H30  1  0.23714000  0.34562000  0.91624000  1.0
  H  H31  1  0.25438000  0.40821000  0.84796000  1.0
  H  H32  1  0.28437000  0.40456000  0.73449000  1.0
  H  H33  1  0.27728000  0.15477000  0.61765000  1.0
  H  H34  1  0.24421000  0.14568000  0.72296000  1.0
  H  H35  1  0.48534000  0.15397000  0.57708000  1.0
  H  H36  1  0.55798000  0.15802000  0.50197000  1.0
  H  H37  1  0.50953000  0.21565000  0.40175000  1.0
  H  H38  1  0.39056000  0.27365000  0.38065000  1.0
  H  H39  1  0.33088000  0.36206000  0.43020000  1.0
  H  H40  1  0.24831000  0.46634000  0.43484000  1.0
  H  H41  1  0.10511000  0.48357000  0.37519000  1.0
  H  H42  1  0.99514000  0.24597000  0.28941000  1.0
  H  H43  1  0.13289000  0.21854000  0.34517000  1.0
  H  H44  1  0.84864000  0.10783000  0.99946000  1.0
  H  H45  1  0.72357000  0.05293000  0.83171000  1.0
  H  H46  1  0.62210000  0.13376000  0.80798000  1.0
  H  H47  1  0.64735000  0.26879000  0.94982000  1.0
  H  H48  1  0.65419000  0.32084000  0.08343000  1.0
  H  H49  1  0.59160000  0.40651000  0.15179000  1.0
  H  H50  1  0.59549000  0.54998000  0.26553000  1.0
  H  H51  1  0.84530000  0.65946000  0.38229000  1.0
  H  H52  1  0.85417000  0.52108000  0.27670000  1.0
  H  H53  1  0.84593000  0.90802000  0.42260000  1.0
  H  H54  1  0.84177000  0.05575000  0.49755000  1.0
  H  H55  1  0.78429000  0.10763000  0.59793000  1.0
  H  H56  1  0.72642000  0.00987000  0.61928000  1.0
  H  H57  1  0.63802000  0.90059000  0.56982000  1.0
  H  H58  1  0.53372000  0.81326000  0.56505000  1.0
  H  H59  1  0.51642000  0.72973000  0.62470000  1.0
  H  H60  1  0.75406000  0.70565000  0.71060000  1.0
  H  H61  1  0.78158000  0.78767000  0.65491000  1.0
  H  H62  1  0.15085000  0.89155000  0.99935000  1.0
  H  H63  1  0.10831000  0.77870000  0.83163000  1.0
  H  H64  1  0.18605000  0.67412000  0.80800000  1.0
  H  H65  1  0.30255000  0.68092000  0.94990000  1.0
  H  H66  1  0.42929000  0.76268000  0.08356000  1.0
  H  H67  1  0.56025000  0.74545000  0.15191000  1.0
  H  H68  1  0.67012000  0.71566000  0.26556000  1.0
  H  H69  1  0.53706000  0.72277000  0.38231000  1.0
  H  H70  1  0.42266000  0.75571000  0.27687000  1.0
  H  H71  1  0.57684000  0.51446000  0.42294000  1.0
  H  H72  1  0.65618000  0.44206000  0.49830000  1.0
  H  H73  1  0.81403000  0.49065000  0.59849000  1.0
  H  H74  1  0.89298000  0.60961000  0.61941000  1.0
  H  H75  1  0.93173000  0.66921000  0.56976000  1.0
  H  H76  1  0.03138000  0.75180000  0.56522000  1.0
  H  H77  1  0.10834000  0.89498000  0.62489000  1.0
  H  H78  1  0.95654000  0.00498000  0.71067000  1.0
  H  H79  1  0.87329000  0.86727000  0.65497000  1.0
  H  H80  1  0.35778000  0.59847000  0.49932000  1.0
  H  H81  1  0.30292000  0.47329000  0.33161000  1.0
  H  H82  1  0.38387000  0.37192000  0.30798000  1.0
  H  H83  1  0.51896000  0.39734000  0.44989000  1.0
  H  H84  1  0.57088000  0.40426000  0.58355000  1.0
  H  H85  1  0.65646000  0.34166000  0.65191000  1.0
  H  H86  1  0.79992000  0.34545000  0.76556000  1.0
  H  H87  1  0.90953000  0.59526000  0.88231000  1.0
  H  H88  1  0.77114000  0.60422000  0.77687000  1.0
  H  H89  1  0.15850000  0.59611000  0.92296000  1.0
  H  H90  1  0.30625000  0.59212000  0.99831000  1.0
  H  H91  1  0.35786000  0.53445000  0.09849000  1.0
  H  H92  1  0.25981000  0.47643000  0.11941000  1.0
  H  H93  1  0.15057000  0.38805000  0.06978000  1.0
  H  H94  1  0.06343000  0.28385000  0.06522000  1.0
  H  H95  1  0.97992000  0.26655000  0.12488000  1.0
  H  H96  1  0.95570000  0.50414000  0.21068000  1.0
  H  H97  1  0.03770000  0.53168000  0.15497000  1.0
  H  H98  1  0.14162000  0.90083000  0.49944000  1.0
  H  H99  1  0.02877000  0.85815000  0.33169000  1.0
  H  H100  1  0.92420000  0.93590000  0.30797000  1.0
  H  H101  1  0.93100000  0.05249000  0.44982000  1.0
  H  H102  1  0.01258000  0.17925000  0.58343000  1.0
  H  H103  1  0.99530000  0.31019000  0.65181000  1.0
  H  H104  1  0.96558000  0.42005000  0.76555000  1.0
  H  H105  1  0.97283000  0.28700000  0.88230000  1.0
  H  H106  1  0.00561000  0.17255000  0.77672000  1.0
  H  H107  1  0.76459000  0.32669000  0.92262000  1.0
  H  H108  1  0.69181000  0.40579000  0.99756000  1.0
  H  H109  1  0.74031000  0.56365000  0.09794000  1.0
  H  H110  1  0.85941000  0.64286000  0.11928000  1.0
  H  H111  1  0.91925000  0.68182000  0.06984000  1.0
  H  H112  1  0.00180000  0.78137000  0.06510000  1.0
  H  H113  1  0.14500000  0.85832000  0.12478000  1.0
  H  H114  1  0.25496000  0.70654000  0.21062000  1.0
  H  H115  1  0.11724000  0.62333000  0.15492000  1.0
  H  H116  1  0.40152000  0.85857000  0.50078000  1.0
  H  H117  1  0.52676000  0.97129000  0.66850000  1.0
  H  H118  1  0.62828000  0.07576000  0.69214000  1.0
  H  H119  1  0.60288000  0.06903000  0.55027000  1.0
  H  H120  1  0.59594000  0.98743000  0.41667000  1.0
  H  H121  1  0.65845000  0.00469000  0.34816000  1.0
  H  H122  1  0.65443000  0.03442000  0.23436000  1.0
  H  H123  1  0.40458000  0.02705000  0.11775000  1.0
  H  H124  1  0.39592000  0.99432000  0.22348000  1.0
  H  H125  1  0.40398000  0.23541000  0.07723000  1.0
  H  H126  1  0.40801000  0.30804000  0.00211000  1.0
  H  H127  1  0.46561000  0.25964000  0.90187000  1.0
  H  H128  1  0.52368000  0.14070000  0.88079000  1.0
  H  H129  1  0.61206000  0.08085000  0.93026000  1.0
  H  H130  1  0.71622000  0.99819000  0.93482000  1.0
  H  H131  1  0.73344000  0.85499000  0.87517000  1.0
  H  H132  1  0.49572000  0.74505000  0.78912000  1.0
  H  H133  1  0.46825000  0.88279000  0.84484000  1.0
  H  H134  1  0.09921000  0.64235000  0.50087000  1.0
  H  H135  1  0.14162000  0.69715000  0.66851000  1.0
  H  H136  1  0.06371000  0.61615000  0.69196000  1.0
  H  H137  1  0.94726000  0.48103000  0.54994000  1.0
  H  H138  1  0.82064000  0.42908000  0.41624000  1.0
  H  H139  1  0.68976000  0.34358000  0.34797000  1.0
  H  H140  1  0.57994000  0.20013000  0.23450000  1.0
  H  H141  1  0.71287000  0.09037000  0.11765000  1.0
  H  H142  1  0.82728000  0.22874000  0.22296000  1.0
  H  H143  1  0.67310000  0.84174000  0.07706000  1.0
  H  H144  1  0.59394000  0.69399000  0.00196000  1.0
  H  H145  1  0.43609000  0.64222000  0.90177000  1.0
  H  H146  1  0.35699000  0.74009000  0.88066000  1.0
  H  H147  1  0.31812000  0.84931000  0.93017000  1.0
  H  H148  1  0.21849000  0.93654000  0.93483000  1.0
  H  H149  1  0.14162000  0.02009000  0.87518000  1.0
  H  H150  1  0.29344000  0.04428000  0.78941000  1.0
  H  H151  1  0.37663000  0.96228000  0.84516000  1.0
  C  C152  1  0.78190000  0.74804000  0.93023000  1.0
  C  C153  1  0.85809000  0.81572000  0.01242000  1.0
  C  C154  1  0.88832000  0.83903000  0.10573000  1.0
  C  C155  1  0.84355000  0.79555000  0.11948000  1.0
  C  C156  1  0.76778000  0.72914000  0.03940000  1.0
  C  C157  1  0.73606000  0.70523000  0.94518000  1.0
  C  C158  1  0.63268000  0.57960000  0.86106000  1.0
  C  C159  1  0.54905000  0.51750000  0.79405000  1.0
  C  C160  1  0.53901000  0.44687000  0.79741000  1.0
  C  C161  1  0.45980000  0.38626000  0.73545000  1.0
  C  C162  1  0.39881000  0.46038000  0.66930000  1.0
  C  C163  1  0.47582000  0.52391000  0.72846000  1.0
  C  C164  1  0.12684000  0.31084000  0.52553000  1.0
  C  C165  1  0.06993000  0.35428000  0.53660000  1.0
  C  C166  1  0.98752000  0.30959000  0.49426000  1.0
  C  C167  1  0.95814000  0.22050000  0.43835000  1.0
  C  C168  1  0.01296000  0.17623000  0.42673000  1.0
  C  C169  1  0.09723000  0.22007000  0.47103000  1.0
  C  C170  1  0.14474000  0.10182000  0.42936000  1.0
  C  C171  1  0.19278000  0.05529000  0.39571000  1.0
  C  C172  1  0.20938000  0.98722000  0.40301000  1.0
  C  C173  1  0.25624000  0.94485000  0.37091000  1.0
  C  C174  1  0.26983000  0.02943000  0.32265000  1.0
  C  C175  1  0.22350000  0.07491000  0.35288000  1.0
  C  C176  1  0.14820000  0.18214000  0.93016000  1.0
  C  C177  1  0.15426000  0.19676000  0.01242000  1.0
  C  C178  1  0.21740000  0.26677000  0.10568000  1.0
  C  C179  1  0.27592000  0.32389000  0.11931000  1.0
  C  C180  1  0.27151000  0.31013000  0.03915000  1.0
  C  C181  1  0.20895000  0.23983000  0.94497000  1.0
  C  C182  1  0.22814000  0.28115000  0.86066000  1.0
  C  C183  1  0.24479000  0.27628000  0.79369000  1.0
  C  C184  1  0.25818000  0.35037000  0.79719000  1.0
  C  C185  1  0.27558000  0.34924000  0.73545000  1.0
  C  C186  1  0.27059000  0.20900000  0.66917000  1.0
  C  C187  1  0.25256000  0.20440000  0.72811000  1.0
  C  C188  1  0.39864000  0.21472000  0.52545000  1.0
  C  C189  1  0.46660000  0.18232000  0.53648000  1.0
  C  C190  1  0.50666000  0.18467000  0.49413000  1.0
  C  C191  1  0.48013000  0.21789000  0.43826000  1.0
  C  C192  1  0.41368000  0.25051000  0.42664000  1.0
  C  C193  1  0.37374000  0.25098000  0.47095000  1.0
  C  C194  1  0.28467000  0.32764000  0.42939000  1.0
  C  C195  1  0.20300000  0.34056000  0.39580000  1.0
  C  C196  1  0.19374000  0.41593000  0.40306000  1.0
  C  C197  1  0.11478000  0.42619000  0.37096000  1.0
  C  C198  1  0.05290000  0.29343000  0.32283000  1.0
  C  C199  1  0.12947000  0.27820000  0.35309000  1.0
  C  C200  1  0.81793000  0.21813000  0.06993000  1.0
  C  C201  1  0.80347000  0.14194000  0.98776000  1.0
  C  C202  1  0.73354000  0.11177000  0.89444000  1.0
  C  C203  1  0.67635000  0.15656000  0.88066000  1.0
  C  C204  1  0.68994000  0.23226000  0.96073000  1.0
  C  C205  1  0.76018000  0.26397000  0.05497000  1.0
  C  C206  1  0.71866000  0.36740000  0.13902000  1.0
  C  C207  1  0.72354000  0.45105000  0.20600000  1.0
  C  C208  1  0.64950000  0.46100000  0.20257000  1.0
  C  C209  1  0.65077000  0.54016000  0.26448000  1.0
  C  C210  1  0.79102000  0.60130000  0.33072000  1.0
  C  C211  1  0.79549000  0.52433000  0.27162000  1.0
  C  C212  1  0.78530000  0.87307000  0.47442000  1.0
  C  C213  1  0.81761000  0.92992000  0.46324000  1.0
  C  C214  1  0.81523000  0.01233000  0.50554000  1.0
  C  C215  1  0.78209000  0.04172000  0.56149000  1.0
  C  C216  1  0.74951000  0.98697000  0.57323000  1.0
  C  C217  1  0.74905000  0.90271000  0.52896000  1.0
  C  C218  1  0.67244000  0.85518000  0.57059000  1.0
  C  C219  1  0.65952000  0.80710000  0.60419000  1.0
  C  C220  1  0.58413000  0.79051000  0.59687000  1.0
  C  C221  1  0.57383000  0.74366000  0.62898000  1.0
  C  C222  1  0.70661000  0.72997000  0.67716000  1.0
  C  C223  1  0.72189000  0.77632000  0.64696000  1.0
  C  C224  1  0.25201000  0.85178000  0.06990000  1.0
  C  C225  1  0.18433000  0.84574000  0.98769000  1.0
  C  C226  1  0.16100000  0.78258000  0.89439000  1.0
  C  C227  1  0.20444000  0.72402000  0.88068000  1.0
  C  C228  1  0.27087000  0.72838000  0.96078000  1.0
  C  C229  1  0.29481000  0.79096000  0.05500000  1.0
  C  C230  1  0.42043000  0.77172000  0.13916000  1.0
  C  C231  1  0.48255000  0.75509000  0.20615000  1.0
  C  C232  1  0.55317000  0.74172000  0.20270000  1.0
  C  C233  1  0.61379000  0.72440000  0.26453000  1.0
  C  C234  1  0.53979000  0.72943000  0.33078000  1.0
  C  C235  1  0.47624000  0.74738000  0.27175000  1.0
  C  C236  1  0.68915000  0.60124000  0.47448000  1.0
  C  C237  1  0.64580000  0.53328000  0.46354000  1.0
  C  C238  1  0.69060000  0.49336000  0.50604000  1.0
  C  C239  1  0.77969000  0.51998000  0.56193000  1.0
  C  C240  1  0.82385000  0.58639000  0.57342000  1.0
  C  C241  1  0.77992000  0.62623000  0.52901000  1.0
  C  C242  1  0.89809000  0.71540000  0.57057000  1.0
  C  C243  1  0.94463000  0.79708000  0.60422000  1.0
  C  C244  1  0.01275000  0.80636000  0.59697000  1.0
  C  C245  1  0.05517000  0.88532000  0.62910000  1.0
  C  C246  1  0.97054000  0.94719000  0.67725000  1.0
  C  C247  1  0.92502000  0.87063000  0.64701000  1.0
  C  C248  1  0.46811000  0.56788000  0.56989000  1.0
  C  C249  1  0.39194000  0.55333000  0.48768000  1.0
  C  C250  1  0.36179000  0.48336000  0.39438000  1.0
  C  C251  1  0.40665000  0.42621000  0.38066000  1.0
  C  C252  1  0.48239000  0.43992000  0.46079000  1.0
  C  C253  1  0.51403000  0.51019000  0.55500000  1.0
  C  C254  1  0.61744000  0.46873000  0.63916000  1.0
  C  C255  1  0.70105000  0.47360000  0.70615000  1.0
  C  C256  1  0.71098000  0.39953000  0.70269000  1.0
  C  C257  1  0.79014000  0.40075000  0.76453000  1.0
  C  C258  1  0.85135000  0.54100000  0.83078000  1.0
  C  C259  1  0.77437000  0.54552000  0.77175000  1.0
  C  C260  1  0.12326000  0.53534000  0.97450000  1.0
  C  C261  1  0.18028000  0.56774000  0.96355000  1.0
  C  C262  1  0.26269000  0.56544000  0.00604000  1.0
  C  C263  1  0.29196000  0.53222000  0.06192000  1.0
  C  C264  1  0.23704000  0.49958000  0.07343000  1.0
  C  C265  1  0.15279000  0.49910000  0.02902000  1.0
  C  C266  1  0.10518000  0.42248000  0.07057000  1.0
  C  C267  1  0.05715000  0.40960000  0.10423000  1.0
  C  C268  1  0.04062000  0.33423000  0.09698000  1.0
  C  C269  1  0.99379000  0.32393000  0.12910000  1.0
  C  C270  1  0.98007000  0.45671000  0.17726000  1.0
  C  C271  1  0.02638000  0.47198000  0.14701000  1.0
  C  C272  1  0.10179000  0.00199000  0.56990000  1.0
  C  C273  1  0.09579000  0.93428000  0.48772000  1.0
  C  C274  1  0.03265000  0.91090000  0.39441000  1.0
  C  C275  1  0.97408000  0.95432000  0.38065000  1.0
  C  C276  1  0.97844000  0.02079000  0.46071000  1.0
  C  C277  1  0.04098000  0.04479000  0.55495000  1.0
  C  C278  1  0.02161000  0.17037000  0.63903000  1.0
  C  C279  1  0.00495000  0.23246000  0.70601000  1.0
  C  C280  1  0.99158000  0.30308000  0.70259000  1.0
  C  C281  1  0.97434000  0.36374000  0.76451000  1.0
  C  C282  1  0.97942000  0.28972000  0.83074000  1.0
  C  C283  1  0.99729000  0.22614000  0.77164000  1.0
  C  C284  1  0.85136000  0.43914000  0.97443000  1.0
  C  C285  1  0.78333000  0.39565000  0.96325000  1.0
  C  C286  1  0.74322000  0.44031000  0.00554000  1.0
  C  C287  1  0.76977000  0.52942000  0.06150000  1.0
  C  C288  1  0.83626000  0.57372000  0.07323000  1.0
  C  C289  1  0.87625000  0.52993000  0.02897000  1.0
  C  C290  1  0.96542000  0.64817000  0.07061000  1.0
  C  C291  1  0.04709000  0.69469000  0.10421000  1.0
  C  C292  1  0.05637000  0.76277000  0.09691000  1.0
  C  C293  1  0.13533000  0.80517000  0.12902000  1.0
  C  C294  1  0.19719000  0.72056000  0.17720000  1.0
  C  C295  1  0.12063000  0.67507000  0.14698000  1.0
  C  C296  1  0.43220000  0.89832000  0.43025000  1.0
  C  C297  1  0.44672000  0.90432000  0.51244000  1.0
  C  C298  1  0.51672000  0.96740000  0.60574000  1.0
  C  C299  1  0.57394000  0.02592000  0.61948000  1.0
  C  C300  1  0.56027000  0.02161000  0.53941000  1.0
  C  C301  1  0.48997000  0.95912000  0.44520000  1.0
  C  C302  1  0.53148000  0.97839000  0.36109000  1.0
  C  C303  1  0.52655000  0.99500000  0.29406000  1.0
  C  C304  1  0.60054000  0.00839000  0.29740000  1.0
  C  C305  1  0.59918000  0.02564000  0.23545000  1.0
  C  C306  1  0.45891000  0.02048000  0.16930000  1.0
  C  C307  1  0.45455000  0.00263000  0.22847000  1.0
  C  C308  1  0.46468000  0.14870000  0.02554000  1.0
  C  C309  1  0.43231000  0.21667000  0.03661000  1.0
  C  C310  1  0.43466000  0.25674000  0.99427000  1.0
  C  C311  1  0.46784000  0.23022000  0.93836000  1.0
  C  C312  1  0.50049000  0.16380000  0.92675000  1.0
  C  C313  1  0.50095000  0.12382000  0.97104000  1.0
  C  C314  1  0.57754000  0.03464000  0.92938000  1.0
  C  C315  1  0.59041000  0.95294000  0.89571000  1.0
  C  C316  1  0.66578000  0.94363000  0.90300000  1.0
  C  C317  1  0.67604000  0.86466000  0.87088000  1.0
  C  C318  1  0.54320000  0.80281000  0.82261000  1.0
  C  C319  1  0.52797000  0.87939000  0.85287000  1.0
  C  C320  1  0.99802000  0.53196000  0.43017000  1.0
  C  C321  1  0.06565000  0.60816000  0.51243000  1.0
  C  C322  1  0.08891000  0.63829000  0.60569000  1.0
  C  C323  1  0.04542000  0.59339000  0.61932000  1.0
  C  C324  1  0.97902000  0.51764000  0.53916000  1.0
  C  C325  1  0.95515000  0.48601000  0.44498000  1.0
  C  C326  1  0.82953000  0.38251000  0.36066000  1.0
  C  C327  1  0.76742000  0.29890000  0.29370000  1.0
  C  C328  1  0.69684000  0.28901000  0.29720000  1.0
  C  C329  1  0.63622000  0.20988000  0.23546000  1.0
  C  C330  1  0.71016000  0.14858000  0.16917000  1.0
  C  C331  1  0.77371000  0.22554000  0.22811000  1.0
  C  C332  1  0.56072000  0.87680000  0.02543000  1.0
  C  C333  1  0.60414000  0.81988000  0.03646000  1.0
  C  C334  1  0.55945000  0.73747000  0.99412000  1.0
  C  C335  1  0.47037000  0.70813000  0.93826000  1.0
  C  C336  1  0.42613000  0.76295000  0.92663000  1.0
  C  C337  1  0.46996000  0.84720000  0.97093000  1.0
  C  C338  1  0.35174000  0.89471000  0.92937000  1.0
  C  C339  1  0.30523000  0.94281000  0.89580000  1.0
  C  C340  1  0.23713000  0.95932000  0.90306000  1.0
  C  C341  1  0.19477000  0.00619000  0.87096000  1.0
  C  C342  1  0.27941000  0.01993000  0.82283000  1.0
  C  C343  1  0.32489000  0.97362000  0.85308000  1.0
  N  N344  1  0.65696000  0.64369000  0.86209000  1.0
  N  N345  1  0.39018000  0.39172000  0.67103000  1.0
  N  N346  1  0.15491000  0.18089000  0.45810000  1.0
  N  N347  1  0.28638000  0.96481000  0.33094000  1.0
  N  N348  1  0.20492000  0.21814000  0.86180000  1.0
  N  N349  1  0.28096000  0.27948000  0.67108000  1.0
  N  N350  1  0.30320000  0.27730000  0.45812000  1.0
  N  N351  1  0.04466000  0.36630000  0.33104000  1.0
  N  N352  1  0.78173000  0.34309000  0.13804000  1.0
  N  N353  1  0.72060000  0.60984000  0.32892000  1.0
  N  N354  1  0.72277000  0.84502000  0.54185000  1.0
  N  N355  1  0.63374000  0.71351000  0.66896000  1.0
  N  N356  1  0.35635000  0.79499000  0.13812000  1.0
  N  N357  1  0.60839000  0.71908000  0.32893000  1.0
  N  N358  1  0.81902000  0.69681000  0.54182000  1.0
  N  N359  1  0.03521000  0.95544000  0.66904000  1.0
  N  N360  1  0.59312000  0.53178000  0.63812000  1.0
  N  N361  1  0.85985000  0.47056000  0.82893000  1.0
  N  N362  1  0.09503000  0.47281000  0.04183000  1.0
  N  N363  1  0.96361000  0.38383000  0.16905000  1.0
  N  N364  1  0.04493000  0.10631000  0.63803000  1.0
  N  N365  1  0.96909000  0.35834000  0.82894000  1.0
  N  N366  1  0.94683000  0.56910000  0.04186000  1.0
  N  N367  1  0.20545000  0.78522000  0.16899000  1.0
  N  N368  1  0.46841000  0.95512000  0.36210000  1.0
  N  N369  1  0.52931000  0.03085000  0.17104000  1.0
  N  N370  1  0.52721000  0.05321000  0.95812000  1.0
  N  N371  1  0.61610000  0.79455000  0.83089000  1.0
  N  N372  1  0.89368000  0.40688000  0.36181000  1.0
  N  N373  1  0.64159000  0.14011000  0.17107000  1.0
  N  N374  1  0.43081000  0.90491000  0.95810000  1.0
  N  N375  1  0.21475000  0.03640000  0.83105000  1.0
  O  O376  1  0.75113000  0.72329000  0.84049000  1.0
  O  O377  1  0.20465000  0.35088000  0.56270000  1.0
  O  O378  1  0.08919000  0.11713000  0.84048000  1.0
  O  O379  1  0.35802000  0.21185000  0.56263000  1.0
  O  O380  1  0.88288000  0.24886000  0.15965000  1.0
  O  O381  1  0.78816000  0.79527000  0.43728000  1.0
  O  O382  1  0.27675000  0.91083000  0.15962000  1.0
  O  O383  1  0.64908000  0.64178000  0.43719000  1.0
  O  O384  1  0.49881000  0.63285000  0.65961000  1.0
  O  O385  1  0.04543000  0.53814000  0.93722000  1.0
  O  O386  1  0.16079000  0.02676000  0.65962000  1.0
  O  O387  1  0.89202000  0.39915000  0.93729000  1.0
  O  O388  1  0.36722000  0.83933000  0.34052000  1.0
  O  O389  1  0.46183000  0.10806000  0.06271000  1.0
  O  O390  1  0.97335000  0.50127000  0.34049000  1.0
  O  O391  1  0.60076000  0.95461000  0.06262000  1.0
