# generated using pymatgen
data_CoH24(C11N2)4
_symmetry_space_group_name_H-M   'P 1'
_cell_length_a   9.14653000
_cell_length_b   19.07600000
_cell_length_c   19.07880000
_cell_angle_alpha   117.48500000
_cell_angle_beta   99.20470000
_cell_angle_gamma   99.19400000
_symmetry_Int_Tables_number   1
_chemical_formula_structural   CoH24(C11N2)4
_chemical_formula_sum   'Co3 H72 C132 N24'
_cell_volume   2809.47092074
_cell_formula_units_Z   3
loop_
 _symmetry_equiv_pos_site_id
 _symmetry_equiv_pos_as_xyz
  1  'x, y, z'
loop_
 _atom_site_type_symbol
 _atom_site_label
 _atom_site_symmetry_multiplicity
 _atom_site_fract_x
 _atom_site_fract_y
 _atom_site_fract_z
 _atom_site_occupancy
  Co  Co0  1  0.50000000  0.00000000  0.50000000  1.0
  Co  Co1  1  0.00000000  0.50000000  0.50000000  1.0
  Co  Co2  1  0.50000000  0.50000000  0.00000000  1.0
  H  H3  1  0.98814000  0.23413000  0.58070000  1.0
  H  H4  1  0.08472000  0.14787000  0.65000000  1.0
  H  H5  1  0.81722000  0.88684000  0.65999000  1.0
  H  H6  1  0.52973000  0.78769000  0.59932000  1.0
  H  H7  1  0.85426000  0.18373000  0.39598000  1.0
  H  H8  1  0.95408000  0.31287000  0.39521000  1.0
  H  H9  1  0.64480000  0.32075000  0.58504000  1.0
  H  H10  1  0.75249000  0.44452000  0.57600000  1.0
  H  H11  1  0.09786000  0.98265000  0.56390000  1.0
  H  H12  1  0.34567000  0.98617000  0.64089000  1.0
  H  H13  1  0.17816000  0.05566000  0.85626000  1.0
  H  H14  1  0.92580000  0.04802000  0.77709000  1.0
  H  H15  1  0.40700000  0.41918000  0.65348000  1.0
  H  H16  1  0.43434000  0.34990000  0.49795000  1.0
  H  H17  1  0.15730000  0.33995000  0.22694000  1.0
  H  H18  1  0.93051000  0.40060000  0.18837000  1.0
  H  H19  1  0.45814000  0.60416000  0.78782000  1.0
  H  H20  1  0.55869000  0.60505000  0.91782000  1.0
  H  H21  1  0.05990000  0.41482000  0.73569000  1.0
  H  H22  1  0.17667000  0.42391000  0.86850000  1.0
  H  H23  1  0.53404000  0.43623000  0.41919000  1.0
  H  H24  1  0.70510000  0.35945000  0.34579000  1.0
  H  H25  1  0.32242000  0.14398000  0.19948000  1.0
  H  H26  1  0.14898000  0.22293000  0.27090000  1.0
  H  H27  1  0.75399000  0.34668000  0.76596000  1.0
  H  H28  1  0.93671000  0.50226000  0.85221000  1.0
  H  H29  1  0.93034000  0.77315000  0.11319000  1.0
  H  H30  1  0.74204000  0.81162000  0.21233000  1.0
  H  H31  1  0.67036000  0.21208000  0.81639000  1.0
  H  H32  1  0.64108000  0.08220000  0.68728000  1.0
  H  H33  1  0.32471000  0.26447000  0.67919000  1.0
  H  H34  1  0.30858000  0.13168000  0.55549000  1.0
  H  H35  1  0.11513000  0.58129000  0.01743000  1.0
  H  H36  1  0.35943000  0.65485000  0.01403000  1.0
  H  H37  1  0.12239000  0.80072000  0.94446000  1.0
  H  H38  1  0.87764000  0.72910000  0.95196000  1.0
  H  H39  1  0.01185000  0.76587000  0.41930000  1.0
  H  H40  1  0.91528000  0.85213000  0.35000000  1.0
  H  H41  1  0.18278000  0.11316000  0.34001000  1.0
  H  H42  1  0.47027000  0.21231000  0.40069000  1.0
  H  H43  1  0.14574000  0.81627000  0.60402000  1.0
  H  H44  1  0.04591000  0.68713000  0.60479000  1.0
  H  H45  1  0.35520000  0.67925000  0.41496000  1.0
  H  H46  1  0.24752000  0.55548000  0.42400000  1.0
  H  H47  1  0.90215000  0.01735000  0.43610000  1.0
  H  H48  1  0.65434000  0.01383000  0.35911000  1.0
  H  H49  1  0.82185000  0.94434000  0.14374000  1.0
  H  H50  1  0.07420000  0.95198000  0.22291000  1.0
  H  H51  1  0.59300000  0.58082000  0.34653000  1.0
  H  H52  1  0.56567000  0.65010000  0.50205000  1.0
  H  H53  1  0.84270000  0.66006000  0.77306000  1.0
  H  H54  1  0.06949000  0.59940000  0.81163000  1.0
  H  H55  1  0.54186000  0.39585000  0.21218000  1.0
  H  H56  1  0.44130000  0.39495000  0.08218000  1.0
  H  H57  1  0.94010000  0.58518000  0.26431000  1.0
  H  H58  1  0.82332000  0.57609000  0.13150000  1.0
  H  H59  1  0.46597000  0.56377000  0.58081000  1.0
  H  H60  1  0.29490000  0.64055000  0.65421000  1.0
  H  H61  1  0.67758000  0.85603000  0.80052000  1.0
  H  H62  1  0.85103000  0.77707000  0.72910000  1.0
  H  H63  1  0.24601000  0.65333000  0.23404000  1.0
  H  H64  1  0.06330000  0.49774000  0.14780000  1.0
  H  H65  1  0.06966000  0.22685000  0.88681000  1.0
  H  H66  1  0.25796000  0.18838000  0.78767000  1.0
  H  H67  1  0.32964000  0.78792000  0.18361000  1.0
  H  H68  1  0.35892000  0.91780000  0.31271000  1.0
  H  H69  1  0.67528000  0.73553000  0.32080000  1.0
  H  H70  1  0.69141000  0.86832000  0.44451000  1.0
  H  H71  1  0.88486000  0.41871000  0.98257000  1.0
  H  H72  1  0.64056000  0.34515000  0.98597000  1.0
  H  H73  1  0.87761000  0.19928000  0.05554000  1.0
  H  H74  1  0.12235000  0.27090000  0.04804000  1.0
  C  C75  1  0.76413000  0.13802000  0.53280000  1.0
  C  C76  1  0.92362000  0.17885000  0.57669000  1.0
  C  C77  1  0.97247000  0.13509000  0.61107000  1.0
  C  C78  1  0.84298000  0.06747000  0.58814000  1.0
  C  C79  1  0.84635000  0.01217000  0.61690000  1.0
  C  C80  1  0.71562000  0.95224000  0.60032000  1.0
  C  C81  1  0.71733000  0.89073000  0.62421000  1.0
  C  C82  1  0.57230000  0.84030000  0.59302000  1.0
  C  C83  1  0.48164000  0.87078000  0.54985000  1.0
  C  C84  1  0.67299000  0.16663000  0.49183000  1.0
  C  C85  1  0.74276000  0.24231000  0.49170000  1.0
  C  C86  1  0.83168000  0.24070000  0.43807000  1.0
  C  C87  1  0.88696000  0.31255000  0.43739000  1.0
  C  C88  1  0.71438000  0.31692000  0.54265000  1.0
  C  C89  1  0.77390000  0.38578000  0.53770000  1.0
  C  C90  1  0.99499000  0.01581000  0.66528000  1.0
  C  C91  1  0.11489000  0.99853000  0.62784000  1.0
  C  C92  1  0.25446000  0.00042000  0.67096000  1.0
  C  C93  1  0.27857000  0.02164000  0.75377000  1.0
  C  C94  1  0.15911000  0.03868000  0.79197000  1.0
  C  C95  1  0.01859000  0.03501000  0.74756000  1.0
  C  C96  1  0.42714000  0.02828000  0.79737000  1.0
  C  C97  1  0.23108000  0.46717000  0.60524000  1.0
  C  C98  1  0.34651000  0.42320000  0.60220000  1.0
  C  C99  1  0.36105000  0.38885000  0.52409000  1.0
  C  C100  1  0.25464000  0.41184000  0.47940000  1.0
  C  C101  1  0.22938000  0.38308000  0.39535000  1.0
  C  C102  1  0.11523000  0.39962000  0.35195000  1.0
  C  C103  1  0.09312000  0.37570000  0.26656000  1.0
  C  C104  1  0.97930000  0.40688000  0.24728000  1.0
  C  C105  1  0.93174000  0.45006000  0.32088000  1.0
  C  C106  1  0.18111000  0.50820000  0.67485000  1.0
  C  C107  1  0.25106000  0.50828000  0.75063000  1.0
  C  C108  1  0.39355000  0.56201000  0.80269000  1.0
  C  C109  1  0.44947000  0.56279000  0.87527000  1.0
  C  C110  1  0.17186000  0.45726000  0.77426000  1.0
  C  C111  1  0.23635000  0.46227000  0.84810000  1.0
  C  C112  1  0.32980000  0.33478000  0.35073000  1.0
  C  C113  1  0.48717000  0.37230000  0.37106000  1.0
  C  C114  1  0.58381000  0.32932000  0.32986000  1.0
  C  C115  1  0.52523000  0.24655000  0.26817000  1.0
  C  C116  1  0.36756000  0.20824000  0.24686000  1.0
  C  C117  1  0.27132000  0.25254000  0.28757000  1.0
  C  C118  1  0.63015000  0.20300000  0.23112000  1.0
  C  C119  1  0.62609000  0.39485000  0.86203000  1.0
  C  C120  1  0.74469000  0.39794000  0.82121000  1.0
  C  C121  1  0.83724000  0.47610000  0.86496000  1.0
  C  C122  1  0.77533000  0.52076000  0.93253000  1.0
  C  C123  1  0.83402000  0.60479000  0.98784000  1.0
  C  C124  1  0.76326000  0.64813000  0.04778000  1.0
  C  C125  1  0.82655000  0.73350000  0.10930000  1.0
  C  C126  1  0.73193000  0.75274000  0.15971000  1.0
  C  C127  1  0.61078000  0.67911000  0.12923000  1.0
  C  C128  1  0.50646000  0.32522000  0.83340000  1.0
  C  C129  1  0.50071000  0.24943000  0.75775000  1.0
  C  C130  1  0.59102000  0.19730000  0.75939000  1.0
  C  C131  1  0.57439000  0.12476000  0.68758000  1.0
  C  C132  1  0.39797000  0.22585000  0.68311000  1.0
  C  C133  1  0.38860000  0.15203000  0.61426000  1.0
  C  C134  1  0.97905000  0.64949000  0.98419000  1.0
  C  C135  1  0.11623000  0.62934000  0.00151000  1.0
  C  C136  1  0.25394000  0.67063000  0.99970000  1.0
  C  C137  1  0.25684000  0.73223000  0.97850000  1.0
  C  C138  1  0.12031000  0.75337000  0.96139000  1.0
  C  C139  1  0.98345000  0.71257000  0.96498000  1.0
  C  C140  1  0.39884000  0.76929000  0.97199000  1.0
  C  C141  1  0.23586000  0.86198000  0.46720000  1.0
  C  C142  1  0.07638000  0.82115000  0.42331000  1.0
  C  C143  1  0.02753000  0.86491000  0.38893000  1.0
  C  C144  1  0.15702000  0.93253000  0.41185000  1.0
  C  C145  1  0.15365000  0.98783000  0.38309000  1.0
  C  C146  1  0.28438000  0.04776000  0.39968000  1.0
  C  C147  1  0.28267000  0.10927000  0.37579000  1.0
  C  C148  1  0.42770000  0.15970000  0.40698000  1.0
  C  C149  1  0.51836000  0.12922000  0.45015000  1.0
  C  C150  1  0.32701000  0.83337000  0.50817000  1.0
  C  C151  1  0.25725000  0.75769000  0.50830000  1.0
  C  C152  1  0.16832000  0.75930000  0.56193000  1.0
  C  C153  1  0.11304000  0.68745000  0.56261000  1.0
  C  C154  1  0.28562000  0.68308000  0.45735000  1.0
  C  C155  1  0.22610000  0.61422000  0.46231000  1.0
  C  C156  1  0.00501000  0.98419000  0.33472000  1.0
  C  C157  1  0.88511000  0.00147000  0.37215000  1.0
  C  C158  1  0.74554000  0.99958000  0.32903000  1.0
  C  C159  1  0.72143000  0.97836000  0.24623000  1.0
  C  C160  1  0.84090000  0.96132000  0.20802000  1.0
  C  C161  1  0.98141000  0.96498000  0.25244000  1.0
  C  C162  1  0.57286000  0.97172000  0.20262000  1.0
  C  C163  1  0.76893000  0.53283000  0.39476000  1.0
  C  C164  1  0.65349000  0.57681000  0.39780000  1.0
  C  C165  1  0.63895000  0.61116000  0.47591000  1.0
  C  C166  1  0.74536000  0.58817000  0.52061000  1.0
  C  C167  1  0.77063000  0.61693000  0.60465000  1.0
  C  C168  1  0.88477000  0.60038000  0.64806000  1.0
  C  C169  1  0.90687000  0.62430000  0.73344000  1.0
  C  C170  1  0.02070000  0.59312000  0.75273000  1.0
  C  C171  1  0.06826000  0.54994000  0.67912000  1.0
  C  C172  1  0.81889000  0.49180000  0.32515000  1.0
  C  C173  1  0.74894000  0.49172000  0.24937000  1.0
  C  C174  1  0.60645000  0.43799000  0.19731000  1.0
  C  C175  1  0.55053000  0.43721000  0.12473000  1.0
  C  C176  1  0.82814000  0.54274000  0.22574000  1.0
  C  C177  1  0.76364000  0.53773000  0.15190000  1.0
  C  C178  1  0.67020000  0.66522000  0.64927000  1.0
  C  C179  1  0.51283000  0.62771000  0.62894000  1.0
  C  C180  1  0.41620000  0.67068000  0.67014000  1.0
  C  C181  1  0.47477000  0.75345000  0.73183000  1.0
  C  C182  1  0.63244000  0.79176000  0.75314000  1.0
  C  C183  1  0.72869000  0.74747000  0.71243000  1.0
  C  C184  1  0.36985000  0.79700000  0.76888000  1.0
  C  C185  1  0.37391000  0.60515000  0.13797000  1.0
  C  C186  1  0.25531000  0.60206000  0.17879000  1.0
  C  C187  1  0.16276000  0.52390000  0.13504000  1.0
  C  C188  1  0.22467000  0.47925000  0.06747000  1.0
  C  C189  1  0.16598000  0.39521000  0.01216000  1.0
  C  C190  1  0.23674000  0.35187000  0.95222000  1.0
  C  C191  1  0.17345000  0.26650000  0.89070000  1.0
  C  C192  1  0.26807000  0.24727000  0.84029000  1.0
  C  C193  1  0.38922000  0.32089000  0.87077000  1.0
  C  C194  1  0.49354000  0.67478000  0.16660000  1.0
  C  C195  1  0.49929000  0.75057000  0.24225000  1.0
  C  C196  1  0.40898000  0.80269000  0.24061000  1.0
  C  C197  1  0.42562000  0.87524000  0.31242000  1.0
  C  C198  1  0.60202000  0.77414000  0.31689000  1.0
  C  C199  1  0.61140000  0.84797000  0.38574000  1.0
  C  C200  1  0.02095000  0.35051000  0.01581000  1.0
  C  C201  1  0.88377000  0.37066000  0.99849000  1.0
  C  C202  1  0.74606000  0.32938000  0.00030000  1.0
  C  C203  1  0.74315000  0.26777000  0.02150000  1.0
  C  C204  1  0.87969000  0.24663000  0.03861000  1.0
  C  C205  1  0.01655000  0.28743000  0.03502000  1.0
  C  C206  1  0.60115000  0.23070000  0.02801000  1.0
  N  N207  1  0.71572000  0.06933000  0.53934000  1.0
  N  N208  1  0.56935000  0.94019000  0.55547000  1.0
  N  N209  1  0.85927000  0.38413000  0.48614000  1.0
  N  N210  1  0.55239000  0.03510000  0.83002000  1.0
  N  N211  1  0.17623000  0.46067000  0.53003000  1.0
  N  N212  1  0.01381000  0.44446000  0.38469000  1.0
  N  N213  1  0.37313000  0.51398000  0.89808000  1.0
  N  N214  1  0.72256000  0.17027000  0.20518000  1.0
  N  N215  1  0.64626000  0.47006000  0.93068000  1.0
  N  N216  1  0.62906000  0.61533000  0.05982000  1.0
  N  N217  1  0.47532000  0.10200000  0.61595000  1.0
  N  N218  1  0.51729000  0.79521000  0.96526000  1.0
  N  N219  1  0.28428000  0.93067000  0.46066000  1.0
  N  N220  1  0.43065000  0.05981000  0.44452000  1.0
  N  N221  1  0.14073000  0.61587000  0.51387000  1.0
  N  N222  1  0.44761000  0.96490000  0.16998000  1.0
  N  N223  1  0.82378000  0.53933000  0.46997000  1.0
  N  N224  1  0.98619000  0.55554000  0.61531000  1.0
  N  N225  1  0.62687000  0.48602000  0.10193000  1.0
  N  N226  1  0.27744000  0.82973000  0.79482000  1.0
  N  N227  1  0.35374000  0.52994000  0.06932000  1.0
  N  N228  1  0.37094000  0.38467000  0.94018000  1.0
  N  N229  1  0.52468000  0.89800000  0.38405000  1.0
  N  N230  1  0.48270000  0.20479000  0.03473000  1.0
