# generated using pymatgen
data_AlH4C10ClO5F
_symmetry_space_group_name_H-M   'P 1'
_cell_length_a   6.64165000
_cell_length_b   8.83726000
_cell_length_c   17.65130000
_cell_angle_alpha   81.00200000
_cell_angle_beta   80.99370000
_cell_angle_gamma   75.51830000
_symmetry_Int_Tables_number   1
_chemical_formula_structural   AlH4C10ClO5F
_chemical_formula_sum   'Al2 H8 C20 Cl2 O10 F2'
_cell_volume   983.26544123
_cell_formula_units_Z   2
loop_
 _symmetry_equiv_pos_site_id
 _symmetry_equiv_pos_as_xyz
  1  'x, y, z'
loop_
 _atom_site_type_symbol
 _atom_site_label
 _atom_site_symmetry_multiplicity
 _atom_site_fract_x
 _atom_site_fract_y
 _atom_site_fract_z
 _atom_site_occupancy
  Al  Al0  1  0.49981000  0.50022000  0.50000000  1.0
  Al  Al1  1  0.99982000  0.50012000  0.49999000  1.0
  H  H2  1  0.28569000  0.31638000  0.55653000  1.0
  H  H3  1  0.71419000  0.68399000  0.44349000  1.0
  H  H4  1  0.62445000  0.58015000  0.26913000  1.0
  H  H5  1  0.69768000  0.58526000  0.12525000  1.0
  H  H6  1  0.09035000  0.38667000  0.26995000  1.0
  H  H7  1  0.90952000  0.61348000  0.73000000  1.0
  H  H8  1  0.37578000  0.41957000  0.73099000  1.0
  H  H9  1  0.30303000  0.41415000  0.87492000  1.0
  C  C10  1  0.83605000  0.21986000  0.50131000  1.0
  C  C11  1  0.69755000  0.50744000  0.63757000  1.0
  C  C12  1  0.16362000  0.78051000  0.49860000  1.0
  C  C13  1  0.30204000  0.49281000  0.36243000  1.0
  C  C14  1  0.35148000  0.48570000  0.27758000  1.0
  C  C15  1  0.52502000  0.53917000  0.23712000  1.0
  C  C16  1  0.56585000  0.54152000  0.15761000  1.0
  C  C17  1  0.43808000  0.48688000  0.11618000  1.0
  C  C18  1  0.26847000  0.42748000  0.15846000  1.0
  C  C19  1  0.22373000  0.42908000  0.23802000  1.0
  C  C20  1  0.47988000  0.49406000  0.03516000  1.0
  C  C21  1  0.52080000  0.50555000  0.96494000  1.0
  C  C22  1  0.56254000  0.51267000  0.88389000  1.0
  C  C23  1  0.73203000  0.57221000  0.84153000  1.0
  C  C24  1  0.77647000  0.57082000  0.76197000  1.0
  C  C25  1  0.64860000  0.51416000  0.72249000  1.0
  C  C26  1  0.47523000  0.46053000  0.76299000  1.0
  C  C27  1  0.43469000  0.45800000  0.84251000  1.0
  C  C28  1  0.90182000  0.04646000  0.49794000  1.0
  C  C29  1  0.09792000  0.95393000  0.50185000  1.0
  Cl  Cl30  1  0.11440000  0.35351000  0.11010000  1.0
  Cl  Cl31  1  0.88614000  0.64620000  0.88987000  1.0
  O  O32  1  0.64855000  0.28443000  0.48974000  1.0
  O  O33  1  0.87402000  0.53082000  0.60465000  1.0
  O  O34  1  0.02792000  0.71367000  0.48430000  1.0
  O  O35  1  0.44022000  0.52602000  0.39567000  1.0
  O  O36  1  0.35114000  0.71597000  0.51021000  1.0
  O  O37  1  0.12547000  0.46955000  0.39528000  1.0
  O  O38  1  0.97184000  0.28660000  0.51568000  1.0
  O  O39  1  0.55910000  0.47431000  0.60439000  1.0
  O  O40  1  0.25883000  0.42723000  0.53651000  1.0
  O  O41  1  0.74084000  0.57310000  0.46344000  1.0
  F  F42  1  0.74441000  0.98226000  0.48937000  1.0
  F  F43  1  0.25532000  0.01811000  0.51039000  1.0
