# generated using pymatgen
data_LiH11C14O3
_symmetry_space_group_name_H-M   'P 1'
_cell_length_a   10.04530000
_cell_length_b   12.37540000
_cell_length_c   24.47720000
_cell_angle_alpha   89.99990000
_cell_angle_beta   90.00030000
_cell_angle_gamma   89.99990000
_symmetry_Int_Tables_number   1
_chemical_formula_structural   LiH11C14O3
_chemical_formula_sum   'Li8 H88 C112 O24'
_cell_volume   3042.87346463
_cell_formula_units_Z   8
loop_
 _symmetry_equiv_pos_site_id
 _symmetry_equiv_pos_as_xyz
  1  'x, y, z'
loop_
 _atom_site_type_symbol
 _atom_site_label
 _atom_site_symmetry_multiplicity
 _atom_site_fract_x
 _atom_site_fract_y
 _atom_site_fract_z
 _atom_site_occupancy
  Li  Li0  1  0.78582000  0.27244000  0.44107000  1.0
  Li  Li1  1  0.21417000  0.72757000  0.94107000  1.0
  Li  Li2  1  0.71417000  0.77244000  0.94107000  1.0
  Li  Li3  1  0.28582000  0.22757000  0.44107000  1.0
  Li  Li4  1  0.53008000  0.27151000  0.51756000  1.0
  Li  Li5  1  0.46992000  0.72849000  0.01756000  1.0
  Li  Li6  1  0.96992000  0.77151000  0.01756000  1.0
  Li  Li7  1  0.03008000  0.22849000  0.51756000  1.0
  H  H8  1  0.26946000  0.20235000  0.32231000  1.0
  H  H9  1  0.73054000  0.79765000  0.82231000  1.0
  H  H10  1  0.23054000  0.70235000  0.82231000  1.0
  H  H11  1  0.76947000  0.29766000  0.32231000  1.0
  H  H12  1  0.26599000  0.24938000  0.22473000  1.0
  H  H13  1  0.73401000  0.75062000  0.72473000  1.0
  H  H14  1  0.23402000  0.74938000  0.72473000  1.0
  H  H15  1  0.76598000  0.25062000  0.22473000  1.0
  H  H16  1  0.46039000  0.20337000  0.16446000  1.0
  H  H17  1  0.53961000  0.79663000  0.66446000  1.0
  H  H18  1  0.03961000  0.70337000  0.66445000  1.0
  H  H19  1  0.96039000  0.29662000  0.16446000  1.0
  H  H20  1  0.65318000  0.10602000  0.20372000  1.0
  H  H21  1  0.34682000  0.89398000  0.70372000  1.0
  H  H22  1  0.84682000  0.60603000  0.70372000  1.0
  H  H23  1  0.15317000  0.39398000  0.20372000  1.0
  H  H24  1  0.65729000  0.05795000  0.30194000  1.0
  H  H25  1  0.34271000  0.94205000  0.80193000  1.0
  H  H26  1  0.84271000  0.55796000  0.80193000  1.0
  H  H27  1  0.15728000  0.44206000  0.30193000  1.0
  H  H28  1  0.68598000  0.03759000  0.44527000  1.0
  H  H29  1  0.31402000  0.96241000  0.94527000  1.0
  H  H30  1  0.81402000  0.53759000  0.94527000  1.0
  H  H31  1  0.18599000  0.46241000  0.44527000  1.0
  H  H32  1  0.78145000  0.85599000  0.45962000  1.0
  H  H33  1  0.21856000  0.14402000  0.95962000  1.0
  H  H34  1  0.71856000  0.35599000  0.95962000  1.0
  H  H35  1  0.28145000  0.64401000  0.45963000  1.0
  H  H36  1  0.68739000  0.69674000  0.41168000  1.0
  H  H37  1  0.31261000  0.30326000  0.91168000  1.0
  H  H38  1  0.81262000  0.19674000  0.91168000  1.0
  H  H39  1  0.18740000  0.80326000  0.41168000  1.0
  H  H40  1  0.49328000  0.72090000  0.34868000  1.0
  H  H41  1  0.50673000  0.27910000  0.84868000  1.0
  H  H42  1  0.00673000  0.22091000  0.84868000  1.0
  H  H43  1  0.99328000  0.77910000  0.34868000  1.0
  H  H44  1  0.39988000  0.90301000  0.33289000  1.0
  H  H45  1  0.60012000  0.09698000  0.83289000  1.0
  H  H46  1  0.10012000  0.40302000  0.83289000  1.0
  H  H47  1  0.89988000  0.59699000  0.33289000  1.0
  H  H48  1  0.65124000  0.59005000  0.63981000  1.0
  H  H49  1  0.34875000  0.40994000  0.13982000  1.0
  H  H50  1  0.84875000  0.09006000  0.13981000  1.0
  H  H51  1  0.15124000  0.90995000  0.63981000  1.0
  H  H52  1  0.73228000  0.77674000  0.62372000  1.0
  H  H53  1  0.26771000  0.22325000  0.12373000  1.0
  H  H54  1  0.76771000  0.27675000  0.12372000  1.0
  H  H55  1  0.23228000  0.72325000  0.62372000  1.0
  H  H56  1  0.89410000  0.81369000  0.54897000  1.0
  H  H57  1  0.10589000  0.18630000  0.04897000  1.0
  H  H58  1  0.60589000  0.31371000  0.04897000  1.0
  H  H59  1  0.39410000  0.68630000  0.54897000  1.0
  H  H60  1  0.96801000  0.66344000  0.48826000  1.0
  H  H61  1  0.03198000  0.33655000  0.98826000  1.0
  H  H62  1  0.53198000  0.16345000  0.98826000  1.0
  H  H63  1  0.46802000  0.83655000  0.48826000  1.0
  H  H64  1  0.88587000  0.47861000  0.50333000  1.0
  H  H65  1  0.11413000  0.52138000  0.00334000  1.0
  H  H66  1  0.61413000  0.97862000  0.00333000  1.0
  H  H67  1  0.38587000  0.02138000  0.50333000  1.0
  H  H68  1  0.50532000  0.30123000  0.63914000  1.0
  H  H69  1  0.49468000  0.69876000  0.13914000  1.0
  H  H70  1  0.99468000  0.80124000  0.13914000  1.0
  H  H71  1  0.00533000  0.19877000  0.63914000  1.0
  H  H72  1  0.50116000  0.25648000  0.73705000  1.0
  H  H73  1  0.49884000  0.74353000  0.23705000  1.0
  H  H74  1  0.99884000  0.75648000  0.23705000  1.0
  H  H75  1  0.00117000  0.24353000  0.73705000  1.0
  H  H76  1  0.69735000  0.29903000  0.79668000  1.0
  H  H77  1  0.30265000  0.70097000  0.29668000  1.0
  H  H78  1  0.80265000  0.79904000  0.29668000  1.0
  H  H79  1  0.19736000  0.20097000  0.79668000  1.0
  H  H80  1  0.89447000  0.38932000  0.75631000  1.0
  H  H81  1  0.10553000  0.61068000  0.25632000  1.0
  H  H82  1  0.60553000  0.88933000  0.25632000  1.0
  H  H83  1  0.39447000  0.11067000  0.75631000  1.0
  H  H84  1  0.89874000  0.43585000  0.65788000  1.0
  H  H85  1  0.10125000  0.56416000  0.15788000  1.0
  H  H86  1  0.60126000  0.93585000  0.15788000  1.0
  H  H87  1  0.39875000  0.06415000  0.65788000  1.0
  H  H88  1  0.27807000  0.04935000  0.37833000  1.0
  H  H89  1  0.72193000  0.95064000  0.87833000  1.0
  H  H90  1  0.22193000  0.54936000  0.87833000  1.0
  H  H91  1  0.77807000  0.45065000  0.37833000  1.0
  H  H92  1  0.51463000  0.44912000  0.58140000  1.0
  H  H93  1  0.48537000  0.55087000  0.08141000  1.0
  H  H94  1  0.98537000  0.94913000  0.08141000  1.0
  H  H95  1  0.01463000  0.05088000  0.58140000  1.0
  C  C96  1  0.54272000  0.18713000  0.40845000  1.0
  C  C97  1  0.45728000  0.81286000  0.90845000  1.0
  C  C98  1  0.95728000  0.68714000  0.90845000  1.0
  C  C99  1  0.04271000  0.31287000  0.40845000  1.0
  C  C100  1  0.46803000  0.09350000  0.37890000  1.0
  C  C101  1  0.53196000  0.90649000  0.87889000  1.0
  C  C102  1  0.03197000  0.59351000  0.87889000  1.0
  C  C103  1  0.96804000  0.40649000  0.37889000  1.0
  C  C104  1  0.46223000  0.12319000  0.31843000  1.0
  C  C105  1  0.53777000  0.87681000  0.81842000  1.0
  C  C106  1  0.03777000  0.62320000  0.81842000  1.0
  C  C107  1  0.96223000  0.37681000  0.31842000  1.0
  C  C108  1  0.35300000  0.17870000  0.29643000  1.0
  C  C109  1  0.64700000  0.82129000  0.79643000  1.0
  C  C110  1  0.14700000  0.67870000  0.79643000  1.0
  C  C111  1  0.85300000  0.32129000  0.29643000  1.0
  C  C112  1  0.35214000  0.20699000  0.24113000  1.0
  C  C113  1  0.64786000  0.79301000  0.74112000  1.0
  C  C114  1  0.14787000  0.70699000  0.74112000  1.0
  C  C115  1  0.85214000  0.29300000  0.24112000  1.0
  C  C116  1  0.45999000  0.18151000  0.20763000  1.0
  C  C117  1  0.54001000  0.81850000  0.70763000  1.0
  C  C118  1  0.04001000  0.68151000  0.70763000  1.0
  C  C119  1  0.95999000  0.31849000  0.20763000  1.0
  C  C120  1  0.56939000  0.12748000  0.22975000  1.0
  C  C121  1  0.43061000  0.87251000  0.72975000  1.0
  C  C122  1  0.93061000  0.62749000  0.72975000  1.0
  C  C123  1  0.06939000  0.37252000  0.22974000  1.0
  C  C124  1  0.57103000  0.09904000  0.28477000  1.0
  C  C125  1  0.42897000  0.90096000  0.78477000  1.0
  C  C126  1  0.92897000  0.59905000  0.78477000  1.0
  C  C127  1  0.07103000  0.40096000  0.28477000  1.0
  C  C128  1  0.53505000  0.98374000  0.38848000  1.0
  C  C129  1  0.46495000  0.01626000  0.88848000  1.0
  C  C130  1  0.96496000  0.48375000  0.88848000  1.0
  C  C131  1  0.03506000  0.51626000  0.38847000  1.0
  C  C132  1  0.64276000  0.96881000  0.42401000  1.0
  C  C133  1  0.35724000  0.03118000  0.92400000  1.0
  C  C134  1  0.85724000  0.46882000  0.92400000  1.0
  C  C135  1  0.14277000  0.53118000  0.42400000  1.0
  C  C136  1  0.69750000  0.86616000  0.43188000  1.0
  C  C137  1  0.30250000  0.13384000  0.93187000  1.0
  C  C138  1  0.80250000  0.36616000  0.93187000  1.0
  C  C139  1  0.19751000  0.63384000  0.43187000  1.0
  C  C140  1  0.64449000  0.77659000  0.40494000  1.0
  C  C141  1  0.35552000  0.22341000  0.90494000  1.0
  C  C142  1  0.85551000  0.27659000  0.90494000  1.0
  C  C143  1  0.14450000  0.72341000  0.40494000  1.0
  C  C144  1  0.53598000  0.79029000  0.36985000  1.0
  C  C145  1  0.46403000  0.20971000  0.86985000  1.0
  C  C146  1  0.96402000  0.29030000  0.86985000  1.0
  C  C147  1  0.03598000  0.70971000  0.36985000  1.0
  C  C148  1  0.48255000  0.89310000  0.36151000  1.0
  C  C149  1  0.51744000  0.10689000  0.86150000  1.0
  C  C150  1  0.01745000  0.39311000  0.86150000  1.0
  C  C151  1  0.98257000  0.60690000  0.36150000  1.0
  C  C152  1  0.78668000  0.31967000  0.55089000  1.0
  C  C153  1  0.21332000  0.68032000  0.05089000  1.0
  C  C154  1  0.71331000  0.81968000  0.05089000  1.0
  C  C155  1  0.28668000  0.18032000  0.55089000  1.0
  C  C156  1  0.70519000  0.40776000  0.58198000  1.0
  C  C157  1  0.29481000  0.59223000  0.08198000  1.0
  C  C158  1  0.79481000  0.90777000  0.08198000  1.0
  C  C159  1  0.20519000  0.09224000  0.58198000  1.0
  C  C160  1  0.76319000  0.52068000  0.57288000  1.0
  C  C161  1  0.23680000  0.47931000  0.07288000  1.0
  C  C162  1  0.73681000  0.02069000  0.07287000  1.0
  C  C163  1  0.26319000  0.97931000  0.57288000  1.0
  C  C164  1  0.71989000  0.60616000  0.60612000  1.0
  C  C165  1  0.28010000  0.39383000  0.10612000  1.0
  C  C166  1  0.78010000  0.10617000  0.10612000  1.0
  C  C167  1  0.21989000  0.89383000  0.60612000  1.0
  C  C168  1  0.76583000  0.71122000  0.59736000  1.0
  C  C169  1  0.23416000  0.28877000  0.09736000  1.0
  C  C170  1  0.73415000  0.21123000  0.09736000  1.0
  C  C171  1  0.26584000  0.78877000  0.59736000  1.0
  C  C172  1  0.85612000  0.73207000  0.55528000  1.0
  C  C173  1  0.14388000  0.26792000  0.05528000  1.0
  C  C174  1  0.64388000  0.23208000  0.05528000  1.0
  C  C175  1  0.35613000  0.76792000  0.55528000  1.0
  C  C176  1  0.89802000  0.64798000  0.52139000  1.0
  C  C177  1  0.10197000  0.35201000  0.02139000  1.0
  C  C178  1  0.60197000  0.14799000  0.02139000  1.0
  C  C179  1  0.39803000  0.85201000  0.52139000  1.0
  C  C180  1  0.85160000  0.54306000  0.53011000  1.0
  C  C181  1  0.14839000  0.45693000  0.03011000  1.0
  C  C182  1  0.64839000  0.04307000  0.03011000  1.0
  C  C183  1  0.35160000  0.95693000  0.53011000  1.0
  C  C184  1  0.70077000  0.37579000  0.64218000  1.0
  C  C185  1  0.29923000  0.62421000  0.14218000  1.0
  C  C186  1  0.79923000  0.87579000  0.14218000  1.0
  C  C187  1  0.20078000  0.12421000  0.64217000  1.0
  C  C188  1  0.59003000  0.32326000  0.66472000  1.0
  C  C189  1  0.40996000  0.67674000  0.16472000  1.0
  C  C190  1  0.90996000  0.82326000  0.16472000  1.0
  C  C191  1  0.09004000  0.17674000  0.66472000  1.0
  C  C192  1  0.58868000  0.29617000  0.72019000  1.0
  C  C193  1  0.41132000  0.70383000  0.22019000  1.0
  C  C194  1  0.91132000  0.79617000  0.22019000  1.0
  C  C195  1  0.08870000  0.20384000  0.72019000  1.0
  C  C196  1  0.69779000  0.31959000  0.75334000  1.0
  C  C197  1  0.30221000  0.68042000  0.25334000  1.0
  C  C198  1  0.80221000  0.81958000  0.25334000  1.0
  C  C199  1  0.19780000  0.18042000  0.75334000  1.0
  C  C200  1  0.80928000  0.36978000  0.73063000  1.0
  C  C201  1  0.19071000  0.63022000  0.23064000  1.0
  C  C202  1  0.69072000  0.86978000  0.23064000  1.0
  C  C203  1  0.30929000  0.13021000  0.73063000  1.0
  C  C204  1  0.81123000  0.39725000  0.67546000  1.0
  C  C205  1  0.18877000  0.60275000  0.17547000  1.0
  C  C206  1  0.68876000  0.89724000  0.17547000  1.0
  C  C207  1  0.31124000  0.10275000  0.67546000  1.0
  O  O208  1  0.66297000  0.19940000  0.39610000  1.0
  O  O209  1  0.33703000  0.80059000  0.89610000  1.0
  O  O210  1  0.83702000  0.69940000  0.89610000  1.0
  O  O211  1  0.16297000  0.30059000  0.39610000  1.0
  O  O212  1  0.47620000  0.24377000  0.44233000  1.0
  O  O213  1  0.52379000  0.75623000  0.94232000  1.0
  O  O214  1  0.02379000  0.74377000  0.94232000  1.0
  O  O215  1  0.97620000  0.25624000  0.44233000  1.0
  O  O216  1  0.33560000  0.09054000  0.40264000  1.0
  O  O217  1  0.66439000  0.90945000  0.90264000  1.0
  O  O218  1  0.16439000  0.59055000  0.90264000  1.0
  O  O219  1  0.83561000  0.40946000  0.40264000  1.0
  O  O220  1  0.72328000  0.26307000  0.51580000  1.0
  O  O221  1  0.27672000  0.73692000  0.01580000  1.0
  O  O222  1  0.77672000  0.76308000  0.01580000  1.0
  O  O223  1  0.22328000  0.23693000  0.51580000  1.0
  O  O224  1  0.90784000  0.31120000  0.56240000  1.0
  O  O225  1  0.09215000  0.68880000  0.06240000  1.0
  O  O226  1  0.59215000  0.81120000  0.06240000  1.0
  O  O227  1  0.40785000  0.18879000  0.56240000  1.0
  O  O228  1  0.57248000  0.40588000  0.55815000  1.0
  O  O229  1  0.42751000  0.59411000  0.05815000  1.0
  O  O230  1  0.92751000  0.90589000  0.05815000  1.0
  O  O231  1  0.07248000  0.09411000  0.55815000  1.0
