# generated using pymatgen
data_CuH9C13NCl
_symmetry_space_group_name_H-M   'P 1'
_cell_length_a   3.73269000
_cell_length_b   9.00446000
_cell_length_c   15.12530000
_cell_angle_alpha   89.99950000
_cell_angle_beta   89.99970000
_cell_angle_gamma   88.15650000
_symmetry_Int_Tables_number   1
_chemical_formula_structural   CuH9C13NCl
_chemical_formula_sum   'Cu2 H18 C26 N2 Cl2'
_cell_volume   508.11118542
_cell_formula_units_Z   2
loop_
 _symmetry_equiv_pos_site_id
 _symmetry_equiv_pos_as_xyz
  1  'x, y, z'
loop_
 _atom_site_type_symbol
 _atom_site_label
 _atom_site_symmetry_multiplicity
 _atom_site_fract_x
 _atom_site_fract_y
 _atom_site_fract_z
 _atom_site_occupancy
  Cu  Cu0  1  0.62499000  0.23764000  0.99464000  1.0
  Cu  Cu1  1  0.37500000  0.76236000  0.49464000  1.0
  H  H2  1  0.35769000  0.49545000  0.96995000  1.0
  H  H3  1  0.64229000  0.50455000  0.46995000  1.0
  H  H4  1  0.21237000  0.76721000  0.96203000  1.0
  H  H5  1  0.78761000  0.23279000  0.46204000  1.0
  H  H6  1  0.37560000  0.93423000  0.08471000  1.0
  H  H7  1  0.62438000  0.06577000  0.58471000  1.0
  H  H8  1  0.67545000  0.82877000  0.22005000  1.0
  H  H9  1  0.32455000  0.17123000  0.72005000  1.0
  H  H10  1  0.93842000  0.61381000  0.29986000  1.0
  H  H11  1  0.06158000  0.38619000  0.79986000  1.0
  H  H12  1  0.87974000  0.07915000  0.11684000  1.0
  H  H13  1  0.12028000  0.92084000  0.61684000  1.0
  H  H14  1  0.17259000  0.96401000  0.24921000  1.0
  H  H15  1  0.82744000  0.03600000  0.74921000  1.0
  H  H16  1  0.33636000  0.11740000  0.37754000  1.0
  H  H17  1  0.66366000  0.88260000  0.87754000  1.0
  H  H18  1  0.20070000  0.39070000  0.37616000  1.0
  H  H19  1  0.79931000  0.60930000  0.87617000  1.0
  C  C20  1  0.61278000  0.50785000  0.09759000  1.0
  C  C21  1  0.38722000  0.49215000  0.59758000  1.0
  C  C22  1  0.43242000  0.57056000  0.02319000  1.0
  C  C23  1  0.56757000  0.42944000  0.52319000  1.0
  C  C24  1  0.35141000  0.72053000  0.01940000  1.0
  C  C25  1  0.64858000  0.27948000  0.51941000  1.0
  C  C26  1  0.44210000  0.81584000  0.09005000  1.0
  C  C27  1  0.55790000  0.18416000  0.59005000  1.0
  C  C28  1  0.60767000  0.75844000  0.16415000  1.0
  C  C29  1  0.39232000  0.24156000  0.66415000  1.0
  C  C30  1  0.69808000  0.60395000  0.17023000  1.0
  C  C31  1  0.30193000  0.39605000  0.67024000  1.0
  C  C32  1  0.87170000  0.54250000  0.24416000  1.0
  C  C33  1  0.12831000  0.45750000  0.74416000  1.0
  C  C34  1  0.86563000  0.30061000  0.17133000  1.0
  C  C35  1  0.13436000  0.69939000  0.67133000  1.0
  C  C36  1  0.95075000  0.14605000  0.17407000  1.0
  C  C37  1  0.04925000  0.85395000  0.67407000  1.0
  C  C38  1  0.11341000  0.08306000  0.24715000  1.0
  C  C39  1  0.88659000  0.91693000  0.74715000  1.0
  C  C40  1  0.20536000  0.17097000  0.32105000  1.0
  C  C41  1  0.79464000  0.82903000  0.82105000  1.0
  C  C42  1  0.13052000  0.32112000  0.32019000  1.0
  C  C43  1  0.86949000  0.67889000  0.82019000  1.0
  C  C44  1  0.95664000  0.39032000  0.24643000  1.0
  C  C45  1  0.04336000  0.60968000  0.74643000  1.0
  N  N46  1  0.69958000  0.35965000  0.09853000  1.0
  N  N47  1  0.30042000  0.64035000  0.59853000  1.0
  Cl  Cl48  1  0.14851000  0.15664000  0.92388000  1.0
  Cl  Cl49  1  0.85148000  0.84336000  0.42387000  1.0
