# generated using pymatgen
data_BaVH8C8NO11
_symmetry_space_group_name_H-M   'P 1'
_cell_length_a   7.02840000
_cell_length_b   10.80580000
_cell_length_c   11.47000000
_cell_angle_alpha   112.71600000
_cell_angle_beta   99.79090000
_cell_angle_gamma   96.19930000
_symmetry_Int_Tables_number   1
_chemical_formula_structural   BaVH8C8NO11
_chemical_formula_sum   'Ba2 V2 H16 C16 N2 O22'
_cell_volume   777.25748009
_cell_formula_units_Z   2
loop_
 _symmetry_equiv_pos_site_id
 _symmetry_equiv_pos_as_xyz
  1  'x, y, z'
loop_
 _atom_site_type_symbol
 _atom_site_label
 _atom_site_symmetry_multiplicity
 _atom_site_fract_x
 _atom_site_fract_y
 _atom_site_fract_z
 _atom_site_occupancy
  Ba  Ba0  1  0.43289000  0.77164000  0.37911000  1.0
  Ba  Ba1  1  0.56711000  0.22836000  0.62089000  1.0
  V  V2  1  0.13338000  0.25061000  0.82258000  1.0
  V  V3  1  0.86661000  0.74938000  0.17741000  1.0
  H  H4  1  0.41156000  0.29042000  0.28138000  1.0
  H  H5  1  0.58842000  0.70957000  0.71861000  1.0
  H  H6  1  0.26323000  0.87674000  0.98576000  1.0
  H  H7  1  0.73677000  0.12325000  0.01423000  1.0
  H  H8  1  0.14992000  0.73020000  0.57092000  1.0
  H  H9  1  0.85010000  0.26979000  0.42909000  1.0
  H  H10  1  0.01489000  0.61361000  0.44780000  1.0
  H  H11  1  0.98513000  0.38639000  0.55221000  1.0
  H  H12  1  0.85428000  0.99367000  0.56574000  1.0
  H  H13  1  0.14571000  0.00633000  0.43426000  1.0
  H  H14  1  0.82429000  0.00001000  0.42842000  1.0
  H  H15  1  0.17570000  0.99999000  0.57158000  1.0
  H  H16  1  0.77382000  0.46610000  0.45091000  1.0
  H  H17  1  0.22620000  0.53390000  0.54910000  1.0
  H  H18  1  0.69263000  0.50817000  0.33590000  1.0
  H  H19  1  0.30739000  0.49182000  0.66411000  1.0
  C  C20  1  0.31219000  0.40714000  0.09646000  1.0
  C  C21  1  0.68782000  0.59287000  0.90354000  1.0
  C  C22  1  0.29817000  0.26264000  0.08344000  1.0
  C  C23  1  0.70182000  0.73737000  0.91655000  1.0
  C  C24  1  0.35641000  0.21856000  0.18025000  1.0
  C  C25  1  0.64360000  0.78144000  0.81975000  1.0
  C  C26  1  0.34431000  0.07805000  0.14512000  1.0
  C  C27  1  0.65569000  0.92197000  0.85488000  1.0
  C  C28  1  0.41828000  0.03052000  0.25029000  1.0
  C  C29  1  0.58170000  0.96946000  0.74970000  1.0
  C  C30  1  0.27025000  0.98608000  0.01496000  1.0
  C  C31  1  0.72976000  0.01392000  0.98504000  1.0
  C  C32  1  0.20851000  0.03859000  0.92454000  1.0
  C  C33  1  0.79149000  0.96143000  0.07546000  1.0
  C  C34  1  0.13202000  0.96158000  0.78072000  1.0
  C  C35  1  0.86798000  0.03842000  0.21927000  1.0
  N  N36  1  0.22368000  0.17308000  0.96048000  1.0
  N  N37  1  0.77632000  0.82693000  0.03953000  1.0
  O  O38  1  0.38167000  0.50486000  0.20273000  1.0
  O  O39  1  0.61832000  0.49513000  0.79726000  1.0
  O  O40  1  0.24779000  0.41428000  0.98604000  1.0
  O  O41  1  0.75221000  0.58574000  0.01398000  1.0
  O  O42  1  0.08185000  0.04144000  0.72257000  1.0
  O  O43  1  0.91814000  0.95857000  0.27743000  1.0
  O  O44  1  0.12351000  0.83723000  0.72604000  1.0
  O  O45  1  0.87650000  0.16276000  0.27394000  1.0
  O  O46  1  0.43822000  0.11816000  0.36528000  1.0
  O  O47  1  0.56177000  0.88184000  0.63472000  1.0
  O  O48  1  0.45475000  0.91113000  0.21414000  1.0
  O  O49  1  0.54523000  0.08886000  0.78585000  1.0
  O  O50  1  0.25034000  0.28356000  0.72307000  1.0
  O  O51  1  0.74965000  0.71645000  0.27693000  1.0
  O  O52  1  0.90660000  0.27075000  0.79402000  1.0
  O  O53  1  0.09339000  0.72925000  0.20598000  1.0
  O  O54  1  0.76680000  0.54446000  0.42579000  1.0
  O  O55  1  0.23322000  0.45553000  0.57422000  1.0
  O  O56  1  0.15706000  0.65630000  0.48811000  1.0
  O  O57  1  0.84295000  0.34369000  0.51189000  1.0
  O  O58  1  0.76012000  0.00693000  0.50006000  1.0
  O  O59  1  0.23987000  0.99306000  0.49994000  1.0
