# generated using pymatgen
data_CoH8(C6N5)2
_symmetry_space_group_name_H-M   'P 1'
_cell_length_a   6.20228000
_cell_length_b   7.30310000
_cell_length_c   8.92170275
_cell_angle_alpha   67.27328468
_cell_angle_beta   70.94159142
_cell_angle_gamma   84.01360000
_symmetry_Int_Tables_number   1
_chemical_formula_structural   CoH8(C6N5)2
_chemical_formula_sum   'Co1 H8 C12 N10'
_cell_volume   352.19786894
_cell_formula_units_Z   1
loop_
 _symmetry_equiv_pos_site_id
 _symmetry_equiv_pos_as_xyz
  1  'x, y, z'
loop_
 _atom_site_type_symbol
 _atom_site_label
 _atom_site_symmetry_multiplicity
 _atom_site_fract_x
 _atom_site_fract_y
 _atom_site_fract_z
 _atom_site_occupancy
  Co  Co0  1  0.50000000  1.00000000  0.00001000  1.0
  H  H1  1  0.22455000  0.67021000  0.62176000  1.0
  H  H2  1  0.77545000  0.32979000  0.37826000  1.0
  H  H3  1  0.60339000  0.65904000  0.67375000  1.0
  H  H4  1  0.39661000  0.34094000  0.32626000  1.0
  H  H5  1  0.95195000  0.80980000  0.40817000  1.0
  H  H6  1  0.04805000  0.19019000  0.59184000  1.0
  H  H7  1  0.88222000  0.95594000  0.12724000  1.0
  H  H8  1  0.11777000  0.04409000  0.87277000  1.0
  C  C9  1  0.38040000  0.73371000  0.51688000  1.0
  C  C10  1  0.61960000  0.26629000  0.48314000  1.0
  C  C11  1  0.59050000  0.72661000  0.54504000  1.0
  C  C12  1  0.40950000  0.27338000  0.45497000  1.0
  C  C13  1  0.77872000  0.80764000  0.40286000  1.0
  C  C14  1  0.22128000  0.19235000  0.59716000  1.0
  C  C15  1  0.74293000  0.88935000  0.24381000  1.0
  C  C16  1  0.25706000  0.11066000  0.75620000  1.0
  C  C17  1  0.16019000  0.31325000  0.11837000  1.0
  C  C18  1  0.77542000  0.37509000  0.89660000  1.0
  C  C19  1  0.83982000  0.68673000  0.88160000  1.0
  C  C20  1  0.22460000  0.62491000  0.10337000  1.0
  N  N21  1  0.53521000  0.89082000  0.22647000  1.0
  N  N22  1  0.46478000  0.10918000  0.77355000  1.0
  N  N23  1  0.35277000  0.81393000  0.36206000  1.0
  N  N24  1  0.64721000  0.18608000  0.63796000  1.0
  N  N25  1  0.19427000  0.16871000  0.08580000  1.0
  N  N26  1  0.68113000  0.22220000  0.94293000  1.0
  N  N27  1  0.80574000  0.83129000  0.91419000  1.0
  N  N28  1  0.31888000  0.77779000  0.05707000  1.0
  N  N29  1  0.10437000  0.46207000  0.16793000  1.0
  N  N30  1  0.89564000  0.53794000  0.83202000  1.0
