# generated using pymatgen
data_CuH20C10N8(ClO3)2
_symmetry_space_group_name_H-M   'P 1'
_cell_length_a   6.49375000
_cell_length_b   7.28295000
_cell_length_c   9.34813000
_cell_angle_alpha   105.96660000
_cell_angle_beta   91.27660000
_cell_angle_gamma   93.50800000
_symmetry_Int_Tables_number   1
_chemical_formula_structural   CuH20C10N8(ClO3)2
_chemical_formula_sum   'Cu1 H20 C10 N8 Cl2 O6'
_cell_volume   423.90279247
_cell_formula_units_Z   1
loop_
 _symmetry_equiv_pos_site_id
 _symmetry_equiv_pos_as_xyz
  1  'x, y, z'
loop_
 _atom_site_type_symbol
 _atom_site_label
 _atom_site_symmetry_multiplicity
 _atom_site_fract_x
 _atom_site_fract_y
 _atom_site_fract_z
 _atom_site_occupancy
  Cu  Cu0  1  0.00000000  0.50000000  0.00000000  1.0
  H  H1  1  0.21688000  0.10047000  0.98591000  1.0
  H  H2  1  0.78314000  0.89952000  0.01409000  1.0
  H  H3  1  0.38623000  0.60617000  0.79806000  1.0
  H  H4  1  0.61377000  0.39383000  0.20194000  1.0
  H  H5  1  0.40052000  0.82756000  0.93776000  1.0
  H  H6  1  0.59948000  0.17244000  0.06223000  1.0
  H  H7  1  0.03174000  0.68749000  0.76366000  1.0
  H  H8  1  0.96825000  0.31251000  0.23634000  1.0
  H  H9  1  0.66813000  0.73259000  0.68259000  1.0
  H  H10  1  0.33187000  0.26741000  0.31741000  1.0
  H  H11  1  0.64310000  0.92721000  0.60465000  1.0
  H  H12  1  0.35690000  0.07279000  0.39535000  1.0
  H  H13  1  0.70973000  0.13022000  0.82962000  1.0
  H  H14  1  0.29027000  0.86979000  0.17038000  1.0
  H  H15  1  0.32364000  0.79923000  0.47212000  1.0
  H  H16  1  0.67636000  0.20077000  0.52788000  1.0
  H  H17  1  0.35129000  0.59034000  0.53230000  1.0
  H  H18  1  0.64871000  0.40966000  0.46770000  1.0
  H  H19  1  0.00060000  0.66837000  0.46266000  1.0
  H  H20  1  0.99939000  0.33163000  0.53734000  1.0
  C  C21  1  0.21428000  0.13960000  0.88152000  1.0
  C  C22  1  0.78573000  0.86041000  0.11848000  1.0
  C  C23  1  0.37036000  0.84710000  0.71146000  1.0
  C  C24  1  0.62964000  0.15290000  0.28854000  1.0
  C  C25  1  0.32182000  0.74734000  0.83230000  1.0
  C  C26  1  0.67817000  0.25266000  0.16770000  1.0
  C  C27  1  0.60748000  0.87480000  0.70150000  1.0
  C  C28  1  0.39252000  0.12520000  0.29850000  1.0
  C  C29  1  0.28057000  0.72935000  0.55844000  1.0
  C  C30  1  0.71943000  0.27065000  0.44156000  1.0
  N  N31  1  0.28081000  0.03556000  0.75080000  1.0
  N  N32  1  0.71919000  0.96444000  0.24920000  1.0
  N  N33  1  0.24866000  0.12876000  0.64666000  1.0
  N  N34  1  0.75134000  0.87124000  0.35335000  1.0
  N  N35  1  0.16388000  0.28495000  0.71155000  1.0
  N  N36  1  0.83611000  0.71505000  0.28845000  1.0
  N  N37  1  0.14157000  0.29578000  0.85786000  1.0
  N  N38  1  0.85843000  0.70422000  0.14214000  1.0
  Cl  Cl39  1  0.70995000  0.42033000  0.83659000  1.0
  Cl  Cl40  1  0.29005000  0.57968000  0.16341000  1.0
  O  O41  1  0.10712000  0.73177000  0.86077000  1.0
  O  O42  1  0.89288000  0.26823000  0.13923000  1.0
  O  O43  1  0.70524000  0.99508000  0.83386000  1.0
  O  O44  1  0.29475000  0.00492000  0.16614000  1.0
  O  O45  1  0.06199000  0.70474000  0.56457000  1.0
  O  O46  1  0.93801000  0.29527000  0.43543000  1.0
