# generated using pymatgen
data_CdH18C26S2(N2O)2
_symmetry_space_group_name_H-M   'P 1'
_cell_length_a   5.82690000
_cell_length_b   7.55061000
_cell_length_c   13.59030000
_cell_angle_alpha   104.92200000
_cell_angle_beta   92.73420000
_cell_angle_gamma   93.92730000
_symmetry_Int_Tables_number   1
_chemical_formula_structural   CdH18C26S2(N2O)2
_chemical_formula_sum   'Cd1 H18 C26 S2 N4 O2'
_cell_volume   575.08166526
_cell_formula_units_Z   1
loop_
 _symmetry_equiv_pos_site_id
 _symmetry_equiv_pos_as_xyz
  1  'x, y, z'
loop_
 _atom_site_type_symbol
 _atom_site_label
 _atom_site_symmetry_multiplicity
 _atom_site_fract_x
 _atom_site_fract_y
 _atom_site_fract_z
 _atom_site_occupancy
  Cd  Cd0  1  0.00001000  0.49999000  0.50000000  1.0
  H  H1  1  0.56067000  0.25494000  0.35549000  1.0
  H  H2  1  0.43932000  0.74507000  0.64451000  1.0
  H  H3  1  0.37137000  0.20029000  0.18036000  1.0
  H  H4  1  0.62862000  0.79971000  0.81963000  1.0
  H  H5  1  0.98465000  0.46879000  0.09773000  1.0
  H  H6  1  0.01535000  0.53121000  0.90227000  1.0
  H  H7  1  0.14122000  0.52331000  0.27809000  1.0
  H  H8  1  0.85877000  0.47669000  0.72191000  1.0
  H  H9  1  0.95696000  0.14482000  0.00749000  1.0
  H  H10  1  0.04303000  0.85516000  0.99250000  1.0
  H  H11  1  0.14654000  0.00428000  0.85076000  1.0
  H  H12  1  0.85345000  0.99569000  0.14922000  1.0
  H  H13  1  0.96253000  0.99791000  0.68032000  1.0
  H  H14  1  0.03746000  0.00210000  0.31967000  1.0
  H  H15  1  0.58702000  0.12844000  0.66791000  1.0
  H  H16  1  0.41298000  0.87159000  0.33209000  1.0
  H  H17  1  0.39669000  0.27319000  0.82642000  1.0
  H  H18  1  0.60331000  0.72683000  0.17358000  1.0
  C  C19  1  0.48563000  0.29506000  0.53562000  1.0
  C  C20  1  0.51439000  0.70496000  0.46439000  1.0
  C  C21  1  0.64815000  0.30118000  0.29642000  1.0
  C  C22  1  0.35184000  0.69881000  0.70358000  1.0
  C  C23  1  0.54369000  0.27023000  0.19870000  1.0
  C  C24  1  0.45631000  0.72977000  0.80130000  1.0
  C  C25  1  0.66333000  0.32800000  0.12412000  1.0
  C  C26  1  0.33666000  0.67199000  0.87588000  1.0
  C  C27  1  0.88352000  0.41941000  0.15202000  1.0
  C  C28  1  0.11648000  0.58058000  0.84798000  1.0
  C  C29  1  0.97297000  0.44894000  0.25240000  1.0
  C  C30  1  0.02702000  0.55105000  0.74759000  1.0
  C  C31  1  0.54311000  0.29696000  0.01992000  1.0
  C  C32  1  0.45690000  0.70304000  0.98008000  1.0
  C  C33  1  0.66478000  0.21949000  0.92739000  1.0
  C  C34  1  0.33522000  0.78051000  0.07261000  1.0
  C  C35  1  0.87539000  0.14215000  0.93349000  1.0
  C  C36  1  0.12460000  0.85784000  0.06651000  1.0
  C  C37  1  0.98221000  0.06264000  0.84505000  1.0
  C  C38  1  0.01778000  0.93735000  0.15495000  1.0
  C  C39  1  0.87962000  0.05943000  0.74974000  1.0
  C  C40  1  0.12036000  0.94057000  0.25026000  1.0
  C  C41  1  0.66776000  0.13416000  0.74269000  1.0
  C  C42  1  0.33224000  0.86584000  0.25732000  1.0
  C  C43  1  0.56116000  0.21422000  0.83067000  1.0
  C  C44  1  0.43884000  0.78579000  0.16933000  1.0
  S  S45  1  0.22719000  0.19133000  0.51885000  1.0
  S  S46  1  0.77284000  0.80868000  0.48116000  1.0
  N  N47  1  0.67461000  0.36965000  0.55000000  1.0
  N  N48  1  0.32541000  0.63037000  0.45001000  1.0
  N  N49  1  0.85914000  0.38989000  0.32336000  1.0
  N  N50  1  0.14085000  0.61011000  0.67664000  1.0
  O  O51  1  0.33972000  0.33341000  0.01494000  1.0
  O  O52  1  0.66027000  0.66659000  0.98506000  1.0
