# generated using pymatgen
data_TbH21(C7O3)4
_symmetry_space_group_name_H-M   'P 1'
_cell_length_a   9.60537000
_cell_length_b   11.43670000
_cell_length_c   12.45560000
_cell_angle_alpha   75.27710000
_cell_angle_beta   73.82040000
_cell_angle_gamma   73.35610000
_symmetry_Int_Tables_number   1
_chemical_formula_structural   TbH21(C7O3)4
_chemical_formula_sum   'Tb2 H42 C56 O24'
_cell_volume   1236.24041731
_cell_formula_units_Z   2
loop_
 _symmetry_equiv_pos_site_id
 _symmetry_equiv_pos_as_xyz
  1  'x, y, z'
loop_
 _atom_site_type_symbol
 _atom_site_label
 _atom_site_symmetry_multiplicity
 _atom_site_fract_x
 _atom_site_fract_y
 _atom_site_fract_z
 _atom_site_occupancy
  Tb  Tb0  1  0.71602000  0.04524000  0.94686000  1.0
  Tb  Tb1  1  0.28398000  0.95476000  0.05314000  1.0
  H  H2  1  0.55816000  0.54359000  0.04857000  1.0
  H  H3  1  0.44184000  0.45642000  0.95142000  1.0
  H  H4  1  0.74569000  0.35480000  0.98894000  1.0
  H  H5  1  0.25431000  0.64520000  0.01106000  1.0
  H  H6  1  0.05987000  0.58168000  0.81140000  1.0
  H  H7  1  0.94013000  0.41831000  0.18860000  1.0
  H  H8  1  0.87193000  0.76905000  0.86818000  1.0
  H  H9  1  0.12807000  0.23095000  0.13182000  1.0
  H  H10  1  0.39233000  0.12929000  0.64407000  1.0
  H  H11  1  0.60767000  0.87071000  0.35593000  1.0
  H  H12  1  0.36272000  0.28906000  0.46891000  1.0
  H  H13  1  0.63728000  0.71094000  0.53109000  1.0
  H  H14  1  0.15657000  0.47979000  0.48184000  1.0
  H  H15  1  0.84343000  0.52021000  0.51816000  1.0
  H  H16  1  0.98733000  0.51165000  0.66800000  1.0
  H  H17  1  0.01267000  0.48835000  0.33201000  1.0
  H  H18  1  0.90654000  0.23319000  0.56241000  1.0
  H  H19  1  0.09346000  0.76681000  0.43759000  1.0
  H  H20  1  0.06362000  0.23576000  0.36429000  1.0
  H  H21  1  0.93638000  0.76424000  0.63570000  1.0
  H  H22  1  0.29569000  0.07050000  0.32907000  1.0
  H  H23  1  0.70432000  0.92950000  0.67092000  1.0
  H  H24  1  0.37555000  0.90995000  0.48945000  1.0
  H  H25  1  0.62446000  0.09006000  0.51055000  1.0
  H  H26  1  0.47046000  0.81607000  0.78350000  1.0
  H  H27  1  0.52954000  0.18392000  0.21650000  1.0
  H  H28  1  0.64008000  0.60360000  0.78153000  1.0
  H  H29  1  0.35992000  0.39640000  0.21847000  1.0
  H  H30  1  0.36423000  0.51270000  0.61058000  1.0
  H  H31  1  0.63577000  0.48730000  0.38942000  1.0
  H  H32  1  0.19944000  0.72741000  0.60693000  1.0
  H  H33  1  0.80056000  0.27259000  0.39307000  1.0
  H  H34  1  0.85374000  0.11060000  0.10765000  1.0
  H  H35  1  0.14626000  0.88940000  0.89235000  1.0
  H  H36  1  0.94893000  0.15047000  0.98688000  1.0
  H  H37  1  0.05107000  0.84953000  0.01312000  1.0
  H  H38  1  0.51185000  0.07345000  0.80079000  1.0
  H  H39  1  0.48815000  0.92655000  0.19921000  1.0
  H  H40  1  0.60170000  0.18053000  0.74021000  1.0
  H  H41  1  0.39830000  0.81947000  0.25979000  1.0
  H  H42  1  0.79150000  0.31014000  0.73552000  1.0
  H  H43  1  0.20850000  0.68985000  0.26448000  1.0
  C  C44  1  0.58076000  0.77816000  0.98549000  1.0
  C  C45  1  0.41924000  0.22184000  0.01451000  1.0
  C  C46  1  0.66807000  0.55061000  0.99641000  1.0
  C  C47  1  0.33193000  0.44939000  0.00359000  1.0
  C  C48  1  0.77095000  0.44619000  0.96352000  1.0
  C  C49  1  0.22905000  0.55382000  0.03648000  1.0
  C  C50  1  0.90923000  0.45965000  0.89298000  1.0
  C  C51  1  0.09077000  0.54036000  0.10701000  1.0
  C  C52  1  0.94855000  0.57445000  0.86092000  1.0
  C  C53  1  0.05145000  0.42555000  0.13908000  1.0
  C  C54  1  0.84348000  0.67886000  0.89403000  1.0
  C  C55  1  0.15652000  0.32114000  0.10597000  1.0
  C  C56  1  0.70133000  0.66818000  0.95973000  1.0
  C  C57  1  0.29867000  0.33182000  0.04027000  1.0
  C  C58  1  0.09786000  0.34066000  0.76135000  1.0
  C  C59  1  0.90214000  0.65934000  0.23865000  1.0
  C  C60  1  0.21152000  0.23031000  0.75442000  1.0
  C  C61  1  0.78848000  0.76968000  0.24558000  1.0
  C  C62  1  0.30615000  0.21501000  0.64802000  1.0
  C  C63  1  0.69384000  0.78499000  0.35198000  1.0
  C  C64  1  0.28910000  0.30374000  0.55053000  1.0
  C  C65  1  0.71089000  0.69626000  0.44947000  1.0
  C  C66  1  0.17381000  0.41063000  0.55827000  1.0
  C  C67  1  0.82619000  0.58937000  0.44173000  1.0
  C  C68  1  0.07880000  0.42959000  0.66273000  1.0
  C  C69  1  0.92120000  0.57040000  0.33727000  1.0
  C  C70  1  0.23146000  0.12851000  0.85333000  1.0
  C  C71  1  0.76854000  0.87149000  0.14667000  1.0
  C  C72  1  0.94731000  0.06790000  0.75020000  1.0
  C  C73  1  0.05269000  0.93211000  0.24980000  1.0
  C  C74  1  0.05045000  0.07055000  0.63642000  1.0
  C  C75  1  0.94955000  0.92945000  0.36358000  1.0
  C  C76  1  0.01023000  0.16334000  0.54504000  1.0
  C  C77  1  0.98977000  0.83667000  0.45495000  1.0
  C  C78  1  0.09712000  0.16441000  0.43501000  1.0
  C  C79  1  0.90289000  0.83559000  0.56498000  1.0
  C  C80  1  0.22800000  0.07250000  0.41499000  1.0
  C  C81  1  0.77201000  0.92751000  0.58501000  1.0
  C  C82  1  0.27246000  0.98084000  0.50467000  1.0
  C  C83  1  0.72754000  0.01916000  0.49533000  1.0
  C  C84  1  0.18421000  0.97948000  0.61489000  1.0
  C  C85  1  0.81580000  0.02053000  0.38511000  1.0
  C  C86  1  0.32682000  0.78225000  0.69573000  1.0
  C  C87  1  0.67318000  0.21775000  0.30427000  1.0
  C  C88  1  0.45013000  0.74881000  0.74503000  1.0
  C  C89  1  0.54988000  0.25119000  0.25496000  1.0
  C  C90  1  0.54317000  0.63052000  0.74416000  1.0
  C  C91  1  0.45683000  0.36947000  0.25584000  1.0
  C  C92  1  0.51214000  0.54489000  0.69613000  1.0
  C  C93  1  0.48786000  0.45511000  0.30387000  1.0
  C  C94  1  0.38769000  0.58007000  0.64712000  1.0
  C  C95  1  0.61231000  0.41993000  0.35289000  1.0
  C  C96  1  0.29558000  0.69881000  0.64558000  1.0
  C  C97  1  0.70441000  0.30119000  0.35442000  1.0
  C  C98  1  0.60720000  0.41703000  0.69731000  1.0
  C  C99  1  0.39280000  0.58297000  0.30270000  1.0
  O  O100  1  0.84689000  0.13900000  0.02783000  1.0
  O  O101  1  0.15311000  0.86100000  0.97217000  1.0
  O  O102  1  0.61121000  0.09389000  0.78439000  1.0
  O  O103  1  0.38879000  0.90611000  0.21561000  1.0
  O  O104  1  0.60705000  0.88714000  0.95870000  1.0
  O  O105  1  0.39295000  0.11286000  0.04130000  1.0
  O  O106  1  0.44901000  0.76304000  0.03068000  1.0
  O  O107  1  0.55100000  0.23696000  0.96932000  1.0
  O  O108  1  0.86175000  0.16871000  0.78080000  1.0
  O  O109  1  0.13825000  0.83129000  0.21920000  1.0
  O  O110  1  0.93854000  0.96436000  0.81783000  1.0
  O  O111  1  0.06146000  0.03564000  0.18216000  1.0
  O  O112  1  0.13491000  0.12673000  0.94748000  1.0
  O  O113  1  0.86508000  0.87327000  0.05252000  1.0
  O  O114  1  0.34877000  0.03827000  0.84610000  1.0
  O  O115  1  0.65122000  0.96173000  0.15390000  1.0
  O  O116  1  0.73706000  0.40153000  0.72437000  1.0
  O  O117  1  0.26294000  0.59847000  0.27563000  1.0
  O  O118  1  0.56863000  0.33320000  0.67442000  1.0
  O  O119  1  0.43136000  0.66680000  0.32559000  1.0
  O  O120  1  0.23110000  0.89700000  0.70730000  1.0
  O  O121  1  0.76891000  0.10300000  0.29270000  1.0
  O  O122  1  0.00504000  0.35079000  0.86570000  1.0
  O  O123  1  0.99495000  0.64921000  0.13430000  1.0
