# generated using pymatgen
data_CoH8C12(N2O)2
_symmetry_space_group_name_H-M   'P 1'
_cell_length_a   4.58332000
_cell_length_b   10.85250000
_cell_length_c   11.09150000
_cell_angle_alpha   89.99920000
_cell_angle_beta   87.56580000
_cell_angle_gamma   89.99870000
_symmetry_Int_Tables_number   1
_chemical_formula_structural   CoH8C12(N2O)2
_chemical_formula_sum   'Co2 H16 C24 N8 O4'
_cell_volume   551.19871723
_cell_formula_units_Z   2
loop_
 _symmetry_equiv_pos_site_id
 _symmetry_equiv_pos_as_xyz
  1  'x, y, z'
loop_
 _atom_site_type_symbol
 _atom_site_label
 _atom_site_symmetry_multiplicity
 _atom_site_fract_x
 _atom_site_fract_y
 _atom_site_fract_z
 _atom_site_occupancy
  Co  Co0  1  0.50000000  0.50000000  0.50000000  1.0
  Co  Co1  1  0.50000000  0.00000000  0.00000000  1.0
  H  H2  1  0.03548000  0.88296000  0.57583000  1.0
  H  H3  1  0.96450000  0.38296000  0.92417000  1.0
  H  H4  1  0.96452000  0.11704000  0.42417000  1.0
  H  H5  1  0.03550000  0.61704000  0.07583000  1.0
  H  H6  1  0.77101000  0.02209000  0.72265000  1.0
  H  H7  1  0.22899000  0.52209000  0.77735000  1.0
  H  H8  1  0.22899000  0.97791000  0.27735000  1.0
  H  H9  1  0.77101000  0.47791000  0.22265000  1.0
  H  H10  1  0.45909000  0.72939000  0.92774000  1.0
  H  H11  1  0.54092000  0.22940000  0.57226000  1.0
  H  H12  1  0.54091000  0.27061000  0.07226000  1.0
  H  H13  1  0.45908000  0.77061000  0.42774000  1.0
  H  H14  1  0.69407000  0.57613000  0.78395000  1.0
  H  H15  1  0.30592000  0.07613000  0.71605000  1.0
  H  H16  1  0.30593000  0.42387000  0.21605000  1.0
  H  H17  1  0.69409000  0.92387000  0.28395000  1.0
  C  C18  1  0.03639000  0.62875000  0.58594000  1.0
  C  C19  1  0.96360000  0.12875000  0.91405000  1.0
  C  C20  1  0.96361000  0.37125000  0.41406000  1.0
  C  C21  1  0.03640000  0.87125000  0.08595000  1.0
  C  C22  1  0.90558000  0.84455000  0.65139000  1.0
  C  C23  1  0.09441000  0.34455000  0.84860000  1.0
  C  C24  1  0.09442000  0.15545000  0.34861000  1.0
  C  C25  1  0.90559000  0.65545000  0.15139000  1.0
  C  C26  1  0.87979000  0.71704000  0.66691000  1.0
  C  C27  1  0.12020000  0.21704000  0.83308000  1.0
  C  C28  1  0.12020000  0.28296000  0.33309000  1.0
  C  C29  1  0.87980000  0.78296000  0.16692000  1.0
  C  C30  1  0.75941000  0.92232000  0.73349000  1.0
  C  C31  1  0.24059000  0.42232000  0.76651000  1.0
  C  C32  1  0.24059000  0.07768000  0.26651000  1.0
  C  C33  1  0.75941000  0.57768000  0.23348000  1.0
  C  C34  1  0.58304000  0.75894000  0.84669000  1.0
  C  C35  1  0.41696000  0.25894000  0.65331000  1.0
  C  C36  1  0.41696000  0.24106000  0.15331000  1.0
  C  C37  1  0.58304000  0.74106000  0.34669000  1.0
  C  C38  1  0.71628000  0.67462000  0.76798000  1.0
  C  C39  1  0.28372000  0.17463000  0.73201000  1.0
  C  C40  1  0.28372000  0.32538000  0.23202000  1.0
  C  C41  1  0.71629000  0.82537000  0.26799000  1.0
  N  N42  1  0.59921000  0.88169000  0.82996000  1.0
  N  N43  1  0.40079000  0.38169000  0.67004000  1.0
  N  N44  1  0.40079000  0.11831000  0.17004000  1.0
  N  N45  1  0.59921000  0.61831000  0.32996000  1.0
  N  N46  1  0.89861000  0.53817000  0.53262000  1.0
  N  N47  1  0.10139000  0.03817000  0.96738000  1.0
  N  N48  1  0.10139000  0.46183000  0.46738000  1.0
  N  N49  1  0.89862000  0.96183000  0.03262000  1.0
  O  O50  1  0.31923000  0.64006000  0.57656000  1.0
  O  O51  1  0.68076000  0.14006000  0.92344000  1.0
  O  O52  1  0.68076000  0.35994000  0.42344000  1.0
  O  O53  1  0.31924000  0.85994000  0.07656000  1.0
