# generated using pymatgen
data_GdH18C30(N2O5)4
_symmetry_space_group_name_H-M   'P 1'
_cell_length_a   14.59750000
_cell_length_b   19.26300000
_cell_length_c   19.26300000
_cell_angle_alpha   101.35600000
_cell_angle_beta   93.32610000
_cell_angle_gamma   93.32610000
_symmetry_Int_Tables_number   1
_chemical_formula_structural   GdH18C30(N2O5)4
_chemical_formula_sum   'Gd4 H72 C120 N32 O80'
_cell_volume   5288.24611412
_cell_formula_units_Z   4
loop_
 _symmetry_equiv_pos_site_id
 _symmetry_equiv_pos_as_xyz
  1  'x, y, z'
loop_
 _atom_site_type_symbol
 _atom_site_label
 _atom_site_symmetry_multiplicity
 _atom_site_fract_x
 _atom_site_fract_y
 _atom_site_fract_z
 _atom_site_occupancy
  Gd  Gd0  1  0.36652000  0.45246000  0.98056000  1.0
  Gd  Gd1  1  0.13348000  0.01944000  0.54754000  1.0
  Gd  Gd2  1  0.63348000  0.54754000  0.01944000  1.0
  Gd  Gd3  1  0.86652000  0.98056000  0.45246000  1.0
  H  H4  1  0.43728000  0.30630000  0.12393000  1.0
  H  H5  1  0.70507000  0.41576000  0.16804000  1.0
  H  H6  1  0.75459000  0.05097000  0.23289000  1.0
  H  H7  1  0.67662000  0.17573000  0.42817000  1.0
  H  H8  1  0.69383000  0.43976000  0.86189000  1.0
  H  H9  1  0.50854000  0.25338000  0.84578000  1.0
  H  H10  1  0.25270000  0.47874000  0.81460000  1.0
  H  H11  1  0.10994000  0.34847000  0.87662000  1.0
  H  H12  1  0.05266000  0.32181000  0.78980000  1.0
  H  H13  1  0.00872000  0.39009000  0.85319000  1.0
  H  H14  1  0.13957000  0.49236000  0.74092000  1.0
  H  H15  1  0.02625000  0.47383000  0.76524000  1.0
  H  H16  1  0.07720000  0.40920000  0.70278000  1.0
  H  H17  1  0.14163000  0.47812000  0.99772000  1.0
  H  H18  1  0.01252000  0.55902000  0.98859000  1.0
  H  H19  1  0.21827000  0.72380000  0.97301000  1.0
  H  H20  1  0.33762000  0.63720000  0.98293000  1.0
  H  H21  1  0.05552000  0.75096000  0.97027000  1.0
  H  H22  1  0.06272000  0.87607000  0.69370000  1.0
  H  H23  1  0.79493000  0.83196000  0.58424000  1.0
  H  H24  1  0.74541000  0.76711000  0.94903000  1.0
  H  H25  1  0.82338000  0.57183000  0.82428000  1.0
  H  H26  1  0.80617000  0.13812000  0.56024000  1.0
  H  H27  1  0.99146000  0.15422000  0.74662000  1.0
  H  H28  1  0.24730000  0.18540000  0.52126000  1.0
  H  H29  1  0.39006000  0.12338000  0.65153000  1.0
  H  H30  1  0.44734000  0.21020000  0.67819000  1.0
  H  H31  1  0.49128000  0.14681000  0.60991000  1.0
  H  H32  1  0.36043000  0.25907000  0.50764000  1.0
  H  H33  1  0.47375000  0.23476000  0.52617000  1.0
  H  H34  1  0.42280000  0.29722000  0.59080000  1.0
  H  H35  1  0.35837000  0.00228000  0.52188000  1.0
  H  H36  1  0.48748000  0.01141000  0.44098000  1.0
  H  H37  1  0.28173000  0.02699000  0.27620000  1.0
  H  H38  1  0.16238000  0.01707000  0.36280000  1.0
  H  H39  1  0.44448000  0.02973000  0.24903000  1.0
  H  H40  1  0.56272000  0.69370000  0.87607000  1.0
  H  H41  1  0.29493000  0.58424000  0.83196000  1.0
  H  H42  1  0.24541000  0.94904000  0.76711000  1.0
  H  H43  1  0.32338000  0.82427000  0.57183000  1.0
  H  H44  1  0.30617000  0.56023000  0.13811000  1.0
  H  H45  1  0.49146000  0.74662000  0.15422000  1.0
  H  H46  1  0.74729000  0.52126000  0.18540000  1.0
  H  H47  1  0.89006000  0.65153000  0.12338000  1.0
  H  H48  1  0.94733000  0.67819000  0.21020000  1.0
  H  H49  1  0.99128000  0.60991000  0.14681000  1.0
  H  H50  1  0.86042000  0.50764000  0.25907000  1.0
  H  H51  1  0.97374000  0.52617000  0.23476000  1.0
  H  H52  1  0.92280000  0.59080000  0.29722000  1.0
  H  H53  1  0.85837000  0.52188000  0.00228000  1.0
  H  H54  1  0.98748000  0.44098000  0.01141000  1.0
  H  H55  1  0.78173000  0.27620000  0.02699000  1.0
  H  H56  1  0.66238000  0.36280000  0.01707000  1.0
  H  H57  1  0.94448000  0.24903000  0.02973000  1.0
  H  H58  1  0.93728000  0.12393000  0.30630000  1.0
  H  H59  1  0.20508000  0.16804000  0.41576000  1.0
  H  H60  1  0.25459000  0.23290000  0.05097000  1.0
  H  H61  1  0.17662000  0.42817000  0.17572000  1.0
  H  H62  1  0.19383000  0.86189000  0.43976000  1.0
  H  H63  1  0.00854000  0.84578000  0.25338000  1.0
  H  H64  1  0.75271000  0.81460000  0.47875000  1.0
  H  H65  1  0.60994000  0.87662000  0.34848000  1.0
  H  H66  1  0.55267000  0.78980000  0.32181000  1.0
  H  H67  1  0.50872000  0.85319000  0.39009000  1.0
  H  H68  1  0.63958000  0.74092000  0.49236000  1.0
  H  H69  1  0.52626000  0.76524000  0.47383000  1.0
  H  H70  1  0.57720000  0.70278000  0.40920000  1.0
  H  H71  1  0.64163000  0.99772000  0.47813000  1.0
  H  H72  1  0.51252000  0.98859000  0.55902000  1.0
  H  H73  1  0.71827000  0.97302000  0.72380000  1.0
  H  H74  1  0.83762000  0.98293000  0.63720000  1.0
  H  H75  1  0.55553000  0.97028000  0.75097000  1.0
  C  C76  1  0.53891000  0.42253000  0.10034000  1.0
  C  C77  1  0.56656000  0.36921000  0.14392000  1.0
  C  C78  1  0.50634000  0.31222000  0.14977000  1.0
  C  C79  1  0.53510000  0.26241000  0.18830000  1.0
  C  C80  1  0.62443000  0.26567000  0.22123000  1.0
  C  C81  1  0.68442000  0.32246000  0.21121000  1.0
  C  C82  1  0.65608000  0.37339000  0.17457000  1.0
  C  C83  1  0.65569000  0.21066000  0.26019000  1.0
  C  C84  1  0.69321000  0.14859000  0.22553000  1.0
  C  C85  1  0.72594000  0.09824000  0.26172000  1.0
  C  C86  1  0.72320000  0.10921000  0.33515000  1.0
  C  C87  1  0.68237000  0.16817000  0.37114000  1.0
  C  C88  1  0.64849000  0.21696000  0.33382000  1.0
  C  C89  1  0.76307000  0.05759000  0.37500000  1.0
  C  C90  1  0.52685000  0.39242000  0.90358000  1.0
  C  C91  1  0.59281000  0.35134000  0.85780000  1.0
  C  C92  1  0.67523000  0.38332000  0.84197000  1.0
  C  C93  1  0.73412000  0.34227000  0.79955000  1.0
  C  C94  1  0.71749000  0.26857000  0.77506000  1.0
  C  C95  1  0.63540000  0.23856000  0.79496000  1.0
  C  C96  1  0.57235000  0.27873000  0.83318000  1.0
  C  C97  1  0.21410000  0.43953000  0.83851000  1.0
  C  C98  1  0.07178000  0.36687000  0.83392000  1.0
  C  C99  1  0.09114000  0.45049000  0.75110000  1.0
  C  C100  1  0.15504000  0.53276000  0.99147000  1.0
  C  C101  1  0.08427000  0.57720000  0.98689000  1.0
  C  C102  1  0.10595000  0.64708000  0.97993000  1.0
  C  C103  1  0.19835000  0.66960000  0.97796000  1.0
  C  C104  1  0.26477000  0.62139000  0.98326000  1.0
  C  C105  1  0.03210000  0.69672000  0.97656000  1.0
  C  C106  1  0.96109000  0.89965000  0.57747000  1.0
  C  C107  1  0.93344000  0.85608000  0.63079000  1.0
  C  C108  1  0.99366000  0.85023000  0.68779000  1.0
  C  C109  1  0.96490000  0.81170000  0.73759000  1.0
  C  C110  1  0.87557000  0.77877000  0.73433000  1.0
  C  C111  1  0.81557000  0.78878000  0.67754000  1.0
  C  C112  1  0.84392000  0.82543000  0.62661000  1.0
  C  C113  1  0.84431000  0.73981000  0.78934000  1.0
  C  C114  1  0.80679000  0.77447000  0.85141000  1.0
  C  C115  1  0.77406000  0.73828000  0.90176000  1.0
  C  C116  1  0.77680000  0.66485000  0.89079000  1.0
  C  C117  1  0.81763000  0.62886000  0.83183000  1.0
  C  C118  1  0.85151000  0.66618000  0.78304000  1.0
  C  C119  1  0.73693000  0.62500000  0.94241000  1.0
  C  C120  1  0.97315000  0.09642000  0.60757000  1.0
  C  C121  1  0.90719000  0.14220000  0.64866000  1.0
  C  C122  1  0.82477000  0.15803000  0.61667000  1.0
  C  C123  1  0.76587000  0.20045000  0.65773000  1.0
  C  C124  1  0.78251000  0.22494000  0.73143000  1.0
  C  C125  1  0.86459000  0.20504000  0.76144000  1.0
  C  C126  1  0.92765000  0.16682000  0.72127000  1.0
  C  C127  1  0.28590000  0.16149000  0.56047000  1.0
  C  C128  1  0.42822000  0.16608000  0.63313000  1.0
  C  C129  1  0.40886000  0.24890000  0.54951000  1.0
  C  C130  1  0.34496000  0.00853000  0.46724000  1.0
  C  C131  1  0.41573000  0.01311000  0.42279000  1.0
  C  C132  1  0.39405000  0.02007000  0.35292000  1.0
  C  C133  1  0.30164000  0.02204000  0.33040000  1.0
  C  C134  1  0.23523000  0.01674000  0.37861000  1.0
  C  C135  1  0.46790000  0.02344000  0.30328000  1.0
  C  C136  1  0.46109000  0.57747000  0.89966000  1.0
  C  C137  1  0.43344000  0.63079000  0.85608000  1.0
  C  C138  1  0.49366000  0.68778000  0.85023000  1.0
  C  C139  1  0.46490000  0.73759000  0.81170000  1.0
  C  C140  1  0.37557000  0.73433000  0.77876000  1.0
  C  C141  1  0.31558000  0.67754000  0.78879000  1.0
  C  C142  1  0.34392000  0.62661000  0.82543000  1.0
  C  C143  1  0.34431000  0.78934000  0.73981000  1.0
  C  C144  1  0.30678000  0.85141000  0.77447000  1.0
  C  C145  1  0.27406000  0.90176000  0.73828000  1.0
  C  C146  1  0.27680000  0.89079000  0.66484000  1.0
  C  C147  1  0.31763000  0.83183000  0.62886000  1.0
  C  C148  1  0.35151000  0.78304000  0.66618000  1.0
  C  C149  1  0.23693000  0.94241000  0.62500000  1.0
  C  C150  1  0.47315000  0.60757000  0.09642000  1.0
  C  C151  1  0.40719000  0.64866000  0.14220000  1.0
  C  C152  1  0.32477000  0.61667000  0.15803000  1.0
  C  C153  1  0.26587000  0.65773000  0.20045000  1.0
  C  C154  1  0.28251000  0.73143000  0.22494000  1.0
  C  C155  1  0.36459000  0.76144000  0.20504000  1.0
  C  C156  1  0.42765000  0.72127000  0.16682000  1.0
  C  C157  1  0.78590000  0.56047000  0.16149000  1.0
  C  C158  1  0.92822000  0.63313000  0.16608000  1.0
  C  C159  1  0.90886000  0.54951000  0.24890000  1.0
  C  C160  1  0.84496000  0.46724000  0.00853000  1.0
  C  C161  1  0.91573000  0.42279000  0.01311000  1.0
  C  C162  1  0.89405000  0.35292000  0.02007000  1.0
  C  C163  1  0.80165000  0.33040000  0.02204000  1.0
  C  C164  1  0.73523000  0.37861000  0.01674000  1.0
  C  C165  1  0.96789000  0.30328000  0.02344000  1.0
  C  C166  1  0.03891000  0.10035000  0.42253000  1.0
  C  C167  1  0.06656000  0.14392000  0.36921000  1.0
  C  C168  1  0.00634000  0.14977000  0.31222000  1.0
  C  C169  1  0.03510000  0.18830000  0.26241000  1.0
  C  C170  1  0.12443000  0.22124000  0.26567000  1.0
  C  C171  1  0.18442000  0.21122000  0.32246000  1.0
  C  C172  1  0.15608000  0.17457000  0.37339000  1.0
  C  C173  1  0.15569000  0.26019000  0.21066000  1.0
  C  C174  1  0.19322000  0.22553000  0.14858000  1.0
  C  C175  1  0.22594000  0.26172000  0.09824000  1.0
  C  C176  1  0.22320000  0.33516000  0.10921000  1.0
  C  C177  1  0.18237000  0.37114000  0.16817000  1.0
  C  C178  1  0.14848000  0.33382000  0.21696000  1.0
  C  C179  1  0.26307000  0.37500000  0.05759000  1.0
  C  C180  1  0.02685000  0.90358000  0.39242000  1.0
  C  C181  1  0.09282000  0.85780000  0.35134000  1.0
  C  C182  1  0.17523000  0.84197000  0.38333000  1.0
  C  C183  1  0.23413000  0.79955000  0.34227000  1.0
  C  C184  1  0.21749000  0.77506000  0.26857000  1.0
  C  C185  1  0.13541000  0.79496000  0.23856000  1.0
  C  C186  1  0.07235000  0.83318000  0.27873000  1.0
  C  C187  1  0.71410000  0.83850000  0.43953000  1.0
  C  C188  1  0.57178000  0.83392000  0.36687000  1.0
  C  C189  1  0.59114000  0.75110000  0.45049000  1.0
  C  C190  1  0.65504000  0.99147000  0.53277000  1.0
  C  C191  1  0.58427000  0.98689000  0.57721000  1.0
  C  C192  1  0.60595000  0.97993000  0.64708000  1.0
  C  C193  1  0.69836000  0.97796000  0.66960000  1.0
  C  C194  1  0.76477000  0.98326000  0.62139000  1.0
  C  C195  1  0.53211000  0.97656000  0.69673000  1.0
  N  N196  1  0.46703000  0.20392000  0.19227000  1.0
  N  N197  1  0.78209000  0.32914000  0.23737000  1.0
  N  N198  1  0.70075000  0.13427000  0.14787000  1.0
  N  N199  1  0.60391000  0.27698000  0.37459000  1.0
  N  N200  1  0.81864000  0.37907000  0.78211000  1.0
  N  N201  1  0.61420000  0.16118000  0.77752000  1.0
  N  N202  1  0.12930000  0.42002000  0.80905000  1.0
  N  N203  1  0.24429000  0.55397000  0.98922000  1.0
  N  N204  1  0.03297000  0.80773000  0.79609000  1.0
  N  N205  1  0.71791000  0.76262000  0.67086000  1.0
  N  N206  1  0.79924000  0.85213000  0.86573000  1.0
  N  N207  1  0.89609000  0.62542000  0.72303000  1.0
  N  N208  1  0.68135000  0.21789000  0.62093000  1.0
  N  N209  1  0.88580000  0.22248000  0.83882000  1.0
  N  N210  1  0.37070000  0.19095000  0.57997000  1.0
  N  N211  1  0.25571000  0.01078000  0.44603000  1.0
  N  N212  1  0.53297000  0.79609000  0.80773000  1.0
  N  N213  1  0.21791000  0.67086000  0.76263000  1.0
  N  N214  1  0.29924000  0.86573000  0.85213000  1.0
  N  N215  1  0.39608000  0.72302000  0.62541000  1.0
  N  N216  1  0.18135000  0.62093000  0.21789000  1.0
  N  N217  1  0.38580000  0.83882000  0.22248000  1.0
  N  N218  1  0.87070000  0.57998000  0.19095000  1.0
  N  N219  1  0.75571000  0.44604000  0.01078000  1.0
  N  N220  1  0.96703000  0.19227000  0.20391000  1.0
  N  N221  1  0.28209000  0.23738000  0.32914000  1.0
  N  N222  1  0.20075000  0.14788000  0.13427000  1.0
  N  N223  1  0.10391000  0.37459000  0.27697000  1.0
  N  N224  1  0.31865000  0.78211000  0.37907000  1.0
  N  N225  1  0.11420000  0.77752000  0.16118000  1.0
  N  N226  1  0.62930000  0.80905000  0.42003000  1.0
  N  N227  1  0.74429000  0.98922000  0.55397000  1.0
  O  O228  1  0.46261000  0.40867000  0.06440000  1.0
  O  O229  1  0.59645000  0.47519000  0.10190000  1.0
  O  O230  1  0.76712000  0.07308000  0.44334000  1.0
  O  O231  1  0.79404000  0.00175000  0.34118000  1.0
  O  O232  1  0.40306000  0.19030000  0.14552000  1.0
  O  O233  1  0.47721000  0.17216000  0.24206000  1.0
  O  O234  1  0.83332000  0.37429000  0.21793000  1.0
  O  O235  1  0.80829000  0.28947000  0.27691000  1.0
  O  O236  1  0.70169000  0.18573000  0.11757000  1.0
  O  O237  1  0.70596000  0.07204000  0.11789000  1.0
  O  O238  1  0.58727000  0.32738000  0.34534000  1.0
  O  O239  1  0.58559000  0.27403000  0.43594000  1.0
  O  O240  1  0.55815000  0.44922000  0.94613000  1.0
  O  O241  1  0.44402000  0.36816000  0.89902000  1.0
  O  O242  1  0.84959000  0.43342000  0.82467000  1.0
  O  O243  1  0.85390000  0.35329000  0.72656000  1.0
  O  O244  1  0.67975000  0.12285000  0.76824000  1.0
  O  O245  1  0.53245000  0.13894000  0.77420000  1.0
  O  O246  1  0.24916000  0.41617000  0.88946000  1.0
  O  O247  1  0.95083000  0.67959000  0.98049000  1.0
  O  O248  1  0.03739000  0.93560000  0.59132000  1.0
  O  O249  1  0.90355000  0.89810000  0.52481000  1.0
  O  O250  1  0.73289000  0.55667000  0.92693000  1.0
  O  O251  1  0.70596000  0.65882000  0.99825000  1.0
  O  O252  1  0.09694000  0.85448000  0.80970000  1.0
  O  O253  1  0.02279000  0.75794000  0.82784000  1.0
  O  O254  1  0.66666667  0.78207000  0.62571000  1.0
  O  O255  1  0.69171000  0.72309000  0.71053000  1.0
  O  O256  1  0.79830000  0.88243000  0.81427000  1.0
  O  O257  1  0.79403000  0.88211000  0.92796000  1.0
  O  O258  1  0.91273000  0.65467000  0.67262000  1.0
  O  O259  1  0.91441000  0.56406000  0.72598000  1.0
  O  O260  1  0.94185000  0.05387000  0.55078000  1.0
  O  O261  1  0.05597000  0.10098000  0.63184000  1.0
  O  O262  1  0.65041000  0.17533000  0.56658000  1.0
  O  O263  1  0.64610000  0.27344000  0.64672000  1.0
  O  O264  1  0.82025000  0.23176000  0.87715000  1.0
  O  O265  1  0.96755000  0.22580000  0.86105000  1.0
  O  O266  1  0.25084000  0.11053000  0.58382000  1.0
  O  O267  1  0.54917000  0.01951000  0.32041000  1.0
  O  O268  1  0.53739000  0.59133000  0.93560000  1.0
  O  O269  1  0.40355000  0.52481000  0.89810000  1.0
  O  O270  1  0.23289000  0.92692000  0.55666000  1.0
  O  O271  1  0.20596000  0.99825000  0.65882000  1.0
  O  O272  1  0.59694000  0.80970000  0.85448000  1.0
  O  O273  1  0.52278000  0.82785000  0.75795000  1.0
  O  O274  1  0.16668000  0.62571000  0.78208000  1.0
  O  O275  1  0.19171000  0.71053000  0.72309000  1.0
  O  O276  1  0.29830000  0.81427000  0.88242000  1.0
  O  O277  1  0.29403000  0.92796000  0.88210000  1.0
  O  O278  1  0.41272000  0.67262000  0.65466000  1.0
  O  O279  1  0.41441000  0.72597000  0.56406000  1.0
  O  O280  1  0.44184000  0.55078000  0.05387000  1.0
  O  O281  1  0.55597000  0.63184000  0.10098000  1.0
  O  O282  1  0.15041000  0.56658000  0.17533000  1.0
  O  O283  1  0.14611000  0.64671000  0.27344000  1.0
  O  O284  1  0.32024000  0.87714000  0.23175000  1.0
  O  O285  1  0.46755000  0.86105000  0.22580000  1.0
  O  O286  1  0.75084000  0.58383000  0.11054000  1.0
  O  O287  1  0.04917000  0.32040000  0.01951000  1.0
  O  O288  1  0.96261000  0.06440000  0.40867000  1.0
  O  O289  1  0.09645000  0.10190000  0.47519000  1.0
  O  O290  1  0.26711000  0.44334000  0.07308000  1.0
  O  O291  1  0.29404000  0.34118000  0.00175000  1.0
  O  O292  1  0.90306000  0.14552000  0.19030000  1.0
  O  O293  1  0.97722000  0.24205000  0.17215000  1.0
  O  O294  1  0.33333333  0.21793000  0.37429000  1.0
  O  O295  1  0.30829000  0.27693000  0.28948000  1.0
  O  O296  1  0.20170000  0.11758000  0.18573000  1.0
  O  O297  1  0.20596000  0.11790000  0.07204000  1.0
  O  O298  1  0.08727000  0.34534000  0.32737000  1.0
  O  O299  1  0.08559000  0.43594000  0.27402000  1.0
  O  O300  1  0.05816000  0.94613000  0.44922000  1.0
  O  O301  1  0.94403000  0.89902000  0.36816000  1.0
  O  O302  1  0.34959000  0.82467000  0.43342000  1.0
  O  O303  1  0.35390000  0.72656000  0.35329000  1.0
  O  O304  1  0.17976000  0.76825000  0.12285000  1.0
  O  O305  1  0.03245000  0.77419000  0.13895000  1.0
  O  O306  1  0.74916000  0.88946000  0.41618000  1.0
  O  O307  1  0.45083000  0.98049000  0.67960000  1.0
