# generated using pymatgen
data_CoH14C20(N3O2)2
_symmetry_space_group_name_H-M   'P 1'
_cell_length_a   8.37150000
_cell_length_b   10.09880000
_cell_length_c   13.87040000
_cell_angle_alpha   80.95110000
_cell_angle_beta   78.55910000
_cell_angle_gamma   78.53200000
_symmetry_Int_Tables_number   1
_chemical_formula_structural   CoH14C20(N3O2)2
_chemical_formula_sum   'Co2 H28 C40 N12 O8'
_cell_volume   1117.87886396
_cell_formula_units_Z   2
loop_
 _symmetry_equiv_pos_site_id
 _symmetry_equiv_pos_as_xyz
  1  'x, y, z'
loop_
 _atom_site_type_symbol
 _atom_site_label
 _atom_site_symmetry_multiplicity
 _atom_site_fract_x
 _atom_site_fract_y
 _atom_site_fract_z
 _atom_site_occupancy
  Co  Co0  1  0.62694000  0.62717000  0.54961000  1.0
  Co  Co1  1  0.37306000  0.37282000  0.45039000  1.0
  H  H2  1  0.26304000  0.45238000  0.08966000  1.0
  H  H3  1  0.73696000  0.54763000  0.91033000  1.0
  H  H4  1  0.33993000  0.59574000  0.05073000  1.0
  H  H5  1  0.66007000  0.40427000  0.94926000  1.0
  H  H6  1  0.37216000  0.44302000  0.90682000  1.0
  H  H7  1  0.62786000  0.55699000  0.09318000  1.0
  H  H8  1  0.58839000  0.45001000  0.75380000  1.0
  H  H9  1  0.41161000  0.55000000  0.24619000  1.0
  H  H10  1  0.36341000  0.82965000  0.64268000  1.0
  H  H11  1  0.63659000  0.17035000  0.35731000  1.0
  H  H12  1  0.13937000  0.84244000  0.79326000  1.0
  H  H13  1  0.86063000  0.15756000  0.20673000  1.0
  H  H14  1  0.70210000  0.82041000  0.18513000  1.0
  H  H15  1  0.29790000  0.17959000  0.81487000  1.0
  H  H16  1  0.59034000  0.80543000  0.36666000  1.0
  H  H17  1  0.40965000  0.19457000  0.63334000  1.0
  H  H18  1  0.92677000  0.45332000  0.42414000  1.0
  H  H19  1  0.07322000  0.54666000  0.57586000  1.0
  H  H20  1  0.05398000  0.45419000  0.24937000  1.0
  H  H21  1  0.94602000  0.54581000  0.75063000  1.0
  H  H22  1  0.62018000  0.08666000  0.52867000  1.0
  H  H23  1  0.37981000  0.91334000  0.47133000  1.0
  H  H24  1  0.95441000  0.26657000  0.64610000  1.0
  H  H25  1  0.04558000  0.73342000  0.35391000  1.0
  H  H26  1  0.11311000  0.03650000  0.68978000  1.0
  H  H27  1  0.88689000  0.96350000  0.31023000  1.0
  H  H28  1  0.01609000  0.82912000  0.65719000  1.0
  H  H29  1  0.98391000  0.17087000  0.34281000  1.0
  C  C30  1  0.23845000  0.64481000  0.86325000  1.0
  C  C31  1  0.76156000  0.35521000  0.13676000  1.0
  C  C32  1  0.36921000  0.53395000  0.85270000  1.0
  C  C33  1  0.63080000  0.46606000  0.14730000  1.0
  C  C34  1  0.48751000  0.53543000  0.76653000  1.0
  C  C35  1  0.51249000  0.46458000  0.23348000  1.0
  C  C36  1  0.36093000  0.74749000  0.70392000  1.0
  C  C37  1  0.63908000  0.25251000  0.29608000  1.0
  C  C38  1  0.23798000  0.75436000  0.78715000  1.0
  C  C39  1  0.76203000  0.24564000  0.21284000  1.0
  C  C40  1  0.09830000  0.65114000  0.94498000  1.0
  C  C41  1  0.90171000  0.34887000  0.05503000  1.0
  C  C42  1  0.94518000  0.64966000  0.09374000  1.0
  C  C43  1  0.05483000  0.35035000  0.90626000  1.0
  C  C44  1  0.88764000  0.63842000  0.20060000  1.0
  C  C45  1  0.11237000  0.36158000  0.79940000  1.0
  C  C46  1  0.75443000  0.73744000  0.23621000  1.0
  C  C47  1  0.24558000  0.26256000  0.76379000  1.0
  C  C48  1  0.69088000  0.72872000  0.33660000  1.0
  C  C49  1  0.30911000  0.27127000  0.66340000  1.0
  C  C50  1  0.87841000  0.53313000  0.36956000  1.0
  C  C51  1  0.12159000  0.46686000  0.63044000  1.0
  C  C52  1  0.95109000  0.53472000  0.26994000  1.0
  C  C53  1  0.04892000  0.46529000  0.73005000  1.0
  C  C54  1  0.75185000  0.82496000  0.57436000  1.0
  C  C55  1  0.24813000  0.17503000  0.42564000  1.0
  C  C56  1  0.81146000  0.94655000  0.59291000  1.0
  C  C57  1  0.18853000  0.05344000  0.40709000  1.0
  C  C58  1  0.72673000  0.07680000  0.56514000  1.0
  C  C59  1  0.27326000  0.92320000  0.43486000  1.0
  C  C60  1  0.77833000  0.19195000  0.58463000  1.0
  C  C61  1  0.22167000  0.80804000  0.41537000  1.0
  C  C62  1  0.68968000  0.33144000  0.55455000  1.0
  C  C63  1  0.31031000  0.66856000  0.44545000  1.0
  C  C64  1  0.91604000  0.17598000  0.63151000  1.0
  C  C65  1  0.08395000  0.82401000  0.36849000  1.0
  C  C66  1  0.00293000  0.04645000  0.65663000  1.0
  C  C67  1  0.99707000  0.95354000  0.34337000  1.0
  C  C68  1  0.95076000  0.93155000  0.63787000  1.0
  C  C69  1  0.04923000  0.06844000  0.36213000  1.0
  N  N70  1  0.48339000  0.63895000  0.69250000  1.0
  N  N71  1  0.51663000  0.36105000  0.30749000  1.0
  N  N72  1  0.94352000  0.70698000  0.93465000  1.0
  N  N73  1  0.05648000  0.29303000  0.06535000  1.0
  N  N74  1  0.84781000  0.70453000  0.02715000  1.0
  N  N75  1  0.15220000  0.29548000  0.97285000  1.0
  N  N76  1  0.10349000  0.61130000  0.04436000  1.0
  N  N77  1  0.89652000  0.38871000  0.95564000  1.0
  N  N78  1  0.24028000  0.55581000  0.09041000  1.0
  N  N79  1  0.75971000  0.44420000  0.90958000  1.0
  N  N80  1  0.74991000  0.62743000  0.40312000  1.0
  N  N81  1  0.25009000  0.37256000  0.59688000  1.0
  O  O82  1  0.82205000  0.70463000  0.60208000  1.0
  O  O83  1  0.17793000  0.29537000  0.39792000  1.0
  O  O84  1  0.62561000  0.84247000  0.53153000  1.0
  O  O85  1  0.37437000  0.15753000  0.46848000  1.0
  O  O86  1  0.58935000  0.34529000  0.49443000  1.0
  O  O87  1  0.41066000  0.65470000  0.50557000  1.0
  O  O88  1  0.72236000  0.43098000  0.58964000  1.0
  O  O89  1  0.27762000  0.56902000  0.41037000  1.0
