# generated using pymatgen
data_ZnH4C5N6O
_symmetry_space_group_name_H-M   'P 1'
_cell_length_a   8.69274000
_cell_length_b   8.69274000
_cell_length_c   10.40500000
_cell_angle_alpha   107.86600000
_cell_angle_beta   107.86500000
_cell_angle_gamma   91.86230000
_symmetry_Int_Tables_number   1
_chemical_formula_structural   ZnH4C5N6O
_chemical_formula_sum   'Zn4 H16 C20 N24 O4'
_cell_volume   705.25146235
_cell_formula_units_Z   4
loop_
 _symmetry_equiv_pos_site_id
 _symmetry_equiv_pos_as_xyz
  1  'x, y, z'
loop_
 _atom_site_type_symbol
 _atom_site_label
 _atom_site_symmetry_multiplicity
 _atom_site_fract_x
 _atom_site_fract_y
 _atom_site_fract_z
 _atom_site_occupancy
  Zn  Zn0  1  0.03704000  0.28515000  0.37917000  1.0
  Zn  Zn1  1  0.71485000  0.96296000  0.12083000  1.0
  Zn  Zn2  1  0.96296000  0.71485000  0.62083000  1.0
  Zn  Zn3  1  0.28515000  0.03704000  0.87917000  1.0
  H  H4  1  0.96501000  0.35652000  0.66008000  1.0
  H  H5  1  0.64348000  0.03498000  0.83992000  1.0
  H  H6  1  0.03499000  0.64347000  0.33992000  1.0
  H  H7  1  0.35652000  0.96501000  0.16008000  1.0
  H  H8  1  0.03014000  0.28598000  0.80681000  1.0
  H  H9  1  0.71402000  0.96986000  0.69319000  1.0
  H  H10  1  0.96986000  0.71402000  0.19319000  1.0
  H  H11  1  0.28598000  0.03014000  0.30681000  1.0
  H  H12  1  0.41023000  0.33359000  0.48558000  1.0
  H  H13  1  0.66641000  0.58977000  0.01442000  1.0
  H  H14  1  0.58977000  0.66641000  0.51442000  1.0
  H  H15  1  0.33359000  0.41023000  0.98558000  1.0
  H  H16  1  0.64751000  0.22775000  0.61639000  1.0
  H  H17  1  0.77225000  0.35249000  0.88361000  1.0
  H  H18  1  0.35249000  0.77225000  0.38361000  1.0
  H  H19  1  0.22775000  0.64751000  0.11639000  1.0
  C  C20  1  0.25440000  0.57762000  0.60458000  1.0
  C  C21  1  0.42238000  0.74560000  0.89542000  1.0
  C  C22  1  0.74560000  0.42237000  0.39542000  1.0
  C  C23  1  0.57763000  0.25440000  0.10458000  1.0
  C  C24  1  0.40270000  0.52122000  0.67490000  1.0
  C  C25  1  0.47877000  0.59731000  0.82510000  1.0
  C  C26  1  0.59731000  0.47877000  0.32510000  1.0
  C  C27  1  0.52122000  0.40269000  0.17490000  1.0
  C  C28  1  0.46629000  0.38912000  0.60114000  1.0
  C  C29  1  0.61088000  0.53371000  0.89887000  1.0
  C  C30  1  0.53371000  0.61088000  0.39887000  1.0
  C  C31  1  0.38912000  0.46629000  0.10113000  1.0
  C  C32  1  0.59913000  0.32996000  0.67531000  1.0
  C  C33  1  0.67004000  0.40087000  0.82470000  1.0
  C  C34  1  0.40087000  0.67004000  0.32470000  1.0
  C  C35  1  0.32996000  0.59913000  0.17531000  1.0
  C  C36  1  0.12205000  0.18792000  0.64531000  1.0
  C  C37  1  0.81208000  0.87795000  0.85469000  1.0
  C  C38  1  0.87795000  0.81208000  0.35469000  1.0
  C  C39  1  0.18792000  0.12205000  0.14531000  1.0
  N  N40  1  0.20265000  0.70499000  0.68130000  1.0
  N  N41  1  0.29501000  0.79736000  0.81870000  1.0
  N  N42  1  0.79736000  0.29502000  0.31870000  1.0
  N  N43  1  0.70499000  0.20264000  0.18130000  1.0
  N  N44  1  0.21517000  0.08406000  0.69642000  1.0
  N  N45  1  0.91594000  0.78483000  0.80358000  1.0
  N  N46  1  0.78483000  0.91594000  0.30358000  1.0
  N  N47  1  0.08406000  0.21517000  0.19642000  1.0
  N  N48  1  0.27793000  0.00229000  0.59349000  1.0
  N  N49  1  0.99772000  0.72208000  0.90651000  1.0
  N  N50  1  0.72207000  0.99772000  0.40651000  1.0
  N  N51  1  0.00229000  0.27792000  0.09349000  1.0
  N  N52  1  0.22518000  0.05153000  0.48495000  1.0
  N  N53  1  0.94848000  0.77483000  0.01505000  1.0
  N  N54  1  0.77482000  0.94847000  0.51505000  1.0
  N  N55  1  0.05153000  0.22518000  0.98495000  1.0
  N  N56  1  0.12609000  0.16735000  0.51243000  1.0
  N  N57  1  0.83265000  0.87391000  0.98757000  1.0
  N  N58  1  0.87391000  0.83265000  0.48757000  1.0
  N  N59  1  0.16735000  0.12609000  0.01243000  1.0
  N  N60  1  0.04481000  0.29726000  0.71579000  1.0
  N  N61  1  0.70274000  0.95519000  0.78421000  1.0
  N  N62  1  0.95519000  0.70274000  0.28421000  1.0
  N  N63  1  0.29726000  0.04480000  0.21579000  1.0
  O  O64  1  0.16508000  0.50831000  0.47100000  1.0
  O  O65  1  0.49169000  0.83492000  0.02900000  1.0
  O  O66  1  0.83492000  0.49169000  0.52900000  1.0
  O  O67  1  0.50831000  0.16508000  0.97100000  1.0
