# generated using pymatgen
data_ZnH28C18(NO)4
_symmetry_space_group_name_H-M   'P 1'
_cell_length_a   8.32471000
_cell_length_b   9.86096000
_cell_length_c   15.11000000
_cell_angle_alpha   94.76690000
_cell_angle_beta   101.31200000
_cell_angle_gamma   113.33300000
_symmetry_Int_Tables_number   1
_chemical_formula_structural   ZnH28C18(NO)4
_chemical_formula_sum   'Zn2 H56 C36 N8 O8'
_cell_volume   1098.85627214
_cell_formula_units_Z   2
loop_
 _symmetry_equiv_pos_site_id
 _symmetry_equiv_pos_as_xyz
  1  'x, y, z'
loop_
 _atom_site_type_symbol
 _atom_site_label
 _atom_site_symmetry_multiplicity
 _atom_site_fract_x
 _atom_site_fract_y
 _atom_site_fract_z
 _atom_site_occupancy
  Zn  Zn0  1  0.00000000  0.50000000  0.50000000  1.0
  Zn  Zn1  1  0.00000000  0.50001000  0.00001000  1.0
  H  H2  1  0.69213000  0.39001000  0.64049000  1.0
  H  H3  1  0.30786000  0.60998000  0.35951000  1.0
  H  H4  1  0.51332000  0.43466000  0.59325000  1.0
  H  H5  1  0.48667000  0.56533000  0.40674000  1.0
  H  H6  1  0.47759000  0.23075000  0.48654000  1.0
  H  H7  1  0.52240000  0.76924000  0.51346000  1.0
  H  H8  1  0.57339000  0.38912000  0.43459000  1.0
  H  H9  1  0.42660000  0.61086000  0.56541000  1.0
  H  H10  1  0.78660000  0.25048000  0.53717000  1.0
  H  H11  1  0.21339000  0.74951000  0.46283000  1.0
  H  H12  1  0.67967000  0.26038000  0.34123000  1.0
  H  H13  1  0.32032000  0.73960000  0.65877000  1.0
  H  H14  1  0.63183000  0.09300000  0.38784000  1.0
  H  H15  1  0.36817000  0.90699000  0.61217000  1.0
  H  H16  1  0.96912000  0.17089000  0.44451000  1.0
  H  H17  1  0.03088000  0.82911000  0.55549000  1.0
  H  H18  1  0.89702000  0.14616000  0.32321000  1.0
  H  H19  1  0.10297000  0.85383000  0.67680000  1.0
  H  H20  1  0.99882000  0.41616000  0.33885000  1.0
  H  H21  1  0.00118000  0.58384000  0.66115000  1.0
  H  H22  1  0.75512000  0.66849000  0.65135000  1.0
  H  H23  1  0.24487000  0.33150000  0.34864000  1.0
  H  H24  1  0.73301000  0.64620000  0.53107000  1.0
  H  H25  1  0.26699000  0.35379000  0.46892000  1.0
  H  H26  1  0.65679000  0.71817000  0.36209000  1.0
  H  H27  1  0.34322000  0.28183000  0.63790000  1.0
  H  H28  1  0.52277000  0.87435000  0.28011000  1.0
  H  H29  1  0.47721000  0.12564000  0.71988000  1.0
  H  H30  1  0.64582000  0.98710000  0.15298000  1.0
  H  H31  1  0.35417000  0.01290000  0.84701000  1.0
  H  H32  1  0.88145000  0.92929000  0.10185000  1.0
  H  H33  1  0.11857000  0.07073000  0.89816000  1.0
  H  H34  1  0.36016000  0.59417000  0.93703000  1.0
  H  H35  1  0.63982000  0.40582000  0.06297000  1.0
  H  H36  1  0.49716000  0.77074000  0.01021000  1.0
  H  H37  1  0.50284000  0.22925000  0.98978000  1.0
  H  H38  1  0.29083000  0.69429000  0.11026000  1.0
  H  H39  1  0.70918000  0.30571000  0.88974000  1.0
  H  H40  1  0.51046000  0.58161000  0.12752000  1.0
  H  H41  1  0.48953000  0.41838000  0.87248000  1.0
  H  H42  1  0.34388000  0.43021000  0.04097000  1.0
  H  H43  1  0.65611000  0.56979000  0.95903000  1.0
  H  H44  1  0.36468000  0.40049000  0.21084000  1.0
  H  H45  1  0.63531000  0.59950000  0.78915000  1.0
  H  H46  1  0.27122000  0.53166000  0.22027000  1.0
  H  H47  1  0.72878000  0.46833000  0.77973000  1.0
  H  H48  1  0.08300000  0.23833000  0.07967000  1.0
  H  H49  1  0.91699000  0.76166000  0.92032000  1.0
  H  H50  1  0.05373000  0.25027000  0.19311000  1.0
  H  H51  1  0.94626000  0.74972000  0.80689000  1.0
  H  H52  1  0.94292000  0.43891000  0.15933000  1.0
  H  H53  1  0.05707000  0.56109000  0.84068000  1.0
  H  H54  1  0.29618000  0.80300000  0.87919000  1.0
  H  H55  1  0.70381000  0.19700000  0.12081000  1.0
  H  H56  1  0.22646000  0.83517000  0.98036000  1.0
  H  H57  1  0.77354000  0.16483000  0.01965000  1.0
  C  C58  1  0.64189000  0.43754000  0.58359000  1.0
  C  C59  1  0.35810000  0.56245000  0.41640000  1.0
  C  C60  1  0.60089000  0.33475000  0.49275000  1.0
  C  C61  1  0.39910000  0.66523000  0.50725000  1.0
  C  C62  1  0.73114000  0.21033000  0.39617000  1.0
  C  C63  1  0.26886000  0.78966000  0.60383000  1.0
  C  C64  1  0.91401000  0.21634000  0.38802000  1.0
  C  C65  1  0.08599000  0.78365000  0.61198000  1.0
  C  C66  1  0.77014000  0.60292000  0.59296000  1.0
  C  C67  1  0.22985000  0.39707000  0.40704000  1.0
  C  C68  1  0.87610000  0.60865000  0.31670000  1.0
  C  C69  1  0.12393000  0.39137000  0.68330000  1.0
  C  C70  1  0.82985000  0.72532000  0.27352000  1.0
  C  C71  1  0.17017000  0.27469000  0.72648000  1.0
  C  C72  1  0.70300000  0.76481000  0.30428000  1.0
  C  C73  1  0.29700000  0.23519000  0.69572000  1.0
  C  C74  1  0.63234000  0.85501000  0.26054000  1.0
  C  C75  1  0.36766000  0.14499000  0.73946000  1.0
  C  C76  1  0.69884000  0.91553000  0.18788000  1.0
  C  C77  1  0.30115000  0.08447000  0.81212000  1.0
  C  C78  1  0.83068000  0.88282000  0.15903000  1.0
  C  C79  1  0.16933000  0.11720000  0.84097000  1.0
  C  C80  1  0.89551000  0.78526000  0.19976000  1.0
  C  C81  1  0.10451000  0.21477000  0.80025000  1.0
  C  C82  1  0.02522000  0.74420000  0.15778000  1.0
  C  C83  1  0.97480000  0.25583000  0.84222000  1.0
  C  C84  1  0.35742000  0.68341000  0.98471000  1.0
  C  C85  1  0.64258000  0.31659000  0.01529000  1.0
  C  C86  1  0.36381000  0.51721000  0.09777000  1.0
  C  C87  1  0.63618000  0.48279000  0.90223000  1.0
  C  C88  1  0.27529000  0.44415000  0.17166000  1.0
  C  C89  1  0.72471000  0.55585000  0.82834000  1.0
  C  C90  1  0.08600000  0.31535000  0.13765000  1.0
  C  C91  1  0.91400000  0.68465000  0.86235000  1.0
  C  C92  1  0.23600000  0.74898000  0.93310000  1.0
  C  C93  1  0.76399000  0.25102000  0.06690000  1.0
  N  N94  1  0.75421000  0.30086000  0.48419000  1.0
  N  N95  1  0.24579000  0.69913000  0.51581000  1.0
  N  N96  1  0.04125000  0.37343000  0.39530000  1.0
  N  N97  1  0.95875000  0.62656000  0.60470000  1.0
  N  N98  1  0.28338000  0.61452000  0.05869000  1.0
  N  N99  1  0.71662000  0.38548000  0.94131000  1.0
  N  N100  1  0.94730000  0.36966000  0.10556000  1.0
  N  N101  1  0.05270000  0.63034000  0.89445000  1.0
  O  O102  1  0.90772000  0.51633000  0.26720000  1.0
  O  O103  1  0.09234000  0.48371000  0.73280000  1.0
  O  O104  1  0.87350000  0.60763000  0.40119000  1.0
  O  O105  1  0.12650000  0.39237000  0.59880000  1.0
  O  O106  1  0.95349000  0.67548000  0.07440000  1.0
  O  O107  1  0.04651000  0.32451000  0.92561000  1.0
  O  O108  1  0.18526000  0.78209000  0.20269000  1.0
  O  O109  1  0.81478000  0.21798000  0.79730000  1.0
