# generated using pymatgen
data_CdH8C10(NCl)2
_symmetry_space_group_name_H-M   'P 1'
_cell_length_a   3.77671000
_cell_length_b   11.80000000
_cell_length_c   11.86350000
_cell_angle_alpha   90.00010000
_cell_angle_beta   90.00010000
_cell_angle_gamma   89.99990000
_symmetry_Int_Tables_number   1
_chemical_formula_structural   CdH8C10(NCl)2
_chemical_formula_sum   'Cd2 H16 C20 N4 Cl4'
_cell_volume   528.69898920
_cell_formula_units_Z   2
loop_
 _symmetry_equiv_pos_site_id
 _symmetry_equiv_pos_as_xyz
  1  'x, y, z'
loop_
 _atom_site_type_symbol
 _atom_site_label
 _atom_site_symmetry_multiplicity
 _atom_site_fract_x
 _atom_site_fract_y
 _atom_site_fract_z
 _atom_site_occupancy
  Cd  Cd0  1  0.50000000  0.25000000  0.75000000  1.0
  Cd  Cd1  1  0.50000000  0.75000000  0.25000000  1.0
  H  H2  1  0.31607000  0.04273000  0.91407000  1.0
  H  H3  1  0.68393000  0.54273000  0.41407000  1.0
  H  H4  1  0.31608000  0.54273000  0.08593000  1.0
  H  H5  1  0.31606000  0.95727000  0.41407000  1.0
  H  H6  1  0.68391000  0.95727000  0.08593000  1.0
  H  H7  1  0.31608000  0.45727000  0.58593000  1.0
  H  H8  1  0.68393000  0.45727000  0.91407000  1.0
  H  H9  1  0.68392000  0.04273000  0.58593000  1.0
  H  H10  1  0.31442000  0.83131000  0.92299000  1.0
  H  H11  1  0.68558000  0.33131000  0.42299000  1.0
  H  H12  1  0.31443000  0.33131000  0.07701000  1.0
  H  H13  1  0.31442000  0.16870000  0.42299000  1.0
  H  H14  1  0.68558000  0.16869000  0.07701000  1.0
  H  H15  1  0.31443000  0.66869000  0.57701000  1.0
  H  H16  1  0.68559000  0.66869000  0.92298000  1.0
  H  H17  1  0.68558000  0.83131000  0.57701000  1.0
  C  C18  1  0.40087000  0.99184000  0.84214000  1.0
  C  C19  1  0.59913000  0.49184000  0.34214000  1.0
  C  C20  1  0.40088000  0.49184000  0.15786000  1.0
  C  C21  1  0.40087000  0.00817000  0.34214000  1.0
  C  C22  1  0.59911000  0.00816000  0.15786000  1.0
  C  C23  1  0.40088000  0.50816000  0.65786000  1.0
  C  C24  1  0.59913000  0.50816000  0.84214000  1.0
  C  C25  1  0.59912000  0.99184000  0.65786000  1.0
  C  C26  1  0.40004000  0.87408000  0.84613000  1.0
  C  C27  1  0.59996000  0.37408000  0.34613000  1.0
  C  C28  1  0.40007000  0.37408000  0.15387000  1.0
  C  C29  1  0.40005000  0.12592000  0.34613000  1.0
  C  C30  1  0.59994000  0.12592000  0.15387000  1.0
  C  C31  1  0.40005000  0.62592000  0.65387000  1.0
  C  C32  1  0.59995000  0.62592000  0.84613000  1.0
  C  C33  1  0.59994000  0.87408000  0.65387000  1.0
  C  C34  1  0.49999000  0.81262000  0.75000000  1.0
  C  C35  1  0.50001000  0.31262000  0.25000000  1.0
  C  C36  1  0.50001000  0.18738000  0.25000000  1.0
  C  C37  1  0.49999000  0.68738000  0.74999000  1.0
  N  N38  1  0.50000000  0.05011000  0.75000000  1.0
  N  N39  1  0.50001000  0.55011000  0.25000000  1.0
  N  N40  1  0.49999000  0.94989000  0.25000000  1.0
  N  N41  1  0.50000000  0.44989000  0.75000000  1.0
  Cl  Cl42  1  0.00000000  0.25000000  0.90821000  1.0
  Cl  Cl43  1  0.00000000  0.75000000  0.40821000  1.0
  Cl  Cl44  1  0.00000000  0.75000000  0.09179000  1.0
  Cl  Cl45  1  0.00000000  0.25000000  0.59179000  1.0
