# generated using pymatgen
data_FeH14C24(BrN5)2
_symmetry_space_group_name_H-M   'P 1'
_cell_length_a   8.35073000
_cell_length_b   10.19120000
_cell_length_c   14.42640000
_cell_angle_alpha   90.00000000
_cell_angle_beta   90.00000000
_cell_angle_gamma   102.82800000
_symmetry_Int_Tables_number   1
_chemical_formula_structural   FeH14C24(BrN5)2
_chemical_formula_sum   'Fe2 H28 C48 Br4 N20'
_cell_volume   1197.10046761
_cell_formula_units_Z   2
loop_
 _symmetry_equiv_pos_site_id
 _symmetry_equiv_pos_as_xyz
  1  'x, y, z'
loop_
 _atom_site_type_symbol
 _atom_site_label
 _atom_site_symmetry_multiplicity
 _atom_site_fract_x
 _atom_site_fract_y
 _atom_site_fract_z
 _atom_site_occupancy
  Fe  Fe0  1  0.00000000  0.00000000  0.00000000  1.0
  Fe  Fe1  1  0.50000000  0.50000000  0.50000000  1.0
  H  H2  1  0.90275000  0.74602000  0.88031000  1.0
  H  H3  1  0.59725000  0.75398000  0.38031000  1.0
  H  H4  1  0.09725000  0.25398000  0.11969000  1.0
  H  H5  1  0.40275000  0.24602000  0.61969000  1.0
  H  H6  1  0.38963000  0.59077000  0.94998000  1.0
  H  H7  1  0.11037000  0.90923000  0.44999000  1.0
  H  H8  1  0.61038000  0.40923000  0.05001000  1.0
  H  H9  1  0.88963000  0.09077000  0.55001000  1.0
  H  H10  1  0.41028000  0.78872000  0.05697000  1.0
  H  H11  1  0.08972000  0.71128000  0.55697000  1.0
  H  H12  1  0.58972000  0.21128000  0.94303000  1.0
  H  H13  1  0.91028000  0.28872000  0.44303000  1.0
  H  H14  1  0.88628000  0.36778000  0.26232000  1.0
  H  H15  1  0.61372000  0.13222000  0.76232000  1.0
  H  H16  1  0.11372000  0.63222000  0.73768000  1.0
  H  H17  1  0.38629000  0.86778000  0.23768000  1.0
  H  H18  1  0.80293000  0.49383000  0.38656000  1.0
  H  H19  1  0.69707000  0.00617000  0.88655000  1.0
  H  H20  1  0.19707000  0.50618000  0.61344000  1.0
  H  H21  1  0.30293000  0.99383000  0.11344000  1.0
  H  H22  1  0.32533000  0.25802000  0.38320000  1.0
  H  H23  1  0.17467000  0.24197000  0.88320000  1.0
  H  H24  1  0.67467000  0.74198000  0.61680000  1.0
  H  H25  1  0.82533000  0.75802000  0.11680000  1.0
  H  H26  1  0.39488000  0.11773000  0.25934000  1.0
  H  H27  1  0.10512000  0.38227000  0.75934000  1.0
  H  H28  1  0.60511000  0.88227000  0.74066000  1.0
  H  H29  1  0.89489000  0.61773000  0.24066000  1.0
  C  C30  1  0.79085000  0.75173000  0.91796000  1.0
  C  C31  1  0.70915000  0.74828000  0.41796000  1.0
  C  C32  1  0.20916000  0.24827000  0.08204000  1.0
  C  C33  1  0.29085000  0.25172000  0.58204000  1.0
  C  C34  1  0.64450000  0.65504000  0.90837000  1.0
  C  C35  1  0.85549000  0.84496000  0.40838000  1.0
  C  C36  1  0.35550000  0.34495000  0.09162000  1.0
  C  C37  1  0.14450000  0.15504000  0.59163000  1.0
  C  C38  1  0.50427000  0.66545000  0.95785000  1.0
  C  C39  1  0.99572000  0.83455000  0.45785000  1.0
  C  C40  1  0.49573000  0.33455000  0.04215000  1.0
  C  C41  1  0.00427000  0.16545000  0.54215000  1.0
  C  C42  1  0.51536000  0.77512000  0.01654000  1.0
  C  C43  1  0.98464000  0.72488000  0.51654000  1.0
  C  C44  1  0.48464000  0.22488000  0.98346000  1.0
  C  C45  1  0.01536000  0.27512000  0.48346000  1.0
  C  C46  1  0.66363000  0.86979000  0.02381000  1.0
  C  C47  1  0.83637000  0.63021000  0.52381000  1.0
  C  C48  1  0.33637000  0.13021000  0.97619000  1.0
  C  C49  1  0.16363000  0.36979000  0.47619000  1.0
  C  C50  1  0.69256000  0.98748000  0.08182000  1.0
  C  C51  1  0.80743000  0.51252000  0.58182000  1.0
  C  C52  1  0.30743000  0.01252000  0.91818000  1.0
  C  C53  1  0.19257000  0.48748000  0.41818000  1.0
  C  C54  1  0.69561000  0.14607000  0.17492000  1.0
  C  C55  1  0.80439000  0.35393000  0.67492000  1.0
  C  C56  1  0.30439000  0.85393000  0.82508000  1.0
  C  C57  1  0.19561000  0.64607000  0.32508000  1.0
  C  C58  1  0.64765000  0.22955000  0.24690000  1.0
  C  C59  1  0.85235000  0.27045000  0.74690000  1.0
  C  C60  1  0.35235000  0.77045000  0.75310000  1.0
  C  C61  1  0.14765000  0.72956000  0.25310000  1.0
  C  C62  1  0.75918000  0.33933000  0.28555000  1.0
  C  C63  1  0.74081000  0.16067000  0.78555000  1.0
  C  C64  1  0.24081000  0.66067000  0.71445000  1.0
  C  C65  1  0.25919000  0.83933000  0.21445000  1.0
  C  C66  1  0.71094000  0.41227000  0.35735000  1.0
  C  C67  1  0.78905000  0.08773000  0.85735000  1.0
  C  C68  1  0.28906000  0.58773000  0.64265000  1.0
  C  C69  1  0.21095000  0.91227000  0.14265000  1.0
  C  C70  1  0.44937000  0.28086000  0.35579000  1.0
  C  C71  1  0.05062000  0.21913000  0.85579000  1.0
  C  C72  1  0.55063000  0.71914000  0.64421000  1.0
  C  C73  1  0.94938000  0.78087000  0.14421000  1.0
  C  C74  1  0.48872000  0.20172000  0.28488000  1.0
  C  C75  1  0.01128000  0.29828000  0.78488000  1.0
  C  C76  1  0.51128000  0.79828000  0.71512000  1.0
  C  C77  1  0.98872000  0.70172000  0.21512000  1.0
  Br  Br78  1  0.63820000  0.50968000  0.82602000  1.0
  Br  Br79  1  0.86179000  0.99032000  0.32602000  1.0
  Br  Br80  1  0.36181000  0.49032000  0.17398000  1.0
  Br  Br81  1  0.13819000  0.00968000  0.67399000  1.0
  N  N82  1  0.80134000  0.85799000  0.97509000  1.0
  N  N83  1  0.69865000  0.64201000  0.47509000  1.0
  N  N84  1  0.19866000  0.14201000  0.02491000  1.0
  N  N85  1  0.30134000  0.35799000  0.52491000  1.0
  N  N86  1  0.84771000  0.06566000  0.08047000  1.0
  N  N87  1  0.65229000  0.43434000  0.58047000  1.0
  N  N88  1  0.15229000  0.93434000  0.91953000  1.0
  N  N89  1  0.34771000  0.56566000  0.41953000  1.0
  N  N90  1  0.85110000  0.16799000  0.13990000  1.0
  N  N91  1  0.64890000  0.33201000  0.63990000  1.0
  N  N92  1  0.14890000  0.83201000  0.86010000  1.0
  N  N93  1  0.35110000  0.66799000  0.36010000  1.0
  N  N94  1  0.59324000  0.03456000  0.14002000  1.0
  N  N95  1  0.90676000  0.46544000  0.64002000  1.0
  N  N96  1  0.40676000  0.96544000  0.85998000  1.0
  N  N97  1  0.09324000  0.53456000  0.35998000  1.0
  N  N98  1  0.55752000  0.38648000  0.39411000  1.0
  N  N99  1  0.94248000  0.11352000  0.89411000  1.0
  N  N100  1  0.44248000  0.61352000  0.60589000  1.0
  N  N101  1  0.05753000  0.88648000  0.10589000  1.0
