# generated using pymatgen
data_Zn2H12C21S(NO6)2
_symmetry_space_group_name_H-M   'P 1'
_cell_length_a   7.81736000
_cell_length_b   8.95249000
_cell_length_c   12.74560000
_cell_angle_alpha   78.49100000
_cell_angle_beta   76.54900000
_cell_angle_gamma   88.74120000
_symmetry_Int_Tables_number   1
_chemical_formula_structural   Zn2H12C21S(NO6)2
_chemical_formula_sum   'Zn2 H12 C21 S1 N2 O12'
_cell_volume   849.80774905
_cell_formula_units_Z   1
loop_
 _symmetry_equiv_pos_site_id
 _symmetry_equiv_pos_as_xyz
  1  'x, y, z'
loop_
 _atom_site_type_symbol
 _atom_site_label
 _atom_site_symmetry_multiplicity
 _atom_site_fract_x
 _atom_site_fract_y
 _atom_site_fract_z
 _atom_site_occupancy
  Zn  Zn0  1  0.17152000  0.47878000  0.52170000  1.0
  Zn  Zn1  1  0.82263000  0.53249000  0.48451000  1.0
  H  H2  1  0.97013000  0.69191000  0.12250000  1.0
  H  H3  1  0.83397000  0.02225000  0.45226000  1.0
  H  H4  1  0.18330000  0.75748000  0.65576000  1.0
  H  H5  1  0.62680000  0.23116000  0.75834000  1.0
  H  H6  1  0.50053000  0.67023000  0.46203000  1.0
  H  H7  1  0.49750000  0.35416000  0.52563000  1.0
  H  H8  1  0.26361000  0.51004000  0.80387000  1.0
  H  H9  1  0.08293000  0.66938000  0.92624000  1.0
  H  H10  1  0.43485000  0.48612000  0.20364000  1.0
  H  H11  1  0.07390000  0.31929000  0.87445000  1.0
  H  H12  1  0.68536000  0.42331000  0.14698000  1.0
  H  H13  1  0.97287000  0.31925000  0.07590000  1.0
  C  C14  1  0.93168000  0.22753000  0.49272000  1.0
  C  C15  1  0.82728000  0.39120000  0.83898000  1.0
  C  C16  1  0.92255000  0.06044000  0.49695000  1.0
  C  C17  1  0.90338000  0.42714000  0.71720000  1.0
  C  C18  1  0.01402000  0.95289000  0.54871000  1.0
  C  C19  1  0.00810000  0.79234000  0.53006000  1.0
  C  C20  1  0.12129000  0.57737000  0.29363000  1.0
  C  C21  1  0.15982000  0.62953000  0.98718000  1.0
  C  C22  1  0.19690000  0.58634000  0.17357000  1.0
  C  C23  1  0.93995000  0.34914000  0.90935000  1.0
  C  C24  1  0.88345000  0.35170000  0.02163000  1.0
  C  C25  1  0.59956000  0.44678000  0.99421000  1.0
  C  C26  1  0.71975000  0.40799000  0.06197000  1.0
  C  C27  1  0.52824000  0.32094000  0.74801000  1.0
  C  C28  1  0.64934000  0.42350000  0.88403000  1.0
  C  C29  1  0.42835000  0.51047000  0.03126000  1.0
  C  C30  1  0.32006000  0.55609000  0.95441000  1.0
  C  C31  1  0.36222000  0.50464000  0.85265000  1.0
  C  C32  1  0.51515000  0.42897000  0.82280000  1.0
  C  C33  1  0.36192000  0.52621000  0.14073000  1.0
  C  C34  1  0.09768000  0.64294000  0.09540000  1.0
  S  S35  1  0.15663000  0.99399000  0.63348000  1.0
  N  N36  1  0.55661000  0.56488000  0.47934000  1.0
  N  N37  1  0.44316000  0.46040000  0.50626000  1.0
  O  O38  1  0.07945000  0.28318000  0.49325000  1.0
  O  O39  1  0.06747000  0.08803000  0.70685000  1.0
  O  O40  1  0.16123000  0.82935000  0.70907000  1.0
  O  O41  1  0.42766000  0.31155000  0.68805000  1.0
  O  O42  1  0.79251000  0.30146000  0.48506000  1.0
  O  O43  1  0.07014000  0.42880000  0.68505000  1.0
  O  O44  1  0.79940000  0.46443000  0.65245000  1.0
  O  O45  1  0.14055000  0.70980000  0.54463000  1.0
  O  O46  1  0.87737000  0.75238000  0.49892000  1.0
  O  O47  1  0.22832000  0.56771000  0.35627000  1.0
  O  O48  1  0.95358000  0.57409000  0.32519000  1.0
  O  O49  1  0.32914000  0.03476000  0.56379000  1.0
