# generated using pymatgen
data_CdH14C18N3O7
_symmetry_space_group_name_H-M   'P 1'
_cell_length_a   12.41760000
_cell_length_b   15.59450000
_cell_length_c   24.18930000
_cell_angle_alpha   90.00020000
_cell_angle_beta   89.99970000
_cell_angle_gamma   89.99960000
_symmetry_Int_Tables_number   1
_chemical_formula_structural   CdH14C18N3O7
_chemical_formula_sum   'Cd8 H112 C144 N24 O56'
_cell_volume   4684.16755422
_cell_formula_units_Z   8
loop_
 _symmetry_equiv_pos_site_id
 _symmetry_equiv_pos_as_xyz
  1  'x, y, z'
loop_
 _atom_site_type_symbol
 _atom_site_label
 _atom_site_symmetry_multiplicity
 _atom_site_fract_x
 _atom_site_fract_y
 _atom_site_fract_z
 _atom_site_occupancy
  Cd  Cd0  1  0.32299000  0.42748000  0.26770000  1.0
  Cd  Cd1  1  0.17701000  0.92749000  0.23231000  1.0
  Cd  Cd2  1  0.32300000  0.07252000  0.73231000  1.0
  Cd  Cd3  1  0.17701000  0.57252000  0.76769000  1.0
  Cd  Cd4  1  0.67701000  0.57252000  0.73231000  1.0
  Cd  Cd5  1  0.82298000  0.07252000  0.76768000  1.0
  Cd  Cd6  1  0.67701000  0.92748000  0.26769000  1.0
  Cd  Cd7  1  0.82299000  0.42748000  0.23231000  1.0
  H  H8  1  0.49567000  0.96023000  0.38987000  1.0
  H  H9  1  0.43083000  0.06945000  0.46072000  1.0
  H  H10  1  0.37412000  0.21652000  0.42528000  1.0
  H  H11  1  0.39193000  0.11215000  0.11441000  1.0
  H  H12  1  0.56559000  0.19512000  0.09719000  1.0
  H  H13  1  0.67895000  0.23692000  0.17880000  1.0
  H  H14  1  0.53678000  0.38498000  0.19216000  1.0
  H  H15  1  0.59748000  0.39052000  0.09445000  1.0
  H  H16  1  0.28802000  0.50079000  0.05313000  1.0
  H  H17  1  0.24279000  0.49448000  0.15406000  1.0
  H  H18  1  0.41015000  0.44140000  0.97836000  1.0
  H  H19  1  0.54277000  0.40781000  0.99517000  1.0
  H  H20  1  0.10158000  0.40498000  0.22144000  1.0
  H  H21  1  0.15174000  0.30779000  0.22528000  1.0
  H  H22  1  0.00435000  0.46024000  0.11015000  1.0
  H  H23  1  0.06917000  0.56946000  0.03929000  1.0
  H  H24  1  0.12587000  0.71653000  0.07474000  1.0
  H  H25  1  0.10809000  0.61214000  0.38560000  1.0
  H  H26  1  0.93444000  0.69512000  0.40283000  1.0
  H  H27  1  0.82107000  0.73693000  0.32123000  1.0
  H  H28  1  0.96323000  0.88497000  0.30785000  1.0
  H  H29  1  0.90253000  0.89050000  0.40555000  1.0
  H  H30  1  0.21199000  0.00078000  0.44688000  1.0
  H  H31  1  0.25721000  0.99448000  0.34595000  1.0
  H  H32  1  0.08985000  0.94137000  0.52165000  1.0
  H  H33  1  0.95723000  0.90780000  0.50484000  1.0
  H  H34  1  0.39842000  0.90498000  0.27856000  1.0
  H  H35  1  0.34826000  0.80779000  0.27472000  1.0
  H  H36  1  0.49566000  0.53977000  0.61014000  1.0
  H  H37  1  0.43083000  0.43055000  0.53929000  1.0
  H  H38  1  0.37413000  0.28347000  0.57473000  1.0
  H  H39  1  0.39190000  0.38786000  0.88560000  1.0
  H  H40  1  0.56557000  0.30489000  0.90282000  1.0
  H  H41  1  0.67894000  0.26309000  0.82122000  1.0
  H  H42  1  0.53677000  0.11503000  0.80785000  1.0
  H  H43  1  0.59748000  0.10950000  0.90555000  1.0
  H  H44  1  0.28803000  0.99920000  0.94687000  1.0
  H  H45  1  0.24280000  0.00551000  0.84594000  1.0
  H  H46  1  0.41016000  0.05861000  0.02165000  1.0
  H  H47  1  0.54278000  0.09220000  0.00483000  1.0
  H  H48  1  0.10158000  0.09502000  0.77856000  1.0
  H  H49  1  0.15174000  0.19221000  0.77471000  1.0
  H  H50  1  0.00434000  0.03976000  0.88985000  1.0
  H  H51  1  0.06916000  0.93054000  0.96071000  1.0
  H  H52  1  0.12586000  0.78346000  0.92526000  1.0
  H  H53  1  0.10810000  0.88785000  0.61439000  1.0
  H  H54  1  0.93445000  0.80488000  0.59717000  1.0
  H  H55  1  0.82107000  0.76307000  0.67877000  1.0
  H  H56  1  0.96323000  0.61503000  0.69215000  1.0
  H  H57  1  0.90253000  0.60950000  0.59445000  1.0
  H  H58  1  0.21198000  0.49921000  0.55312000  1.0
  H  H59  1  0.25720000  0.50551000  0.65405000  1.0
  H  H60  1  0.08985000  0.55862000  0.47835000  1.0
  H  H61  1  0.95723000  0.59220000  0.49516000  1.0
  H  H62  1  0.39843000  0.59501000  0.72143000  1.0
  H  H63  1  0.34826000  0.69220000  0.72526000  1.0
  H  H64  1  0.50434000  0.03976000  0.61013000  1.0
  H  H65  1  0.56917000  0.93054000  0.53928000  1.0
  H  H66  1  0.62588000  0.78346000  0.57472000  1.0
  H  H67  1  0.60808000  0.88784000  0.88559000  1.0
  H  H68  1  0.43441000  0.80487000  0.90280000  1.0
  H  H69  1  0.32105000  0.76307000  0.82120000  1.0
  H  H70  1  0.46322000  0.61503000  0.80785000  1.0
  H  H71  1  0.40252000  0.60950000  0.90555000  1.0
  H  H72  1  0.71198000  0.49923000  0.94688000  1.0
  H  H73  1  0.75720000  0.50551000  0.84595000  1.0
  H  H74  1  0.58984000  0.55864000  0.02165000  1.0
  H  H75  1  0.45722000  0.59222000  0.00484000  1.0
  H  H76  1  0.89842000  0.59502000  0.77857000  1.0
  H  H77  1  0.84826000  0.69221000  0.77473000  1.0
  H  H78  1  0.99565000  0.53976000  0.88985000  1.0
  H  H79  1  0.93084000  0.43053000  0.96071000  1.0
  H  H80  1  0.87414000  0.28346000  0.92526000  1.0
  H  H81  1  0.89190000  0.38787000  0.61440000  1.0
  H  H82  1  0.06555000  0.30489000  0.59717000  1.0
  H  H83  1  0.17893000  0.26307000  0.67876000  1.0
  H  H84  1  0.03677000  0.11503000  0.69215000  1.0
  H  H85  1  0.09748000  0.10950000  0.59445000  1.0
  H  H86  1  0.78803000  0.99922000  0.55312000  1.0
  H  H87  1  0.74280000  0.00551000  0.65405000  1.0
  H  H88  1  0.91017000  0.05863000  0.47835000  1.0
  H  H89  1  0.04279000  0.09220000  0.49517000  1.0
  H  H90  1  0.60157000  0.09502000  0.72142000  1.0
  H  H91  1  0.65173000  0.19221000  0.72527000  1.0
  H  H92  1  0.50434000  0.46023000  0.38986000  1.0
  H  H93  1  0.56916000  0.56945000  0.46072000  1.0
  H  H94  1  0.62587000  0.71653000  0.42528000  1.0
  H  H95  1  0.60809000  0.61215000  0.11441000  1.0
  H  H96  1  0.43443000  0.69512000  0.09719000  1.0
  H  H97  1  0.32106000  0.73692000  0.17879000  1.0
  H  H98  1  0.46322000  0.88498000  0.19215000  1.0
  H  H99  1  0.40254000  0.89050000  0.09445000  1.0
  H  H100  1  0.71199000  0.00079000  0.05312000  1.0
  H  H101  1  0.75720000  0.99449000  0.15406000  1.0
  H  H102  1  0.58985000  0.94137000  0.97835000  1.0
  H  H103  1  0.45723000  0.90779000  0.99517000  1.0
  H  H104  1  0.89842000  0.90498000  0.22144000  1.0
  H  H105  1  0.84826000  0.80779000  0.22528000  1.0
  H  H106  1  0.99566000  0.96024000  0.11015000  1.0
  H  H107  1  0.93083000  0.06946000  0.03929000  1.0
  H  H108  1  0.87412000  0.21654000  0.07474000  1.0
  H  H109  1  0.89190000  0.11214000  0.38560000  1.0
  H  H110  1  0.06555000  0.19512000  0.40283000  1.0
  H  H111  1  0.17893000  0.23693000  0.32123000  1.0
  H  H112  1  0.03677000  0.38497000  0.30785000  1.0
  H  H113  1  0.09748000  0.39050000  0.40555000  1.0
  H  H114  1  0.78802000  0.50078000  0.44688000  1.0
  H  H115  1  0.74279000  0.49448000  0.34595000  1.0
  H  H116  1  0.91016000  0.44138000  0.52165000  1.0
  H  H117  1  0.04278000  0.40779000  0.50484000  1.0
  H  H118  1  0.60158000  0.40499000  0.27857000  1.0
  H  H119  1  0.65174000  0.30780000  0.27473000  1.0
  C  C120  1  0.47286000  0.02576000  0.37989000  1.0
  C  C121  1  0.43678000  0.08649000  0.41715000  1.0
  C  C122  1  0.40690000  0.16744000  0.39803000  1.0
  C  C123  1  0.41837000  0.18748000  0.34213000  1.0
  C  C124  1  0.45701000  0.12521000  0.30542000  1.0
  C  C125  1  0.47938000  0.14032000  0.24583000  1.0
  C  C126  1  0.41401000  0.11416000  0.20214000  1.0
  C  C127  1  0.44401000  0.13331000  0.14791000  1.0
  C  C128  1  0.53931000  0.17808000  0.13874000  1.0
  C  C129  1  0.60390000  0.20167000  0.18283000  1.0
  C  C130  1  0.38279000  0.27461000  0.32178000  1.0
  C  C131  1  0.31499000  0.06255000  0.21457000  1.0
  C  C132  1  0.48369000  0.40998000  0.16010000  1.0
  C  C133  1  0.51666000  0.41251000  0.10510000  1.0
  C  C134  1  0.44641000  0.44481000  0.06504000  1.0
  C  C135  1  0.34555000  0.47426000  0.08267000  1.0
  C  C136  1  0.31918000  0.47052000  0.13834000  1.0
  C  C137  1  0.47918000  0.45414000  0.00570000  1.0
  C  C138  1  0.02715000  0.52575000  0.12013000  1.0
  C  C139  1  0.06322000  0.58650000  0.08287000  1.0
  C  C140  1  0.09310000  0.66744000  0.10199000  1.0
  C  C141  1  0.08163000  0.68749000  0.15789000  1.0
  C  C142  1  0.04300000  0.62522000  0.19460000  1.0
  C  C143  1  0.02063000  0.64032000  0.25419000  1.0
  C  C144  1  0.08601000  0.61417000  0.29788000  1.0
  C  C145  1  0.05601000  0.63331000  0.35211000  1.0
  C  C146  1  0.96071000  0.67808000  0.36128000  1.0
  C  C147  1  0.89612000  0.70168000  0.31719000  1.0
  C  C148  1  0.11720000  0.77461000  0.17824000  1.0
  C  C149  1  0.18503000  0.56255000  0.28544000  1.0
  C  C150  1  0.01632000  0.90997000  0.33990000  1.0
  C  C151  1  0.98335000  0.91249000  0.39490000  1.0
  C  C152  1  0.05360000  0.94479000  0.43497000  1.0
  C  C153  1  0.15445000  0.97425000  0.41734000  1.0
  C  C154  1  0.18083000  0.97051000  0.36166000  1.0
  C  C155  1  0.02083000  0.95412000  0.49430000  1.0
  C  C156  1  0.47285000  0.47424000  0.62012000  1.0
  C  C157  1  0.43678000  0.41351000  0.58287000  1.0
  C  C158  1  0.40690000  0.33256000  0.60198000  1.0
  C  C159  1  0.41837000  0.31252000  0.65788000  1.0
  C  C160  1  0.45700000  0.37478000  0.69459000  1.0
  C  C161  1  0.47937000  0.35968000  0.75418000  1.0
  C  C162  1  0.41399000  0.38584000  0.79787000  1.0
  C  C163  1  0.44399000  0.36669000  0.85210000  1.0
  C  C164  1  0.53929000  0.32193000  0.86128000  1.0
  C  C165  1  0.60388000  0.29834000  0.81719000  1.0
  C  C166  1  0.38279000  0.22539000  0.67823000  1.0
  C  C167  1  0.31497000  0.43745000  0.78543000  1.0
  C  C168  1  0.48369000  0.09003000  0.83990000  1.0
  C  C169  1  0.51666000  0.08750000  0.89490000  1.0
  C  C170  1  0.44641000  0.05520000  0.93497000  1.0
  C  C171  1  0.34556000  0.02574000  0.91734000  1.0
  C  C172  1  0.31918000  0.02948000  0.86166000  1.0
  C  C173  1  0.47918000  0.04586000  0.99430000  1.0
  C  C174  1  0.02714000  0.97425000  0.87987000  1.0
  C  C175  1  0.06320000  0.91350000  0.91713000  1.0
  C  C176  1  0.09308000  0.83256000  0.89801000  1.0
  C  C177  1  0.08161000  0.81251000  0.84211000  1.0
  C  C178  1  0.04299000  0.87479000  0.80539000  1.0
  C  C179  1  0.02062000  0.85968000  0.74581000  1.0
  C  C180  1  0.08601000  0.88584000  0.70212000  1.0
  C  C181  1  0.05602000  0.86669000  0.64789000  1.0
  C  C182  1  0.96072000  0.82191000  0.63871000  1.0
  C  C183  1  0.89612000  0.79832000  0.68280000  1.0
  C  C184  1  0.11719000  0.72539000  0.82175000  1.0
  C  C185  1  0.18502000  0.93745000  0.71456000  1.0
  C  C186  1  0.01631000  0.59003000  0.66010000  1.0
  C  C187  1  0.98335000  0.58750000  0.60509000  1.0
  C  C188  1  0.05359000  0.55520000  0.56503000  1.0
  C  C189  1  0.15445000  0.52574000  0.58266000  1.0
  C  C190  1  0.18082000  0.52948000  0.63833000  1.0
  C  C191  1  0.02082000  0.54587000  0.50570000  1.0
  C  C192  1  0.52715000  0.97423000  0.62011000  1.0
  C  C193  1  0.56322000  0.91351000  0.58286000  1.0
  C  C194  1  0.59310000  0.83256000  0.60197000  1.0
  C  C195  1  0.58163000  0.81251000  0.65787000  1.0
  C  C196  1  0.54299000  0.87478000  0.69459000  1.0
  C  C197  1  0.52062000  0.85968000  0.75417000  1.0
  C  C198  1  0.58599000  0.88584000  0.79786000  1.0
  C  C199  1  0.55599000  0.86668000  0.85208000  1.0
  C  C200  1  0.46068000  0.82191000  0.86126000  1.0
  C  C201  1  0.39610000  0.79832000  0.81717000  1.0
  C  C202  1  0.61721000  0.72538000  0.67822000  1.0
  C  C203  1  0.68500000  0.93745000  0.78543000  1.0
  C  C204  1  0.51631000  0.59003000  0.83990000  1.0
  C  C205  1  0.48334000  0.58751000  0.89491000  1.0
  C  C206  1  0.55359000  0.55522000  0.93497000  1.0
  C  C207  1  0.65444000  0.52575000  0.91734000  1.0
  C  C208  1  0.68082000  0.52948000  0.86166000  1.0
  C  C209  1  0.52082000  0.54589000  0.99430000  1.0
  C  C210  1  0.97285000  0.47424000  0.87987000  1.0
  C  C211  1  0.93679000  0.41350000  0.91713000  1.0
  C  C212  1  0.90691000  0.33255000  0.89801000  1.0
  C  C213  1  0.91838000  0.31251000  0.84211000  1.0
  C  C214  1  0.95700000  0.37478000  0.80540000  1.0
  C  C215  1  0.97937000  0.35968000  0.74581000  1.0
  C  C216  1  0.91399000  0.38584000  0.70212000  1.0
  C  C217  1  0.94398000  0.36669000  0.64789000  1.0
  C  C218  1  0.03928000  0.32192000  0.63871000  1.0
  C  C219  1  0.10387000  0.29833000  0.68280000  1.0
  C  C220  1  0.88280000  0.22538000  0.82176000  1.0
  C  C221  1  0.81498000  0.43746000  0.71456000  1.0
  C  C222  1  0.98369000  0.09003000  0.66010000  1.0
  C  C223  1  0.01666000  0.08751000  0.60510000  1.0
  C  C224  1  0.94642000  0.05521000  0.56503000  1.0
  C  C225  1  0.84556000  0.02574000  0.58266000  1.0
  C  C226  1  0.81918000  0.02948000  0.63833000  1.0
  C  C227  1  0.97919000  0.04587000  0.50570000  1.0
  C  C228  1  0.52715000  0.52576000  0.37988000  1.0
  C  C229  1  0.56322000  0.58649000  0.41714000  1.0
  C  C230  1  0.59310000  0.66744000  0.39803000  1.0
  C  C231  1  0.58163000  0.68748000  0.34213000  1.0
  C  C232  1  0.54300000  0.62522000  0.30541000  1.0
  C  C233  1  0.52063000  0.64032000  0.24583000  1.0
  C  C234  1  0.58601000  0.61417000  0.20213000  1.0
  C  C235  1  0.55600000  0.63332000  0.14791000  1.0
  C  C236  1  0.46070000  0.67808000  0.13873000  1.0
  C  C237  1  0.39611000  0.70167000  0.18282000  1.0
  C  C238  1  0.61721000  0.77461000  0.32178000  1.0
  C  C239  1  0.68502000  0.56256000  0.21457000  1.0
  C  C240  1  0.51632000  0.90997000  0.16010000  1.0
  C  C241  1  0.48335000  0.91250000  0.10509000  1.0
  C  C242  1  0.55359000  0.94479000  0.06503000  1.0
  C  C243  1  0.65445000  0.97426000  0.08266000  1.0
  C  C244  1  0.68083000  0.97052000  0.13834000  1.0
  C  C245  1  0.52083000  0.95412000  0.00570000  1.0
  C  C246  1  0.97285000  0.02576000  0.12012000  1.0
  C  C247  1  0.93678000  0.08650000  0.08287000  1.0
  C  C248  1  0.90690000  0.16744000  0.10199000  1.0
  C  C249  1  0.91837000  0.18749000  0.15789000  1.0
  C  C250  1  0.95700000  0.12522000  0.19460000  1.0
  C  C251  1  0.97937000  0.14032000  0.25418000  1.0
  C  C252  1  0.91399000  0.11416000  0.29788000  1.0
  C  C253  1  0.94399000  0.13331000  0.35210000  1.0
  C  C254  1  0.03928000  0.17808000  0.36128000  1.0
  C  C255  1  0.10388000  0.20167000  0.31719000  1.0
  C  C256  1  0.88280000  0.27462000  0.17824000  1.0
  C  C257  1  0.81498000  0.06255000  0.28544000  1.0
  C  C258  1  0.98369000  0.40997000  0.33990000  1.0
  C  C259  1  0.01665000  0.41249000  0.39491000  1.0
  C  C260  1  0.94641000  0.44479000  0.43497000  1.0
  C  C261  1  0.84555000  0.47425000  0.41734000  1.0
  C  C262  1  0.81917000  0.47051000  0.36167000  1.0
  C  C263  1  0.97918000  0.45412000  0.49430000  1.0
  N  N264  1  0.38689000  0.43854000  0.17648000  1.0
  N  N265  1  0.57444000  0.18253000  0.23569000  1.0
  N  N266  1  0.48032000  0.04475000  0.32511000  1.0
  N  N267  1  0.11313000  0.93854000  0.32353000  1.0
  N  N268  1  0.92557000  0.68253000  0.26433000  1.0
  N  N269  1  0.01969000  0.54475000  0.17490000  1.0
  N  N270  1  0.38689000  0.06146000  0.82353000  1.0
  N  N271  1  0.57443000  0.31748000  0.76432000  1.0
  N  N272  1  0.48031000  0.45525000  0.67490000  1.0
  N  N273  1  0.11312000  0.56146000  0.67647000  1.0
  N  N274  1  0.92557000  0.81747000  0.73567000  1.0
  N  N275  1  0.01968000  0.95525000  0.82510000  1.0
  N  N276  1  0.61311000  0.56146000  0.82353000  1.0
  N  N277  1  0.42556000  0.81747000  0.76431000  1.0
  N  N278  1  0.51968000  0.95524000  0.67488000  1.0
  N  N279  1  0.88688000  0.06146000  0.67647000  1.0
  N  N280  1  0.07442000  0.31747000  0.73567000  1.0
  N  N281  1  0.98031000  0.45525000  0.82510000  1.0
  N  N282  1  0.61312000  0.93855000  0.17647000  1.0
  N  N283  1  0.42557000  0.68253000  0.23569000  1.0
  N  N284  1  0.51969000  0.54475000  0.32511000  1.0
  N  N285  1  0.88688000  0.43854000  0.32353000  1.0
  N  N286  1  0.07443000  0.18253000  0.26433000  1.0
  N  N287  1  0.98031000  0.04475000  0.17490000  1.0
  O  O288  1  0.40972000  0.29608000  0.27282000  1.0
  O  O289  1  0.32636000  0.32036000  0.35385000  1.0
  O  O290  1  0.27377000  0.01898000  0.17511000  1.0
  O  O291  1  0.28186000  0.06068000  0.26400000  1.0
  O  O292  1  0.50476000  0.98299000  0.29002000  1.0
  O  O293  1  0.63440000  0.20586000  0.27742000  1.0
  O  O294  1  0.16589000  0.37082000  0.23082000  1.0
  O  O295  1  0.09026000  0.79609000  0.22720000  1.0
  O  O296  1  0.17364000  0.82036000  0.14617000  1.0
  O  O297  1  0.22623000  0.51896000  0.32490000  1.0
  O  O298  1  0.21816000  0.56069000  0.23601000  1.0
  O  O299  1  0.99524000  0.48300000  0.21000000  1.0
  O  O300  1  0.86560000  0.70585000  0.22261000  1.0
  O  O301  1  0.33413000  0.87082000  0.26915000  1.0
  O  O302  1  0.40974000  0.20391000  0.72719000  1.0
  O  O303  1  0.32634000  0.17964000  0.64617000  1.0
  O  O304  1  0.27376000  0.48103000  0.82489000  1.0
  O  O305  1  0.28184000  0.43930000  0.73601000  1.0
  O  O306  1  0.50476000  0.51700000  0.70999000  1.0
  O  O307  1  0.63440000  0.29416000  0.72260000  1.0
  O  O308  1  0.16589000  0.12917000  0.76917000  1.0
  O  O309  1  0.09025000  0.70392000  0.77279000  1.0
  O  O310  1  0.17365000  0.67964000  0.85382000  1.0
  O  O311  1  0.22624000  0.98103000  0.67510000  1.0
  O  O312  1  0.21815000  0.93931000  0.76399000  1.0
  O  O313  1  0.99524000  0.01701000  0.79000000  1.0
  O  O314  1  0.86560000  0.79416000  0.77739000  1.0
  O  O315  1  0.33411000  0.62917000  0.73081000  1.0
  O  O316  1  0.59028000  0.70392000  0.72719000  1.0
  O  O317  1  0.67364000  0.67963000  0.64615000  1.0
  O  O318  1  0.72621000  0.98103000  0.82489000  1.0
  O  O319  1  0.71813000  0.93932000  0.73600000  1.0
  O  O320  1  0.49524000  0.01700000  0.70998000  1.0
  O  O321  1  0.36560000  0.79414000  0.72258000  1.0
  O  O322  1  0.83410000  0.62918000  0.76919000  1.0
  O  O323  1  0.90972000  0.20392000  0.77279000  1.0
  O  O324  1  0.82638000  0.17963000  0.85383000  1.0
  O  O325  1  0.77376000  0.48104000  0.67510000  1.0
  O  O326  1  0.78185000  0.43932000  0.76399000  1.0
  O  O327  1  0.00476000  0.51700000  0.79000000  1.0
  O  O328  1  0.13439000  0.29415000  0.77739000  1.0
  O  O329  1  0.66589000  0.12918000  0.73080000  1.0
  O  O330  1  0.59029000  0.79608000  0.27282000  1.0
  O  O331  1  0.67364000  0.82036000  0.35385000  1.0
  O  O332  1  0.72623000  0.51897000  0.17511000  1.0
  O  O333  1  0.71815000  0.56070000  0.26400000  1.0
  O  O334  1  0.49524000  0.48300000  0.29001000  1.0
  O  O335  1  0.36560000  0.70585000  0.27741000  1.0
  O  O336  1  0.83411000  0.87083000  0.23083000  1.0
  O  O337  1  0.90975000  0.29609000  0.22720000  1.0
  O  O338  1  0.82636000  0.32037000  0.14618000  1.0
  O  O339  1  0.77377000  0.01896000  0.32490000  1.0
  O  O340  1  0.78184000  0.06069000  0.23601000  1.0
  O  O341  1  0.00476000  0.98300000  0.21000000  1.0
  O  O342  1  0.13440000  0.20584000  0.22261000  1.0
  O  O343  1  0.66589000  0.37083000  0.26918000  1.0
