# generated using pymatgen
data_ZnH7C5N3O2
_symmetry_space_group_name_H-M   'P 1'
_cell_length_a   11.37100000
_cell_length_b   13.75594670
_cell_length_c   13.75800000
_cell_angle_alpha   80.19316502
_cell_angle_beta   65.59330000
_cell_angle_gamma   65.60991389
_symmetry_Int_Tables_number   1
_chemical_formula_structural   ZnH7C5N3O2
_chemical_formula_sum   'Zn8 H56 C40 N24 O16'
_cell_volume   1784.80407075
_cell_formula_units_Z   8
loop_
 _symmetry_equiv_pos_site_id
 _symmetry_equiv_pos_as_xyz
  1  'x, y, z'
loop_
 _atom_site_type_symbol
 _atom_site_label
 _atom_site_symmetry_multiplicity
 _atom_site_fract_x
 _atom_site_fract_y
 _atom_site_fract_z
 _atom_site_occupancy
  Zn  Zn0  1  0.88523000  0.45224000  0.47278000  1.0
  Zn  Zn1  1  0.81040000  0.04775000  0.02726000  1.0
  Zn  Zn2  1  0.33760000  0.47264000  0.04780000  1.0
  Zn  Zn3  1  0.85796000  0.02711000  0.45235000  1.0
  Zn  Zn4  1  0.11476000  0.54777000  0.52722000  1.0
  Zn  Zn5  1  0.18960000  0.95225000  0.97274000  1.0
  Zn  Zn6  1  0.66240000  0.52736000  0.95220000  1.0
  Zn  Zn7  1  0.14205000  0.97289000  0.54765000  1.0
  H  H8  1  0.33742000  0.57682000  0.35290000  1.0
  H  H9  1  0.26717000  0.92326000  0.14710000  1.0
  H  H10  1  0.91451000  0.35290000  0.92325000  1.0
  H  H11  1  0.19022000  0.14724000  0.57668000  1.0
  H  H12  1  0.66258000  0.42318000  0.64709000  1.0
  H  H13  1  0.73282000  0.07675000  0.85289000  1.0
  H  H14  1  0.08549000  0.64710000  0.07675000  1.0
  H  H15  1  0.80977000  0.85276000  0.42332000  1.0
  H  H16  1  0.34035000  0.62644000  0.22373000  1.0
  H  H17  1  0.19047000  0.87366000  0.27627000  1.0
  H  H18  1  0.96704000  0.22371000  0.87356000  1.0
  H  H19  1  0.06398000  0.27640000  0.62643000  1.0
  H  H20  1  0.65965000  0.37356000  0.77627000  1.0
  H  H21  1  0.80953000  0.12635000  0.72373000  1.0
  H  H22  1  0.03296000  0.77629000  0.12644000  1.0
  H  H23  1  0.93601000  0.72360000  0.37358000  1.0
  H  H24  1  0.45242000  0.49593000  0.23768000  1.0
  H  H25  1  0.18626000  0.00411000  0.26235000  1.0
  H  H26  1  0.94862000  0.23768000  0.00407000  1.0
  H  H27  1  0.18999000  0.26249000  0.49590000  1.0
  H  H28  1  0.54758000  0.50407000  0.76232000  1.0
  H  H29  1  0.81375000  0.99589000  0.73764000  1.0
  H  H30  1  0.05139000  0.76232000  0.99593000  1.0
  H  H31  1  0.81001000  0.73751000  0.50411000  1.0
  H  H32  1  0.07122000  0.42423000  0.21704000  1.0
  H  H33  1  0.71266000  0.07545000  0.28329000  1.0
  H  H34  1  0.49596000  0.21684000  0.07570000  1.0
  H  H35  1  0.78841000  0.28295000  0.42406000  1.0
  H  H36  1  0.92878000  0.57577000  0.78296000  1.0
  H  H37  1  0.28734000  0.92455000  0.71671000  1.0
  H  H38  1  0.50404000  0.78316000  0.92430000  1.0
  H  H39  1  0.21159000  0.71705000  0.57595000  1.0
  H  H40  1  0.47259000  0.71891000  0.43351000  1.0
  H  H41  1  0.62469000  0.78088000  0.06686000  1.0
  H  H42  1  0.19166000  0.43329000  0.78095000  1.0
  H  H43  1  0.40562000  0.06676000  0.71901000  1.0
  H  H44  1  0.52741000  0.28109000  0.56649000  1.0
  H  H45  1  0.37531000  0.21912000  0.93314000  1.0
  H  H46  1  0.80834000  0.56671000  0.21905000  1.0
  H  H47  1  0.59438000  0.93324000  0.28099000  1.0
  H  H48  1  0.45447000  0.59244000  0.47065000  1.0
  H  H49  1  0.51755000  0.90741000  0.02967000  1.0
  H  H50  1  0.04710000  0.47039000  0.90743000  1.0
  H  H51  1  0.42477000  0.02957000  0.59251000  1.0
  H  H52  1  0.54554000  0.40755000  0.52935000  1.0
  H  H53  1  0.48245000  0.09259000  0.97033000  1.0
  H  H54  1  0.95290000  0.52961000  0.09257000  1.0
  H  H55  1  0.57523000  0.97043000  0.40749000  1.0
  H  H56  1  0.55162000  0.61505000  0.33643000  1.0
  H  H57  1  0.50314000  0.88484000  0.16389000  1.0
  H  H58  1  0.16694000  0.33618000  0.88472000  1.0
  H  H59  1  0.38770000  0.16380000  0.61522000  1.0
  H  H60  1  0.44839000  0.38494000  0.66357000  1.0
  H  H61  1  0.49686000  0.11516000  0.83611000  1.0
  H  H62  1  0.83307000  0.66382000  0.11528000  1.0
  H  H63  1  0.61230000  0.83620000  0.38478000  1.0
  C  C64  1  0.34717000  0.55594000  0.27585000  1.0
  C  C65  1  0.17902000  0.94417000  0.22415000  1.0
  C  C66  1  0.90331000  0.27588000  0.94407000  1.0
  C  C67  1  0.12291000  0.22429000  0.55588000  1.0
  C  C68  1  0.65283000  0.44406000  0.72415000  1.0
  C  C69  1  0.82099000  0.05583000  0.77585000  1.0
  C  C70  1  0.09669000  0.72412000  0.05593000  1.0
  C  C71  1  0.87709000  0.77571000  0.44412000  1.0
  C  C72  1  0.23776000  0.51701000  0.28963000  1.0
  C  C73  1  0.04446000  0.98309000  0.21044000  1.0
  C  C74  1  0.75504000  0.28962000  0.98295000  1.0
  C  C75  1  0.02735000  0.21045000  0.51693000  1.0
  C  C76  1  0.76224000  0.48300000  0.71037000  1.0
  C  C77  1  0.95554000  0.01691000  0.78956000  1.0
  C  C78  1  0.24496000  0.71038000  0.01705000  1.0
  C  C79  1  0.97266000  0.78954000  0.48307000  1.0
  C  C80  1  0.11161000  0.45514000  0.25848000  1.0
  C  C81  1  0.82532000  0.04472000  0.24171000  1.0
  C  C82  1  0.56711000  0.25838000  0.04480000  1.0
  C  C83  1  0.87014000  0.24152000  0.45499000  1.0
  C  C84  1  0.88839000  0.54487000  0.74152000  1.0
  C  C85  1  0.17468000  0.95527000  0.75830000  1.0
  C  C86  1  0.43289000  0.74162000  0.95520000  1.0
  C  C87  1  0.12986000  0.75848000  0.54500000  1.0
  C  C88  1  0.52491000  0.63268000  0.41978000  1.0
  C  C89  1  0.57729000  0.86712000  0.08052000  1.0
  C  C90  1  0.15777000  0.41955000  0.86717000  1.0
  C  C91  1  0.44430000  0.08045000  0.63278000  1.0
  C  C92  1  0.47510000  0.36731000  0.58022000  1.0
  C  C93  1  0.42270000  0.13288000  0.91947000  1.0
  C  C94  1  0.84223000  0.58045000  0.13283000  1.0
  C  C95  1  0.55570000  0.91955000  0.36722000  1.0
  C  C96  1  0.65660000  0.58915000  0.44210000  1.0
  C  C97  1  0.68801000  0.91053000  0.05808000  1.0
  C  C98  1  0.24585000  0.44194000  0.91078000  1.0
  C  C99  1  0.59835000  0.05815000  0.58929000  1.0
  C  C100  1  0.34341000  0.41084000  0.55790000  1.0
  C  C101  1  0.31199000  0.08947000  0.94192000  1.0
  C  C102  1  0.75414000  0.55806000  0.08922000  1.0
  C  C103  1  0.40165000  0.94185000  0.41071000  1.0
  N  N104  1  0.05572000  0.47313000  0.36295000  1.0
  N  N105  1  0.89181000  0.02684000  0.13720000  1.0
  N  N106  1  0.52912000  0.36286000  0.02683000  1.0
  N  N107  1  0.91873000  0.13704000  0.47296000  1.0
  N  N108  1  0.94428000  0.52687000  0.63705000  1.0
  N  N109  1  0.10819000  0.97316000  0.86280000  1.0
  N  N110  1  0.47088000  0.63714000  0.97317000  1.0
  N  N111  1  0.08127000  0.86296000  0.52703000  1.0
  N  N112  1  0.13653000  0.51266000  0.38299000  1.0
  N  N113  1  0.03218000  0.98747000  0.11709000  1.0
  N  N114  1  0.64943000  0.38295000  0.98729000  1.0
  N  N115  1  0.01952000  0.11706000  0.51251000  1.0
  N  N116  1  0.86347000  0.48734000  0.61701000  1.0
  N  N117  1  0.96782000  0.01253000  0.88291000  1.0
  N  N118  1  0.35058000  0.61705000  0.01271000  1.0
  N  N119  1  0.98048000  0.88294000  0.48749000  1.0
  N  N120  1  0.22489000  0.48121000  0.20971000  1.0
  N  N121  1  0.91596000  0.01869000  0.29040000  1.0
  N  N122  1  0.70646000  0.20967000  0.01871000  1.0
  N  N123  1  0.93456000  0.29034000  0.48117000  1.0
  N  N124  1  0.77511000  0.51879000  0.79029000  1.0
  N  N125  1  0.08404000  0.98131000  0.70960000  1.0
  N  N126  1  0.29354000  0.79033000  0.98129000  1.0
  N  N127  1  0.06545000  0.70966000  0.51883000  1.0
  O  O128  1  0.72101000  0.48496000  0.43831000  1.0
  O  O129  1  0.64469000  0.01472000  0.06156000  1.0
  O  O130  1  0.20605000  0.43826000  0.01496000  1.0
  O  O131  1  0.65928000  0.06134000  0.48509000  1.0
  O  O132  1  0.27900000  0.51503000  0.56169000  1.0
  O  O133  1  0.35531000  0.98528000  0.93843000  1.0
  O  O134  1  0.79396000  0.56174000  0.98504000  1.0
  O  O135  1  0.34073000  0.93866000  0.51491000  1.0
  O  O136  1  0.70302000  0.64820000  0.46210000  1.0
  O  O137  1  0.81332000  0.85140000  0.03833000  1.0
  O  O138  1  0.35136000  0.46189000  0.85175000  1.0
  O  O139  1  0.66453000  0.03865000  0.64841000  1.0
  O  O140  1  0.29698000  0.35180000  0.53790000  1.0
  O  O141  1  0.18667000  0.14860000  0.96168000  1.0
  O  O142  1  0.64864000  0.53812000  0.14824000  1.0
  O  O143  1  0.33546000  0.96135000  0.35159000  1.0
