# generated using pymatgen
data_Pr2Cu3H54C36(NO4)6
_symmetry_space_group_name_H-M   'P 1'
_cell_length_a   7.65751000
_cell_length_b   13.55465000
_cell_length_c   13.55460000
_cell_angle_alpha   119.99963393
_cell_angle_beta   90.00000000
_cell_angle_gamma   89.99970000
_symmetry_Int_Tables_number   1
_chemical_formula_structural   Pr2Cu3H54C36(NO4)6
_chemical_formula_sum   'Pr2 Cu3 H54 C36 N6 O24'
_cell_volume   1218.41383083
_cell_formula_units_Z   1
loop_
 _symmetry_equiv_pos_site_id
 _symmetry_equiv_pos_as_xyz
  1  'x, y, z'
loop_
 _atom_site_type_symbol
 _atom_site_label
 _atom_site_symmetry_multiplicity
 _atom_site_fract_x
 _atom_site_fract_y
 _atom_site_fract_z
 _atom_site_occupancy
  Pr  Pr0  1  0.34281000  0.66666667  0.33333333  1.0
  Pr  Pr1  1  0.65719000  0.33333333  0.66666667  1.0
  Cu  Cu2  1  0.00001000  0.50000000  0.00000000  1.0
  Cu  Cu3  1  0.00000000  0.50000000  0.50000000  1.0
  Cu  Cu4  1  0.99999000  1.00000000  0.50000000  1.0
  H  H5  1  0.85921000  0.64508000  0.96527000  1.0
  H  H6  1  0.85922000  0.32019000  0.35491000  1.0
  H  H7  1  0.85921000  0.03473000  0.67981000  1.0
  H  H8  1  0.14079000  0.35492000  0.03473000  1.0
  H  H9  1  0.14078000  0.67981000  0.64508000  1.0
  H  H10  1  0.14079000  0.96528000  0.32020000  1.0
  H  H11  1  0.94146000  0.82559000  0.16365000  1.0
  H  H12  1  0.94145000  0.33806000  0.17442000  1.0
  H  H13  1  0.94145000  0.83636000  0.66194000  1.0
  H  H14  1  0.05855000  0.17442000  0.83636000  1.0
  H  H15  1  0.05854000  0.66194000  0.82558000  1.0
  H  H16  1  0.05855000  0.16364000  0.33806000  1.0
  H  H17  1  0.76017000  0.73900000  0.19964000  1.0
  H  H18  1  0.76017000  0.46064000  0.26101000  1.0
  H  H19  1  0.76017000  0.80037000  0.53936000  1.0
  H  H20  1  0.23983000  0.26100000  0.80037000  1.0
  H  H21  1  0.23982000  0.53936000  0.73899000  1.0
  H  H22  1  0.23983000  0.19964000  0.46064000  1.0
  H  H23  1  0.62124000  0.79186000  0.06650000  1.0
  H  H24  1  0.62125000  0.27463000  0.20813000  1.0
  H  H25  1  0.62125000  0.93350000  0.72537000  1.0
  H  H26  1  0.37876000  0.20814000  0.93351000  1.0
  H  H27  1  0.37875000  0.72536000  0.79186000  1.0
  H  H28  1  0.37875000  0.06650000  0.27464000  1.0
  H  H29  1  0.46909000  0.73595000  0.12394000  1.0
  H  H30  1  0.46909000  0.38799000  0.26405000  1.0
  H  H31  1  0.46909000  0.87606000  0.61202000  1.0
  H  H32  1  0.53091000  0.26404000  0.87605000  1.0
  H  H33  1  0.53091000  0.61201000  0.73595000  1.0
  H  H34  1  0.53091000  0.12394000  0.38798000  1.0
  H  H35  1  0.54412000  0.64906000  0.98053000  1.0
  H  H36  1  0.54412000  0.33147000  0.35094000  1.0
  H  H37  1  0.54411000  0.01947000  0.66854000  1.0
  H  H38  1  0.45589000  0.35094000  0.01947000  1.0
  H  H39  1  0.45588000  0.66853000  0.64906000  1.0
  H  H40  1  0.45588000  0.98053000  0.33147000  1.0
  H  H41  1  0.04456000  0.81119000  0.98611000  1.0
  H  H42  1  0.04456000  0.17493000  0.18882000  1.0
  H  H43  1  0.04456000  0.01388000  0.82507000  1.0
  H  H44  1  0.95544000  0.18881000  0.01389000  1.0
  H  H45  1  0.95544000  0.82507000  0.81118000  1.0
  H  H46  1  0.95544000  0.98611000  0.17492000  1.0
  H  H47  1  0.20644000  0.70786000  0.97036000  1.0
  H  H48  1  0.20643000  0.26250000  0.29215000  1.0
  H  H49  1  0.20643000  0.02964000  0.73750000  1.0
  H  H50  1  0.79357000  0.29214000  0.02964000  1.0
  H  H51  1  0.79356000  0.73750000  0.70786000  1.0
  H  H52  1  0.79357000  0.97036000  0.26251000  1.0
  H  H53  1  0.21774000  0.84965000  0.08609000  1.0
  H  H54  1  0.21774000  0.23644000  0.15036000  1.0
  H  H55  1  0.21773000  0.91391000  0.76356000  1.0
  H  H56  1  0.78227000  0.15035000  0.91392000  1.0
  H  H57  1  0.78226000  0.76356000  0.84965000  1.0
  H  H58  1  0.78227000  0.08609000  0.23644000  1.0
  C  C59  1  0.13456000  0.72797000  0.18482000  1.0
  C  C60  1  0.13456000  0.45685000  0.27203000  1.0
  C  C61  1  0.13456000  0.81518000  0.54315000  1.0
  C  C62  1  0.86544000  0.27203000  0.81518000  1.0
  C  C63  1  0.86545000  0.54315000  0.72797000  1.0
  C  C64  1  0.86544000  0.18483000  0.45685000  1.0
  C  C65  1  0.01844000  0.74995000  0.10574000  1.0
  C  C66  1  0.01845000  0.35579000  0.25004000  1.0
  C  C67  1  0.01844000  0.89425000  0.64420000  1.0
  C  C68  1  0.98156000  0.25004000  0.89425000  1.0
  C  C69  1  0.98155000  0.64421000  0.74995000  1.0
  C  C70  1  0.98155000  0.10575000  0.35579000  1.0
  C  C71  1  0.73203000  0.67279000  0.11105000  1.0
  C  C72  1  0.73203000  0.43826000  0.32721000  1.0
  C  C73  1  0.73203000  0.88896000  0.56174000  1.0
  C  C74  1  0.26797000  0.32722000  0.88896000  1.0
  C  C75  1  0.26796000  0.56174000  0.67279000  1.0
  C  C76  1  0.26797000  0.11105000  0.43826000  1.0
  C  C77  1  0.68587000  0.56826000  0.12039000  1.0
  C  C78  1  0.68584000  0.55213000  0.43173000  1.0
  C  C79  1  0.68586000  0.87962000  0.44787000  1.0
  C  C80  1  0.31416000  0.43173000  0.87960000  1.0
  C  C81  1  0.31413000  0.44787000  0.56826000  1.0
  C  C82  1  0.31415000  0.12039000  0.55213000  1.0
  C  C83  1  0.58174000  0.71412000  0.06716000  1.0
  C  C84  1  0.58174000  0.35303000  0.28588000  1.0
  C  C85  1  0.58174000  0.93285000  0.64697000  1.0
  C  C86  1  0.41827000  0.28588000  0.93285000  1.0
  C  C87  1  0.41826000  0.64696000  0.71412000  1.0
  C  C88  1  0.41826000  0.06715000  0.35303000  1.0
  C  C89  1  0.12808000  0.78072000  0.03119000  1.0
  C  C90  1  0.12808000  0.25047000  0.21927000  1.0
  C  C91  1  0.12808000  0.96880000  0.74952000  1.0
  C  C92  1  0.87192000  0.21927000  0.96880000  1.0
  C  C93  1  0.87192000  0.74952000  0.78072000  1.0
  C  C94  1  0.87192000  0.03120000  0.25048000  1.0
  N  N95  1  0.89441000  0.65474000  0.04316000  1.0
  N  N96  1  0.89441000  0.38842000  0.34526000  1.0
  N  N97  1  0.89440000  0.95684000  0.61158000  1.0
  N  N98  1  0.10559000  0.34526000  0.95684000  1.0
  N  N99  1  0.10559000  0.61158000  0.65474000  1.0
  N  N100  1  0.10559000  0.04316000  0.38842000  1.0
  O  O101  1  0.24319000  0.80426000  0.24773000  1.0
  O  O102  1  0.24319000  0.44347000  0.19574000  1.0
  O  O103  1  0.24319000  0.75227000  0.55653000  1.0
  O  O104  1  0.75681000  0.19574000  0.75227000  1.0
  O  O105  1  0.75681000  0.55653000  0.80426000  1.0
  O  O106  1  0.75682000  0.24774000  0.44348000  1.0
  O  O107  1  0.11770000  0.63464000  0.18542000  1.0
  O  O108  1  0.11770000  0.55078000  0.36536000  1.0
  O  O109  1  0.11770000  0.81458000  0.44922000  1.0
  O  O110  1  0.88230000  0.36536000  0.81458000  1.0
  O  O111  1  0.88230000  0.44922000  0.63464000  1.0
  O  O112  1  0.88229000  0.18542000  0.55078000  1.0
  O  O113  1  0.78748000  0.48184000  0.07465000  1.0
  O  O114  1  0.78748000  0.59281000  0.51816000  1.0
  O  O115  1  0.78747000  0.92536000  0.40719000  1.0
  O  O116  1  0.21253000  0.51817000  0.92535000  1.0
  O  O117  1  0.21253000  0.40719000  0.48184000  1.0
  O  O118  1  0.21252000  0.07465000  0.59281000  1.0
  O  O119  1  0.55160000  0.57288000  0.17674000  1.0
  O  O120  1  0.55160000  0.60385000  0.42712000  1.0
  O  O121  1  0.55158000  0.82327000  0.39615000  1.0
  O  O122  1  0.44840000  0.42712000  0.82327000  1.0
  O  O123  1  0.44841000  0.39615000  0.57289000  1.0
  O  O124  1  0.44840000  0.17673000  0.60385000  1.0
