# generated using pymatgen
data_PrH12C9NO10
_symmetry_space_group_name_H-M   'P 1'
_cell_length_a   7.26898000
_cell_length_b   11.73040000
_cell_length_c   18.76350000
_cell_angle_alpha   99.72400000
_cell_angle_beta   89.99850000
_cell_angle_gamma   89.99920000
_symmetry_Int_Tables_number   1
_chemical_formula_structural   PrH12C9NO10
_chemical_formula_sum   'Pr4 H48 C36 N4 O40'
_cell_volume   1576.94046327
_cell_formula_units_Z   4
loop_
 _symmetry_equiv_pos_site_id
 _symmetry_equiv_pos_as_xyz
  1  'x, y, z'
loop_
 _atom_site_type_symbol
 _atom_site_label
 _atom_site_symmetry_multiplicity
 _atom_site_fract_x
 _atom_site_fract_y
 _atom_site_fract_z
 _atom_site_occupancy
  Pr  Pr0  1  0.27015000  0.69203000  0.63170000  1.0
  Pr  Pr1  1  0.77015000  0.80796000  0.86830000  1.0
  Pr  Pr2  1  0.72985000  0.30798000  0.36830000  1.0
  Pr  Pr3  1  0.22985000  0.19203000  0.13170000  1.0
  H  H4  1  0.00226000  0.87056000  0.72017000  1.0
  H  H5  1  0.50230000  0.62944000  0.77982000  1.0
  H  H6  1  0.99773000  0.12945000  0.27983000  1.0
  H  H7  1  0.49770000  0.37056000  0.22017000  1.0
  H  H8  1  0.16184000  0.93077000  0.67980000  1.0
  H  H9  1  0.66184000  0.56923000  0.82021000  1.0
  H  H10  1  0.83817000  0.06925000  0.32021000  1.0
  H  H11  1  0.33816000  0.43076000  0.17979000  1.0
  H  H12  1  0.83226000  0.59064000  0.63580000  1.0
  H  H13  1  0.33226000  0.90936000  0.86420000  1.0
  H  H14  1  0.16775000  0.40936000  0.36420000  1.0
  H  H15  1  0.66773000  0.09064000  0.13580000  1.0
  H  H16  1  0.92675000  0.64413000  0.71015000  1.0
  H  H17  1  0.42676000  0.85587000  0.78986000  1.0
  H  H18  1  0.07323000  0.35587000  0.28986000  1.0
  H  H19  1  0.57325000  0.14414000  0.21015000  1.0
  H  H20  1  0.28477000  0.44795000  0.67663000  1.0
  H  H21  1  0.78476000  0.05206000  0.82337000  1.0
  H  H22  1  0.71524000  0.55207000  0.32337000  1.0
  H  H23  1  0.21525000  0.94794000  0.17663000  1.0
  H  H24  1  0.28290000  0.42029000  0.59044000  1.0
  H  H25  1  0.78290000  0.07969000  0.90956000  1.0
  H  H26  1  0.71711000  0.57972000  0.40956000  1.0
  H  H27  1  0.21709000  0.92029000  0.09044000  1.0
  H  H28  1  0.18415000  0.50649000  0.50122000  1.0
  H  H29  1  0.68416000  0.99350000  0.99878000  1.0
  H  H30  1  0.81586000  0.49352000  0.49878000  1.0
  H  H31  1  0.31587000  0.00649000  0.00122000  1.0
  H  H32  1  0.04816000  0.61404000  0.49593000  1.0
  H  H33  1  0.54816000  0.88596000  0.00406000  1.0
  H  H34  1  0.95184000  0.38597000  0.50407000  1.0
  H  H35  1  0.45185000  0.11404000  0.99593000  1.0
  H  H36  1  0.25333000  0.16661000  0.55924000  1.0
  H  H37  1  0.75332000  0.33333333  0.94077000  1.0
  H  H38  1  0.74667000  0.83341000  0.44076000  1.0
  H  H39  1  0.24667000  0.66659000  0.05923000  1.0
  H  H40  1  0.18895000  0.78608000  0.34521000  1.0
  H  H41  1  0.68896000  0.71393000  0.15478000  1.0
  H  H42  1  0.81102000  0.21393000  0.65479000  1.0
  H  H43  1  0.31104000  0.28606000  0.84521000  1.0
  H  H44  1  0.08112000  0.78424000  0.43120000  1.0
  H  H45  1  0.58113000  0.71576000  0.06880000  1.0
  H  H46  1  0.91887000  0.21578000  0.56881000  1.0
  H  H47  1  0.41888000  0.28422000  0.93119000  1.0
  H  H48  1  0.31788000  0.75881000  0.42232000  1.0
  H  H49  1  0.81789000  0.74118000  0.07766000  1.0
  H  H50  1  0.68210000  0.24120000  0.57768000  1.0
  H  H51  1  0.18212000  0.25879000  0.92233000  1.0
  C  C52  1  0.23917000  0.93604000  0.42305000  1.0
  C  C53  1  0.73916000  0.56396000  0.07695000  1.0
  C  C54  1  0.76082000  0.06396000  0.57695000  1.0
  C  C55  1  0.26083000  0.43603000  0.92304000  1.0
  C  C56  1  0.24233000  0.99837000  0.49470000  1.0
  C  C57  1  0.74232000  0.50162000  0.00530000  1.0
  C  C58  1  0.75766000  0.00164000  0.50530000  1.0
  C  C59  1  0.25767000  0.49836000  0.99470000  1.0
  C  C60  1  0.25942000  0.11837000  0.50431000  1.0
  C  C61  1  0.75941000  0.38162000  0.99569000  1.0
  C  C62  1  0.74058000  0.88165000  0.49569000  1.0
  C  C63  1  0.24058000  0.61836000  0.00430000  1.0
  C  C64  1  0.28872000  0.17510000  0.44570000  1.0
  C  C65  1  0.78871000  0.32490000  0.05431000  1.0
  C  C66  1  0.71128000  0.82492000  0.55431000  1.0
  C  C67  1  0.21129000  0.67509000  0.94569000  1.0
  C  C68  1  0.29441000  0.10501000  0.37699000  1.0
  C  C69  1  0.79441000  0.39500000  0.12302000  1.0
  C  C70  1  0.70559000  0.89500000  0.62302000  1.0
  C  C71  1  0.20559000  0.60499000  0.87698000  1.0
  C  C72  1  0.20491000  0.80883000  0.40393000  1.0
  C  C73  1  0.70492000  0.69118000  0.09606000  1.0
  C  C74  1  0.79507000  0.19118000  0.59607000  1.0
  C  C75  1  0.29509000  0.30881000  0.90393000  1.0
  C  C76  1  0.22782000  0.94461000  0.56207000  1.0
  C  C77  1  0.72781000  0.55538000  0.93793000  1.0
  C  C78  1  0.77219000  0.05541000  0.43793000  1.0
  C  C79  1  0.27218000  0.44460000  0.06206000  1.0
  C  C80  1  0.30617000  0.30387000  0.45828000  1.0
  C  C81  1  0.80618000  0.19614000  0.04173000  1.0
  C  C82  1  0.69383000  0.69614000  0.54172000  1.0
  C  C83  1  0.19382000  0.80386000  0.95828000  1.0
  C  C84  1  0.33976000  0.14737000  0.30733000  1.0
  C  C85  1  0.83976000  0.35264000  0.19267000  1.0
  C  C86  1  0.66025000  0.85263000  0.69267000  1.0
  C  C87  1  0.16024000  0.64736000  0.80733000  1.0
  N  N88  1  0.26370000  0.99097000  0.36621000  1.0
  N  N89  1  0.76370000  0.50903000  0.13379000  1.0
  N  N90  1  0.73629000  0.00904000  0.63380000  1.0
  N  N91  1  0.23630000  0.49096000  0.86620000  1.0
  O  O92  1  0.24784000  0.83417000  0.55492000  1.0
  O  O93  1  0.74782000  0.66582000  0.94507000  1.0
  O  O94  1  0.75216000  0.16585000  0.44508000  1.0
  O  O95  1  0.25217000  0.33415000  0.05492000  1.0
  O  O96  1  0.20004000  0.01113000  0.62126000  1.0
  O  O97  1  0.70003000  0.48887000  0.87874000  1.0
  O  O98  1  0.79998000  0.98889000  0.37875000  1.0
  O  O99  1  0.29997000  0.51111000  0.12125000  1.0
  O  O100  1  0.19896000  0.36112000  0.50601000  1.0
  O  O101  1  0.69900000  0.13888000  0.99400000  1.0
  O  O102  1  0.80104000  0.63890000  0.49399000  1.0
  O  O103  1  0.30103000  0.86111000  0.00600000  1.0
  O  O104  1  0.42045000  0.35268000  0.42216000  1.0
  O  O105  1  0.92046000  0.14732000  0.07784000  1.0
  O  O106  1  0.57955000  0.64732000  0.57783000  1.0
  O  O107  1  0.07955000  0.85268000  0.92216000  1.0
  O  O108  1  0.50202000  0.18344000  0.29985000  1.0
  O  O109  1  0.00202000  0.31657000  0.20016000  1.0
  O  O110  1  0.49799000  0.81657000  0.70016000  1.0
  O  O111  1  0.99798000  0.68343000  0.79984000  1.0
  O  O112  1  0.22115000  0.13693000  0.25706000  1.0
  O  O113  1  0.72113000  0.36309000  0.24295000  1.0
  O  O114  1  0.77888000  0.86307000  0.74294000  1.0
  O  O115  1  0.27888000  0.63692000  0.75705000  1.0
  O  O116  1  0.13518000  0.86518000  0.70792000  1.0
  O  O117  1  0.63520000  0.63481000  0.79208000  1.0
  O  O118  1  0.86481000  0.13483000  0.29208000  1.0
  O  O119  1  0.36479000  0.36519000  0.20792000  1.0
  O  O120  1  0.94540000  0.62607000  0.65687000  1.0
  O  O121  1  0.44540000  0.87393000  0.84313000  1.0
  O  O122  1  0.05460000  0.37392000  0.34313000  1.0
  O  O123  1  0.55460000  0.12608000  0.15687000  1.0
  O  O124  1  0.32437000  0.47600000  0.63318000  1.0
  O  O125  1  0.82437000  0.02399000  0.86681000  1.0
  O  O126  1  0.67563000  0.52401000  0.36682000  1.0
  O  O127  1  0.17564000  0.97600000  0.13319000  1.0
  O  O128  1  0.17287000  0.59257000  0.50981000  1.0
  O  O129  1  0.67286000  0.90743000  0.99018000  1.0
  O  O130  1  0.82714000  0.40745000  0.49018000  1.0
  O  O131  1  0.32715000  0.09256000  0.00982000  1.0
