# generated using pymatgen
data_CdH26C37(NO2)3
_symmetry_space_group_name_H-M   'P 1'
_cell_length_a   11.68950000
_cell_length_b   12.27120000
_cell_length_c   12.37950000
_cell_angle_alpha   79.21930000
_cell_angle_beta   81.06260000
_cell_angle_gamma   63.14710000
_symmetry_Int_Tables_number   1
_chemical_formula_structural   CdH26C37(NO2)3
_chemical_formula_sum   'Cd2 H52 C74 N6 O12'
_cell_volume   1551.22698629
_cell_formula_units_Z   2
loop_
 _symmetry_equiv_pos_site_id
 _symmetry_equiv_pos_as_xyz
  1  'x, y, z'
loop_
 _atom_site_type_symbol
 _atom_site_label
 _atom_site_symmetry_multiplicity
 _atom_site_fract_x
 _atom_site_fract_y
 _atom_site_fract_z
 _atom_site_occupancy
  Cd  Cd0  1  0.11518000  0.67342000  0.16504000  1.0
  Cd  Cd1  1  0.88483000  0.32658000  0.83496000  1.0
  H  H2  1  0.11901000  0.65458000  0.80090000  1.0
  H  H3  1  0.88099000  0.34542000  0.19911000  1.0
  H  H4  1  0.18218000  0.53628000  0.64337000  1.0
  H  H5  1  0.81782000  0.46372000  0.35664000  1.0
  H  H6  1  0.35597000  0.54323000  0.50146000  1.0
  H  H7  1  0.64402000  0.45677000  0.49854000  1.0
  H  H8  1  0.19699000  0.30375000  0.11877000  1.0
  H  H9  1  0.80301000  0.69625000  0.88123000  1.0
  H  H10  1  0.36908000  0.88108000  0.32455000  1.0
  H  H11  1  0.63092000  0.11892000  0.67545000  1.0
  H  H12  1  0.33143000  0.91306000  0.12508000  1.0
  H  H13  1  0.66856000  0.08693000  0.87491000  1.0
  H  H14  1  0.30570000  0.65628000  0.32801000  1.0
  H  H15  1  0.69430000  0.34372000  0.67199000  1.0
  H  H16  1  0.51440000  0.66526000  0.33241000  1.0
  H  H17  1  0.48560000  0.33474000  0.66759000  1.0
  H  H18  1  0.58367000  0.63752000  0.98331000  1.0
  H  H19  1  0.41633000  0.36248000  0.01669000  1.0
  H  H20  1  0.37467000  0.62479000  0.99421000  1.0
  H  H21  1  0.62533000  0.37521000  0.00579000  1.0
  H  H22  1  0.79654000  0.52969000  0.04877000  1.0
  H  H23  1  0.20347000  0.47031000  0.95123000  1.0
  H  H24  1  0.60226000  0.81281000  0.26287000  1.0
  H  H25  1  0.39774000  0.18719000  0.73713000  1.0
  H  H26  1  0.81239000  0.82179000  0.26292000  1.0
  H  H27  1  0.18761000  0.17821000  0.73708000  1.0
  H  H28  1  0.05275000  0.95273000  0.17926000  1.0
  H  H29  1  0.94725000  0.04727000  0.82074000  1.0
  H  H30  1  0.99613000  0.80716000  0.57171000  1.0
  H  H31  1  0.00387000  0.19284000  0.42829000  1.0
  H  H32  1  0.03068000  0.68175000  0.42502000  1.0
  H  H33  1  0.96931000  0.31826000  0.57498000  1.0
  H  H34  1  0.02255000  0.09005000  0.31431000  1.0
  H  H35  1  0.97744000  0.90996000  0.68568000  1.0
  H  H36  1  0.24102000  0.12600000  0.02524000  1.0
  H  H37  1  0.75898000  0.87401000  0.97476000  1.0
  H  H38  1  0.33032000  0.13259000  0.58671000  1.0
  H  H39  1  0.66969000  0.86740000  0.41329000  1.0
  H  H40  1  0.46253000  0.67585000  0.51683000  1.0
  H  H41  1  0.53746000  0.32416000  0.48317000  1.0
  H  H42  1  0.48621000  0.81993000  0.61282000  1.0
  H  H43  1  0.51379000  0.18007000  0.38719000  1.0
  H  H44  1  0.41332000  0.95283000  0.76151000  1.0
  H  H45  1  0.58668000  0.04717000  0.23848000  1.0
  H  H46  1  0.99765000  0.55221000  0.05835000  1.0
  H  H47  1  0.00235000  0.44778000  0.94166000  1.0
  H  H48  1  0.36943000  0.95924000  0.48851000  1.0
  H  H49  1  0.63057000  0.04075000  0.51149000  1.0
  H  H50  1  0.17080000  0.94159000  0.96941000  1.0
  H  H51  1  0.82920000  0.05841000  0.03059000  1.0
  H  H52  1  0.20922000  0.43970000  0.44909000  1.0
  H  H53  1  0.79078000  0.56029000  0.55091000  1.0
  C  C54  1  0.14786000  0.78006000  0.94535000  1.0
  C  C55  1  0.85215000  0.21994000  0.05465000  1.0
  C  C56  1  0.21913000  0.80500000  0.84096000  1.0
  C  C57  1  0.78087000  0.19500000  0.15904000  1.0
  C  C58  1  0.27118000  0.88940000  0.83852000  1.0
  C  C59  1  0.72882000  0.11060000  0.16148000  1.0
  C  C60  1  0.25319000  0.73466000  0.75065000  1.0
  C  C61  1  0.74681000  0.26533000  0.24935000  1.0
  C  C62  1  0.19352000  0.65968000  0.73852000  1.0
  C  C63  1  0.80648000  0.34032000  0.26148000  1.0
  C  C64  1  0.22924000  0.59363000  0.65010000  1.0
  C  C65  1  0.77076000  0.40637000  0.34990000  1.0
  C  C66  1  0.32716000  0.59793000  0.56934000  1.0
  C  C67  1  0.67283000  0.40207000  0.43066000  1.0
  C  C68  1  0.19826000  0.42632000  0.27870000  1.0
  C  C69  1  0.80174000  0.57368000  0.72131000  1.0
  C  C70  1  0.23960000  0.29695000  0.33278000  1.0
  C  C71  1  0.76040000  0.70305000  0.66722000  1.0
  C  C72  1  0.26107000  0.19666000  0.27511000  1.0
  C  C73  1  0.73893000  0.80334000  0.72489000  1.0
  C  C74  1  0.23586000  0.21136000  0.16329000  1.0
  C  C75  1  0.76414000  0.78864000  0.83671000  1.0
  C  C76  1  0.30978000  0.07331000  0.33273000  1.0
  C  C77  1  0.69022000  0.92669000  0.66727000  1.0
  C  C78  1  0.33398000  0.97297000  0.27733000  1.0
  C  C79  1  0.66602000  0.02703000  0.72267000  1.0
  C  C80  1  0.31180000  0.99057000  0.16774000  1.0
  C  C81  1  0.68820000  0.00943000  0.83225000  1.0
  C  C82  1  0.26352000  0.27115000  0.44553000  1.0
  C  C83  1  0.73648000  0.72885000  0.55447000  1.0
  C  C84  1  0.36991000  0.65288000  0.25339000  1.0
  C  C85  1  0.63008000  0.34713000  0.74661000  1.0
  C  C86  1  0.48497000  0.65947000  0.25526000  1.0
  C  C87  1  0.51503000  0.34053000  0.74474000  1.0
  C  C88  1  0.56367000  0.65690000  0.15723000  1.0
  C  C89  1  0.43634000  0.34310000  0.84276000  1.0
  C  C90  1  0.52522000  0.64146000  0.06160000  1.0
  C  C91  1  0.47478000  0.35854000  0.93840000  1.0
  C  C92  1  0.40857000  0.63518000  0.06715000  1.0
  C  C93  1  0.59144000  0.36482000  0.93285000  1.0
  C  C94  1  0.68305000  0.66969000  0.15607000  1.0
  C  C95  1  0.31695000  0.33030000  0.84393000  1.0
  C  C96  1  0.79519000  0.59715000  0.09562000  1.0
  C  C97  1  0.20482000  0.40285000  0.90439000  1.0
  C  C98  1  0.68810000  0.75258000  0.21699000  1.0
  C  C99  1  0.31191000  0.24742000  0.78301000  1.0
  C  C100  1  0.80406000  0.75837000  0.21710000  1.0
  C  C101  1  0.19594000  0.24163000  0.78290000  1.0
  C  C102  1  0.04036000  0.92444000  0.26745000  1.0
  C  C103  1  0.95963000  0.07556000  0.73254000  1.0
  C  C104  1  0.00788000  0.96138000  0.45756000  1.0
  C  C105  1  0.99211000  0.03863000  0.54244000  1.0
  C  C106  1  0.00837000  0.84486000  0.48632000  1.0
  C  C107  1  0.99162000  0.15515000  0.51368000  1.0
  C  C108  1  0.02716000  0.77350000  0.40468000  1.0
  C  C109  1  0.97284000  0.22650000  0.59532000  1.0
  C  C110  1  0.02309000  0.00076000  0.34447000  1.0
  C  C111  1  0.97690000  0.99925000  0.65553000  1.0
  C  C112  1  0.26100000  0.11154000  0.11121000  1.0
  C  C113  1  0.73900000  0.88846000  0.88879000  1.0
  C  C114  1  0.31141000  0.14843000  0.50042000  1.0
  C  C115  1  0.68860000  0.85156000  0.49958000  1.0
  C  C116  1  0.38596000  0.67129000  0.57778000  1.0
  C  C117  1  0.61403000  0.32871000  0.42222000  1.0
  C  C118  1  0.34970000  0.74182000  0.66628000  1.0
  C  C119  1  0.65029000  0.25818000  0.33373000  1.0
  C  C120  1  0.40814000  0.81960000  0.67369000  1.0
  C  C121  1  0.59186000  0.18040000  0.32631000  1.0
  C  C122  1  0.36845000  0.89346000  0.75541000  1.0
  C  C123  1  0.63155000  0.10654000  0.24459000  1.0
  C  C124  1  0.90695000  0.60809000  0.10134000  1.0
  C  C125  1  0.09305000  0.39191000  0.89866000  1.0
  C  C126  1  0.33365000  0.05294000  0.44540000  1.0
  C  C127  1  0.66635000  0.94705000  0.55459000  1.0
  N  N128  1  0.04433000  0.81153000  0.29656000  1.0
  N  N129  1  0.95567000  0.18847000  0.70344000  1.0
  N  N130  1  0.33081000  0.64312000  0.16066000  1.0
  N  N131  1  0.66919000  0.35688000  0.83934000  1.0
  N  N132  1  0.91176000  0.68637000  0.16138000  1.0
  N  N133  1  0.08825000  0.31363000  0.83862000  1.0
  O  O134  1  0.18963000  0.45600000  0.17528000  1.0
  O  O135  1  0.81037000  0.54400000  0.82472000  1.0
  O  O136  1  0.17221000  0.51033000  0.34120000  1.0
  O  O137  1  0.82779000  0.48967000  0.65880000  1.0
  O  O138  1  0.13929000  0.67819000  0.97008000  1.0
  O  O139  1  0.86072000  0.32180000  0.02992000  1.0
  O  O140  1  0.10787000  0.85803000  0.01584000  1.0
  O  O141  1  0.89213000  0.14197000  0.98416000  1.0
  O  O142  1  0.23665000  0.96425000  0.91586000  1.0
  O  O143  1  0.76335000  0.03575000  0.08415000  1.0
  O  O144  1  0.24510000  0.35941000  0.50535000  1.0
  O  O145  1  0.75490000  0.64059000  0.49465000  1.0
