# generated using pymatgen
data_Zn2H26C25N8O
_symmetry_space_group_name_H-M   'P 1'
_cell_length_a   14.29700660
_cell_length_b   14.68170000
_cell_length_c   14.94258651
_cell_angle_alpha   64.01442092
_cell_angle_beta   65.29584798
_cell_angle_gamma   77.83888684
_symmetry_Int_Tables_number   1
_chemical_formula_structural   Zn2H26C25N8O
_chemical_formula_sum   'Zn4 H52 C50 N16 O2'
_cell_volume   2559.92874977
_cell_formula_units_Z   2
loop_
 _symmetry_equiv_pos_site_id
 _symmetry_equiv_pos_as_xyz
  1  'x, y, z'
loop_
 _atom_site_type_symbol
 _atom_site_label
 _atom_site_symmetry_multiplicity
 _atom_site_fract_x
 _atom_site_fract_y
 _atom_site_fract_z
 _atom_site_occupancy
  Zn  Zn0  1  0.12439000  0.93557000  0.44799000  1.0
  Zn  Zn1  1  0.87548000  0.10619000  0.50068000  1.0
  Zn  Zn2  1  0.96667000  0.00104000  0.70862000  1.0
  Zn  Zn3  1  0.99253000  0.02073000  0.30291000  1.0
  H  H4  1  0.89250000  0.80211000  0.88128000  1.0
  H  H5  1  0.54102000  0.25588000  0.80717000  1.0
  H  H6  1  0.57552000  0.04174000  0.56133000  1.0
  H  H7  1  0.49588000  0.04494000  0.68992000  1.0
  H  H8  1  0.13679000  0.51336000  0.04493000  1.0
  H  H9  1  0.10772000  0.38116000  0.10533000  1.0
  H  H10  1  0.14650000  0.43335000  0.17243000  1.0
  H  H11  1  0.90211000  0.43398000  0.47654000  1.0
  H  H12  1  0.98154000  0.45994000  0.34126000  1.0
  H  H13  1  0.46360000  0.17666000  0.80699000  1.0
  H  H14  1  0.16729000  0.60431000  0.24024000  1.0
  H  H15  1  0.33027000  0.02731000  0.00569000  1.0
  H  H16  1  0.30132000  0.82974000  0.51029000  1.0
  H  H17  1  0.18071000  0.42802000  0.29141000  1.0
  H  H18  1  0.48801000  0.98335000  0.89215000  1.0
  H  H19  1  0.14354000  0.54554000  0.51836000  1.0
  H  H20  1  0.49052000  0.02291000  0.14941000  1.0
  H  H21  1  0.00863000  0.56611000  0.56984000  1.0
  H  H22  1  0.48786000  0.15511000  0.11266000  1.0
  H  H23  1  0.98069000  0.39926000  0.61073000  1.0
  H  H24  1  0.62416000  0.17953000  0.94721000  1.0
  H  H25  1  0.11471000  0.37612000  0.57889000  1.0
  H  H26  1  0.64656000  0.04771000  0.00397000  1.0
  H  H27  1  0.23939000  0.58651000  0.31828000  1.0
  H  H28  1  0.37290000  0.94772000  0.11089000  1.0
  H  H29  1  0.70183000  0.93894000  0.66335000  1.0
  H  H30  1  0.84178000  0.33195000  0.35324000  1.0
  H  H31  1  0.23078000  0.40986000  0.38763000  1.0
  H  H32  1  0.90810000  0.60234000  0.44969000  1.0
  H  H33  1  0.54134000  0.93431000  0.99197000  1.0
  H  H34  1  0.45929000  0.79341000  0.56708000  1.0
  H  H35  1  0.88762000  0.62760000  0.00212000  1.0
  H  H36  1  0.34014000  0.87544000  0.74371000  1.0
  H  H37  1  0.01102000  0.65654000  0.11412000  1.0
  H  H38  1  0.41837000  0.26877000  0.96558000  1.0
  H  H39  1  0.64210000  0.78043000  0.52547000  1.0
  H  H40  1  0.84830000  0.44959000  0.06712000  1.0
  H  H41  1  0.75522000  0.96628000  0.89293000  1.0
  H  H42  1  0.06174000  0.21231000  0.64603000  1.0
  H  H43  1  0.03087000  0.80760000  0.23326000  1.0
  H  H44  1  0.16783000  0.15051000  0.08723000  1.0
  H  H45  1  0.64697000  0.19367000  0.64882000  1.0
  H  H46  1  0.02100000  0.28516000  0.35061000  1.0
  H  H47  1  0.12744000  0.70808000  0.50123000  1.0
  H  H48  1  0.33834000  0.04527000  0.29726000  1.0
  H  H49  1  0.83827000  0.84586000  0.39585000  1.0
  H  H50  1  0.93841000  0.21975000  0.10346000  1.0
  H  H51  1  0.04900000  0.86635000  0.03950000  1.0
  H  H52  1  0.13447000  0.90369000  0.78846000  1.0
  H  H53  1  0.97450000  0.62906000  0.31171000  1.0
  H  H54  1  0.33175000  0.22184000  0.94072000  1.0
  H  H55  1  0.43925000  0.02438000  0.61331000  1.0
  C  C56  1  0.92966000  0.83459000  0.91049000  1.0
  C  C57  1  0.05292000  0.29508000  0.48143000  1.0
  C  C58  1  0.10334000  0.44881000  0.12121000  1.0
  C  C59  1  0.65866000  0.08533000  0.80778000  1.0
  C  C60  1  0.07897000  0.71113000  0.37451000  1.0
  C  C61  1  0.29557000  0.10672000  0.15140000  1.0
  C  C62  1  0.97648000  0.58045000  0.39176000  1.0
  C  C63  1  0.40438000  0.20407000  0.95466000  1.0
  C  C64  1  0.24594000  0.85115000  0.57500000  1.0
  C  C65  1  0.97527000  0.46754000  0.41346000  1.0
  C  C66  1  0.49387000  0.18821000  0.85792000  1.0
  C  C67  1  0.16873000  0.56436000  0.32159000  1.0
  C  C68  1  0.39272000  0.01507000  0.03504000  1.0
  C  C69  1  0.07111000  0.53649000  0.51421000  1.0
  C  C70  1  0.49040000  0.09708000  0.08367000  1.0
  C  C71  1  0.07390000  0.60105000  0.39916000  1.0
  C  C72  1  0.39364000  0.10826000  0.05822000  1.0
  C  C73  1  0.06441000  0.40569000  0.44982000  1.0
  C  C74  1  0.56218000  0.09540000  0.89717000  1.0
  C  C75  1  0.16788000  0.44787000  0.35859000  1.0
  C  C76  1  0.49778000  0.99968000  0.95286000  1.0
  C  C77  1  0.74932000  0.92589000  0.59123000  1.0
  C  C78  1  0.86618000  0.28719000  0.30509000  1.0
  C  C79  1  0.05636000  0.42379000  0.54678000  1.0
  C  C80  1  0.72934000  0.86863000  0.54633000  1.0
  C  C81  1  0.58844000  0.10599000  0.98273000  1.0
  C  C82  1  0.63567000  0.82565000  0.56973000  1.0
  C  C83  1  0.89069000  0.42664000  0.12024000  1.0
  C  C84  1  0.53820000  0.84714000  0.62954000  1.0
  C  C85  1  0.93796000  0.50005000  0.11713000  1.0
  C  C86  1  0.89045000  0.32104000  0.19444000  1.0
  C  C87  1  0.34959000  0.84896000  0.68241000  1.0
  C  C88  1  0.97085000  0.68030000  0.05873000  1.0
  C  C89  1  0.44661000  0.82395000  0.62634000  1.0
  C  C90  1  0.93041000  0.60684000  0.05459000  1.0
  C  C91  1  0.74227000  0.01845000  0.82038000  1.0
  C  C92  1  0.04774000  0.21426000  0.57917000  1.0
  C  C93  1  0.05633000  0.79969000  0.29549000  1.0
  C  C94  1  0.19447000  0.12099000  0.15344000  1.0
  C  C95  1  0.68800000  0.13551000  0.69610000  1.0
  C  C96  1  0.02740000  0.25098000  0.42869000  1.0
  C  C97  1  0.10539000  0.74846000  0.43196000  1.0
  C  C98  1  0.28172000  0.06712000  0.25994000  1.0
  C  C99  1  0.81970000  0.87789000  0.45472000  1.0
  C  C100  1  0.91429000  0.23054000  0.17756000  1.0
  C  C101  1  0.01049000  0.86855000  0.98919000  1.0
  C  C102  1  0.15947000  0.88888000  0.71652000  1.0
  C  C103  1  0.96763000  0.78690000  0.99354000  1.0
  C  C104  1  0.25797000  0.85609000  0.66125000  1.0
  C  C105  1  0.50759000  0.00967000  0.63459000  1.0
  N  N106  1  0.95037000  0.93429000  0.86179000  1.0
  N  N107  1  0.01891000  0.12988000  0.58463000  1.0
  N  N108  1  0.81607000  0.02835000  0.72392000  1.0
  N  N109  1  0.06922000  0.88333000  0.30482000  1.0
  N  N110  1  0.12581000  0.08967000  0.25550000  1.0
  N  N111  1  0.78270000  0.10153000  0.64673000  1.0
  N  N112  1  0.00544000  0.15181000  0.49167000  1.0
  N  N113  1  0.14828000  0.88117000  0.57881000  1.0
  N  N114  1  0.09953000  0.85063000  0.39005000  1.0
  N  N115  1  0.17981000  0.05706000  0.32151000  1.0
  N  N116  1  0.88516000  0.93883000  0.44437000  1.0
  N  N117  1  0.90580000  0.14978000  0.27057000  1.0
  N  N118  1  0.00091000  0.95642000  0.91014000  1.0
  N  N119  1  0.09448000  0.90490000  0.66649000  1.0
  N  N120  1  0.84244000  0.96783000  0.52867000  1.0
  N  N121  1  0.87553000  0.18552000  0.35021000  1.0
  O  O122  1  0.52422000  0.90271000  0.68987000  1.0
  O  O123  1  0.99866000  0.47239000  0.17872000  1.0
