# generated using pymatgen
data_Nd2Cu3H24(C4O5)6
_symmetry_space_group_name_H-M   'P 1'
_cell_length_a   14.52660000
_cell_length_b   15.03480000
_cell_length_c   15.03480000
_cell_angle_alpha   60.00000000
_cell_angle_beta   90.00000000
_cell_angle_gamma   89.99990000
_symmetry_Int_Tables_number   1
_chemical_formula_structural   Nd2Cu3H24(C4O5)6
_chemical_formula_sum   'Nd4 Cu6 H48 C48 O60'
_cell_volume   2843.74021969
_cell_formula_units_Z   2
loop_
 _symmetry_equiv_pos_site_id
 _symmetry_equiv_pos_as_xyz
  1  'x, y, z'
loop_
 _atom_site_type_symbol
 _atom_site_label
 _atom_site_symmetry_multiplicity
 _atom_site_fract_x
 _atom_site_fract_y
 _atom_site_fract_z
 _atom_site_occupancy
  Nd  Nd0  1  0.25000000  0.33333333  0.33333333  1.0
  Nd  Nd1  1  0.25000000  0.66666667  0.66666667  1.0
  Nd  Nd2  1  0.75000000  0.66666667  0.66666667  1.0
  Nd  Nd3  1  0.75000000  0.33333333  0.33333333  1.0
  Cu  Cu4  1  0.00000000  0.50000000  0.50000000  1.0
  Cu  Cu5  1  1.00000000  0.50000000  0.00000000  1.0
  Cu  Cu6  1  1.00000000  0.00000000  0.50000000  1.0
  Cu  Cu7  1  0.50000000  0.50000000  0.00000000  1.0
  Cu  Cu8  1  0.50000000  0.50000000  0.50000000  1.0
  Cu  Cu9  1  0.50000000  0.00000000  0.50000000  1.0
  H  H10  1  0.84596000  0.84754000  0.79548000  1.0
  H  H11  1  0.75344000  0.92055000  0.71114000  1.0
  H  H12  1  0.84596000  0.79548000  0.35698000  1.0
  H  H13  1  0.75344000  0.71114000  0.36831000  1.0
  H  H14  1  0.84596000  0.35698000  0.84754000  1.0
  H  H15  1  0.75344000  0.36831000  0.92055000  1.0
  H  H16  1  0.84596000  0.15246000  0.20452000  1.0
  H  H17  1  0.75344000  0.07945000  0.28886000  1.0
  H  H18  1  0.84596000  0.20452000  0.64302000  1.0
  H  H19  1  0.75344000  0.28886000  0.63169000  1.0
  H  H20  1  0.84596000  0.64302000  0.15246000  1.0
  H  H21  1  0.75344000  0.63169000  0.07945000  1.0
  H  H22  1  0.65404000  0.15246000  0.64302000  1.0
  H  H23  1  0.74656000  0.07945000  0.63169000  1.0
  H  H24  1  0.65404000  0.20452000  0.15246000  1.0
  H  H25  1  0.74656000  0.28886000  0.07945000  1.0
  H  H26  1  0.65404000  0.64302000  0.20452000  1.0
  H  H27  1  0.74656000  0.63169000  0.28886000  1.0
  H  H28  1  0.65404000  0.84754000  0.35698000  1.0
  H  H29  1  0.74656000  0.92054000  0.36832000  1.0
  H  H30  1  0.65404000  0.79548000  0.84754000  1.0
  H  H31  1  0.74656000  0.71114000  0.92055000  1.0
  H  H32  1  0.65404000  0.35698000  0.79548000  1.0
  H  H33  1  0.74656000  0.36831000  0.71114000  1.0
  H  H34  1  0.15404000  0.15246000  0.20452000  1.0
  H  H35  1  0.24656000  0.07945000  0.28886000  1.0
  H  H36  1  0.15404000  0.20452000  0.64302000  1.0
  H  H37  1  0.24656000  0.28886000  0.63169000  1.0
  H  H38  1  0.15404000  0.64302000  0.15246000  1.0
  H  H39  1  0.24656000  0.63169000  0.07945000  1.0
  H  H40  1  0.15404000  0.84754000  0.79548000  1.0
  H  H41  1  0.24656000  0.92055000  0.71114000  1.0
  H  H42  1  0.15404000  0.79548000  0.35698000  1.0
  H  H43  1  0.24656000  0.71114000  0.36831000  1.0
  H  H44  1  0.15404000  0.35698000  0.84754000  1.0
  H  H45  1  0.24656000  0.36831000  0.92055000  1.0
  H  H46  1  0.34596000  0.84754000  0.35698000  1.0
  H  H47  1  0.25344000  0.92055000  0.36831000  1.0
  H  H48  1  0.34596000  0.79548000  0.84754000  1.0
  H  H49  1  0.25344000  0.71114000  0.92055000  1.0
  H  H50  1  0.34596000  0.35698000  0.79548000  1.0
  H  H51  1  0.25344000  0.36831000  0.71114000  1.0
  H  H52  1  0.34596000  0.15246000  0.64302000  1.0
  H  H53  1  0.25344000  0.07945000  0.63169000  1.0
  H  H54  1  0.34596000  0.20452000  0.15246000  1.0
  H  H55  1  0.25344000  0.28886000  0.07945000  1.0
  H  H56  1  0.34596000  0.64302000  0.20452000  1.0
  H  H57  1  0.25344000  0.63169000  0.28886000  1.0
  C  C58  1  0.36018000  0.35884000  0.12379000  1.0
  C  C59  1  0.69916000  0.73282000  0.85554000  1.0
  C  C60  1  0.36018000  0.12380000  0.51736000  1.0
  C  C61  1  0.69916000  0.85554000  0.41164000  1.0
  C  C62  1  0.36018000  0.51736000  0.35884000  1.0
  C  C63  1  0.69916000  0.41164000  0.73282000  1.0
  C  C64  1  0.36018000  0.64116000  0.87620000  1.0
  C  C65  1  0.69916000  0.26718000  0.14446000  1.0
  C  C66  1  0.36018000  0.87620000  0.48264000  1.0
  C  C67  1  0.69916000  0.14446000  0.58836000  1.0
  C  C68  1  0.36018000  0.48263000  0.64116000  1.0
  C  C69  1  0.69916000  0.58836000  0.26718000  1.0
  C  C70  1  0.13982000  0.64116000  0.48264000  1.0
  C  C71  1  0.80084000  0.26718000  0.58836000  1.0
  C  C72  1  0.13982000  0.87620000  0.64116000  1.0
  C  C73  1  0.80084000  0.14446000  0.26718000  1.0
  C  C74  1  0.13982000  0.48264000  0.87620000  1.0
  C  C75  1  0.80084000  0.58836000  0.14446000  1.0
  C  C76  1  0.13982000  0.35884000  0.51737000  1.0
  C  C77  1  0.80084000  0.73282000  0.41164000  1.0
  C  C78  1  0.13982000  0.12380000  0.35884000  1.0
  C  C79  1  0.80084000  0.85554000  0.73282000  1.0
  C  C80  1  0.13982000  0.51736000  0.12380000  1.0
  C  C81  1  0.80084000  0.41164000  0.85554000  1.0
  C  C82  1  0.63982000  0.64116000  0.87620000  1.0
  C  C83  1  0.30084000  0.26718000  0.14446000  1.0
  C  C84  1  0.63982000  0.87620000  0.48264000  1.0
  C  C85  1  0.30084000  0.14446000  0.58836000  1.0
  C  C86  1  0.63982000  0.48264000  0.64116000  1.0
  C  C87  1  0.30084000  0.58836000  0.26718000  1.0
  C  C88  1  0.63982000  0.35883000  0.12380000  1.0
  C  C89  1  0.30084000  0.73282000  0.85554000  1.0
  C  C90  1  0.63982000  0.12380000  0.51736000  1.0
  C  C91  1  0.30084000  0.85554000  0.41164000  1.0
  C  C92  1  0.63982000  0.51736000  0.35884000  1.0
  C  C93  1  0.30084000  0.41164000  0.73282000  1.0
  C  C94  1  0.86018000  0.35884000  0.51736000  1.0
  C  C95  1  0.19916000  0.73282000  0.41164000  1.0
  C  C96  1  0.86018000  0.12380000  0.35884000  1.0
  C  C97  1  0.19916000  0.85554000  0.73282000  1.0
  C  C98  1  0.86018000  0.51736000  0.12380000  1.0
  C  C99  1  0.19916000  0.41164000  0.85554000  1.0
  C  C100  1  0.86018000  0.64116000  0.48263000  1.0
  C  C101  1  0.19916000  0.26718000  0.58836000  1.0
  C  C102  1  0.86018000  0.87621000  0.64116000  1.0
  C  C103  1  0.19916000  0.14446000  0.26718000  1.0
  C  C104  1  0.86018000  0.48264000  0.87620000  1.0
  C  C105  1  0.19916000  0.58836000  0.14446000  1.0
  O  O106  1  0.35903000  0.39155000  0.18629000  1.0
  O  O107  1  0.40705000  0.39290000  0.04148000  1.0
  O  O108  1  0.35903000  0.18629000  0.42216000  1.0
  O  O109  1  0.40706000  0.04148000  0.56561000  1.0
  O  O110  1  0.35903000  0.42216000  0.39155000  1.0
  O  O111  1  0.40705000  0.56561000  0.39291000  1.0
  O  O112  1  0.35903000  0.60845000  0.81371000  1.0
  O  O113  1  0.40705000  0.60709000  0.95852000  1.0
  O  O114  1  0.35903000  0.81371000  0.57784000  1.0
  O  O115  1  0.40706000  0.95852000  0.43439000  1.0
  O  O116  1  0.35903000  0.57784000  0.60845000  1.0
  O  O117  1  0.40705000  0.43439000  0.60709000  1.0
  O  O118  1  0.14097000  0.60845000  0.57784000  1.0
  O  O119  1  0.09295000  0.60709000  0.43439000  1.0
  O  O120  1  0.14097000  0.81371000  0.60845000  1.0
  O  O121  1  0.09295000  0.95852000  0.60709000  1.0
  O  O122  1  0.14097000  0.57784000  0.81371000  1.0
  O  O123  1  0.09295000  0.43439000  0.95852000  1.0
  O  O124  1  0.14097000  0.39155000  0.42216000  1.0
  O  O125  1  0.09295000  0.39290000  0.56562000  1.0
  O  O126  1  0.14097000  0.18629000  0.39155000  1.0
  O  O127  1  0.09295000  0.04148000  0.39291000  1.0
  O  O128  1  0.14097000  0.42216000  0.18629000  1.0
  O  O129  1  0.09295000  0.56561000  0.04148000  1.0
  O  O130  1  0.64097000  0.60845000  0.81371000  1.0
  O  O131  1  0.59295000  0.60709000  0.95852000  1.0
  O  O132  1  0.64097000  0.81371000  0.57784000  1.0
  O  O133  1  0.59294000  0.95852000  0.43439000  1.0
  O  O134  1  0.64097000  0.57784000  0.60845000  1.0
  O  O135  1  0.59295000  0.43439000  0.60709000  1.0
  O  O136  1  0.64097000  0.39155000  0.18629000  1.0
  O  O137  1  0.59295000  0.39290000  0.04148000  1.0
  O  O138  1  0.64097000  0.18629000  0.42216000  1.0
  O  O139  1  0.59294000  0.04148000  0.56561000  1.0
  O  O140  1  0.64097000  0.42216000  0.39155000  1.0
  O  O141  1  0.59295000  0.56561000  0.39291000  1.0
  O  O142  1  0.85903000  0.39155000  0.42216000  1.0
  O  O143  1  0.90705000  0.39291000  0.56561000  1.0
  O  O144  1  0.85903000  0.18629000  0.39155000  1.0
  O  O145  1  0.90705000  0.04149000  0.39290000  1.0
  O  O146  1  0.85903000  0.42216000  0.18629000  1.0
  O  O147  1  0.90705000  0.56561000  0.04148000  1.0
  O  O148  1  0.85903000  0.60845000  0.57784000  1.0
  O  O149  1  0.90705000  0.60710000  0.43438000  1.0
  O  O150  1  0.85903000  0.81371000  0.60845000  1.0
  O  O151  1  0.90705000  0.95852000  0.60709000  1.0
  O  O152  1  0.85903000  0.57784000  0.81371000  1.0
  O  O153  1  0.90706000  0.43438000  0.95853000  1.0
  O  O154  1  0.75000000  0.76414000  0.76414000  1.0
  O  O155  1  0.75000000  0.76414000  0.47172000  1.0
  O  O156  1  0.75000000  0.47172000  0.76414000  1.0
  O  O157  1  0.75000000  0.23586000  0.23586000  1.0
  O  O158  1  0.75000000  0.23586000  0.52828000  1.0
  O  O159  1  0.75000000  0.52828000  0.23586000  1.0
  O  O160  1  0.25000000  0.23586000  0.23586000  1.0
  O  O161  1  0.25000000  0.23586000  0.52828000  1.0
  O  O162  1  0.25000000  0.52828000  0.23586000  1.0
  O  O163  1  0.25000000  0.76414000  0.76414000  1.0
  O  O164  1  0.25000000  0.76414000  0.47172000  1.0
  O  O165  1  0.25000000  0.47172000  0.76414000  1.0
