# generated using pymatgen
data_HoH4C2O6F
_symmetry_space_group_name_H-M   'P 1'
_cell_length_a   7.79087000
_cell_length_b   8.40928000
_cell_length_c   8.40941000
_cell_angle_alpha   83.64890000
_cell_angle_beta   62.51490000
_cell_angle_gamma   62.53080000
_symmetry_Int_Tables_number   1
_chemical_formula_structural   HoH4C2O6F
_chemical_formula_sum   'Ho2 H8 C4 O12 F2'
_cell_volume   429.98334363
_cell_formula_units_Z   2
loop_
 _symmetry_equiv_pos_site_id
 _symmetry_equiv_pos_as_xyz
  1  'x, y, z'
loop_
 _atom_site_type_symbol
 _atom_site_label
 _atom_site_symmetry_multiplicity
 _atom_site_fract_x
 _atom_site_fract_y
 _atom_site_fract_z
 _atom_site_occupancy
  Ho  Ho0  1  0.25000000  0.07719000  0.92286000  1.0
  Ho  Ho1  1  0.75000000  0.92280000  0.07714000  1.0
  H  H2  1  0.18149000  0.04590000  0.29833000  1.0
  H  H3  1  0.31855000  0.70165000  0.95411000  1.0
  H  H4  1  0.81854000  0.95408000  0.70166000  1.0
  H  H5  1  0.68141000  0.29839000  0.04591000  1.0
  H  H6  1  0.97485000  0.04613000  0.29784000  1.0
  H  H7  1  0.52511000  0.70218000  0.95389000  1.0
  H  H8  1  0.02517000  0.95386000  0.70216000  1.0
  H  H9  1  0.47487000  0.29783000  0.04612000  1.0
  C  C10  1  0.09946000  0.50020000  0.00028000  1.0
  C  C11  1  0.40056000  0.99971000  0.49976000  1.0
  C  C12  1  0.90053000  0.49982000  0.99974000  1.0
  C  C13  1  0.59947000  0.00027000  0.50022000  1.0
  O  O14  1  0.26425000  0.34781000  0.96864000  1.0
  O  O15  1  0.23583000  0.03134000  0.65216000  1.0
  O  O16  1  0.73572000  0.65215000  0.03135000  1.0
  O  O17  1  0.76420000  0.96865000  0.34785000  1.0
  O  O18  1  0.91985000  0.34714000  0.96802000  1.0
  O  O19  1  0.58019000  0.03197000  0.65290000  1.0
  O  O20  1  0.08012000  0.65289000  0.03197000  1.0
  O  O21  1  0.41986000  0.96801000  0.34709000  1.0
  O  O22  1  0.08062000  0.09466000  0.24483000  1.0
  O  O23  1  0.41937000  0.75518000  0.90534000  1.0
  O  O24  1  0.91938000  0.90532000  0.75517000  1.0
  O  O25  1  0.58059000  0.24484000  0.09468000  1.0
  F  F26  1  0.00000000  0.00000000  0.99999000  1.0
  F  F27  1  0.50000000  0.00000000  0.00000000  1.0
