# generated using pymatgen
data_CoH8C10(SeN3)2
_symmetry_space_group_name_H-M   'P 1'
_cell_length_a   6.73159000
_cell_length_b   7.38249000
_cell_length_c   7.38504000
_cell_angle_alpha   110.27300000
_cell_angle_beta   109.73000000
_cell_angle_gamma   90.76450000
_symmetry_Int_Tables_number   1
_chemical_formula_structural   CoH8C10(SeN3)2
_chemical_formula_sum   'Co1 H8 C10 Se2 N6'
_cell_volume   320.51154596
_cell_formula_units_Z   1
loop_
 _symmetry_equiv_pos_site_id
 _symmetry_equiv_pos_as_xyz
  1  'x, y, z'
loop_
 _atom_site_type_symbol
 _atom_site_label
 _atom_site_symmetry_multiplicity
 _atom_site_fract_x
 _atom_site_fract_y
 _atom_site_fract_z
 _atom_site_occupancy
  Co  Co0  1  0.99998000  0.00003000  0.49998000  1.0
  H  H1  1  0.17989000  0.45333000  0.82214000  1.0
  H  H2  1  0.57668000  0.74055000  0.23553000  1.0
  H  H3  1  0.81990000  0.54664000  0.17795000  1.0
  H  H4  1  0.42323000  0.25950000  0.76420000  1.0
  H  H5  1  0.81882000  0.21210000  0.19184000  1.0
  H  H6  1  0.78699000  0.25704000  0.75716000  1.0
  H  H7  1  0.18103000  0.78787000  0.80824000  1.0
  H  H8  1  0.21281000  0.74310000  0.24260000  1.0
  C  C9  1  0.21028000  0.18906000  0.96675000  1.0
  C  C10  1  0.78968000  0.81126000  0.03317000  1.0
  C  C11  1  0.09942000  0.47288000  0.67642000  1.0
  C  C12  1  0.54511000  0.85800000  0.35512000  1.0
  C  C13  1  0.90085000  0.52706000  0.32353000  1.0
  C  C14  1  0.45498000  0.14177000  0.64503000  1.0
  C  C15  1  0.90010000  0.34085000  0.33018000  1.0
  C  C16  1  0.65992000  0.14035000  0.64201000  1.0
  C  C17  1  0.10009000  0.65915000  0.66978000  1.0
  C  C18  1  0.34011000  0.85944000  0.35818000  1.0
  Se  Se19  1  0.37254000  0.32845000  0.22851000  1.0
  Se  Se20  1  0.62751000  0.67156000  0.77151000  1.0
  N  N21  1  0.10727000  0.10004000  0.78943000  1.0
  N  N22  1  0.89274000  0.90032000  0.21051000  1.0
  N  N23  1  0.99967000  0.31282000  0.50713000  1.0
  N  N24  1  0.70843000  0.99826000  0.49708000  1.0
  N  N25  1  0.00032000  0.68711000  0.49279000  1.0
  N  N26  1  0.29165000  0.00146000  0.50319000  1.0
