# generated using pymatgen
data_Cu3H8C10Br2(NCl3)2
_symmetry_space_group_name_H-M   'P 1'
_cell_length_a   7.34170000
_cell_length_b   9.10391000
_cell_length_c   15.07700000
_cell_angle_alpha   90.02070000
_cell_angle_beta   90.01820000
_cell_angle_gamma   70.55100000
_symmetry_Int_Tables_number   1
_chemical_formula_structural   Cu3H8C10Br2(NCl3)2
_chemical_formula_sum   'Cu6 H16 C20 Br4 N4 Cl12'
_cell_volume   950.21687255
_cell_formula_units_Z   2
loop_
 _symmetry_equiv_pos_site_id
 _symmetry_equiv_pos_as_xyz
  1  'x, y, z'
loop_
 _atom_site_type_symbol
 _atom_site_label
 _atom_site_symmetry_multiplicity
 _atom_site_fract_x
 _atom_site_fract_y
 _atom_site_fract_z
 _atom_site_occupancy
  Cu  Cu0  1  0.04582000  0.63994000  0.57173000  1.0
  Cu  Cu1  1  0.95470000  0.86138000  0.07208000  1.0
  Cu  Cu2  1  0.95426000  0.36089000  0.42794000  1.0
  Cu  Cu3  1  0.04564000  0.13916000  0.92791000  1.0
  Cu  Cu4  1  0.00052000  0.99751000  0.50029000  1.0
  Cu  Cu5  1  0.00005000  0.50010000  1.00000000  1.0
  H  H6  1  0.41379000  0.47245000  0.85809000  1.0
  H  H7  1  0.58654000  0.02824000  0.35811000  1.0
  H  H8  1  0.58671000  0.52780000  0.14174000  1.0
  H  H9  1  0.41245000  0.97197000  0.64182000  1.0
  H  H10  1  0.66162000  0.23335000  0.79629000  1.0
  H  H11  1  0.33883000  0.26726000  0.29627000  1.0
  H  H12  1  0.33789000  0.76626000  0.20362000  1.0
  H  H13  1  0.66147000  0.73347000  0.70376000  1.0
  H  H14  1  0.64328000  0.17113000  0.63387000  1.0
  H  H15  1  0.35691000  0.32910000  0.13383000  1.0
  H  H16  1  0.35561000  0.82825000  0.36608000  1.0
  H  H17  1  0.64421000  0.67199000  0.86627000  1.0
  H  H18  1  0.37691000  0.35008000  0.54185000  1.0
  H  H19  1  0.62320000  0.14980000  0.04182000  1.0
  H  H20  1  0.62175000  0.64903000  0.45823000  1.0
  H  H21  1  0.37786000  0.85112000  0.95835000  1.0
  C  C22  1  0.26435000  0.52881000  0.73311000  1.0
  C  C23  1  0.73571000  0.97126000  0.23317000  1.0
  C  C24  1  0.73544000  0.47106000  0.26684000  1.0
  C  C25  1  0.26391000  0.02891000  0.76686000  1.0
  C  C26  1  0.41068000  0.43983000  0.78886000  1.0
  C  C27  1  0.58949000  0.06055000  0.28887000  1.0
  C  C28  1  0.58929000  0.56012000  0.21102000  1.0
  C  C29  1  0.41009000  0.93972000  0.71111000  1.0
  C  C30  1  0.54850000  0.30800000  0.75359000  1.0
  C  C31  1  0.45178000  0.19237000  0.25359000  1.0
  C  C32  1  0.45101000  0.69167000  0.24634000  1.0
  C  C33  1  0.54838000  0.80822000  0.74643000  1.0
  C  C34  1  0.53806000  0.27262000  0.66413000  1.0
  C  C35  1  0.46207000  0.22758000  0.16411000  1.0
  C  C36  1  0.46106000  0.72685000  0.33584000  1.0
  C  C37  1  0.53860000  0.77324000  0.83598000  1.0
  C  C38  1  0.39078000  0.37019000  0.61233000  1.0
  C  C39  1  0.60932000  0.12987000  0.11233000  1.0
  C  C40  1  0.60814000  0.62920000  0.38770000  1.0
  C  C41  1  0.39135000  0.87083000  0.88779000  1.0
  Br  Br42  1  0.06723000  0.70324000  0.78009000  1.0
  Br  Br43  1  0.93245000  0.79661000  0.28010000  1.0
  Br  Br44  1  0.93317000  0.29715000  0.21981000  1.0
  Br  Br45  1  0.06662000  0.20314000  0.71996000  1.0
  N  N46  1  0.25517000  0.49637000  0.64687000  1.0
  N  N47  1  0.74487000  0.00377000  0.14694000  1.0
  N  N48  1  0.74400000  0.50319000  0.35316000  1.0
  N  N49  1  0.25536000  0.99664000  0.85315000  1.0
  Cl  Cl50  1  0.84244000  0.50353000  0.59038000  1.0
  Cl  Cl51  1  0.15843000  0.99668000  0.09049000  1.0
  Cl  Cl52  1  0.15815000  0.49608000  0.40932000  1.0
  Cl  Cl53  1  0.84219000  0.00357000  0.90956000  1.0
  Cl  Cl54  1  0.24311000  0.78748000  0.54469000  1.0
  Cl  Cl55  1  0.75887000  0.71227000  0.04546000  1.0
  Cl  Cl56  1  0.76021000  0.21041000  0.45500000  1.0
  Cl  Cl57  1  0.24149000  0.28816000  0.95454000  1.0
  Cl  Cl58  1  0.79490000  0.86668000  0.53262000  1.0
  Cl  Cl59  1  0.20426000  0.63437000  0.03248000  1.0
  Cl  Cl60  1  0.20321000  0.13345000  0.46809000  1.0
  Cl  Cl61  1  0.79583000  0.36600000  0.96732000  1.0
