# generated using pymatgen
data_FeH20C24(N5O)2
_symmetry_space_group_name_H-M   'P 1'
_cell_length_a   7.91621000
_cell_length_b   8.31161000
_cell_length_c   9.48903000
_cell_angle_alpha   102.20300000
_cell_angle_beta   100.95400000
_cell_angle_gamma   97.09470000
_symmetry_Int_Tables_number   1
_chemical_formula_structural   FeH20C24(N5O)2
_chemical_formula_sum   'Fe1 H20 C24 N10 O2'
_cell_volume   590.33938981
_cell_formula_units_Z   1
loop_
 _symmetry_equiv_pos_site_id
 _symmetry_equiv_pos_as_xyz
  1  'x, y, z'
loop_
 _atom_site_type_symbol
 _atom_site_label
 _atom_site_symmetry_multiplicity
 _atom_site_fract_x
 _atom_site_fract_y
 _atom_site_fract_z
 _atom_site_occupancy
  Fe  Fe0  1  0.00041000  0.99955000  0.00062000  1.0
  H  H1  1  0.75375000  0.05933000  0.15861000  1.0
  H  H2  1  0.24481000  0.93964000  0.84105000  1.0
  H  H3  1  0.78183000  0.86549000  0.14500000  1.0
  H  H4  1  0.21837000  0.13411000  0.85676000  1.0
  H  H5  1  0.70374000  0.17906000  0.93662000  1.0
  H  H6  1  0.29660000  0.81893000  0.06529000  1.0
  H  H7  1  0.47118000  0.17815000  0.72540000  1.0
  H  H8  1  0.52970000  0.82078000  0.27652000  1.0
  H  H9  1  0.72908000  0.84719000  0.45070000  1.0
  H  H10  1  0.27343000  0.15443000  0.55044000  1.0
  H  H11  1  0.94873000  0.86332000  0.67589000  1.0
  H  H12  1  0.05336000  0.13747000  0.32520000  1.0
  H  H13  1  0.89715000  0.25523000  0.44828000  1.0
  H  H14  1  0.09983000  0.74393000  0.55020000  1.0
  H  H15  1  0.77176000  0.44450000  0.61643000  1.0
  H  H16  1  0.22579000  0.55519000  0.38194000  1.0
  H  H17  1  0.34027000  0.40940000  0.24693000  1.0
  H  H18  1  0.65852000  0.59241000  0.75102000  1.0
  H  H19  1  0.47966000  0.21249000  0.09579000  1.0
  H  H20  1  0.51819000  0.78815000  0.90242000  1.0
  C  C21  1  0.00282000  0.37094000  0.12589000  1.0
  C  C22  1  0.99778000  0.62861000  0.87338000  1.0
  C  C23  1  0.89325000  0.61370000  0.20704000  1.0
  C  C24  1  0.10871000  0.38672000  0.79307000  1.0
  C  C25  1  0.70388000  0.10661000  0.82697000  1.0
  C  C26  1  0.29706000  0.89230000  0.17473000  1.0
  C  C27  1  0.57314000  0.10472000  0.70631000  1.0
  C  C28  1  0.42814000  0.89479000  0.29536000  1.0
  C  C29  1  0.57206000  0.00715000  0.56539000  1.0
  C  C30  1  0.42975000  0.99328000  0.43606000  1.0
  C  C31  1  0.71460000  0.92282000  0.55526000  1.0
  C  C32  1  0.28752000  0.07813000  0.44600000  1.0
  C  C33  1  0.84055000  0.93143000  0.68116000  1.0
  C  C34  1  0.16128000  0.06896000  0.32011000  1.0
  C  C35  1  0.77359000  0.29264000  0.40627000  1.0
  C  C36  1  0.22381000  0.70712000  0.59206000  1.0
  C  C37  1  0.70201000  0.40121000  0.50145000  1.0
  C  C38  1  0.29572000  0.59891000  0.49686000  1.0
  C  C39  1  0.54121000  0.44614000  0.44895000  1.0
  C  C40  1  0.45700000  0.55469000  0.54915000  1.0
  C  C41  1  0.46416000  0.38065000  0.29811000  1.0
  C  C42  1  0.53424000  0.62059000  0.69994000  1.0
  C  C43  1  0.54367000  0.27083000  0.21107000  1.0
  C  C44  1  0.45424000  0.72986000  0.78708000  1.0
  N  N45  1  0.01669000  0.23106000  0.07975000  1.0
  N  N46  1  0.98432000  0.76809000  0.92166000  1.0
  N  N47  1  0.01504000  0.52849000  0.18304000  1.0
  N  N48  1  0.98574000  0.47181000  0.81316000  1.0
  N  N49  1  0.79621000  0.70686000  0.23616000  1.0
  N  N50  1  0.20707000  0.29399000  0.76682000  1.0
  N  N51  1  0.83558000  0.01802000  0.81769000  1.0
  N  N52  1  0.16569000  0.98135000  0.18380000  1.0
  N  N53  1  0.69611000  0.22536000  0.26360000  1.0
  N  N54  1  0.30136000  0.77466000  0.73469000  1.0
  O  O55  1  0.77136000  0.95452000  0.08868000  1.0
  O  O56  1  0.22847000  0.04422000  0.91216000  1.0
