# generated using pymatgen
data_Zn2H13C22IO8
_symmetry_space_group_name_H-M   'P 1'
_cell_length_a   18.44540000
_cell_length_b   18.94030000
_cell_length_c   18.93918396
_cell_angle_alpha   110.21193242
_cell_angle_beta   108.62407279
_cell_angle_gamma   108.68100000
_symmetry_Int_Tables_number   1
_chemical_formula_structural   Zn2H13C22IO8
_chemical_formula_sum   'Zn6 H39 C66 I3 O24'
_cell_volume   5148.10709454
_cell_formula_units_Z   3
loop_
 _symmetry_equiv_pos_site_id
 _symmetry_equiv_pos_as_xyz
  1  'x, y, z'
loop_
 _atom_site_type_symbol
 _atom_site_label
 _atom_site_symmetry_multiplicity
 _atom_site_fract_x
 _atom_site_fract_y
 _atom_site_fract_z
 _atom_site_occupancy
  Zn  Zn0  1  0.00776000  0.04556000  0.56441000  1.0
  Zn  Zn1  1  0.99176000  0.91510000  0.43074000  1.0
  Zn  Zn2  1  0.46647000  0.96788000  0.01374000  1.0
  Zn  Zn3  1  0.59045000  0.08755000  0.00934000  1.0
  Zn  Zn4  1  0.53185000  0.49041000  0.54478000  1.0
  Zn  Zn5  1  0.41992000  0.51023000  0.43024000  1.0
  H  H6  1  0.68455000  0.94644000  0.18589000  1.0
  H  H7  1  0.89263000  0.12590000  0.36478000  1.0
  H  H8  1  0.62349000  0.60323000  0.37064000  1.0
  H  H9  1  0.76703000  0.67351000  0.55382000  1.0
  H  H10  1  0.76061000  0.67658000  0.35845000  1.0
  H  H11  1  0.80364000  0.81131000  0.53598000  1.0
  H  H12  1  0.38394000  0.71845000  0.59007000  1.0
  H  H13  1  0.21659000  0.99918000  0.57252000  1.0
  H  H14  1  0.53631000  0.72330000  0.72448000  1.0
  H  H15  1  0.57766000  0.87959000  0.78922000  1.0
  H  H16  1  0.50277000  0.28391000  0.34401000  1.0
  H  H17  1  0.42170000  0.32689000  0.20617000  1.0
  H  H18  1  0.48060000  0.15850000  0.21865000  1.0
  H  H19  1  0.55831000  0.29760000  0.17561000  1.0
  H  H20  1  0.47008000  0.01689000  0.68023000  1.0
  H  H21  1  0.45260000  0.00664000  0.79948000  1.0
  H  H22  1  0.21966000  0.96242000  0.87233000  1.0
  H  H23  1  0.37856000  0.29946000  0.58144000  1.0
  H  H24  1  0.24238000  0.21107000  0.58949000  1.0
  H  H25  1  0.00971000  0.82407000  0.67035000  1.0
  H  H26  1  0.87445000  0.80160000  0.68221000  1.0
  H  H27  1  0.86867000  0.92463000  0.78016000  1.0
  H  H28  1  0.99957000  0.07046000  0.86799000  1.0
  H  H29  1  0.13525000  0.09223000  0.85759000  1.0
  H  H30  1  0.75499000  0.84833000  0.30986000  1.0
  H  H31  1  0.61275000  0.73966000  0.27822000  1.0
  H  H32  1  0.50119000  0.78167000  0.29290000  1.0
  H  H33  1  0.53284000  0.93320000  0.33926000  1.0
  H  H34  1  0.67491000  0.04183000  0.37046000  1.0
  H  H35  1  0.31304000  0.80732000  0.61146000  1.0
  H  H36  1  0.16291000  0.76962000  0.58829000  1.0
  H  H37  1  0.11462000  0.72529000  0.68214000  1.0
  H  H38  1  0.21869000  0.72015000  0.79980000  1.0
  H  H39  1  0.36995000  0.75925000  0.82384000  1.0
  H  H40  1  0.16712000  0.30590000  0.53625000  1.0
  H  H41  1  0.01634000  0.27357000  0.44710000  1.0
  H  H42  1  0.96638000  0.24501000  0.29668000  1.0
  H  H43  1  0.06931000  0.25090000  0.23684000  1.0
  H  H44  1  0.22041000  0.28492000  0.32663000  1.0
  C  C45  1  0.11870000  0.06024000  0.46758000  1.0
  C  C46  1  0.25543000  0.99335000  0.69058000  1.0
  C  C47  1  0.17717000  0.98410000  0.69503000  1.0
  C  C48  1  0.16382000  0.97270000  0.75939000  1.0
  C  C49  1  0.23007000  0.97225000  0.82225000  1.0
  C  C50  1  0.30889000  0.98637000  0.82340000  1.0
  C  C51  1  0.31030000  0.27427000  0.53553000  1.0
  C  C52  1  0.29355000  0.31600000  0.49210000  1.0
  C  C53  1  0.24432000  0.20196000  0.52980000  1.0
  C  C54  1  0.18585000  0.12298000  0.46085000  1.0
  C  C55  1  0.76017000  0.07885000  0.27000000  1.0
  C  C56  1  0.11002000  0.98910000  0.63018000  1.0
  C  C57  1  0.69304000  0.00950000  0.19558000  1.0
  C  C58  1  0.82498000  0.07649000  0.33635000  1.0
  C  C59  1  0.80983000  0.01838000  0.36316000  1.0
  C  C60  1  0.68924000  0.64436000  0.42634000  1.0
  C  C61  1  0.70189000  0.64075000  0.49885000  1.0
  C  C62  1  0.75677000  0.70058000  0.41789000  1.0
  C  C63  1  0.81045000  0.78386000  0.47909000  1.0
  C  C64  1  0.53592000  0.93489000  0.87946000  1.0
  C  C65  1  0.37866000  0.99451000  0.89751000  1.0
  C  C66  1  0.54542000  0.16818000  0.11760000  1.0
  C  C67  1  0.87642000  0.84592000  0.47248000  1.0
  C  C68  1  0.62605000  0.00804000  0.12563000  1.0
  C  C69  1  0.44251000  0.38829000  0.33869000  1.0
  C  C70  1  0.36949000  0.38755000  0.50304000  1.0
  C  C71  1  0.47683000  0.63274000  0.58854000  1.0
  C  C72  1  0.62754000  0.58901000  0.50525000  1.0
  C  C73  1  0.43658000  0.74251000  0.65376000  1.0
  C  C74  1  0.48781000  0.70553000  0.66135000  1.0
  C  C75  1  0.44067000  0.80532000  0.72910000  1.0
  C  C76  1  0.51957000  0.87019000  0.79667000  1.0
  C  C77  1  0.48420000  0.28043000  0.28139000  1.0
  C  C78  1  0.88781000  0.01941000  0.42226000  1.0
  C  C79  1  0.44845000  0.32956000  0.26793000  1.0
  C  C80  1  0.49713000  0.22060000  0.22126000  1.0
  C  C81  1  0.53344000  0.23568000  0.17297000  1.0
  C  C82  1  0.26808000  0.00157000  0.62294000  1.0
  C  C83  1  0.34390000  0.01017000  0.61999000  1.0
  C  C84  1  0.41078000  0.01122000  0.68365000  1.0
  C  C85  1  0.40041000  0.00489000  0.75047000  1.0
  C  C86  1  0.32361000  0.99623000  0.75679000  1.0
  C  C87  1  0.08155000  0.95966000  0.76369000  1.0
  C  C88  1  0.00743000  0.87803000  0.71380000  1.0
  C  C89  1  0.93142000  0.86558000  0.72023000  1.0
  C  C90  1  0.92818000  0.93449000  0.77549000  1.0
  C  C91  1  0.00171000  0.01616000  0.82500000  1.0
  C  C92  1  0.07800000  0.02847000  0.81946000  1.0
  C  C93  1  0.72413000  0.95224000  0.34126000  1.0
  C  C94  1  0.70619000  0.86681000  0.31611000  1.0
  C  C95  1  0.62611000  0.80586000  0.29826000  1.0
  C  C96  1  0.56343000  0.82928000  0.30625000  1.0
  C  C97  1  0.58117000  0.91430000  0.33207000  1.0
  C  C98  1  0.66078000  0.97535000  0.34947000  1.0
  C  C99  1  0.35232000  0.78697000  0.72024000  1.0
  C  C100  1  0.29253000  0.78805000  0.65286000  1.0
  C  C101  1  0.20785000  0.76679000  0.63975000  1.0
  C  C102  1  0.18099000  0.74228000  0.69255000  1.0
  C  C103  1  0.23939000  0.73944000  0.75855000  1.0
  C  C104  1  0.32450000  0.76160000  0.77249000  1.0
  C  C105  1  0.20401000  0.29675000  0.43740000  1.0
  C  C106  1  0.14532000  0.29294000  0.47021000  1.0
  C  C107  1  0.06049000  0.27459000  0.42000000  1.0
  C  C108  1  0.03269000  0.25921000  0.33580000  1.0
  C  C109  1  0.09053000  0.26283000  0.30250000  1.0
  C  C110  1  0.17557000  0.28192000  0.35288000  1.0
  I  I111  1  0.18345000  0.08172000  0.34198000  1.0
  I  I112  1  0.78139000  0.20567000  0.30363000  1.0
  I  I113  1  0.35995000  0.02155000  0.51850000  1.0
  O  O114  1  0.10148000  0.09111000  0.52733000  1.0
  O  O115  1  0.59343000  0.01368000  0.91003000  1.0
  O  O116  1  0.35603000  0.94742000  0.93048000  1.0
  O  O117  1  0.45711000  0.04850000  0.92546000  1.0
  O  O118  1  0.50543000  0.09224000  0.10377000  1.0
  O  O119  1  0.59642000  0.19107000  0.08692000  1.0
  O  O120  1  0.54602000  0.95358000  0.09702000  1.0
  O  O121  1  0.65131000  0.05805000  0.09781000  1.0
  O  O122  1  0.48232000  0.39962000  0.41342000  1.0
  O  O123  1  0.39760000  0.42587000  0.32020000  1.0
  O  O124  1  0.44741000  0.40527000  0.55259000  1.0
  O  O125  1  0.08189000  0.97959000  0.41266000  1.0
  O  O126  1  0.35259000  0.42648000  0.46258000  1.0
  O  O127  1  0.51903000  0.59484000  0.60866000  1.0
  O  O128  1  0.42536000  0.61095000  0.51096000  1.0
  O  O129  1  0.64388000  0.55890000  0.55676000  1.0
  O  O130  1  0.55276000  0.57781000  0.46029000  1.0
  O  O131  1  0.09169000  0.04934000  0.66007000  1.0
  O  O132  1  0.07740000  0.93608000  0.55119000  1.0
  O  O133  1  0.90909000  0.92482000  0.52656000  1.0
  O  O134  1  0.89694000  0.81747000  0.41318000  1.0
  O  O135  1  0.92495000  0.07318000  0.50307000  1.0
  O  O136  1  0.90983000  0.96552000  0.38811000  1.0
  O  O137  1  0.49489000  0.91075000  0.91639000  1.0
