# generated using pymatgen
data_AgH8C8N2O2F3
_symmetry_space_group_name_H-M   'P 1'
_cell_length_a   4.71611000
_cell_length_b   9.86530000
_cell_length_c   22.15870000
_cell_angle_alpha   90.00040000
_cell_angle_beta   90.00000000
_cell_angle_gamma   90.00000000
_symmetry_Int_Tables_number   1
_chemical_formula_structural   AgH8C8N2O2F3
_chemical_formula_sum   'Ag4 H32 C32 N8 O8 F12'
_cell_volume   1030.95213041
_cell_formula_units_Z   4
loop_
 _symmetry_equiv_pos_site_id
 _symmetry_equiv_pos_as_xyz
  1  'x, y, z'
loop_
 _atom_site_type_symbol
 _atom_site_label
 _atom_site_symmetry_multiplicity
 _atom_site_fract_x
 _atom_site_fract_y
 _atom_site_fract_z
 _atom_site_occupancy
  Ag  Ag0  1  0.68115000  0.77337000  0.21934000  1.0
  Ag  Ag1  1  0.81885000  0.22663000  0.71934000  1.0
  Ag  Ag2  1  0.31885000  0.27337000  0.28066000  1.0
  Ag  Ag3  1  0.18114000  0.72663000  0.78066000  1.0
  H  H4  1  0.68458000  0.46291000  0.24822000  1.0
  H  H5  1  0.81542000  0.53710000  0.74822000  1.0
  H  H6  1  0.31542000  0.96290000  0.25178000  1.0
  H  H7  1  0.18458000  0.03709000  0.75178000  1.0
  H  H8  1  0.69469000  0.33679000  0.19992000  1.0
  H  H9  1  0.80530000  0.66321000  0.69992000  1.0
  H  H10  1  0.30530000  0.83679000  0.30008000  1.0
  H  H11  1  0.19469000  0.16321000  0.80008000  1.0
  H  H12  1  0.29787000  0.57039000  0.19873000  1.0
  H  H13  1  0.20213000  0.42961000  0.69873000  1.0
  H  H14  1  0.70213000  0.07038000  0.30127000  1.0
  H  H15  1  0.79786000  0.92961000  0.80127000  1.0
  H  H16  1  0.24081000  0.42247000  0.15436000  1.0
  H  H17  1  0.25918000  0.57754000  0.65436000  1.0
  H  H18  1  0.75918000  0.92246000  0.34564000  1.0
  H  H19  1  0.74081000  0.07754000  0.84564000  1.0
  H  H20  1  0.49421000  0.38742000  0.06203000  1.0
  H  H21  1  0.00578000  0.61258000  0.56204000  1.0
  H  H22  1  0.50578000  0.88742000  0.43796000  1.0
  H  H23  1  0.99421000  0.11258000  0.93797000  1.0
  H  H24  1  0.84024000  0.47318000  0.98571000  1.0
  H  H25  1  0.65976000  0.52682000  0.48571000  1.0
  H  H26  1  0.15975000  0.97318000  0.51429000  1.0
  H  H27  1  0.34024000  0.02682000  0.01429000  1.0
  H  H28  1  0.14351000  0.67480000  0.01253000  1.0
  H  H29  1  0.35649000  0.32520000  0.51253000  1.0
  H  H30  1  0.85649000  0.17480000  0.48747000  1.0
  H  H31  1  0.64350000  0.82520000  0.98747000  1.0
  H  H32  1  0.07221000  0.78491000  0.11362000  1.0
  H  H33  1  0.42780000  0.21510000  0.61362000  1.0
  H  H34  1  0.92780000  0.28490000  0.38638000  1.0
  H  H35  1  0.57220000  0.71510000  0.88638000  1.0
  C  C36  1  0.40426000  0.48605000  0.17539000  1.0
  C  C37  1  0.09574000  0.51396000  0.67539000  1.0
  C  C38  1  0.59574000  0.98604000  0.32461000  1.0
  C  C39  1  0.90425000  0.01396000  0.82461000  1.0
  C  C40  1  0.60089000  0.54030000  0.12745000  1.0
  C  C41  1  0.89910000  0.45971000  0.62745000  1.0
  C  C42  1  0.39911000  0.04029000  0.37255000  1.0
  C  C43  1  0.10089000  0.95971000  0.87254000  1.0
  C  C44  1  0.62691000  0.47501000  0.07177000  1.0
  C  C45  1  0.87309000  0.52499000  0.57177000  1.0
  C  C46  1  0.37309000  0.97500000  0.42823000  1.0
  C  C47  1  0.12691000  0.02500000  0.92823000  1.0
  C  C48  1  0.82050000  0.52268000  0.02939000  1.0
  C  C49  1  0.67950000  0.47732000  0.52939000  1.0
  C  C50  1  0.17950000  0.02268000  0.47061000  1.0
  C  C51  1  0.32050000  0.97732000  0.97061000  1.0
  C  C52  1  0.98756000  0.63463000  0.04403000  1.0
  C  C53  1  0.51244000  0.36537000  0.54403000  1.0
  C  C54  1  0.01245000  0.13463000  0.45597000  1.0
  C  C55  1  0.48755000  0.86537000  0.95597000  1.0
  C  C56  1  0.95083000  0.69589000  0.10003000  1.0
  C  C57  1  0.54917000  0.30411000  0.60003000  1.0
  C  C58  1  0.04918000  0.19588000  0.39997000  1.0
  C  C59  1  0.45082000  0.80411000  0.89997000  1.0
  C  C60  1  0.04051000  0.59320000  0.33096000  1.0
  C  C61  1  0.45951000  0.40680000  0.83096000  1.0
  C  C62  1  0.95952000  0.09320000  0.16904000  1.0
  C  C63  1  0.54048000  0.90680000  0.66904000  1.0
  C  C64  1  0.21160000  0.59864000  0.39144000  1.0
  C  C65  1  0.28841000  0.40136000  0.89143000  1.0
  C  C66  1  0.78842000  0.09864000  0.10857000  1.0
  C  C67  1  0.71158000  0.90136000  0.60857000  1.0
  N  N68  1  0.75969000  0.65085000  0.14069000  1.0
  N  N69  1  0.74031000  0.34915000  0.64069000  1.0
  N  N70  1  0.24032000  0.15084000  0.35931000  1.0
  N  N71  1  0.25968000  0.84915000  0.85931000  1.0
  N  N72  1  0.55794000  0.40421000  0.22057000  1.0
  N  N73  1  0.94205000  0.59579000  0.72057000  1.0
  N  N74  1  0.44205000  0.90421000  0.27943000  1.0
  N  N75  1  0.05794000  0.09579000  0.77943000  1.0
  O  O76  1  0.02115000  0.70713000  0.30551000  1.0
  O  O77  1  0.47887000  0.29286000  0.80551000  1.0
  O  O78  1  0.97887000  0.20713000  0.19449000  1.0
  O  O79  1  0.52113000  0.79287000  0.69449000  1.0
  O  O80  1  0.94240000  0.48016000  0.31595000  1.0
  O  O81  1  0.55764000  0.51983000  0.81595000  1.0
  O  O82  1  0.05765000  0.98016000  0.18406000  1.0
  O  O83  1  0.44236000  0.01984000  0.68405000  1.0
  F  F84  1  0.27093000  0.47407000  0.41493000  1.0
  F  F85  1  0.22908000  0.52593000  0.91493000  1.0
  F  F86  1  0.72910000  0.97406000  0.08507000  1.0
  F  F87  1  0.77091000  0.02593000  0.58507000  1.0
  F  F88  1  0.46587000  0.66365000  0.38472000  1.0
  F  F89  1  0.03414000  0.33636000  0.88472000  1.0
  F  F90  1  0.53416000  0.16364000  0.11528000  1.0
  F  F91  1  0.96584000  0.83636000  0.61528000  1.0
  F  F92  1  0.06423000  0.66817000  0.43507000  1.0
  F  F93  1  0.43577000  0.33184000  0.93508000  1.0
  F  F94  1  0.93579000  0.16816000  0.06493000  1.0
  F  F95  1  0.56421000  0.83184000  0.56493000  1.0
