# generated using pymatgen
data_ZnFeH19C25N3Cl2
_symmetry_space_group_name_H-M   'P 1'
_cell_length_a   8.55060000
_cell_length_b   16.69110000
_cell_length_c   17.77500000
_cell_angle_alpha   77.05920000
_cell_angle_beta   84.14270000
_cell_angle_gamma   85.70260000
_symmetry_Int_Tables_number   1
_chemical_formula_structural   ZnFeH19C25N3Cl2
_chemical_formula_sum   'Zn4 Fe4 H76 C100 N12 Cl8'
_cell_volume   2455.93926244
_cell_formula_units_Z   4
loop_
 _symmetry_equiv_pos_site_id
 _symmetry_equiv_pos_as_xyz
  1  'x, y, z'
loop_
 _atom_site_type_symbol
 _atom_site_label
 _atom_site_symmetry_multiplicity
 _atom_site_fract_x
 _atom_site_fract_y
 _atom_site_fract_z
 _atom_site_occupancy
  Zn  Zn0  1  0.67335000  0.55448000  0.61218000  1.0
  Zn  Zn1  1  0.32664000  0.44552000  0.38782000  1.0
  Zn  Zn2  1  0.59413000  0.28403000  0.97900000  1.0
  Zn  Zn3  1  0.40588000  0.71597000  0.02100000  1.0
  Fe  Fe4  1  0.59312000  0.10795000  0.64890000  1.0
  Fe  Fe5  1  0.40689000  0.89204000  0.35110000  1.0
  Fe  Fe6  1  0.01489000  0.86258000  0.69622000  1.0
  Fe  Fe7  1  0.98511000  0.13742000  0.30378000  1.0
  H  H8  1  0.86713000  0.21514000  0.06845000  1.0
  H  H9  1  0.13288000  0.78486000  0.93155000  1.0
  H  H10  1  0.24425000  0.10919000  0.80330000  1.0
  H  H11  1  0.75575000  0.89081000  0.19670000  1.0
  H  H12  1  0.77572000  0.60598000  0.02286000  1.0
  H  H13  1  0.22428000  0.39402000  0.97715000  1.0
  H  H14  1  0.21747000  0.67856000  0.73530000  1.0
  H  H15  1  0.78252000  0.32144000  0.26470000  1.0
  H  H16  1  0.41875000  0.59948000  0.71940000  1.0
  H  H17  1  0.58124000  0.40052000  0.28060000  1.0
  H  H18  1  0.59152000  0.52219000  0.11989000  1.0
  H  H19  1  0.40848000  0.47781000  0.88011000  1.0
  H  H20  1  0.41214000  0.01101000  0.77123000  1.0
  H  H21  1  0.58786000  0.98899000  0.22877000  1.0
  H  H22  1  0.51713000  0.39389000  0.62567000  1.0
  H  H23  1  0.48287000  0.60611000  0.37433000  1.0
  H  H24  1  0.06267000  0.29784000  0.48713000  1.0
  H  H25  1  0.93735000  0.70217000  0.51287000  1.0
  H  H26  1  0.08618000  0.40803000  0.77254000  1.0
  H  H27  1  0.91382000  0.59197000  0.22747000  1.0
  H  H28  1  0.61624000  0.27045000  0.56436000  1.0
  H  H29  1  0.38377000  0.72955000  0.43563000  1.0
  H  H30  1  0.82066000  0.68361000  0.90334000  1.0
  H  H31  1  0.17933000  0.31638000  0.09666000  1.0
  H  H32  1  0.19631000  0.21991000  0.56284000  1.0
  H  H33  1  0.80370000  0.78009000  0.43716000  1.0
  H  H34  1  0.78523000  0.25433000  0.83668000  1.0
  H  H35  1  0.21477000  0.74567000  0.16332000  1.0
  H  H36  1  0.74994000  0.51514000  0.45846000  1.0
  H  H37  1  0.25006000  0.48486000  0.54154000  1.0
  H  H38  1  0.92247000  0.41109000  0.40013000  1.0
  H  H39  1  0.07754000  0.58891000  0.59987000  1.0
  H  H40  1  0.27325000  0.32940000  0.69264000  1.0
  H  H41  1  0.72675000  0.67060000  0.30737000  1.0
  H  H42  1  0.80713000  0.41521000  0.89253000  1.0
  H  H43  1  0.19287000  0.58478000  0.10747000  1.0
  H  H44  1  0.85832000  0.39902000  0.68026000  1.0
  H  H45  1  0.14168000  0.60098000  0.31974000  1.0
  H  H46  1  0.28440000  0.81383000  0.60988000  1.0
  H  H47  1  0.71560000  0.18617000  0.39011000  1.0
  H  H48  1  0.25495000  0.17734000  0.90278000  1.0
  H  H49  1  0.74505000  0.82266000  0.09721000  1.0
  H  H50  1  0.52921000  0.38222000  0.10159000  1.0
  H  H51  1  0.47078000  0.61779000  0.89841000  1.0
  H  H52  1  0.75481000  0.81396000  0.80533000  1.0
  H  H53  1  0.24519000  0.18604000  0.19467000  1.0
  H  H54  1  0.02246000  0.72406000  0.63309000  1.0
  H  H55  1  0.97754000  0.27594000  0.36691000  1.0
  H  H56  1  0.27114000  0.81506000  0.78690000  1.0
  H  H57  1  0.72886000  0.18493000  0.21310000  1.0
  H  H58  1  0.62460000  0.93467000  0.68540000  1.0
  H  H59  1  0.37540000  0.06532000  0.31461000  1.0
  H  H60  1  0.15323000  0.17686000  0.03999000  1.0
  H  H61  1  0.84677000  0.82314000  0.96001000  1.0
  H  H62  1  0.86898000  0.98524000  0.58467000  1.0
  H  H63  1  0.13101000  0.01476000  0.41533000  1.0
  H  H64  1  0.84650000  0.15703000  0.53872000  1.0
  H  H65  1  0.15351000  0.84297000  0.46128000  1.0
  H  H66  1  0.61641000  0.01420000  0.53463000  1.0
  H  H67  1  0.38359000  0.98579000  0.46537000  1.0
  H  H68  1  0.90890000  0.05982000  0.67666000  1.0
  H  H69  1  0.09110000  0.94018000  0.32334000  1.0
  H  H70  1  0.83427000  0.97188000  0.77651000  1.0
  H  H71  1  0.16573000  0.02812000  0.22349000  1.0
  H  H72  1  0.71634000  0.11338000  0.78911000  1.0
  H  H73  1  0.28366000  0.88663000  0.21088000  1.0
  H  H74  1  0.18687000  0.97521000  0.58295000  1.0
  H  H75  1  0.81312000  0.02480000  0.41704000  1.0
  H  H76  1  0.15403000  0.97319000  0.76353000  1.0
  H  H77  1  0.84597000  0.02681000  0.23647000  1.0
  H  H78  1  0.53710000  0.24317000  0.72030000  1.0
  H  H79  1  0.46290000  0.75683000  0.27970000  1.0
  H  H80  1  0.76908000  0.82892000  0.61556000  1.0
  H  H81  1  0.23092000  0.17107000  0.38444000  1.0
  H  H82  1  0.39936000  0.14088000  0.52720000  1.0
  H  H83  1  0.60064000  0.85912000  0.47280000  1.0
  C  C84  1  0.35677000  0.09582000  0.65698000  1.0
  C  C85  1  0.64323000  0.90418000  0.34302000  1.0
  C  C86  1  0.07636000  0.21232000  0.77692000  1.0
  C  C87  1  0.92364000  0.78768000  0.22308000  1.0
  C  C88  1  0.91699000  0.21413000  0.00978000  1.0
  C  C89  1  0.08301000  0.78587000  0.99022000  1.0
  C  C90  1  0.04809000  0.27145000  0.64827000  1.0
  C  C91  1  0.95192000  0.72855000  0.35173000  1.0
  C  C92  1  0.97019000  0.33777000  0.59198000  1.0
  C  C93  1  0.02982000  0.66223000  0.40802000  1.0
  C  C94  1  0.91860000  0.56379000  0.88853000  1.0
  C  C95  1  0.08140000  0.43621000  0.11147000  1.0
  C  C96  1  0.12664000  0.56110000  0.79558000  1.0
  C  C97  1  0.87336000  0.43890000  0.20442000  1.0
  C  C98  1  0.80834000  0.51690000  0.94924000  1.0
  C  C99  1  0.19166000  0.48310000  0.05076000  1.0
  C  C100  1  0.19159000  0.15470000  0.75764000  1.0
  C  C101  1  0.80841000  0.84530000  0.24236000  1.0
  C  C102  1  0.02654000  0.21261000  0.85893000  1.0
  C  C103  1  0.97346000  0.78739000  0.14106000  1.0
  C  C104  1  0.02202000  0.69293000  0.81842000  1.0
  C  C105  1  0.97798000  0.30707000  0.18158000  1.0
  C  C106  1  0.74472000  0.54666000  0.01426000  1.0
  C  C107  1  0.25528000  0.45334000  0.98574000  1.0
  C  C108  1  0.13347000  0.64673000  0.78019000  1.0
  C  C109  1  0.86652000  0.35327000  0.21981000  1.0
  C  C110  1  0.37749000  0.54096000  0.71387000  1.0
  C  C111  1  0.62251000  0.45904000  0.28613000  1.0
  C  C112  1  0.64251000  0.49922000  0.06963000  1.0
  C  C113  1  0.35748000  0.50079000  0.93037000  1.0
  C  C114  1  0.23762000  0.15558000  0.67938000  1.0
  C  C115  1  0.76238000  0.84442000  0.32062000  1.0
  C  C116  1  0.43377000  0.02810000  0.70856000  1.0
  C  C117  1  0.56624000  0.97190000  0.29144000  1.0
  C  C118  1  0.01572000  0.78298000  0.80123000  1.0
  C  C119  1  0.98428000  0.21702000  0.19877000  1.0
  C  C120  1  0.43637000  0.42492000  0.66274000  1.0
  C  C121  1  0.56363000  0.57507000  0.33727000  1.0
  C  C122  1  0.23409000  0.51153000  0.75090000  1.0
  C  C123  1  0.76591000  0.48847000  0.24910000  1.0
  C  C124  1  0.98777000  0.34285000  0.51175000  1.0
  C  C125  1  0.01224000  0.65715000  0.48825000  1.0
  C  C126  1  0.19591000  0.43340000  0.74369000  1.0
  C  C127  1  0.80408000  0.56660000  0.25631000  1.0
  C  C128  1  0.66985000  0.22380000  0.60866000  1.0
  C  C129  1  0.33016000  0.77620000  0.39134000  1.0
  C  C130  1  0.91218000  0.64993000  0.87370000  1.0
  C  C131  1  0.08782000  0.35007000  0.12630000  1.0
  C  C132  1  0.16285000  0.21584000  0.62416000  1.0
  C  C133  1  0.83715000  0.78416000  0.37584000  1.0
  C  C134  1  0.87035000  0.23557000  0.87995000  1.0
  C  C135  1  0.12965000  0.76443000  0.12005000  1.0
  C  C136  1  0.81391000  0.46387000  0.49394000  1.0
  C  C137  1  0.18609000  0.53613000  0.50607000  1.0
  C  C138  1  0.90819000  0.40595000  0.46259000  1.0
  C  C139  1  0.09181000  0.59405000  0.53741000  1.0
  C  C140  1  0.29871000  0.38994000  0.69959000  1.0
  C  C141  1  0.70129000  0.61006000  0.30041000  1.0
  C  C142  1  0.76327000  0.43991000  0.94296000  1.0
  C  C143  1  0.23672000  0.56009000  0.05704000  1.0
  C  C144  1  0.87428000  0.39935000  0.61859000  1.0
  C  C145  1  0.12572000  0.60065000  0.38142000  1.0
  C  C146  1  0.16316000  0.83810000  0.60639000  1.0
  C  C147  1  0.83684000  0.16190000  0.39361000  1.0
  C  C148  1  0.13041000  0.19129000  0.91729000  1.0
  C  C149  1  0.86960000  0.80871000  0.08270000  1.0
  C  C150  1  0.60662000  0.42273000  0.05969000  1.0
  C  C151  1  0.39337000  0.57728000  0.94031000  1.0
  C  C152  1  0.87363000  0.83510000  0.79795000  1.0
  C  C153  1  0.12638000  0.16490000  0.20205000  1.0
  C  C154  1  0.02608000  0.79067000  0.61723000  1.0
  C  C155  1  0.97392000  0.20933000  0.38277000  1.0
  C  C156  1  0.14740000  0.83558000  0.78702000  1.0
  C  C157  1  0.85260000  0.16442000  0.21298000  1.0
  C  C158  1  0.54607000  0.98687000  0.66298000  1.0
  C  C159  1  0.45393000  0.01313000  0.33702000  1.0
  C  C160  1  0.07482000  0.19205000  0.99361000  1.0
  C  C161  1  0.92518000  0.80795000  0.00639000  1.0
  C  C162  1  0.94321000  0.92887000  0.59281000  1.0
  C  C163  1  0.05679000  0.07113000  0.40719000  1.0
  C  C164  1  0.79129000  0.16345000  0.59500000  1.0
  C  C165  1  0.20871000  0.83655000  0.40499000  1.0
  C  C166  1  0.54195000  0.02890000  0.58344000  1.0
  C  C167  1  0.45805000  0.97109000  0.41656000  1.0
  C  C168  1  0.82390000  0.11191000  0.66822000  1.0
  C  C169  1  0.17610000  0.88808000  0.33178000  1.0
  C  C170  1  0.91653000  0.91858000  0.78301000  1.0
  C  C171  1  0.08348000  0.08142000  0.21699000  1.0
  C  C172  1  0.72242000  0.14015000  0.72732000  1.0
  C  C173  1  0.27758000  0.85985000  0.27268000  1.0
  C  C174  1  0.11167000  0.92365000  0.59148000  1.0
  C  C175  1  0.88833000  0.07635000  0.40852000  1.0
  C  C176  1  0.08495000  0.91908000  0.77659000  1.0
  C  C177  1  0.91505000  0.08092000  0.22341000  1.0
  C  C178  1  0.62762000  0.20941000  0.69054000  1.0
  C  C179  1  0.37238000  0.79059000  0.30946000  1.0
  C  C180  1  0.89029000  0.84669000  0.60877000  1.0
  C  C181  1  0.10971000  0.15331000  0.39123000  1.0
  C  C182  1  0.42620000  0.09593000  0.57933000  1.0
  C  C183  1  0.57380000  0.90407000  0.42067000  1.0
  N  N184  1  0.00433000  0.26938000  0.72365000  1.0
  N  N185  1  0.99567000  0.73062000  0.27635000  1.0
  N  N186  1  0.02172000  0.51990000  0.84928000  1.0
  N  N187  1  0.97828000  0.48010000  0.15072000  1.0
  N  N188  1  0.47504000  0.49915000  0.67030000  1.0
  N  N189  1  0.52495000  0.50085000  0.32970000  1.0
  N  N190  1  0.66531000  0.39420000  0.99671000  1.0
  N  N191  1  0.33468000  0.60581000  0.00329000  1.0
  N  N192  1  0.79899000  0.46076000  0.57081000  1.0
  N  N193  1  0.20101000  0.53924000  0.42919000  1.0
  N  N194  1  0.81733000  0.23584000  0.95364000  1.0
  N  N195  1  0.18267000  0.76417000  0.04636000  1.0
  Cl  Cl196  1  0.59707000  0.64913000  0.51012000  1.0
  Cl  Cl197  1  0.40294000  0.35087000  0.48988000  1.0
  Cl  Cl198  1  0.79226000  0.59895000  0.69892000  1.0
  Cl  Cl199  1  0.20774000  0.40105000  0.30108000  1.0
  Cl  Cl200  1  0.47269000  0.30693000  0.87043000  1.0
  Cl  Cl201  1  0.52731000  0.69307000  0.12957000  1.0
  Cl  Cl202  1  0.48689000  0.21734000  0.09291000  1.0
  Cl  Cl203  1  0.51311000  0.78266000  0.90709000  1.0
