# generated using pymatgen
data_AgH12C15S2(OF)2
_symmetry_space_group_name_H-M   'P 1'
_cell_length_a   10.89590000
_cell_length_b   11.24270000
_cell_length_c   13.06940000
_cell_angle_alpha   99.39030000
_cell_angle_beta   90.38630000
_cell_angle_gamma   99.45930000
_symmetry_Int_Tables_number   1
_chemical_formula_structural   AgH12C15S2(OF)2
_chemical_formula_sum   'Ag4 H48 C60 S8 O8 F8'
_cell_volume   1557.13502480
_cell_formula_units_Z   4
loop_
 _symmetry_equiv_pos_site_id
 _symmetry_equiv_pos_as_xyz
  1  'x, y, z'
loop_
 _atom_site_type_symbol
 _atom_site_label
 _atom_site_symmetry_multiplicity
 _atom_site_fract_x
 _atom_site_fract_y
 _atom_site_fract_z
 _atom_site_occupancy
  Ag  Ag0  1  0.40029000  0.06098000  0.47009000  1.0
  Ag  Ag1  1  0.59971000  0.93902000  0.52991000  1.0
  Ag  Ag2  1  0.42368000  0.09253000  0.98451000  1.0
  Ag  Ag3  1  0.57632000  0.90747000  0.01549000  1.0
  H  H4  1  0.16703000  0.05565000  0.57648000  1.0
  H  H5  1  0.83297000  0.94435000  0.42352000  1.0
  H  H6  1  0.94528000  0.08346000  0.58527000  1.0
  H  H7  1  0.05472000  0.91654000  0.41473000  1.0
  H  H8  1  0.89095000  0.28749000  0.64997000  1.0
  H  H9  1  0.10905000  0.71251000  0.35003000  1.0
  H  H10  1  0.06003000  0.46637000  0.70705000  1.0
  H  H11  1  0.93997000  0.53363000  0.29295000  1.0
  H  H12  1  0.28126000  0.43978000  0.69440000  1.0
  H  H13  1  0.71874000  0.56021000  0.30560000  1.0
  H  H14  1  0.05368000  0.26549000  0.38158000  1.0
  H  H15  1  0.94632000  0.73451000  0.61842000  1.0
  H  H16  1  0.07484000  0.49186000  0.42323000  1.0
  H  H17  1  0.92516000  0.50814000  0.57677000  1.0
  H  H18  1  0.28466000  0.62147000  0.43123000  1.0
  H  H19  1  0.71534000  0.37853000  0.56877000  1.0
  H  H20  1  0.47317000  0.52361000  0.40342000  1.0
  H  H21  1  0.52683000  0.47639000  0.59658000  1.0
  H  H22  1  0.45308000  0.29753000  0.36808000  1.0
  H  H23  1  0.54692000  0.70247000  0.63192000  1.0
  H  H24  1  0.35554000  0.07694000  0.73520000  1.0
  H  H25  1  0.64446000  0.92306000  0.26480000  1.0
  H  H26  1  0.51610000  0.13736000  0.72906000  1.0
  H  H27  1  0.48390000  0.86264000  0.27094000  1.0
  H  H28  1  0.67625000  0.24740000  0.86275000  1.0
  H  H29  1  0.32375000  0.75259000  0.13724000  1.0
  H  H30  1  0.85780000  0.41168000  0.86064000  1.0
  H  H31  1  0.14219000  0.58832000  0.13936000  1.0
  H  H32  1  0.82525000  0.62812000  0.86560000  1.0
  H  H33  1  0.17475000  0.37188000  0.13440000  1.0
  H  H34  1  0.60965000  0.67614000  0.87343000  1.0
  H  H35  1  0.39035000  0.32386000  0.12657000  1.0
  H  H36  1  0.42926000  0.51243000  0.87212000  1.0
  H  H37  1  0.57074000  0.48757000  0.12789000  1.0
  H  H38  1  0.22667000  0.85179000  0.00865000  1.0
  H  H39  1  0.77333000  0.14821000  0.99135000  1.0
  H  H40  1  0.32963000  0.98211000  0.21831000  1.0
  H  H41  1  0.67037000  0.01789000  0.78169000  1.0
  H  H42  1  0.40781000  0.13657000  0.23618000  1.0
  H  H43  1  0.59219000  0.86343000  0.76382000  1.0
  H  H44  1  0.85019000  0.69817000  0.07086000  1.0
  H  H45  1  0.14981000  0.30183000  0.92914000  1.0
  H  H46  1  0.81855000  0.90298000  0.16221000  1.0
  H  H47  1  0.18145000  0.09702000  0.83779000  1.0
  H  H48  1  0.05490000  0.67358000  0.99145000  1.0
  H  H49  1  0.94510000  0.32643000  0.00855000  1.0
  H  H50  1  0.98882000  0.08024000  0.17638000  1.0
  H  H51  1  0.01118000  0.91976000  0.82362000  1.0
  C  C52  1  0.67112000  0.14919000  0.40302000  1.0
  C  C53  1  0.32888000  0.85081000  0.59698000  1.0
  C  C54  1  0.77196000  0.21635000  0.33926000  1.0
  C  C55  1  0.22804000  0.78365000  0.66074000  1.0
  C  C56  1  0.72240000  0.26161000  0.24343000  1.0
  C  C57  1  0.27760000  0.73839000  0.75658000  1.0
  C  C58  1  0.64252000  0.16566000  0.15921000  1.0
  C  C59  1  0.35748000  0.83434000  0.84079000  1.0
  C  C60  1  0.23739000  0.24650000  0.63491000  1.0
  C  C61  1  0.76261000  0.75350000  0.36509000  1.0
  C  C62  1  0.14318000  0.14557000  0.60441000  1.0
  C  C63  1  0.85682000  0.85443000  0.39559000  1.0
  C  C64  1  0.01891000  0.16125000  0.60988000  1.0
  C  C65  1  0.98109000  0.83875000  0.39012000  1.0
  C  C66  1  0.98849000  0.27630000  0.64663000  1.0
  C  C67  1  0.01151000  0.72370000  0.35337000  1.0
  C  C68  1  0.08268000  0.37624000  0.67811000  1.0
  C  C69  1  0.91732000  0.62376000  0.32189000  1.0
  C  C70  1  0.20746000  0.36183000  0.67180000  1.0
  C  C71  1  0.79254000  0.63817000  0.32820000  1.0
  C  C72  1  0.25171000  0.26813000  0.37094000  1.0
  C  C73  1  0.74829000  0.73187000  0.62906000  1.0
  C  C74  1  0.14516000  0.32241000  0.38658000  1.0
  C  C75  1  0.85484000  0.67759000  0.61342000  1.0
  C  C76  1  0.15772000  0.44962000  0.40969000  1.0
  C  C77  1  0.84228000  0.55038000  0.59031000  1.0
  C  C78  1  0.27538000  0.52212000  0.41490000  1.0
  C  C79  1  0.72462000  0.47788000  0.58509000  1.0
  C  C80  1  0.38129000  0.46718000  0.39932000  1.0
  C  C81  1  0.61871000  0.53282000  0.60068000  1.0
  C  C82  1  0.37022000  0.34019000  0.37865000  1.0
  C  C83  1  0.62978000  0.65981000  0.62135000  1.0
  C  C84  1  0.42257000  0.16132000  0.73672000  1.0
  C  C85  1  0.57743000  0.83868000  0.26328000  1.0
  C  C86  1  0.54159000  0.36953000  0.86551000  1.0
  C  C87  1  0.45840000  0.63047000  0.13449000  1.0
  C  C88  1  0.66221000  0.34141000  0.86359000  1.0
  C  C89  1  0.33779000  0.65859000  0.13641000  1.0
  C  C90  1  0.76418000  0.43432000  0.86347000  1.0
  C  C91  1  0.23581000  0.56568000  0.13653000  1.0
  C  C92  1  0.74611000  0.55526000  0.86709000  1.0
  C  C93  1  0.25389000  0.44474000  0.13291000  1.0
  C  C94  1  0.62580000  0.58282000  0.87125000  1.0
  C  C95  1  0.37419000  0.41718000  0.12875000  1.0
  C  C96  1  0.52305000  0.49043000  0.87009000  1.0
  C  C97  1  0.47695000  0.50957000  0.12991000  1.0
  C  C98  1  0.11820000  0.97564000  0.09509000  1.0
  C  C99  1  0.88180000  0.02436000  0.90491000  1.0
  C  C100  1  0.13721000  0.86153000  0.04271000  1.0
  C  C101  1  0.86279000  0.13847000  0.95729000  1.0
  C  C102  1  0.31640000  0.07792000  0.22791000  1.0
  C  C103  1  0.68360000  0.92208000  0.77209000  1.0
  C  C104  1  0.92577000  0.77595000  0.07725000  1.0
  C  C105  1  0.07423000  0.22405000  0.92275000  1.0
  C  C106  1  0.90754000  0.89024000  0.12871000  1.0
  C  C107  1  0.09246000  0.10976000  0.87129000  1.0
  C  C108  1  0.04043000  0.76195000  0.03354000  1.0
  C  C109  1  0.95957000  0.23805000  0.96646000  1.0
  C  C110  1  0.00317000  0.99075000  0.13734000  1.0
  C  C111  1  0.99683000  0.00925000  0.86266000  1.0
  S  S112  1  0.39768000  0.23352000  0.62521000  1.0
  S  S113  1  0.60232000  0.76648000  0.37479000  1.0
  S  S114  1  0.23157000  0.10562000  0.34605000  1.0
  S  S115  1  0.76843000  0.89438000  0.65395000  1.0
  S  S116  1  0.40852000  0.25441000  0.86173000  1.0
  S  S117  1  0.59147000  0.74558000  0.13827000  1.0
  S  S118  1  0.23929000  0.10426000  0.11212000  1.0
  S  S119  1  0.76071000  0.89574000  0.88788000  1.0
  O  O120  1  0.56176000  0.12803000  0.36374000  1.0
  O  O121  1  0.43824000  0.87197000  0.63626000  1.0
  O  O122  1  0.71063000  0.12040000  0.48479000  1.0
  O  O123  1  0.28937000  0.87960000  0.51521000  1.0
  O  O124  1  0.66544000  0.05825000  0.14963000  1.0
  O  O125  1  0.33456000  0.94176000  0.85036000  1.0
  O  O126  1  0.56846000  0.20892000  0.10672000  1.0
  O  O127  1  0.43154000  0.79108000  0.89328000  1.0
  F  F128  1  0.83895000  0.31736000  0.40200000  1.0
  F  F129  1  0.16105000  0.68264000  0.59800000  1.0
  F  F130  1  0.85586000  0.13921000  0.30769000  1.0
  F  F131  1  0.14414000  0.86079000  0.69231000  1.0
  F  F132  1  0.65717000  0.35361000  0.28090000  1.0
  F  F133  1  0.34283000  0.64639000  0.71910000  1.0
  F  F134  1  0.82504000  0.31539000  0.19453000  1.0
  F  F135  1  0.17496000  0.68461000  0.80547000  1.0
