# generated using pymatgen
data_TbH6(C2O3)3
_symmetry_space_group_name_H-M   'P 1'
_cell_length_a   8.23766000
_cell_length_b   8.48294000
_cell_length_c   8.94138000
_cell_angle_alpha   94.44410000
_cell_angle_beta   116.80300000
_cell_angle_gamma   111.05800000
_symmetry_Int_Tables_number   1
_chemical_formula_structural   TbH6(C2O3)3
_chemical_formula_sum   'Tb2 H12 C12 O18'
_cell_volume   498.46695897
_cell_formula_units_Z   2
loop_
 _symmetry_equiv_pos_site_id
 _symmetry_equiv_pos_as_xyz
  1  'x, y, z'
loop_
 _atom_site_type_symbol
 _atom_site_label
 _atom_site_symmetry_multiplicity
 _atom_site_fract_x
 _atom_site_fract_y
 _atom_site_fract_z
 _atom_site_occupancy
  Tb  Tb0  1  0.08799000  0.51688000  0.77071000  1.0
  Tb  Tb1  1  0.91201000  0.48312000  0.22929000  1.0
  H  H2  1  0.29370000  0.90347000  0.81597000  1.0
  H  H3  1  0.70630000  0.09653000  0.18403000  1.0
  H  H4  1  0.19873000  0.80316000  0.61744000  1.0
  H  H5  1  0.80127000  0.19684000  0.38256000  1.0
  H  H6  1  0.16142000  0.22242000  0.90014000  1.0
  H  H7  1  0.83858000  0.77758000  0.09986000  1.0
  H  H8  1  0.35582000  0.39531000  0.05782000  1.0
  H  H9  1  0.64417000  0.60470000  0.94218000  1.0
  H  H10  1  0.90227000  0.69406000  0.90409000  1.0
  H  H11  1  0.09773000  0.30594000  0.09591000  1.0
  H  H12  1  0.96535000  0.81930000  0.79353000  1.0
  H  H13  1  0.03465000  0.18070000  0.20647000  1.0
  C  C14  1  0.33580000  0.50656000  0.61469000  1.0
  C  C15  1  0.66420000  0.49344000  0.38531000  1.0
  C  C16  1  0.69773000  0.92635000  0.47785000  1.0
  C  C17  1  0.30226000  0.07365000  0.52214000  1.0
  C  C18  1  0.89301000  0.05902000  0.61798000  1.0
  C  C19  1  0.10699000  0.94098000  0.38202000  1.0
  C  C20  1  0.45531000  0.50296000  0.53778000  1.0
  C  C21  1  0.54469000  0.49704000  0.46222000  1.0
  C  C22  1  0.53215000  0.83159000  0.34935000  1.0
  C  C23  1  0.46786000  0.16841000  0.65066000  1.0
  C  C24  1  0.34095000  0.71906000  0.19046000  1.0
  C  C25  1  0.65905000  0.28094000  0.80954000  1.0
  O  O26  1  0.40123000  0.51862000  0.77583000  1.0
  O  O27  1  0.59876000  0.48138000  0.22417000  1.0
  O  O28  1  0.94099000  0.21321000  0.59562000  1.0
  O  O29  1  0.05901000  0.78679000  0.40439000  1.0
  O  O30  1  0.26500000  0.79625000  0.74044000  1.0
  O  O31  1  0.73500000  0.20375000  0.25956000  1.0
  O  O32  1  0.15982000  0.49593000  0.51589000  1.0
  O  O33  1  0.84018000  0.50407000  0.48411000  1.0
  O  O34  1  0.20752000  0.34401000  0.96988000  1.0
  O  O35  1  0.79248000  0.65599000  0.03012000  1.0
  O  O36  1  0.96695000  0.71306000  0.83201000  1.0
  O  O37  1  0.03305000  0.28694000  0.16798000  1.0
  O  O38  1  0.34962000  0.70510000  0.05216000  1.0
  O  O39  1  0.65038000  0.29490000  0.94784000  1.0
  O  O40  1  0.00217000  0.02080000  0.74887000  1.0
  O  O41  1  0.99783000  0.97920000  0.25113000  1.0
  O  O42  1  0.18376000  0.64451000  0.19994000  1.0
  O  O43  1  0.81623000  0.35549000  0.80006000  1.0
