# generated using pymatgen
data_CuB2H18(C2N11)2
_symmetry_space_group_name_H-M   'P 1'
_cell_length_a   6.50246000
_cell_length_b   7.18115000
_cell_length_c   9.64142000
_cell_angle_alpha   74.58750000
_cell_angle_beta   82.20350000
_cell_angle_gamma   79.79430000
_symmetry_Int_Tables_number   1
_chemical_formula_structural   CuB2H18(C2N11)2
_chemical_formula_sum   'Cu1 B2 H18 C4 N22'
_cell_volume   425.28475433
_cell_formula_units_Z   1
loop_
 _symmetry_equiv_pos_site_id
 _symmetry_equiv_pos_as_xyz
  1  'x, y, z'
loop_
 _atom_site_type_symbol
 _atom_site_label
 _atom_site_symmetry_multiplicity
 _atom_site_fract_x
 _atom_site_fract_y
 _atom_site_fract_z
 _atom_site_occupancy
  Cu  Cu0  1  0.50000000  0.00000000  0.50000000  1.0
  B  B1  1  0.15343000  0.69261000  0.11979000  1.0
  B  B2  1  0.84657000  0.30739000  0.88021000  1.0
  H  H3  1  0.67784000  0.34380000  0.27518000  1.0
  H  H4  1  0.32216000  0.65620000  0.72482000  1.0
  H  H5  1  0.57329000  0.55838000  0.16523000  1.0
  H  H6  1  0.42671000  0.44161000  0.83477000  1.0
  H  H7  1  0.36426000  0.86130000  0.32283000  1.0
  H  H8  1  0.63574000  0.13871000  0.67717000  1.0
  H  H9  1  0.17632000  0.86017000  0.45790000  1.0
  H  H10  1  0.82368000  0.13983000  0.54210000  1.0
  H  H11  1  0.38033000  0.68328000  0.47187000  1.0
  H  H12  1  0.61967000  0.31672000  0.52812000  1.0
  H  H13  1  0.59985000  0.85439000  0.93393000  1.0
  H  H14  1  0.40014000  0.14561000  0.06607000  1.0
  H  H15  1  0.84706000  0.71527000  0.94315000  1.0
  H  H16  1  0.15294000  0.28473000  0.05685000  1.0
  H  H17  1  0.14504000  0.65867000  0.00378000  1.0
  H  H18  1  0.85496000  0.34133000  0.99622000  1.0
  H  H19  1  0.30237000  0.77323000  0.11762000  1.0
  H  H20  1  0.69763000  0.22677000  0.88238000  1.0
  C  C21  1  0.36082000  0.39559000  0.29282000  1.0
  C  C22  1  0.63919000  0.60441000  0.70718000  1.0
  C  C23  1  0.76246000  0.85779000  0.09861000  1.0
  C  C24  1  0.23755000  0.14221000  0.90138000  1.0
  N  N25  1  0.31213000  0.23324000  0.39162000  1.0
  N  N26  1  0.68787000  0.76676000  0.60839000  1.0
  N  N27  1  0.10152000  0.23816000  0.39538000  1.0
  N  N28  1  0.89848000  0.76185000  0.60463000  1.0
  N  N29  1  0.18096000  0.49763000  0.23948000  1.0
  N  N30  1  0.81904000  0.50238000  0.76052000  1.0
  N  N31  1  0.02224000  0.39383000  0.30550000  1.0
  N  N32  1  0.97776000  0.60617000  0.69450000  1.0
  N  N33  1  0.55232000  0.45200000  0.25854000  1.0
  N  N34  1  0.44768000  0.54800000  0.74147000  1.0
  N  N35  1  0.33583000  0.82976000  0.43323000  1.0
  N  N36  1  0.66416000  0.17024000  0.56677000  1.0
  N  N37  1  0.94889000  0.82205000  0.15618000  1.0
  N  N38  1  0.05111000  0.17795000  0.84382000  1.0
  N  N39  1  0.92784000  0.92681000  0.25766000  1.0
  N  N40  1  0.07216000  0.07319000  0.74234000  1.0
  N  N41  1  0.62765000  0.98057000  0.16293000  1.0
  N  N42  1  0.37235000  0.01943000  0.83706000  1.0
  N  N43  1  0.71720000  0.77354000  0.99780000  1.0
  N  N44  1  0.28280000  0.22646000  0.00219000  1.0
  N  N45  1  0.73782000  0.01949000  0.26021000  1.0
  N  N46  1  0.26218000  0.98051000  0.73979000  1.0
