# generated using pymatgen
data_AgH5C7O3
_symmetry_space_group_name_H-M   'P 1'
_cell_length_a   7.46385000
_cell_length_b   8.69662000
_cell_length_c   10.68080000
_cell_angle_alpha   90.00000000
_cell_angle_beta   108.23300000
_cell_angle_gamma   89.99990000
_symmetry_Int_Tables_number   1
_chemical_formula_structural   AgH5C7O3
_chemical_formula_sum   'Ag4 H20 C28 O12'
_cell_volume   658.48469898
_cell_formula_units_Z   4
loop_
 _symmetry_equiv_pos_site_id
 _symmetry_equiv_pos_as_xyz
  1  'x, y, z'
loop_
 _atom_site_type_symbol
 _atom_site_label
 _atom_site_symmetry_multiplicity
 _atom_site_fract_x
 _atom_site_fract_y
 _atom_site_fract_z
 _atom_site_occupancy
  Ag  Ag0  1  0.43515000  0.87589000  0.91563000  1.0
  Ag  Ag1  1  0.56485000  0.37589000  0.58437000  1.0
  Ag  Ag2  1  0.56485000  0.12411000  0.08437000  1.0
  Ag  Ag3  1  0.43515000  0.62411000  0.41563000  1.0
  H  H4  1  0.99105000  0.64968000  0.95996000  1.0
  H  H5  1  0.00895000  0.14968000  0.54005000  1.0
  H  H6  1  0.00895000  0.35032000  0.04004000  1.0
  H  H7  1  0.99105000  0.85032000  0.45996000  1.0
  H  H8  1  0.50410000  0.90825000  0.31070000  1.0
  H  H9  1  0.49590000  0.40825000  0.18930000  1.0
  H  H10  1  0.49590000  0.09175000  0.68929000  1.0
  H  H11  1  0.50410000  0.59175000  0.81071000  1.0
  H  H12  1  0.58138000  0.69194000  0.18471000  1.0
  H  H13  1  0.41862000  0.19193000  0.31529000  1.0
  H  H14  1  0.41862000  0.30806000  0.81529000  1.0
  H  H15  1  0.58138000  0.80806000  0.68471000  1.0
  H  H16  1  0.32178000  0.56002000  0.00679000  1.0
  H  H17  1  0.67822000  0.06002000  0.49321000  1.0
  H  H18  1  0.67822000  0.43998000  0.99321000  1.0
  H  H19  1  0.32178000  0.93998000  0.50679000  1.0
  H  H20  1  0.02575000  0.03297000  0.24127000  1.0
  H  H21  1  0.97425000  0.53297000  0.25873000  1.0
  H  H22  1  0.97425000  0.96703000  0.75873000  1.0
  H  H23  1  0.02575000  0.46703000  0.74127000  1.0
  C  C24  1  0.85899000  0.87643000  0.07504000  1.0
  C  C25  1  0.14101000  0.37642000  0.42496000  1.0
  C  C26  1  0.14102000  0.12357000  0.92496000  1.0
  C  C27  1  0.85899000  0.62358000  0.57504000  1.0
  C  C28  1  0.20354000  0.89825000  0.20938000  1.0
  C  C29  1  0.79645000  0.39825000  0.29062000  1.0
  C  C30  1  0.79645000  0.10175000  0.79062000  1.0
  C  C31  1  0.20354000  0.60175000  0.70938000  1.0
  C  C32  1  0.10488000  0.70363000  0.03744000  1.0
  C  C33  1  0.89512000  0.20363000  0.46256000  1.0
  C  C34  1  0.89512000  0.29637000  0.96255000  1.0
  C  C35  1  0.10488000  0.79637000  0.53744000  1.0
  C  C36  1  0.39167000  0.84778000  0.23699000  1.0
  C  C37  1  0.60834000  0.34778000  0.26301000  1.0
  C  C38  1  0.60834000  0.15222000  0.76301000  1.0
  C  C39  1  0.39166000  0.65222000  0.73699000  1.0
  C  C40  1  0.05799000  0.82409000  0.10876000  1.0
  C  C41  1  0.94201000  0.32408000  0.39124000  1.0
  C  C42  1  0.94201000  0.17592000  0.89123000  1.0
  C  C43  1  0.05799000  0.67592000  0.60876000  1.0
  C  C44  1  0.43478000  0.72798000  0.16341000  1.0
  C  C45  1  0.56522000  0.22798000  0.33659000  1.0
  C  C46  1  0.56522000  0.27202000  0.83659000  1.0
  C  C47  1  0.43478000  0.77202000  0.66341000  1.0
  C  C48  1  0.29085000  0.65526000  0.06303000  1.0
  C  C49  1  0.70915000  0.15525000  0.43697000  1.0
  C  C50  1  0.70916000  0.34475000  0.93697000  1.0
  C  C51  1  0.29085000  0.84475000  0.56303000  1.0
  O  O52  1  0.73557000  0.81085000  0.98147000  1.0
  O  O53  1  0.26444000  0.31085000  0.51853000  1.0
  O  O54  1  0.26443000  0.18914000  0.01852000  1.0
  O  O55  1  0.73556000  0.68916000  0.48147000  1.0
  O  O56  1  0.82684000  0.98903000  0.14492000  1.0
  O  O57  1  0.17316000  0.48903000  0.35507000  1.0
  O  O58  1  0.17316000  0.01097000  0.85507000  1.0
  O  O59  1  0.82683000  0.51098000  0.64492000  1.0
  O  O60  1  0.16781000  0.01683000  0.27887000  1.0
  O  O61  1  0.83219000  0.51682000  0.22113000  1.0
  O  O62  1  0.83219000  0.98317000  0.72113000  1.0
  O  O63  1  0.16781000  0.48317000  0.77887000  1.0
