# generated using pymatgen
data_Al2H26C32N4O11
_symmetry_space_group_name_H-M   'P 1'
_cell_length_a   6.67023000
_cell_length_b   23.00890000
_cell_length_c   26.07930000
_cell_angle_alpha   100.95000000
_cell_angle_beta   90.00000000
_cell_angle_gamma   89.99950000
_symmetry_Int_Tables_number   1
_chemical_formula_structural   Al2H26C32N4O11
_chemical_formula_sum   'Al4 H52 C64 N8 O22'
_cell_volume   3929.63913149
_cell_formula_units_Z   2
loop_
 _symmetry_equiv_pos_site_id
 _symmetry_equiv_pos_as_xyz
  1  'x, y, z'
loop_
 _atom_site_type_symbol
 _atom_site_label
 _atom_site_symmetry_multiplicity
 _atom_site_fract_x
 _atom_site_fract_y
 _atom_site_fract_z
 _atom_site_occupancy
  Al  Al0  1  0.89422000  0.49962000  0.50039000  1.0
  Al  Al1  1  0.39422000  0.50038000  0.49961000  1.0
  Al  Al2  1  0.32646000  0.00057000  0.99981000  1.0
  Al  Al3  1  0.82646000  0.99942000  0.00019000  1.0
  H  H4  1  0.97327000  0.72477000  0.83153000  1.0
  H  H5  1  0.47327000  0.27523000  0.16847000  1.0
  H  H6  1  0.99693000  0.65020000  0.75752000  1.0
  H  H7  1  0.49694000  0.34980000  0.24248000  1.0
  H  H8  1  0.44950000  0.71782000  0.71454000  1.0
  H  H9  1  0.94950000  0.28217000  0.28546000  1.0
  H  H10  1  0.35160000  0.66955000  0.75337000  1.0
  H  H11  1  0.85160000  0.33045000  0.24662000  1.0
  H  H12  1  0.34990000  0.74890000  0.82442000  1.0
  H  H13  1  0.84991000  0.25110000  0.17558000  1.0
  H  H14  1  0.42309000  0.79862000  0.78407000  1.0
  H  H15  1  0.92309000  0.20137000  0.21593000  1.0
  H  H16  1  0.24363000  0.77799000  0.67612000  1.0
  H  H17  1  0.74363000  0.22201000  0.32388000  1.0
  H  H18  1  0.89891000  0.82982000  0.74267000  1.0
  H  H19  1  0.39891000  0.17018000  0.25733000  1.0
  H  H20  1  0.81497000  0.68632000  0.72623000  1.0
  H  H21  1  0.31497000  0.31368000  0.27377000  1.0
  H  H22  1  0.79585000  0.76247000  0.79965000  1.0
  H  H23  1  0.29586000  0.23753000  0.20035000  1.0
  H  H24  1  0.14826000  0.85543000  0.74129000  1.0
  H  H25  1  0.64826000  0.14457000  0.25871000  1.0
  H  H26  1  0.40464000  0.89878000  0.10833000  1.0
  H  H27  1  0.90462000  0.10122000  0.89167000  1.0
  H  H28  1  0.41727000  0.83287000  0.17500000  1.0
  H  H29  1  0.91727000  0.16712000  0.82500000  1.0
  H  H30  1  0.77349000  0.82278000  0.17331000  1.0
  H  H31  1  0.27349000  0.17723000  0.82669000  1.0
  H  H32  1  0.76261000  0.88908000  0.10687000  1.0
  H  H33  1  0.26260000  0.11092000  0.89313000  1.0
  H  H34  1  0.44726000  0.67785000  0.32734000  1.0
  H  H35  1  0.94726000  0.32215000  0.67267000  1.0
  H  H36  1  0.45791000  0.61151000  0.39375000  1.0
  H  H37  1  0.95791000  0.38849000  0.60626000  1.0
  H  H38  1  0.81592000  0.60136000  0.39178000  1.0
  H  H39  1  0.31592000  0.39864000  0.60822000  1.0
  H  H40  1  0.80354000  0.66737000  0.32519000  1.0
  H  H41  1  0.30355000  0.33263000  0.67481000  1.0
  H  H42  1  0.70296000  0.77039000  0.69551000  1.0
  H  H43  1  0.75433000  0.70406000  0.64928000  1.0
  H  H44  1  0.69954000  0.76068000  0.57610000  1.0
  H  H45  1  0.48223000  0.75871000  0.61503000  1.0
  H  H46  1  0.63140000  0.82433000  0.62322000  1.0
  H  H47  1  0.20296000  0.22961000  0.30449000  1.0
  H  H48  1  0.25433000  0.29594000  0.35072000  1.0
  H  H49  1  0.19954000  0.23932000  0.42390000  1.0
  H  H50  1  0.98223000  0.24129000  0.38497000  1.0
  H  H51  1  0.13140000  0.17567000  0.37678000  1.0
  H  H52  1  0.64508000  0.57602000  0.52382000  1.0
  H  H53  1  0.14508000  0.42398000  0.47618000  1.0
  H  H54  1  0.57453000  0.92444000  0.97490000  1.0
  H  H55  1  0.07453000  0.07556000  0.02510000  1.0
  C  C56  1  0.64260000  0.43531000  0.56328000  1.0
  C  C57  1  0.14263000  0.56469000  0.43672000  1.0
  C  C58  1  0.64466000  0.42291000  0.42236000  1.0
  C  C59  1  0.14469000  0.57709000  0.57764000  1.0
  C  C60  1  0.95884000  0.69274000  0.74669000  1.0
  C  C61  1  0.45885000  0.30726000  0.25331000  1.0
  C  C62  1  0.32541000  0.71177000  0.74065000  1.0
  C  C63  1  0.82542000  0.28822000  0.25934000  1.0
  C  C64  1  0.31434000  0.76378000  0.78786000  1.0
  C  C65  1  0.81434000  0.23622000  0.21214000  1.0
  C  C66  1  0.07944000  0.87740000  0.87625000  1.0
  C  C67  1  0.57942000  0.12261000  0.12375000  1.0
  C  C68  1  0.12601000  0.70676000  0.70935000  1.0
  C  C69  1  0.62602000  0.29324000  0.29065000  1.0
  C  C70  1  0.94573000  0.74224000  0.79576000  1.0
  C  C71  1  0.44573000  0.25776000  0.20424000  1.0
  C  C72  1  0.10130000  0.79127000  0.79223000  1.0
  C  C73  1  0.60130000  0.20873000  0.20777000  1.0
  C  C74  1  0.05674000  0.81593000  0.74209000  1.0
  C  C75  1  0.55673000  0.18406000  0.25791000  1.0
  C  C76  1  0.09862000  0.76846000  0.69282000  1.0
  C  C77  1  0.59862000  0.23153000  0.30718000  1.0
  C  C78  1  0.08774000  0.83829000  0.83778000  1.0
  C  C79  1  0.58774000  0.16171000  0.16221000  1.0
  C  C80  1  0.13793000  0.66063000  0.66321000  1.0
  C  C81  1  0.63795000  0.33937000  0.33679000  1.0
  C  C82  1  0.14390000  0.62211000  0.62427000  1.0
  C  C83  1  0.64391000  0.37789000  0.37572000  1.0
  C  C84  1  0.26799000  0.88180000  0.12303000  1.0
  C  C85  1  0.76799000  0.11820000  0.87697000  1.0
  C  C86  1  0.27487000  0.84539000  0.15980000  1.0
  C  C87  1  0.77486000  0.15461000  0.84020000  1.0
  C  C88  1  0.09611000  0.82378000  0.17790000  1.0
  C  C89  1  0.59611000  0.17622000  0.82210000  1.0
  C  C90  1  0.91061000  0.83977000  0.15890000  1.0
  C  C91  1  0.41061000  0.16023000  0.84110000  1.0
  C  C92  1  0.90465000  0.87636000  0.12220000  1.0
  C  C93  1  0.40465000  0.12364000  0.87780000  1.0
  C  C94  1  0.08307000  0.89735000  0.10384000  1.0
  C  C95  1  0.58306000  0.10265000  0.89616000  1.0
  C  C96  1  0.11729000  0.71556000  0.28388000  1.0
  C  C97  1  0.61729000  0.28444000  0.71613000  1.0
  C  C98  1  0.10373000  0.78451000  0.21624000  1.0
  C  C99  1  0.60373000  0.21549000  0.78376000  1.0
  C  C100  1  0.31008000  0.66076000  0.34164000  1.0
  C  C101  1  0.81009000  0.33924000  0.65836000  1.0
  C  C102  1  0.31595000  0.62412000  0.37830000  1.0
  C  C103  1  0.81593000  0.37588000  0.62171000  1.0
  C  C104  1  0.13748000  0.60292000  0.39644000  1.0
  C  C105  1  0.63749000  0.39709000  0.60356000  1.0
  C  C106  1  0.95262000  0.61842000  0.37718000  1.0
  C  C107  1  0.45262000  0.38159000  0.62282000  1.0
  C  C108  1  0.94588000  0.65489000  0.34045000  1.0
  C  C109  1  0.44588000  0.34512000  0.65956000  1.0
  C  C110  1  0.12472000  0.67657000  0.32246000  1.0
  C  C111  1  0.62471000  0.32343000  0.67755000  1.0
  C  C112  1  0.57680000  0.07704000  0.07752000  1.0
  C  C113  1  0.07679000  0.92296000  0.92248000  1.0
  C  C114  1  0.57804000  0.06465000  0.93663000  1.0
  C  C115  1  0.07800000  0.93535000  0.06337000  1.0
  C  C116  1  0.76096000  0.75288000  0.65580000  1.0
  C  C117  1  0.63625000  0.77573000  0.61525000  1.0
  C  C118  1  0.26096000  0.24712000  0.34420000  1.0
  C  C119  1  0.13625000  0.22427000  0.38475000  1.0
  N  N120  1  0.92804000  0.76373000  0.23172000  1.0
  N  N121  1  0.42804000  0.23627000  0.76828000  1.0
  N  N122  1  0.93497000  0.72869000  0.26609000  1.0
  N  N123  1  0.43496000  0.27131000  0.73392000  1.0
  N  N124  1  0.29310000  0.73596000  0.26809000  1.0
  N  N125  1  0.79310000  0.26404000  0.73192000  1.0
  N  N126  1  0.28616000  0.77100000  0.23372000  1.0
  N  N127  1  0.78616000  0.22900000  0.76628000  1.0
  O  O128  1  0.47404000  0.44124000  0.44058000  1.0
  O  O129  1  0.97402000  0.55875000  0.55942000  1.0
  O  O130  1  0.81428000  0.44930000  0.54793000  1.0
  O  O131  1  0.31426000  0.55070000  0.45207000  1.0
  O  O132  1  0.81496000  0.44012000  0.44155000  1.0
  O  O133  1  0.31495000  0.55987000  0.55846000  1.0
  O  O134  1  0.97373000  0.54990000  0.45308000  1.0
  O  O135  1  0.47375000  0.45010000  0.54692000  1.0
  O  O136  1  0.64470000  0.53589000  0.50395000  1.0
  O  O137  1  0.14470000  0.46410000  0.49605000  1.0
  O  O138  1  0.74697000  0.04973000  0.95285000  1.0
  O  O139  1  0.24699000  0.95026000  0.04714000  1.0
  O  O140  1  0.40599000  0.05978000  0.05872000  1.0
  O  O141  1  0.90603000  0.94021000  0.94128000  1.0
  O  O142  1  0.40641000  0.05100000  0.95231000  1.0
  O  O143  1  0.90643000  0.94900000  0.04770000  1.0
  O  O144  1  0.24688000  0.94160000  0.94084000  1.0
  O  O145  1  0.74685000  0.05841000  0.05915000  1.0
  O  O146  1  0.57580000  0.96401000  0.99589000  1.0
  O  O147  1  0.07580000  0.03598000  0.00410000  1.0
  O  O148  1  0.96393000  0.77142000  0.65109000  1.0
  O  O149  1  0.46393000  0.22858000  0.34891000  1.0
