# generated using pymatgen
data_CuH11C16(NO)4
_symmetry_space_group_name_H-M   'P 1'
_cell_length_a   9.89722000
_cell_length_b   9.89779000
_cell_length_c   17.87003747
_cell_angle_alpha   95.41281845
_cell_angle_beta   100.62166931
_cell_angle_gamma   119.78300000
_symmetry_Int_Tables_number   1
_chemical_formula_structural   CuH11C16(NO)4
_chemical_formula_sum   'Cu4 H44 C64 N16 O16'
_cell_volume   1457.41448065
_cell_formula_units_Z   4
loop_
 _symmetry_equiv_pos_site_id
 _symmetry_equiv_pos_as_xyz
  1  'x, y, z'
loop_
 _atom_site_type_symbol
 _atom_site_label
 _atom_site_symmetry_multiplicity
 _atom_site_fract_x
 _atom_site_fract_y
 _atom_site_fract_z
 _atom_site_occupancy
  Cu  Cu0  1  0.52147000  0.84618000  0.95443000  1.0
  Cu  Cu1  1  0.39175000  0.56702000  0.54560000  1.0
  Cu  Cu2  1  0.47853000  0.15381000  0.04556000  1.0
  Cu  Cu3  1  0.60826000  0.43298000  0.45440000  1.0
  H  H4  1  0.72686000  0.89325000  0.57536000  1.0
  H  H5  1  0.81788000  0.15144000  0.92470000  1.0
  H  H6  1  0.27313000  0.10673000  0.42463000  1.0
  H  H7  1  0.18211000  0.84856000  0.07530000  1.0
  H  H8  1  0.20734000  0.26110000  0.83964000  1.0
  H  H9  1  0.92157000  0.36790000  0.66044000  1.0
  H  H10  1  0.79266000  0.73891000  0.16036000  1.0
  H  H11  1  0.07843000  0.63210000  0.33956000  1.0
  H  H12  1  0.74433000  0.73071000  0.97281000  1.0
  H  H13  1  0.25792000  0.77151000  0.52710000  1.0
  H  H14  1  0.25567000  0.26929000  0.02719000  1.0
  H  H15  1  0.74209000  0.22849000  0.47290000  1.0
  H  H16  1  0.54335000  0.14182000  0.70113000  1.0
  H  H17  1  0.94053000  0.84191000  0.79875000  1.0
  H  H18  1  0.45664000  0.85818000  0.29887000  1.0
  H  H19  1  0.05948000  0.15809000  0.20125000  1.0
  H  H20  1  0.08747000  0.02756000  0.74426000  1.0
  H  H21  1  0.78319000  0.34294000  0.75573000  1.0
  H  H22  1  0.91253000  0.97244000  0.25574000  1.0
  H  H23  1  0.21681000  0.65705000  0.24427000  1.0
  H  H24  1  0.25931000  0.53584000  0.86203000  1.0
  H  H25  1  0.17402000  0.39753000  0.63809000  1.0
  H  H26  1  0.74070000  0.46417000  0.13797000  1.0
  H  H27  1  0.82597000  0.60246000  0.36190000  1.0
  H  H28  1  0.71525000  0.46538000  0.94842000  1.0
  H  H29  1  0.01690000  0.76675000  0.55149000  1.0
  H  H30  1  0.28475000  0.53462000  0.05158000  1.0
  H  H31  1  0.98310000  0.23325000  0.44851000  1.0
  H  H32  1  0.19446000  0.16614000  0.53054000  1.0
  H  H33  1  0.13558000  0.66378000  0.96937000  1.0
  H  H34  1  0.80553000  0.83386000  0.46946000  1.0
  H  H35  1  0.86442000  0.33622000  0.03063000  1.0
  H  H36  1  0.38496000  0.73557000  0.79354000  1.0
  H  H37  1  0.44181000  0.59089000  0.70646000  1.0
  H  H38  1  0.61506000  0.26444000  0.20646000  1.0
  H  H39  1  0.55819000  0.40910000  0.29354000  1.0
  H  H40  1  0.41125000  0.84479000  0.71801000  1.0
  H  H41  1  0.62637000  0.69223000  0.78207000  1.0
  H  H42  1  0.58876000  0.15522000  0.28199000  1.0
  H  H43  1  0.37363000  0.30776000  0.21793000  1.0
  H  H44  1  0.21967000  0.74194000  0.73750000  1.0
  H  H45  1  0.50391000  0.48117000  0.76231000  1.0
  H  H46  1  0.78034000  0.25807000  0.26250000  1.0
  H  H47  1  0.49610000  0.51883000  0.23769000  1.0
  C  C48  1  0.62918000  0.62457000  0.94033000  1.0
  C  C49  1  0.18433000  0.68892000  0.55965000  1.0
  C  C50  1  0.37083000  0.37544000  0.05967000  1.0
  C  C51  1  0.81567000  0.31108000  0.44035000  1.0
  C  C52  1  0.61111000  0.47527000  0.92717000  1.0
  C  C53  1  0.04818000  0.68400000  0.57281000  1.0
  C  C54  1  0.38890000  0.52473000  0.07283000  1.0
  C  C55  1  0.95182000  0.31600000  0.42719000  1.0
  C  C56  1  0.45893000  0.34024000  0.88930000  1.0
  C  C57  1  0.95100000  0.56971000  0.61068000  1.0
  C  C58  1  0.54107000  0.65976000  0.11070000  1.0
  C  C59  1  0.04900000  0.43029000  0.38932000  1.0
  C  C60  1  0.44031000  0.18301000  0.87854000  1.0
  C  C61  1  0.80447000  0.56179000  0.62139000  1.0
  C  C62  1  0.55969000  0.81699000  0.12146000  1.0
  C  C63  1  0.19553000  0.43821000  0.37861000  1.0
  C  C64  1  0.32962000  0.36216000  0.86490000  1.0
  C  C65  1  0.99738000  0.46488000  0.63517000  1.0
  C  C66  1  0.67039000  0.63784000  0.13510000  1.0
  C  C67  1  0.00261000  0.53511000  0.36482000  1.0
  C  C68  1  0.42617000  0.13034000  0.68283000  1.0
  C  C69  1  0.94736000  0.74306000  0.81708000  1.0
  C  C70  1  0.57382000  0.86966000  0.31717000  1.0
  C  C71  1  0.05264000  0.25695000  0.18292000  1.0
  C  C72  1  0.95494000  0.05482000  0.59700000  1.0
  C  C73  1  0.95785000  0.35783000  0.90301000  1.0
  C  C74  1  0.04505000  0.94517000  0.40299000  1.0
  C  C75  1  0.04215000  0.64218000  0.09700000  1.0
  C  C76  1  0.16864000  0.06569000  0.70664000  1.0
  C  C77  1  0.85896000  0.46175000  0.79333000  1.0
  C  C78  1  0.83136000  0.93431000  0.29336000  1.0
  C  C79  1  0.14103000  0.53825000  0.20667000  1.0
  C  C80  1  0.37870000  0.15240000  0.60859000  1.0
  C  C81  1  0.04375000  0.76989000  0.89131000  1.0
  C  C82  1  0.62129000  0.84759000  0.39141000  1.0
  C  C83  1  0.95626000  0.23012000  0.10870000  1.0
  C  C84  1  0.32409000  0.09318000  0.73187000  1.0
  C  C85  1  0.86117000  0.59191000  0.76807000  1.0
  C  C86  1  0.67591000  0.90682000  0.26813000  1.0
  C  C87  1  0.13883000  0.40808000  0.23193000  1.0
  C  C88  1  0.35795000  0.51546000  0.87896000  1.0
  C  C89  1  0.13668000  0.47922000  0.62116000  1.0
  C  C90  1  0.64206000  0.48455000  0.12104000  1.0
  C  C91  1  0.86332000  0.52078000  0.37884000  1.0
  C  C92  1  0.39679000  0.95129000  0.82361000  1.0
  C  C93  1  0.62745000  0.57273000  0.67635000  1.0
  C  C94  1  0.60321000  0.04872000  0.17639000  1.0
  C  C95  1  0.37255000  0.42727000  0.32365000  1.0
  C  C96  1  0.22969000  0.14033000  0.58608000  1.0
  C  C97  1  0.05424000  0.64342000  0.91383000  1.0
  C  C98  1  0.77031000  0.85967000  0.41392000  1.0
  C  C99  1  0.94577000  0.35659000  0.08618000  1.0
  C  C100  1  0.35048000  0.81069000  0.76461000  1.0
  C  C101  1  0.54573000  0.58511000  0.73536000  1.0
  C  C102  1  0.64953000  0.18931000  0.23539000  1.0
  C  C103  1  0.45427000  0.41489000  0.26464000  1.0
  C  C104  1  0.49204000  0.19002000  0.55622000  1.0
  C  C105  1  0.13374000  0.93563000  0.94364000  1.0
  C  C106  1  0.50794000  0.80998000  0.44378000  1.0
  C  C107  1  0.86626000  0.06438000  0.05636000  1.0
  C  C108  1  0.12157000  0.08996000  0.63282000  1.0
  C  C109  1  0.95713000  0.48856000  0.86714000  1.0
  C  C110  1  0.87843000  0.91004000  0.36718000  1.0
  C  C111  1  0.04286000  0.51144000  0.13286000  1.0
  N  N112  1  0.50412000  0.64607000  0.91667000  1.0
  N  N113  1  0.22951000  0.58758000  0.58336000  1.0
  N  N114  1  0.49588000  0.35394000  0.08333000  1.0
  N  N115  1  0.77050000  0.41242000  0.41664000  1.0
  N  N116  1  0.48881000  0.12418000  0.93415000  1.0
  N  N117  1  0.69004000  0.55472000  0.56581000  1.0
  N  N118  1  0.51120000  0.87582000  0.06585000  1.0
  N  N119  1  0.30996000  0.44527000  0.43419000  1.0
  N  N120  1  0.46112000  0.97857000  0.89932000  1.0
  N  N121  1  0.57913000  0.56161000  0.60065000  1.0
  N  N122  1  0.53888000  0.02143000  0.10067000  1.0
  N  N123  1  0.42087000  0.43839000  0.39935000  1.0
  N  N124  1  0.37983000  0.07587000  0.80830000  1.0
  N  N125  1  0.76743000  0.57120000  0.69164000  1.0
  N  N126  1  0.62017000  0.92413000  0.19170000  1.0
  N  N127  1  0.23258000  0.42881000  0.30837000  1.0
  O  O128  1  0.63081000  0.21859000  0.58611000  1.0
  O  O129  1  0.13223000  0.04437000  0.91373000  1.0
  O  O130  1  0.36920000  0.78141000  0.41389000  1.0
  O  O131  1  0.86777000  0.95562000  0.08627000  1.0
  O  O132  1  0.83656000  0.93186000  0.61596000  1.0
  O  O133  1  0.81597000  0.22047000  0.88405000  1.0
  O  O134  1  0.16343000  0.06811000  0.38403000  1.0
  O  O135  1  0.18403000  0.77953000  0.11595000  1.0
  O  O136  1  0.93232000  0.12885000  0.54964000  1.0
  O  O137  1  0.07919000  0.38259000  0.95044000  1.0
  O  O138  1  0.06768000  0.87115000  0.45037000  1.0
  O  O139  1  0.92081000  0.61741000  0.04956000  1.0
  O  O140  1  0.44024000  0.19611000  0.48539000  1.0
  O  O141  1  0.21086000  0.95474000  0.01446000  1.0
  O  O142  1  0.55976000  0.80389000  0.51462000  1.0
  O  O143  1  0.78916000  0.04527000  0.98555000  1.0
