# generated using pymatgen
data_AlH9C14O5
_symmetry_space_group_name_H-M   'P 1'
_cell_length_a   18.53210000
_cell_length_b   18.53210000
_cell_length_c   37.64760000
_cell_angle_alpha   90.00010000
_cell_angle_beta   90.00000000
_cell_angle_gamma   90.00000000
_symmetry_Int_Tables_number   1
_chemical_formula_structural   AlH9C14O5
_chemical_formula_sum   'Al16 H144 C224 O80'
_cell_volume   12929.64394696
_cell_formula_units_Z   16
loop_
 _symmetry_equiv_pos_site_id
 _symmetry_equiv_pos_as_xyz
  1  'x, y, z'
loop_
 _atom_site_type_symbol
 _atom_site_label
 _atom_site_symmetry_multiplicity
 _atom_site_fract_x
 _atom_site_fract_y
 _atom_site_fract_z
 _atom_site_occupancy
  Al  Al0  1  0.32877000  0.67123000  0.00000000  1.0
  Al  Al1  1  0.82877000  0.82877000  0.50000000  1.0
  Al  Al2  1  0.67123000  0.32877000  0.00000000  1.0
  Al  Al3  1  0.17123000  0.17123000  0.50000000  1.0
  Al  Al4  1  0.40665000  0.63945000  0.07904000  1.0
  Al  Al5  1  0.86055000  0.90665000  0.57904000  1.0
  Al  Al6  1  0.59335000  0.36055000  0.07904000  1.0
  Al  Al7  1  0.13945000  0.09335000  0.57904000  1.0
  Al  Al8  1  0.90665000  0.86055000  0.42096000  1.0
  Al  Al9  1  0.09335000  0.13945000  0.42096000  1.0
  Al  Al10  1  0.63945000  0.40665000  0.92096000  1.0
  Al  Al11  1  0.36055000  0.59335000  0.92096000  1.0
  Al  Al12  1  0.50000000  0.50000000  0.11122000  1.0
  Al  Al13  1  0.00000000  0.00000000  0.61122000  1.0
  Al  Al14  1  0.00000000  0.00000000  0.38878000  1.0
  Al  Al15  1  0.50000000  0.50000000  0.88878000  1.0
  H  H16  1  0.37921000  0.56210000  0.02838000  1.0
  H  H17  1  0.93791000  0.87921000  0.52838000  1.0
  H  H18  1  0.62079000  0.43790000  0.02838000  1.0
  H  H19  1  0.06210000  0.12079000  0.52838000  1.0
  H  H20  1  0.87921000  0.93791000  0.47162000  1.0
  H  H21  1  0.12079000  0.06209000  0.47162000  1.0
  H  H22  1  0.56210000  0.37921000  0.97162000  1.0
  H  H23  1  0.43790000  0.62079000  0.97162000  1.0
  H  H24  1  0.49355000  0.79353000  0.02482000  1.0
  H  H25  1  0.70646000  0.99355000  0.52482000  1.0
  H  H26  1  0.50645000  0.20646000  0.02482000  1.0
  H  H27  1  0.29354000  0.00645000  0.52482000  1.0
  H  H28  1  0.99355000  0.70646000  0.47518000  1.0
  H  H29  1  0.00645000  0.29354000  0.47518000  1.0
  H  H30  1  0.79353000  0.49355000  0.97518000  1.0
  H  H31  1  0.20647000  0.50645000  0.97518000  1.0
  H  H32  1  0.52421000  0.59171000  0.06717000  1.0
  H  H33  1  0.90829000  0.02421000  0.56717000  1.0
  H  H34  1  0.47579000  0.40829000  0.06717000  1.0
  H  H35  1  0.09171000  0.97579000  0.56717000  1.0
  H  H36  1  0.02421000  0.90829000  0.43283000  1.0
  H  H37  1  0.97579000  0.09171000  0.43283000  1.0
  H  H38  1  0.59171000  0.52421000  0.93283000  1.0
  H  H39  1  0.40829000  0.47579000  0.93283000  1.0
  H  H40  1  0.20420000  0.55254000  0.11044000  1.0
  H  H41  1  0.94746000  0.70420000  0.61044000  1.0
  H  H42  1  0.79580000  0.44746000  0.11044000  1.0
  H  H43  1  0.05254000  0.29580000  0.61044000  1.0
  H  H44  1  0.70420000  0.94746000  0.38956000  1.0
  H  H45  1  0.29580000  0.05254000  0.38956000  1.0
  H  H46  1  0.55254000  0.20420000  0.88956000  1.0
  H  H47  1  0.44746000  0.79580000  0.88956000  1.0
  H  H48  1  0.34372000  0.38557000  0.14992000  1.0
  H  H49  1  0.11443000  0.84372000  0.64992000  1.0
  H  H50  1  0.65628000  0.61443000  0.14992000  1.0
  H  H51  1  0.88557000  0.15628000  0.64992000  1.0
  H  H52  1  0.84372000  0.11443000  0.35008000  1.0
  H  H53  1  0.15628000  0.88557000  0.35008000  1.0
  H  H54  1  0.38557000  0.34372000  0.85008000  1.0
  H  H55  1  0.61443000  0.65628000  0.85008000  1.0
  H  H56  1  0.41626000  0.48398000  0.78736000  1.0
  H  H57  1  0.01602000  0.91626000  0.28736000  1.0
  H  H58  1  0.58374000  0.51602000  0.78736000  1.0
  H  H59  1  0.98398000  0.08374000  0.28736000  1.0
  H  H60  1  0.91626000  0.01602000  0.71264000  1.0
  H  H61  1  0.08374000  0.98398000  0.71264000  1.0
  H  H62  1  0.48398000  0.41626000  0.21264000  1.0
  H  H63  1  0.51602000  0.58374000  0.21264000  1.0
  H  H64  1  0.23661000  0.59535000  0.83388000  1.0
  H  H65  1  0.90465000  0.73661000  0.33388000  1.0
  H  H66  1  0.76339000  0.40465000  0.83388000  1.0
  H  H67  1  0.09535000  0.26339000  0.33388000  1.0
  H  H68  1  0.73661000  0.90465000  0.66612000  1.0
  H  H69  1  0.26339000  0.09535000  0.66612000  1.0
  H  H70  1  0.59535000  0.23661000  0.16612000  1.0
  H  H71  1  0.40465000  0.76339000  0.16612000  1.0
  H  H72  1  0.09766000  0.48753000  0.13479000  1.0
  H  H73  1  0.01247000  0.59766000  0.63479000  1.0
  H  H74  1  0.90234000  0.51247000  0.13479000  1.0
  H  H75  1  0.98753000  0.40234000  0.63479000  1.0
  H  H76  1  0.59766000  0.01247000  0.36521000  1.0
  H  H77  1  0.40234000  0.98753000  0.36521000  1.0
  H  H78  1  0.48753000  0.09766000  0.86521000  1.0
  H  H79  1  0.51247000  0.90234000  0.86521000  1.0
  H  H80  1  0.23783000  0.32067000  0.17503000  1.0
  H  H81  1  0.17933000  0.73783000  0.67503000  1.0
  H  H82  1  0.76217000  0.67933000  0.17503000  1.0
  H  H83  1  0.82067000  0.26217000  0.67503000  1.0
  H  H84  1  0.73782000  0.17933000  0.32497000  1.0
  H  H85  1  0.26217000  0.82067000  0.32497000  1.0
  H  H86  1  0.32067000  0.23783000  0.82497000  1.0
  H  H87  1  0.67933000  0.76217000  0.82497000  1.0
  H  H88  1  0.35496000  0.48581000  0.72851000  1.0
  H  H89  1  0.01419000  0.85496000  0.22851000  1.0
  H  H90  1  0.64504000  0.51419000  0.72851000  1.0
  H  H91  1  0.98581000  0.14504000  0.22851000  1.0
  H  H92  1  0.85496000  0.01419000  0.77149000  1.0
  H  H93  1  0.14504000  0.98581000  0.77149000  1.0
  H  H94  1  0.48581000  0.35496000  0.27149000  1.0
  H  H95  1  0.51419000  0.64504000  0.27149000  1.0
  H  H96  1  0.17424000  0.59739000  0.77530000  1.0
  H  H97  1  0.90261000  0.67424000  0.27530000  1.0
  H  H98  1  0.82576000  0.40261000  0.77530000  1.0
  H  H99  1  0.09739000  0.32576000  0.27530000  1.0
  H  H100  1  0.67424000  0.90261000  0.72470000  1.0
  H  H101  1  0.32576000  0.09739000  0.72470000  1.0
  H  H102  1  0.59739000  0.17424000  0.22470000  1.0
  H  H103  1  0.40261000  0.82576000  0.22470000  1.0
  H  H104  1  0.03414000  0.37823000  0.12211000  1.0
  H  H105  1  0.12177000  0.53414000  0.62211000  1.0
  H  H106  1  0.96586000  0.62177000  0.12211000  1.0
  H  H107  1  0.87823000  0.46586000  0.62211000  1.0
  H  H108  1  0.53414000  0.12177000  0.37789000  1.0
  H  H109  1  0.46586000  0.87823000  0.37789000  1.0
  H  H110  1  0.37823000  0.03414000  0.87789000  1.0
  H  H111  1  0.62177000  0.96586000  0.87789000  1.0
  H  H112  1  0.14659000  0.32538000  0.21870000  1.0
  H  H113  1  0.17462000  0.64659000  0.71870000  1.0
  H  H114  1  0.85341000  0.67462000  0.21870000  1.0
  H  H115  1  0.82538000  0.35341000  0.71870000  1.0
  H  H116  1  0.64659000  0.17462000  0.28130000  1.0
  H  H117  1  0.35341000  0.82538000  0.28130000  1.0
  H  H118  1  0.32538000  0.14659000  0.78130000  1.0
  H  H119  1  0.67462000  0.85341000  0.78130000  1.0
  H  H120  1  0.26240000  0.43528000  0.69892000  1.0
  H  H121  1  0.06472000  0.76240000  0.19892000  1.0
  H  H122  1  0.73760000  0.56472000  0.69892000  1.0
  H  H123  1  0.93528000  0.23760000  0.19892000  1.0
  H  H124  1  0.76240000  0.06472000  0.80108000  1.0
  H  H125  1  0.23760000  0.93528000  0.80108000  1.0
  H  H126  1  0.43528000  0.26240000  0.30108000  1.0
  H  H127  1  0.56472000  0.73760000  0.30108000  1.0
  H  H128  1  0.97573000  0.29765000  0.08586000  1.0
  H  H129  1  0.20235000  0.47573000  0.58585000  1.0
  H  H130  1  0.02427000  0.70235000  0.08585000  1.0
  H  H131  1  0.79765000  0.52427000  0.58586000  1.0
  H  H132  1  0.47574000  0.20235000  0.41415000  1.0
  H  H133  1  0.52426000  0.79765000  0.41414000  1.0
  H  H134  1  0.29765000  0.97573000  0.91414000  1.0
  H  H135  1  0.70235000  0.02427000  0.91414000  1.0
  H  H136  1  0.83714000  0.29678000  0.17787000  1.0
  H  H137  1  0.20322000  0.33714000  0.67787000  1.0
  H  H138  1  0.16286000  0.70322000  0.17787000  1.0
  H  H139  1  0.79678000  0.66286000  0.67787000  1.0
  H  H140  1  0.33714000  0.20322000  0.32213000  1.0
  H  H141  1  0.66286000  0.79678000  0.32213000  1.0
  H  H142  1  0.29678000  0.83714000  0.82213000  1.0
  H  H143  1  0.70323000  0.16286000  0.82213000  1.0
  H  H144  1  0.86748000  0.28723000  0.04671000  1.0
  H  H145  1  0.21277000  0.36748000  0.54671000  1.0
  H  H146  1  0.13251000  0.71277000  0.04671000  1.0
  H  H147  1  0.78723000  0.63252000  0.54671000  1.0
  H  H148  1  0.36749000  0.21277000  0.45329000  1.0
  H  H149  1  0.63251000  0.78723000  0.45329000  1.0
  H  H150  1  0.28723000  0.86748000  0.95329000  1.0
  H  H151  1  0.71277000  0.13252000  0.95329000  1.0
  H  H152  1  0.72989000  0.28526000  0.13839000  1.0
  H  H153  1  0.21474000  0.22989000  0.63839000  1.0
  H  H154  1  0.27011000  0.71474000  0.13839000  1.0
  H  H155  1  0.78526000  0.77011000  0.63839000  1.0
  H  H156  1  0.22989000  0.21474000  0.36161000  1.0
  H  H157  1  0.77011000  0.78526000  0.36161000  1.0
  H  H158  1  0.28526000  0.72989000  0.86161000  1.0
  H  H159  1  0.71474000  0.27011000  0.86161000  1.0
  C  C160  1  0.45486000  0.74943000  0.03038000  1.0
  C  C161  1  0.75056000  0.95486000  0.53038000  1.0
  C  C162  1  0.54514000  0.25056000  0.03038000  1.0
  C  C163  1  0.24944000  0.04514000  0.53038000  1.0
  C  C164  1  0.95486000  0.75056000  0.46962000  1.0
  C  C165  1  0.04514000  0.24943000  0.46962000  1.0
  C  C166  1  0.74944000  0.45486000  0.96962000  1.0
  C  C167  1  0.25056000  0.54514000  0.96962000  1.0
  C  C168  1  0.34503000  0.50812000  0.11308000  1.0
  C  C169  1  0.99188000  0.84503000  0.61308000  1.0
  C  C170  1  0.65497000  0.49187000  0.11308000  1.0
  C  C171  1  0.00812000  0.15497000  0.61308000  1.0
  C  C172  1  0.84503000  0.99188000  0.38692000  1.0
  C  C173  1  0.15497000  0.00812000  0.38692000  1.0
  C  C174  1  0.50812000  0.34503000  0.88692000  1.0
  C  C175  1  0.49188000  0.65497000  0.88692000  1.0
  C  C176  1  0.36653000  0.53940000  0.84943000  1.0
  C  C177  1  0.96060000  0.86654000  0.34943000  1.0
  C  C178  1  0.63347000  0.46061000  0.84943000  1.0
  C  C179  1  0.03939000  0.13347000  0.34943000  1.0
  C  C180  1  0.86654000  0.96060000  0.65057000  1.0
  C  C181  1  0.13347000  0.03939000  0.65057000  1.0
  C  C182  1  0.53939000  0.36653000  0.15057000  1.0
  C  C183  1  0.46061000  0.63347000  0.15057000  1.0
  C  C184  1  0.28033000  0.47222000  0.12825000  1.0
  C  C185  1  0.02778000  0.78033000  0.62825000  1.0
  C  C186  1  0.71967000  0.52778000  0.12825000  1.0
  C  C187  1  0.97222000  0.21967000  0.62825000  1.0
  C  C188  1  0.78033000  0.02778000  0.37175000  1.0
  C  C189  1  0.21967000  0.97223000  0.37175000  1.0
  C  C190  1  0.47222000  0.28033000  0.87175000  1.0
  C  C191  1  0.52778000  0.71967000  0.87175000  1.0
  C  C192  1  0.32995000  0.53928000  0.81416000  1.0
  C  C193  1  0.96072000  0.82995000  0.31416000  1.0
  C  C194  1  0.67005000  0.46072000  0.81416000  1.0
  C  C195  1  0.03928000  0.17005000  0.31416000  1.0
  C  C196  1  0.82995000  0.96072000  0.68584000  1.0
  C  C197  1  0.17005000  0.03928000  0.68584000  1.0
  C  C198  1  0.53928000  0.32995000  0.18584000  1.0
  C  C199  1  0.46072000  0.67005000  0.18584000  1.0
  C  C200  1  0.21093000  0.50138000  0.12436000  1.0
  C  C201  1  0.99862000  0.71092000  0.62436000  1.0
  C  C202  1  0.78908000  0.49862000  0.12436000  1.0
  C  C203  1  0.00138000  0.28907000  0.62436000  1.0
  C  C204  1  0.71092000  0.99862000  0.37564000  1.0
  C  C205  1  0.28908000  0.00138000  0.37564000  1.0
  C  C206  1  0.50138000  0.21092000  0.87564000  1.0
  C  C207  1  0.49862000  0.78908000  0.87564000  1.0
  C  C208  1  0.28947000  0.40743000  0.14699000  1.0
  C  C209  1  0.09257000  0.78947000  0.64699000  1.0
  C  C210  1  0.71053000  0.59257000  0.14699000  1.0
  C  C211  1  0.90743000  0.21053000  0.64699000  1.0
  C  C212  1  0.78947000  0.09258000  0.35301000  1.0
  C  C213  1  0.21053000  0.90743000  0.35301000  1.0
  C  C214  1  0.40743000  0.28947000  0.85301000  1.0
  C  C215  1  0.59257000  0.71053000  0.85301000  1.0
  C  C216  1  0.36308000  0.50837000  0.78436000  1.0
  C  C217  1  0.99163000  0.86308000  0.28436000  1.0
  C  C218  1  0.63692000  0.49163000  0.78436000  1.0
  C  C219  1  0.00837000  0.13692000  0.28436000  1.0
  C  C220  1  0.86308000  0.99163000  0.71564000  1.0
  C  C221  1  0.13692000  0.00837000  0.71564000  1.0
  C  C222  1  0.50836000  0.36308000  0.21564000  1.0
  C  C223  1  0.49164000  0.63692000  0.21564000  1.0
  C  C224  1  0.26198000  0.57180000  0.81050000  1.0
  C  C225  1  0.92821000  0.76198000  0.31050000  1.0
  C  C226  1  0.73802000  0.42821000  0.81050000  1.0
  C  C227  1  0.07179000  0.23802000  0.31050000  1.0
  C  C228  1  0.76198000  0.92820000  0.68950000  1.0
  C  C229  1  0.23802000  0.07179000  0.68950000  1.0
  C  C230  1  0.57179000  0.26198000  0.18950000  1.0
  C  C231  1  0.42821000  0.73802000  0.18950000  1.0
  C  C232  1  0.15152000  0.46464000  0.13799000  1.0
  C  C233  1  0.03536000  0.65152000  0.63799000  1.0
  C  C234  1  0.84848000  0.53536000  0.13799000  1.0
  C  C235  1  0.96464000  0.34848000  0.63799000  1.0
  C  C236  1  0.65152000  0.03536000  0.36201000  1.0
  C  C237  1  0.34848000  0.96464000  0.36201000  1.0
  C  C238  1  0.46464000  0.15152000  0.86201000  1.0
  C  C239  1  0.53536000  0.84848000  0.86201000  1.0
  C  C240  1  0.23021000  0.37172000  0.16113000  1.0
  C  C241  1  0.12828000  0.73021000  0.66113000  1.0
  C  C242  1  0.76979000  0.62828000  0.16113000  1.0
  C  C243  1  0.87172000  0.26979000  0.66113000  1.0
  C  C244  1  0.73021000  0.12828000  0.33887000  1.0
  C  C245  1  0.26979000  0.87172000  0.33887000  1.0
  C  C246  1  0.37172000  0.23021000  0.83887000  1.0
  C  C247  1  0.62828000  0.76979000  0.83887000  1.0
  C  C248  1  0.32832000  0.50931000  0.75161000  1.0
  C  C249  1  0.99069000  0.82832000  0.25161000  1.0
  C  C250  1  0.67168000  0.49069000  0.75161000  1.0
  C  C251  1  0.00931000  0.17168000  0.25161000  1.0
  C  C252  1  0.82832000  0.99069000  0.74839000  1.0
  C  C253  1  0.17168000  0.00931000  0.74839000  1.0
  C  C254  1  0.50930000  0.32832000  0.24839000  1.0
  C  C255  1  0.49070000  0.67168000  0.24839000  1.0
  C  C256  1  0.22768000  0.57316000  0.77766000  1.0
  C  C257  1  0.92684000  0.72768000  0.27766000  1.0
  C  C258  1  0.77232000  0.42683000  0.77766000  1.0
  C  C259  1  0.07316000  0.27232000  0.27766000  1.0
  C  C260  1  0.72768000  0.92684000  0.72234000  1.0
  C  C261  1  0.27232000  0.07316000  0.72234000  1.0
  C  C262  1  0.57316000  0.22768000  0.22234000  1.0
  C  C263  1  0.42684000  0.77232000  0.22234000  1.0
  C  C264  1  0.16006000  0.39895000  0.15634000  1.0
  C  C265  1  0.10105000  0.66006000  0.65634000  1.0
  C  C266  1  0.83994000  0.60105000  0.15634000  1.0
  C  C267  1  0.89895000  0.33994000  0.65634000  1.0
  C  C268  1  0.66006000  0.10105000  0.34366000  1.0
  C  C269  1  0.33994000  0.89895000  0.34366000  1.0
  C  C270  1  0.39895000  0.16006000  0.84366000  1.0
  C  C271  1  0.60105000  0.83994000  0.84366000  1.0
  C  C272  1  0.25997000  0.54155000  0.74764000  1.0
  C  C273  1  0.95845000  0.75997000  0.24764000  1.0
  C  C274  1  0.74003000  0.45845000  0.74764000  1.0
  C  C275  1  0.04155000  0.24003000  0.24764000  1.0
  C  C276  1  0.75997000  0.95845000  0.75236000  1.0
  C  C277  1  0.24003000  0.04155000  0.75236000  1.0
  C  C278  1  0.54155000  0.25997000  0.25236000  1.0
  C  C279  1  0.45845000  0.74003000  0.25236000  1.0
  C  C280  1  0.09725000  0.35700000  0.16912000  1.0
  C  C281  1  0.14300000  0.59725000  0.66912000  1.0
  C  C282  1  0.90275000  0.64301000  0.16912000  1.0
  C  C283  1  0.85700000  0.40275000  0.66912000  1.0
  C  C284  1  0.59725000  0.14300000  0.33088000  1.0
  C  C285  1  0.40275000  0.85700000  0.33088000  1.0
  C  C286  1  0.35700000  0.09725000  0.83088000  1.0
  C  C287  1  0.64300000  0.90275000  0.83088000  1.0
  C  C288  1  0.22232000  0.54075000  0.71300000  1.0
  C  C289  1  0.95925000  0.72232000  0.21300000  1.0
  C  C290  1  0.77768000  0.45925000  0.71300000  1.0
  C  C291  1  0.04076000  0.27768000  0.21300000  1.0
  C  C292  1  0.72231000  0.95925000  0.78700000  1.0
  C  C293  1  0.27768000  0.04076000  0.78699000  1.0
  C  C294  1  0.54075000  0.22232000  0.28700000  1.0
  C  C295  1  0.45925000  0.77768000  0.28700000  1.0
  C  C296  1  0.03588000  0.35019000  0.14758000  1.0
  C  C297  1  0.14981000  0.53588000  0.64758000  1.0
  C  C298  1  0.96412000  0.64981000  0.14758000  1.0
  C  C299  1  0.85019000  0.46411000  0.64758000  1.0
  C  C300  1  0.53588000  0.14981000  0.35242000  1.0
  C  C301  1  0.46412000  0.85019000  0.35242000  1.0
  C  C302  1  0.35019000  0.03588000  0.85242000  1.0
  C  C303  1  0.64980000  0.96412000  0.85242000  1.0
  C  C304  1  0.09896000  0.32058000  0.20182000  1.0
  C  C305  1  0.17942000  0.59896000  0.70182000  1.0
  C  C306  1  0.90104000  0.67942000  0.20182000  1.0
  C  C307  1  0.82058000  0.40104000  0.70182000  1.0
  C  C308  1  0.59896000  0.17942000  0.29818000  1.0
  C  C309  1  0.40104000  0.82058000  0.29818000  1.0
  C  C310  1  0.32058000  0.09896000  0.79818000  1.0
  C  C311  1  0.67942000  0.90104000  0.79818000  1.0
  C  C312  1  0.22877000  0.48058000  0.69067000  1.0
  C  C313  1  0.01942000  0.72877000  0.19067000  1.0
  C  C314  1  0.77123000  0.51943000  0.69067000  1.0
  C  C315  1  0.98058000  0.27123000  0.19067000  1.0
  C  C316  1  0.72877000  0.01942000  0.80933000  1.0
  C  C317  1  0.27123000  0.98058000  0.80933000  1.0
  C  C318  1  0.48058000  0.22877000  0.30933000  1.0
  C  C319  1  0.51942000  0.77123000  0.30933000  1.0
  C  C320  1  0.97746000  0.30693000  0.15790000  1.0
  C  C321  1  0.19307000  0.47746000  0.65790000  1.0
  C  C322  1  0.02254000  0.69306000  0.15790000  1.0
  C  C323  1  0.80693000  0.52254000  0.65790000  1.0
  C  C324  1  0.47746000  0.19307000  0.34210000  1.0
  C  C325  1  0.52254000  0.80694000  0.34210000  1.0
  C  C326  1  0.30693000  0.97746000  0.84210000  1.0
  C  C327  1  0.69306000  0.02254000  0.84210000  1.0
  C  C328  1  0.91397000  0.29832000  0.13461000  1.0
  C  C329  1  0.20168000  0.41397000  0.63461000  1.0
  C  C330  1  0.08603000  0.70168000  0.13461000  1.0
  C  C331  1  0.79832000  0.58603000  0.63461000  1.0
  C  C332  1  0.41397000  0.20168000  0.36539000  1.0
  C  C333  1  0.58603000  0.79832000  0.36539000  1.0
  C  C334  1  0.29832000  0.91397000  0.86539000  1.0
  C  C335  1  0.70168000  0.08603000  0.86539000  1.0
  C  C336  1  0.92187000  0.29534000  0.09747000  1.0
  C  C337  1  0.20466000  0.42187000  0.59747000  1.0
  C  C338  1  0.07813000  0.70466000  0.09747000  1.0
  C  C339  1  0.79534000  0.57813000  0.59747000  1.0
  C  C340  1  0.42187000  0.20466000  0.40253000  1.0
  C  C341  1  0.57813000  0.79534000  0.40253000  1.0
  C  C342  1  0.29534000  0.92187000  0.90253000  1.0
  C  C343  1  0.70466000  0.07813000  0.90253000  1.0
  C  C344  1  0.84426000  0.29308000  0.14917000  1.0
  C  C345  1  0.20692000  0.34426000  0.64917000  1.0
  C  C346  1  0.15574000  0.70692000  0.14917000  1.0
  C  C347  1  0.79308000  0.65574000  0.64917000  1.0
  C  C348  1  0.34426000  0.20692000  0.35083000  1.0
  C  C349  1  0.65574000  0.79308000  0.35083000  1.0
  C  C350  1  0.29308000  0.84426000  0.85083000  1.0
  C  C351  1  0.70692000  0.15574000  0.85083000  1.0
  C  C352  1  0.86194000  0.28856000  0.07552000  1.0
  C  C353  1  0.21144000  0.36194000  0.57552000  1.0
  C  C354  1  0.13805000  0.71144000  0.07552000  1.0
  C  C355  1  0.78856000  0.63806000  0.57552000  1.0
  C  C356  1  0.36195000  0.21144000  0.42448000  1.0
  C  C357  1  0.63805000  0.78856000  0.42448000  1.0
  C  C358  1  0.28856000  0.86195000  0.92448000  1.0
  C  C359  1  0.71144000  0.13806000  0.92448000  1.0
  C  C360  1  0.78422000  0.28659000  0.12736000  1.0
  C  C361  1  0.21341000  0.28422000  0.62736000  1.0
  C  C362  1  0.21578000  0.71341000  0.12736000  1.0
  C  C363  1  0.78659000  0.71578000  0.62736000  1.0
  C  C364  1  0.28422000  0.21341000  0.37264000  1.0
  C  C365  1  0.71578000  0.78659000  0.37264000  1.0
  C  C366  1  0.28659000  0.78422000  0.87264000  1.0
  C  C367  1  0.71341000  0.21578000  0.87264000  1.0
  C  C368  1  0.79268000  0.28472000  0.09035000  1.0
  C  C369  1  0.21528000  0.29268000  0.59035000  1.0
  C  C370  1  0.20732000  0.71528000  0.09035000  1.0
  C  C371  1  0.78472000  0.70732000  0.59035000  1.0
  C  C372  1  0.29268000  0.21529000  0.40965000  1.0
  C  C373  1  0.70732000  0.78472000  0.40965000  1.0
  C  C374  1  0.28471000  0.79268000  0.90965000  1.0
  C  C375  1  0.71529000  0.20732000  0.90965000  1.0
  C  C376  1  0.72780000  0.28745000  0.06733000  1.0
  C  C377  1  0.21255000  0.22780000  0.56733000  1.0
  C  C378  1  0.27220000  0.71254000  0.06733000  1.0
  C  C379  1  0.78745000  0.77220000  0.56733000  1.0
  C  C380  1  0.22780000  0.21255000  0.43267000  1.0
  C  C381  1  0.77220000  0.78746000  0.43267000  1.0
  C  C382  1  0.28745000  0.72780000  0.93267000  1.0
  C  C383  1  0.71255000  0.27220000  0.93267000  1.0
  O  O384  1  0.36910000  0.61151000  0.03495000  1.0
  O  O385  1  0.88849000  0.86910000  0.53495000  1.0
  O  O386  1  0.63090000  0.38848000  0.03495000  1.0
  O  O387  1  0.11152000  0.13090000  0.53495000  1.0
  O  O388  1  0.86910000  0.88849000  0.46505000  1.0
  O  O389  1  0.13090000  0.11151000  0.46505000  1.0
  O  O390  1  0.61151000  0.36910000  0.96505000  1.0
  O  O391  1  0.38849000  0.63090000  0.96505000  1.0
  O  O392  1  0.40171000  0.74468000  0.00944000  1.0
  O  O393  1  0.75532000  0.90171000  0.50944000  1.0
  O  O394  1  0.59829000  0.25532000  0.00944000  1.0
  O  O395  1  0.24468000  0.09829000  0.50944000  1.0
  O  O396  1  0.90171000  0.75532000  0.49056000  1.0
  O  O397  1  0.09829000  0.24468000  0.49056000  1.0
  O  O398  1  0.74468000  0.40171000  0.99056000  1.0
  O  O399  1  0.25532000  0.59829000  0.99056000  1.0
  O  O400  1  0.28990000  0.73666000  0.96622000  1.0
  O  O401  1  0.76334000  0.78990000  0.46622000  1.0
  O  O402  1  0.71010000  0.26334000  0.96622000  1.0
  O  O403  1  0.23666000  0.21010000  0.46622000  1.0
  O  O404  1  0.78990000  0.76334000  0.53378000  1.0
  O  O405  1  0.21010000  0.23666000  0.53378000  1.0
  O  O406  1  0.73666000  0.28990000  0.03378000  1.0
  O  O407  1  0.26334000  0.71010000  0.03378000  1.0
  O  O408  1  0.48010000  0.57035000  0.07627000  1.0
  O  O409  1  0.92965000  0.98010000  0.57627000  1.0
  O  O410  1  0.51990000  0.42965000  0.07627000  1.0
  O  O411  1  0.07035000  0.01990000  0.57627000  1.0
  O  O412  1  0.98010000  0.92965000  0.42373000  1.0
  O  O413  1  0.01990000  0.07035000  0.42373000  1.0
  O  O414  1  0.57035000  0.48010000  0.92373000  1.0
  O  O415  1  0.42965000  0.51990000  0.92373000  1.0
  O  O416  1  0.43818000  0.67092000  0.12434000  1.0
  O  O417  1  0.82908000  0.93818000  0.62434000  1.0
  O  O418  1  0.56182000  0.32908000  0.12434000  1.0
  O  O419  1  0.17092000  0.06182000  0.62434000  1.0
  O  O420  1  0.93818000  0.82908000  0.37566000  1.0
  O  O421  1  0.06182000  0.17092000  0.37566000  1.0
  O  O422  1  0.67092000  0.43818000  0.87566000  1.0
  O  O423  1  0.32908000  0.56182000  0.87566000  1.0
  O  O424  1  0.46967000  0.70976000  0.05697000  1.0
  O  O425  1  0.79024000  0.96968000  0.55697000  1.0
  O  O426  1  0.53032000  0.29024000  0.05697000  1.0
  O  O427  1  0.20976000  0.03032000  0.55697000  1.0
  O  O428  1  0.96968000  0.79024000  0.44303000  1.0
  O  O429  1  0.03032000  0.20976000  0.44303000  1.0
  O  O430  1  0.70976000  0.46968000  0.94303000  1.0
  O  O431  1  0.29024000  0.53033000  0.94303000  1.0
  O  O432  1  0.33345000  0.70983000  0.08283000  1.0
  O  O433  1  0.79017000  0.83345000  0.58283000  1.0
  O  O434  1  0.66655000  0.29017000  0.08283000  1.0
  O  O435  1  0.20983000  0.16655000  0.58283000  1.0
  O  O436  1  0.83345000  0.79017000  0.41717000  1.0
  O  O437  1  0.16655000  0.20983000  0.41717000  1.0
  O  O438  1  0.70983000  0.33345000  0.91717000  1.0
  O  O439  1  0.29017000  0.66655000  0.91717000  1.0
  O  O440  1  0.34016000  0.57307000  0.10252000  1.0
  O  O441  1  0.92693000  0.84016000  0.60252000  1.0
  O  O442  1  0.65985000  0.42692000  0.10252000  1.0
  O  O443  1  0.07307000  0.15984000  0.60252000  1.0
  O  O444  1  0.84016000  0.92693000  0.39748000  1.0
  O  O445  1  0.15984000  0.07307000  0.39748000  1.0
  O  O446  1  0.57307000  0.34016000  0.89748000  1.0
  O  O447  1  0.42693000  0.65984000  0.89748000  1.0
  O  O448  1  0.48149000  0.56790000  0.14929000  1.0
  O  O449  1  0.93210000  0.98149000  0.64929000  1.0
  O  O450  1  0.51851000  0.43210000  0.14929000  1.0
  O  O451  1  0.06790000  0.01851000  0.64929000  1.0
  O  O452  1  0.98149000  0.93211000  0.35071000  1.0
  O  O453  1  0.01851000  0.06790000  0.35071000  1.0
  O  O454  1  0.56790000  0.48149000  0.85071000  1.0
  O  O455  1  0.43210000  0.51851000  0.85071000  1.0
  O  O456  1  0.59726000  0.52992000  0.11178000  1.0
  O  O457  1  0.97008000  0.09726000  0.61178000  1.0
  O  O458  1  0.40274000  0.47008000  0.11178000  1.0
  O  O459  1  0.02992000  0.90274000  0.61178000  1.0
  O  O460  1  0.09726000  0.97008000  0.38822000  1.0
  O  O461  1  0.90274000  0.02992000  0.38822000  1.0
  O  O462  1  0.52992000  0.59725000  0.88822000  1.0
  O  O463  1  0.47008000  0.40274000  0.88822000  1.0
