# generated using pymatgen
data_SmAgH6C14(NO4)2
_symmetry_space_group_name_H-M   'P 1'
_cell_length_a   7.29340000
_cell_length_b   10.23120000
_cell_length_c   11.54840000
_cell_angle_alpha   97.95070000
_cell_angle_beta   101.37600000
_cell_angle_gamma   95.20600000
_symmetry_Int_Tables_number   1
_chemical_formula_structural   SmAgH6C14(NO4)2
_chemical_formula_sum   'Sm2 Ag2 H12 C28 N4 O16'
_cell_volume   830.48935422
_cell_formula_units_Z   2
loop_
 _symmetry_equiv_pos_site_id
 _symmetry_equiv_pos_as_xyz
  1  'x, y, z'
loop_
 _atom_site_type_symbol
 _atom_site_label
 _atom_site_symmetry_multiplicity
 _atom_site_fract_x
 _atom_site_fract_y
 _atom_site_fract_z
 _atom_site_occupancy
  Sm  Sm0  1  0.75947000  0.97349000  0.07033000  1.0
  Sm  Sm1  1  0.24053000  0.02651000  0.92967000  1.0
  Ag  Ag2  1  0.78798000  0.26720000  0.70008000  1.0
  Ag  Ag3  1  0.21202000  0.73280000  0.29992000  1.0
  H  H4  1  0.45449000  0.53353000  0.89359000  1.0
  H  H5  1  0.54551000  0.46647000  0.10641000  1.0
  H  H6  1  0.22803000  0.34854000  0.76875000  1.0
  H  H7  1  0.77197000  0.65146000  0.23125000  1.0
  H  H8  1  0.77078000  0.53370000  0.84239000  1.0
  H  H9  1  0.22922000  0.46630000  0.15761000  1.0
  H  H10  1  0.07180000  0.12494000  0.52670000  1.0
  H  H11  1  0.92820000  0.87506000  0.47330000  1.0
  H  H12  1  0.36519000  0.19888000  0.68271000  1.0
  H  H13  1  0.63481000  0.80112000  0.31729000  1.0
  H  H14  1  0.69850000  0.15491000  0.43029000  1.0
  H  H15  1  0.30150000  0.84509000  0.56971000  1.0
  C  C16  1  0.37743000  0.74899000  0.02983000  1.0
  C  C17  1  0.62257000  0.25101000  0.97016000  1.0
  C  C18  1  0.23592000  0.64683000  0.94181000  1.0
  C  C19  1  0.76408000  0.35317000  0.05819000  1.0
  C  C20  1  0.30379000  0.53930000  0.88214000  1.0
  C  C21  1  0.69621000  0.46070000  0.11787000  1.0
  C  C22  1  0.17760000  0.43524000  0.81205000  1.0
  C  C23  1  0.82240000  0.56476000  0.18795000  1.0
  C  C24  1  0.92301000  0.53719000  0.85368000  1.0
  C  C25  1  0.07699000  0.46281000  0.14632000  1.0
  C  C26  1  0.03959000  0.64595000  0.92527000  1.0
  C  C27  1  0.96040000  0.35405000  0.07473000  1.0
  C  C28  1  0.95108000  0.75613000  0.98223000  1.0
  C  C29  1  0.04892000  0.24387000  0.01777000  1.0
  C  C30  1  0.04790000  0.04787000  0.28545000  1.0
  C  C31  1  0.95209000  0.95213000  0.71455000  1.0
  C  C32  1  0.22222000  0.09397000  0.38204000  1.0
  C  C33  1  0.77777000  0.90603000  0.61796000  1.0
  C  C34  1  0.20781000  0.13093000  0.50084000  1.0
  C  C35  1  0.79219000  0.86907000  0.49916000  1.0
  C  C36  1  0.36986000  0.17427000  0.58874000  1.0
  C  C37  1  0.63014000  0.82573000  0.41126000  1.0
  C  C38  1  0.55806000  0.14781000  0.44968000  1.0
  C  C39  1  0.44194000  0.85219000  0.55032000  1.0
  C  C40  1  0.40312000  0.10109000  0.35653000  1.0
  C  C41  1  0.59688000  0.89891000  0.64347000  1.0
  C  C42  1  0.43668000  0.05958000  0.23296000  1.0
  C  C43  1  0.56332000  0.94042000  0.76704000  1.0
  N  N44  1  0.54344000  0.18462000  0.56368000  1.0
  N  N45  1  0.45655000  0.81538000  0.43632000  1.0
  N  N46  1  0.98912000  0.43290000  0.79800000  1.0
  N  N47  1  0.01089000  0.56710000  0.20200000  1.0
  O  O48  1  0.43722000  0.71926000  0.13035000  1.0
  O  O49  1  0.56279000  0.28074000  0.86964000  1.0
  O  O50  1  0.43438000  0.85546000  0.99175000  1.0
  O  O51  1  0.56562000  0.14454000  0.00825000  1.0
  O  O52  1  0.04322000  0.87318000  0.00884000  1.0
  O  O53  1  0.95679000  0.12682000  0.99116000  1.0
  O  O54  1  0.78882000  0.73462000  0.00419000  1.0
  O  O55  1  0.21118000  0.26538000  0.99581000  1.0
  O  O56  1  0.96062000  0.13612000  0.24038000  1.0
  O  O57  1  0.03938000  0.86388000  0.75962000  1.0
  O  O58  1  0.99312000  0.92291000  0.25459000  1.0
  O  O59  1  0.00688000  0.07709000  0.74541000  1.0
  O  O60  1  0.30445000  0.06670000  0.14603000  1.0
  O  O61  1  0.69556000  0.93330000  0.85397000  1.0
  O  O62  1  0.59619000  0.02140000  0.22761000  1.0
  O  O63  1  0.40381000  0.97860000  0.77239000  1.0
