# generated using pymatgen
data_AgH3C7(NO3)2
_symmetry_space_group_name_H-M   'P 1'
_cell_length_a   5.19849000
_cell_length_b   6.57457000
_cell_length_c   27.33030000
_cell_angle_alpha   89.99980000
_cell_angle_beta   89.99990000
_cell_angle_gamma   71.23000000
_symmetry_Int_Tables_number   1
_chemical_formula_structural   AgH3C7(NO3)2
_chemical_formula_sum   'Ag4 H12 C28 N8 O24'
_cell_volume   884.41359694
_cell_formula_units_Z   4
loop_
 _symmetry_equiv_pos_site_id
 _symmetry_equiv_pos_as_xyz
  1  'x, y, z'
loop_
 _atom_site_type_symbol
 _atom_site_label
 _atom_site_symmetry_multiplicity
 _atom_site_fract_x
 _atom_site_fract_y
 _atom_site_fract_z
 _atom_site_occupancy
  Ag  Ag0  1  0.21814000  0.98305000  0.03163000  1.0
  Ag  Ag1  1  0.78186000  0.51695000  0.53163000  1.0
  Ag  Ag2  1  0.78186000  0.01695000  0.96837000  1.0
  Ag  Ag3  1  0.21814000  0.48305000  0.46837000  1.0
  H  H4  1  0.25097000  0.68941000  0.83264000  1.0
  H  H5  1  0.74903000  0.81058000  0.33264000  1.0
  H  H6  1  0.74903000  0.31059000  0.16736000  1.0
  H  H7  1  0.25097000  0.18942000  0.66736000  1.0
  H  H8  1  0.04547000  0.23371000  0.80282000  1.0
  H  H9  1  0.95454000  0.26629000  0.30282000  1.0
  H  H10  1  0.95454000  0.76629000  0.19718000  1.0
  H  H11  1  0.04546000  0.73371000  0.69718000  1.0
  H  H12  1  0.84441000  0.49945000  0.94812000  1.0
  H  H13  1  0.15559000  0.00055000  0.44812000  1.0
  H  H14  1  0.15559000  0.50055000  0.05188000  1.0
  H  H15  1  0.84441000  0.99945000  0.55188000  1.0
  C  C16  1  0.52639000  0.60875000  0.89434000  1.0
  C  C17  1  0.47362000  0.89125000  0.39434000  1.0
  C  C18  1  0.47361000  0.39125000  0.10566000  1.0
  C  C19  1  0.52638000  0.10876000  0.60566000  1.0
  C  C20  1  0.45202000  0.59543000  0.84562000  1.0
  C  C21  1  0.54798000  0.90456000  0.34562000  1.0
  C  C22  1  0.54798000  0.40456000  0.15438000  1.0
  C  C23  1  0.45202000  0.09544000  0.65438000  1.0
  C  C24  1  0.64120000  0.46081000  0.81381000  1.0
  C  C25  1  0.35881000  0.03919000  0.31381000  1.0
  C  C26  1  0.35880000  0.53919000  0.18619000  1.0
  C  C27  1  0.64120000  0.96082000  0.68619000  1.0
  C  C28  1  0.90134000  0.33832000  0.82824000  1.0
  C  C29  1  0.09866000  0.16168000  0.32824000  1.0
  C  C30  1  0.09866000  0.66168000  0.17176000  1.0
  C  C31  1  0.90134000  0.83832000  0.67176000  1.0
  C  C32  1  0.96687000  0.35530000  0.87717000  1.0
  C  C33  1  0.03313000  0.14470000  0.37717000  1.0
  C  C34  1  0.03312000  0.64470000  0.12283000  1.0
  C  C35  1  0.96687000  0.85530000  0.62283000  1.0
  C  C36  1  0.78581000  0.48804000  0.91034000  1.0
  C  C37  1  0.21419000  0.01196000  0.41034000  1.0
  C  C38  1  0.21418000  0.51196000  0.08966000  1.0
  C  C39  1  0.78582000  0.98804000  0.58966000  1.0
  C  C40  1  0.33079000  0.75009000  0.93035000  1.0
  C  C41  1  0.66921000  0.74991000  0.43035000  1.0
  C  C42  1  0.66921000  0.24992000  0.06965000  1.0
  C  C43  1  0.33079000  0.25009000  0.56965000  1.0
  N  N44  1  0.56025000  0.44562000  0.76269000  1.0
  N  N45  1  0.43975000  0.05439000  0.26269000  1.0
  N  N46  1  0.43974000  0.55438000  0.23731000  1.0
  N  N47  1  0.56025000  0.94562000  0.73731000  1.0
  N  N48  1  0.23878000  0.23232000  0.89449000  1.0
  N  N49  1  0.76123000  0.26767000  0.39449000  1.0
  N  N50  1  0.76122000  0.76768000  0.10551000  1.0
  N  N51  1  0.23877000  0.73233000  0.60551000  1.0
  O  O52  1  0.31307000  0.51093000  0.75349000  1.0
  O  O53  1  0.68693000  0.98907000  0.25349000  1.0
  O  O54  1  0.68692000  0.48908000  0.24651000  1.0
  O  O55  1  0.31307000  0.01093000  0.74651000  1.0
  O  O56  1  0.74168000  0.36766000  0.73223000  1.0
  O  O57  1  0.25833000  0.13234000  0.23223000  1.0
  O  O58  1  0.25832000  0.63233000  0.26777000  1.0
  O  O59  1  0.74168000  0.86765000  0.76777000  1.0
  O  O60  1  0.29249000  0.25668000  0.93823000  1.0
  O  O61  1  0.70751000  0.24331000  0.43823000  1.0
  O  O62  1  0.70751000  0.74332000  0.06177000  1.0
  O  O63  1  0.29249000  0.75669000  0.56177000  1.0
  O  O64  1  0.40200000  0.11366000  0.86550000  1.0
  O  O65  1  0.59801000  0.38634000  0.36550000  1.0
  O  O66  1  0.59801000  0.88634000  0.13450000  1.0
  O  O67  1  0.40199000  0.61366000  0.63450000  1.0
  O  O68  1  0.08273000  0.82158000  0.91761000  1.0
  O  O69  1  0.91727000  0.67841000  0.41761000  1.0
  O  O70  1  0.91727000  0.17842000  0.08239000  1.0
  O  O71  1  0.08273000  0.32159000  0.58239000  1.0
  O  O72  1  0.43478000  0.78422000  0.97047000  1.0
  O  O73  1  0.56522000  0.71578000  0.47047000  1.0
  O  O74  1  0.56522000  0.21578000  0.02953000  1.0
  O  O75  1  0.43478000  0.28422000  0.52953000  1.0
