# generated using pymatgen
data_CdH23C20N3O4
_symmetry_space_group_name_H-M   'P 1'
_cell_length_a   8.79955000
_cell_length_b   11.08050000
_cell_length_c   11.61910000
_cell_angle_alpha   90.00010000
_cell_angle_beta   90.00000000
_cell_angle_gamma   89.83730000
_symmetry_Int_Tables_number   1
_chemical_formula_structural   CdH23C20N3O4
_chemical_formula_sum   'Cd2 H46 C40 N6 O8'
_cell_volume   1132.89734735
_cell_formula_units_Z   2
loop_
 _symmetry_equiv_pos_site_id
 _symmetry_equiv_pos_as_xyz
  1  'x, y, z'
loop_
 _atom_site_type_symbol
 _atom_site_label
 _atom_site_symmetry_multiplicity
 _atom_site_fract_x
 _atom_site_fract_y
 _atom_site_fract_z
 _atom_site_occupancy
  Cd  Cd0  1  0.96771000  0.21867000  0.23406000  1.0
  Cd  Cd1  1  0.03229000  0.78133000  0.73406000  1.0
  H  H2  1  0.82206000  0.45117000  0.26448000  1.0
  H  H3  1  0.17795000  0.54883000  0.76448000  1.0
  H  H4  1  0.99391000  0.06380000  0.99012000  1.0
  H  H5  1  0.00608000  0.93620000  0.49012000  1.0
  H  H6  1  0.91022000  0.07720000  0.78491000  1.0
  H  H7  1  0.08977000  0.92280000  0.28491000  1.0
  H  H8  1  0.76210000  0.26074000  0.72266000  1.0
  H  H9  1  0.23790000  0.73927000  0.22266000  1.0
  H  H10  1  0.69705000  0.41852000  0.87054000  1.0
  H  H11  1  0.30295000  0.58149000  0.37053000  1.0
  H  H12  1  0.71346000  0.48825000  0.06597000  1.0
  H  H13  1  0.28654000  0.51175000  0.56596000  1.0
  H  H14  1  0.65788000  0.35980000  0.14779000  1.0
  H  H15  1  0.34212000  0.64020000  0.64778000  1.0
  H  H16  1  0.07475000  0.44715000  0.09881000  1.0
  H  H17  1  0.92526000  0.55285000  0.59880000  1.0
  H  H18  1  0.06773000  0.51685000  0.23434000  1.0
  H  H19  1  0.93228000  0.48315000  0.73434000  1.0
  H  H20  1  0.04333000  0.56408000  0.93430000  1.0
  H  H21  1  0.95667000  0.43592000  0.43430000  1.0
  H  H22  1  0.83394000  0.89863000  0.93023000  1.0
  H  H23  1  0.16606000  0.10136000  0.43023000  1.0
  H  H24  1  0.78913000  0.89077000  0.14569000  1.0
  H  H25  1  0.21088000  0.10923000  0.64568000  1.0
  H  H26  1  0.86061000  0.70358000  0.25148000  1.0
  H  H27  1  0.13940000  0.29642000  0.75148000  1.0
  H  H28  1  0.50603000  0.16877000  0.18726000  1.0
  H  H29  1  0.49397000  0.83123000  0.68726000  1.0
  H  H30  1  0.55884000  0.96278000  0.12980000  1.0
  H  H31  1  0.44117000  0.03722000  0.62981000  1.0
  H  H32  1  0.40337000  0.96114000  0.22665000  1.0
  H  H33  1  0.59663000  0.03886000  0.72665000  1.0
  H  H34  1  0.22203000  0.93790000  0.06805000  1.0
  H  H35  1  0.77797000  0.06210000  0.56805000  1.0
  H  H36  1  0.36183000  0.82282000  0.05681000  1.0
  H  H37  1  0.63817000  0.17718000  0.55681000  1.0
  H  H38  1  0.49629000  0.93179000  0.90602000  1.0
  H  H39  1  0.50371000  0.06820000  0.40602000  1.0
  H  H40  1  0.24897000  0.12647000  0.92688000  1.0
  H  H41  1  0.75103000  0.87354000  0.42688000  1.0
  H  H42  1  0.40015000  0.12646000  0.82766000  1.0
  H  H43  1  0.59985000  0.87354000  0.32766000  1.0
  H  H44  1  0.45724000  0.26099000  0.99477000  1.0
  H  H45  1  0.54276000  0.73901000  0.49477000  1.0
  H  H46  1  0.58782000  0.13859000  0.98873000  1.0
  H  H47  1  0.41218000  0.86141000  0.48873000  1.0
  C  C48  1  0.80523000  0.31944000  0.00795000  1.0
  C  C49  1  0.19477000  0.68056000  0.50795000  1.0
  C  C50  1  0.92516000  0.13952000  0.96001000  1.0
  C  C51  1  0.07484000  0.86048000  0.46001000  1.0
  C  C52  1  0.88080000  0.14856000  0.84530000  1.0
  C  C53  1  0.11920000  0.85144000  0.34530000  1.0
  C  C54  1  0.79770000  0.25020000  0.81198000  1.0
  C  C55  1  0.20230000  0.74981000  0.31197000  1.0
  C  C56  1  0.76134000  0.33778000  0.89372000  1.0
  C  C57  1  0.23866000  0.66223000  0.39372000  1.0
  C  C58  1  0.75434000  0.40275000  0.10348000  1.0
  C  C59  1  0.24566000  0.59725000  0.60348000  1.0
  C  C60  1  0.00055000  0.49957000  0.15632000  1.0
  C  C61  1  0.99945000  0.50043000  0.65632000  1.0
  C  C62  1  0.95467000  0.61647000  0.09996000  1.0
  C  C63  1  0.04533000  0.38353000  0.59995000  1.0
  C  C64  1  0.98315000  0.63386000  0.98294000  1.0
  C  C65  1  0.01685000  0.36614000  0.48294000  1.0
  C  C66  1  0.86872000  0.82126000  0.98206000  1.0
  C  C67  1  0.13128000  0.17874000  0.48206000  1.0
  C  C68  1  0.84002000  0.81475000  0.10004000  1.0
  C  C69  1  0.15998000  0.18525000  0.60004000  1.0
  C  C70  1  0.88221000  0.71054000  0.15917000  1.0
  C  C71  1  0.11780000  0.28946000  0.65917000  1.0
  C  C72  1  0.42581000  0.12565000  0.12704000  1.0
  C  C73  1  0.57419000  0.87434000  0.62704000  1.0
  C  C74  1  0.43837000  0.98825000  0.13975000  1.0
  C  C75  1  0.56164000  0.01174000  0.63975000  1.0
  C  C76  1  0.34332000  0.92084000  0.05045000  1.0
  C  C77  1  0.65668000  0.07915000  0.55045000  1.0
  C  C78  1  0.37937000  0.96136000  0.92631000  1.0
  C  C79  1  0.62063000  0.03864000  0.42632000  1.0
  C  C80  1  0.36826000  0.09887000  0.91526000  1.0
  C  C81  1  0.63174000  0.90113000  0.41526000  1.0
  C  C82  1  0.46791000  0.16268000  0.00388000  1.0
  C  C83  1  0.53208000  0.83732000  0.50388000  1.0
  C  C84  1  0.26907000  0.17498000  0.16077000  1.0
  C  C85  1  0.73093000  0.82502000  0.66078000  1.0
  C  C86  1  0.27260000  0.89356000  0.84598000  1.0
  C  C87  1  0.72739000  0.10645000  0.34598000  1.0
  N  N88  1  0.88673000  0.22220000  0.03928000  1.0
  N  N89  1  0.11327000  0.77780000  0.53928000  1.0
  N  N90  1  0.87272000  0.42106000  0.19091000  1.0
  N  N91  1  0.12728000  0.57894000  0.69091000  1.0
  N  N92  1  0.94104000  0.73280000  0.92465000  1.0
  N  N93  1  0.05896000  0.26720000  0.42465000  1.0
  O  O94  1  0.23464000  0.28318000  0.13844000  1.0
  O  O95  1  0.76536000  0.71681000  0.63844000  1.0
  O  O96  1  0.17811000  0.10202000  0.21288000  1.0
  O  O97  1  0.82189000  0.89798000  0.71289000  1.0
  O  O98  1  0.16168000  0.95194000  0.80029000  1.0
  O  O99  1  0.83831000  0.04806000  0.30029000  1.0
  O  O100  1  0.29156000  0.78065000  0.83202000  1.0
  O  O101  1  0.70843000  0.21935000  0.33202000  1.0
