# generated using pymatgen
data_CdH11C13(NO)5
_symmetry_space_group_name_H-M   'P 1'
_cell_length_a   10.35610000
_cell_length_b   12.63670000
_cell_length_c   13.59360000
_cell_angle_alpha   116.24400000
_cell_angle_beta   90.00000000
_cell_angle_gamma   114.19000000
_symmetry_Int_Tables_number   1
_chemical_formula_structural   CdH11C13(NO)5
_chemical_formula_sum   'Cd4 H44 C52 N20 O20'
_cell_volume   1419.32933502
_cell_formula_units_Z   4
loop_
 _symmetry_equiv_pos_site_id
 _symmetry_equiv_pos_as_xyz
  1  'x, y, z'
loop_
 _atom_site_type_symbol
 _atom_site_label
 _atom_site_symmetry_multiplicity
 _atom_site_fract_x
 _atom_site_fract_y
 _atom_site_fract_z
 _atom_site_occupancy
  Cd  Cd0  1  0.20848000  0.24241000  0.39951000  1.0
  Cd  Cd1  1  0.96610000  0.75765000  0.10044000  1.0
  Cd  Cd2  1  0.79152000  0.75759000  0.60049000  1.0
  Cd  Cd3  1  0.03390000  0.24235000  0.89956000  1.0
  H  H4  1  0.99606000  0.47582000  0.07713000  1.0
  H  H5  1  0.52031000  0.52428000  0.42296000  1.0
  H  H6  1  0.00394000  0.52417000  0.92286000  1.0
  H  H7  1  0.47969000  0.47572000  0.57704000  1.0
  H  H8  1  0.66186000  0.19138000  0.38634000  1.0
  H  H9  1  0.47053000  0.80869000  0.11370000  1.0
  H  H10  1  0.33814000  0.80862000  0.61366000  1.0
  H  H11  1  0.52947000  0.19131000  0.88629000  1.0
  H  H12  1  0.86556000  0.13316000  0.10308000  1.0
  H  H13  1  0.73230000  0.86664000  0.39688000  1.0
  H  H14  1  0.13444000  0.86684000  0.89692000  1.0
  H  H15  1  0.26770000  0.13336000  0.60312000  1.0
  H  H16  1  0.46195000  0.15562000  0.08893000  1.0
  H  H17  1  0.30626000  0.84425000  0.41106000  1.0
  H  H18  1  0.53805000  0.84438000  0.91107000  1.0
  H  H19  1  0.69374000  0.15575000  0.58894000  1.0
  H  H20  1  0.66778000  0.13430000  0.00056000  1.0
  H  H21  1  0.53339000  0.86549000  0.49941000  1.0
  H  H22  1  0.33221000  0.86570000  0.99944000  1.0
  H  H23  1  0.46662000  0.13451000  0.50059000  1.0
  H  H24  1  0.23155000  0.54434000  0.55173000  1.0
  H  H25  1  0.68740000  0.45569000  0.94836000  1.0
  H  H26  1  0.76844000  0.45566000  0.44827000  1.0
  H  H27  1  0.31260000  0.54430000  0.05164000  1.0
  H  H28  1  0.12078000  0.65480000  0.48587000  1.0
  H  H29  1  0.46613000  0.34526000  0.01421000  1.0
  H  H30  1  0.87922000  0.34520000  0.51413000  1.0
  H  H31  1  0.53387000  0.65474000  0.98579000  1.0
  H  H32  1  0.25881000  0.24009000  0.17448000  1.0
  H  H33  1  0.01879000  0.75997000  0.32556000  1.0
  H  H34  1  0.74119000  0.75991000  0.82551000  1.0
  H  H35  1  0.98121000  0.24003000  0.67444000  1.0
  H  H36  1  0.20909000  0.21624000  0.04045000  1.0
  H  H37  1  0.99300000  0.78385000  0.45962000  1.0
  H  H38  1  0.79091000  0.78376000  0.95955000  1.0
  H  H39  1  0.00700000  0.21615000  0.54038000  1.0
  H  H40  1  0.14986000  0.98624000  0.36429000  1.0
  H  H41  1  0.16362000  0.01387000  0.13568000  1.0
  H  H42  1  0.85014000  0.01376000  0.63571000  1.0
  H  H43  1  0.83638000  0.98613000  0.86432000  1.0
  H  H44  1  0.00428000  0.99206000  0.36260000  1.0
  H  H45  1  0.01219000  0.00799000  0.13736000  1.0
  H  H46  1  0.99572000  0.00794000  0.63740000  1.0
  H  H47  1  0.98781000  0.99201000  0.86264000  1.0
  C  C48  1  0.04810000  0.46427000  0.13890000  1.0
  C  C49  1  0.58390000  0.53583000  0.36120000  1.0
  C  C50  1  0.95190000  0.53573000  0.86110000  1.0
  C  C51  1  0.41610000  0.46417000  0.63880000  1.0
  C  C52  1  0.15641000  0.34460000  0.16619000  1.0
  C  C53  1  0.81192000  0.65549000  0.33392000  1.0
  C  C54  1  0.84359000  0.65540000  0.83381000  1.0
  C  C55  1  0.18808000  0.34451000  0.66608000  1.0
  C  C56  1  0.66351000  0.17831000  0.30169000  1.0
  C  C57  1  0.48517000  0.82166000  0.19833000  1.0
  C  C58  1  0.33649000  0.82169000  0.69831000  1.0
  C  C59  1  0.51483000  0.17834000  0.80168000  1.0
  C  C60  1  0.77723000  0.16315000  0.25166000  1.0
  C  C61  1  0.61401000  0.83673000  0.24834000  1.0
  C  C62  1  0.22277000  0.83685000  0.74834000  1.0
  C  C63  1  0.38598000  0.16327000  0.75166000  1.0
  C  C64  1  0.54979000  0.17523000  0.24320000  1.0
  C  C65  1  0.37449000  0.82470000  0.25680000  1.0
  C  C66  1  0.45021000  0.82476000  0.75680000  1.0
  C  C67  1  0.62551000  0.17530000  0.74321000  1.0
  C  C68  1  0.43172000  0.19603000  0.29896000  1.0
  C  C69  1  0.23568000  0.80403000  0.20105000  1.0
  C  C70  1  0.56829000  0.80396000  0.70105000  1.0
  C  C71  1  0.76432000  0.19597000  0.79895000  1.0
  C  C72  1  0.16712000  0.42033000  0.28308000  1.0
  C  C73  1  0.74688000  0.57975000  0.21702000  1.0
  C  C74  1  0.83288000  0.57967000  0.71692000  1.0
  C  C75  1  0.25312000  0.42025000  0.78298000  1.0
  C  C76  1  0.77691000  0.14504000  0.14200000  1.0
  C  C77  1  0.63175000  0.85475000  0.35797000  1.0
  C  C78  1  0.22309000  0.85496000  0.85800000  1.0
  C  C79  1  0.36824000  0.14525000  0.64203000  1.0
  C  C80  1  0.55077000  0.15760000  0.13386000  1.0
  C  C81  1  0.39306000  0.84222000  0.36610000  1.0
  C  C82  1  0.44923000  0.84239000  0.86614000  1.0
  C  C83  1  0.60694000  0.15778000  0.63390000  1.0
  C  C84  1  0.11830000  0.51678000  0.31548000  1.0
  C  C85  1  0.60162000  0.48331000  0.18460000  1.0
  C  C86  1  0.88170000  0.48322000  0.68452000  1.0
  C  C87  1  0.39838000  0.51669000  0.81540000  1.0
  C  C88  1  0.66480000  0.14395000  0.08413000  1.0
  C  C89  1  0.52072000  0.85584000  0.41584000  1.0
  C  C90  1  0.33520000  0.85605000  0.91588000  1.0
  C  C91  1  0.47928000  0.14416000  0.58416000  1.0
  C  C92  1  0.20261000  0.51699000  0.46423000  1.0
  C  C93  1  0.68576000  0.48308000  0.03585000  1.0
  C  C94  1  0.79740000  0.48301000  0.53577000  1.0
  C  C95  1  0.31424000  0.51692000  0.96415000  1.0
  C  C96  1  0.90324000  0.17474000  0.31689000  1.0
  C  C97  1  0.72852000  0.82526000  0.18315000  1.0
  C  C98  1  0.09677000  0.82525000  0.68311000  1.0
  C  C99  1  0.27148000  0.17474000  0.81685000  1.0
  N  N100  1  0.20112000  0.25231000  0.12281000  1.0
  N  N101  1  0.94891000  0.74778000  0.37727000  1.0
  N  N102  1  0.79888000  0.74770000  0.87720000  1.0
  N  N103  1  0.05109000  0.25222000  0.62273000  1.0
  N  N104  1  0.21939000  0.42181000  0.37820000  1.0
  N  N105  1  0.79771000  0.57826000  0.12190000  1.0
  N  N106  1  0.78061000  0.57819000  0.62180000  1.0
  N  N107  1  0.20229000  0.42174000  0.87810000  1.0
  N  N108  1  0.14299000  0.57736000  0.43127000  1.0
  N  N109  1  0.56574000  0.42273000  0.06881000  1.0
  N  N110  1  0.85701000  0.42264000  0.56873000  1.0
  N  N111  1  0.43426000  0.57727000  0.93119000  1.0
  N  N112  1  0.09370000  0.36994000  0.09587000  1.0
  N  N113  1  0.72384000  0.63014000  0.40423000  1.0
  N  N114  1  0.90630000  0.63005000  0.90413000  1.0
  N  N115  1  0.27616000  0.36986000  0.59578000  1.0
  N  N116  1  0.05820000  0.54256000  0.24632000  1.0
  N  N117  1  0.51572000  0.45755000  0.25376000  1.0
  N  N118  1  0.94180000  0.45744000  0.75368000  1.0
  N  N119  1  0.48428000  0.54245000  0.74624000  1.0
  O  O120  1  0.45340000  0.25478000  0.40529000  1.0
  O  O121  1  0.19870000  0.74530000  0.09471000  1.0
  O  O122  1  0.54660000  0.74522000  0.59471000  1.0
  O  O123  1  0.80130000  0.25470000  0.90529000  1.0
  O  O124  1  0.30957000  0.15520000  0.23663000  1.0
  O  O125  1  0.15439000  0.84489000  0.26335000  1.0
  O  O126  1  0.69043000  0.84480000  0.76337000  1.0
  O  O127  1  0.84561000  0.15511000  0.73665000  1.0
  O  O128  1  0.92236000  0.22666000  0.42389000  1.0
  O  O129  1  0.69579000  0.77348000  0.07617000  1.0
  O  O130  1  0.07764000  0.77334000  0.57611000  1.0
  O  O131  1  0.30421000  0.22652000  0.92383000  1.0
  O  O132  1  0.99138000  0.13780000  0.26357000  1.0
  O  O133  1  0.85361000  0.86218000  0.23647000  1.0
  O  O134  1  0.00862000  0.86220000  0.73643000  1.0
  O  O135  1  0.14639000  0.13782000  0.76353000  1.0
  O  O136  1  0.10586000  0.04487000  0.40637000  1.0
  O  O137  1  0.06101000  0.95523000  0.09358000  1.0
  O  O138  1  0.89414000  0.95513000  0.59363000  1.0
  O  O139  1  0.93899000  0.04477000  0.90642000  1.0
