# generated using pymatgen
data_ErH21C17NO7
_symmetry_space_group_name_H-M   'P 1'
_cell_length_a   8.16562000
_cell_length_b   10.32540000
_cell_length_c   11.67950000
_cell_angle_alpha   108.87000000
_cell_angle_beta   106.11000000
_cell_angle_gamma   97.45710000
_symmetry_Int_Tables_number   1
_chemical_formula_structural   ErH21C17NO7
_chemical_formula_sum   'Er2 H42 C34 N2 O14'
_cell_volume   868.72752135
_cell_formula_units_Z   2
loop_
 _symmetry_equiv_pos_site_id
 _symmetry_equiv_pos_as_xyz
  1  'x, y, z'
loop_
 _atom_site_type_symbol
 _atom_site_label
 _atom_site_symmetry_multiplicity
 _atom_site_fract_x
 _atom_site_fract_y
 _atom_site_fract_z
 _atom_site_occupancy
  Er  Er0  1  0.58520000  0.92426000  0.84692000  1.0
  Er  Er1  1  0.41480000  0.07574000  0.15309000  1.0
  H  H2  1  0.97172000  0.61680000  0.92095000  1.0
  H  H3  1  0.02828000  0.38319000  0.07904000  1.0
  H  H4  1  0.61839000  0.43866000  0.71279000  1.0
  H  H5  1  0.38160000  0.56134000  0.28722000  1.0
  H  H6  1  0.95144000  0.35350000  0.84511000  1.0
  H  H7  1  0.04856000  0.64651000  0.15489000  1.0
  H  H8  1  0.81182000  0.26468000  0.68052000  1.0
  H  H9  1  0.18818000  0.73532000  0.31948000  1.0
  H  H10  1  0.72993000  0.25875000  0.80276000  1.0
  H  H11  1  0.27008000  0.74124000  0.19725000  1.0
  H  H12  1  0.06372000  0.67145000  0.47066000  1.0
  H  H13  1  0.93628000  0.32854000  0.52934000  1.0
  H  H14  1  0.96622000  0.68772000  0.70966000  1.0
  H  H15  1  0.03379000  0.31227000  0.29034000  1.0
  H  H16  1  0.74181000  0.56642000  0.41858000  1.0
  H  H17  1  0.25818000  0.43358000  0.58142000  1.0
  H  H18  1  0.66626000  0.65057000  0.54755000  1.0
  H  H19  1  0.33375000  0.34942000  0.45245000  1.0
  H  H20  1  0.71486000  0.48605000  0.52749000  1.0
  H  H21  1  0.28514000  0.51394000  0.47252000  1.0
  H  H22  1  0.36350000  0.35263000  0.00099000  1.0
  H  H23  1  0.63651000  0.64737000  0.99901000  1.0
  H  H24  1  0.36079000  0.30070000  0.72633000  1.0
  H  H25  1  0.63923000  0.69930000  0.27367000  1.0
  H  H26  1  0.26164000  0.53336000  0.92386000  1.0
  H  H27  1  0.73836000  0.46663000  0.07614000  1.0
  H  H28  1  0.14597000  0.45990000  0.75445000  1.0
  H  H29  1  0.85403000  0.54009000  0.24554000  1.0
  H  H30  1  0.36182000  0.56303000  0.81358000  1.0
  H  H31  1  0.63817000  0.43697000  0.18642000  1.0
  H  H32  1  0.00651000  0.02535000  0.85178000  1.0
  H  H33  1  0.99348000  0.97465000  0.14822000  1.0
  H  H34  1  0.17691000  0.05113000  0.71418000  1.0
  H  H35  1  0.82308000  0.94887000  0.28582000  1.0
  H  H36  1  0.68591000  0.93683000  0.40086000  1.0
  H  H37  1  0.31408000  0.06317000  0.59914000  1.0
  H  H38  1  0.53609000  0.90863000  0.54987000  1.0
  H  H39  1  0.46390000  0.09137000  0.45013000  1.0
  H  H40  1  0.78081000  0.15744000  0.08630000  1.0
  H  H41  1  0.21919000  0.84256000  0.91370000  1.0
  H  H42  1  0.93247000  0.13296000  0.02665000  1.0
  H  H43  1  0.06754000  0.86703000  0.97335000  1.0
  C  C44  1  0.75742000  0.70806000  0.84719000  1.0
  C  C45  1  0.24259000  0.29194000  0.15281000  1.0
  C  C46  1  0.83800000  0.58976000  0.85358000  1.0
  C  C47  1  0.16199000  0.41024000  0.14642000  1.0
  C  C48  1  0.75087000  0.45535000  0.77896000  1.0
  C  C49  1  0.24912000  0.54465000  0.22104000  1.0
  C  C50  1  0.81698000  0.32809000  0.77824000  1.0
  C  C51  1  0.18302000  0.67191000  0.22176000  1.0
  C  C52  1  0.25380000  0.77386000  0.66485000  1.0
  C  C53  1  0.74620000  0.22614000  0.33516000  1.0
  C  C54  1  0.07766000  0.69555000  0.57155000  1.0
  C  C55  1  0.92234000  0.30444000  0.42845000  1.0
  C  C56  1  0.94073000  0.65979000  0.60668000  1.0
  C  C57  1  0.05927000  0.34020000  0.39332000  1.0
  C  C58  1  0.75744000  0.58742000  0.51953000  1.0
  C  C59  1  0.24257000  0.41258000  0.48047000  1.0
  C  C60  1  0.44026000  0.17020000  0.89109000  1.0
  C  C61  1  0.55974000  0.82981000  0.10892000  1.0
  C  C62  1  0.38095000  0.30169000  0.90926000  1.0
  C  C63  1  0.61905000  0.69832000  0.09074000  1.0
  C  C64  1  0.34255000  0.35590000  0.81752000  1.0
  C  C65  1  0.65745000  0.64410000  0.18248000  1.0
  C  C66  1  0.27485000  0.48470000  0.82941000  1.0
  C  C67  1  0.72515000  0.51530000  0.17059000  1.0
  C  C68  1  0.93872000  0.00589000  0.75111000  1.0
  C  C69  1  0.06128000  0.99411000  0.24889000  1.0
  C  C70  1  0.03485000  0.02182000  0.67327000  1.0
  C  C71  1  0.96514000  0.97818000  0.32673000  1.0
  C  C72  1  0.94988000  0.99483000  0.54303000  1.0
  C  C73  1  0.05010000  0.00517000  0.45697000  1.0
  C  C74  1  0.76543000  0.95645000  0.49937000  1.0
  C  C75  1  0.23457000  0.04355000  0.50063000  1.0
  C  C76  1  0.67871000  0.94203000  0.58315000  1.0
  C  C77  1  0.32128000  0.05797000  0.41685000  1.0
  N  N78  1  0.76189000  0.96412000  0.70769000  1.0
  N  N79  1  0.23811000  0.03588000  0.29232000  1.0
  O  O80  1  0.84795000  0.83651000  0.91500000  1.0
  O  O81  1  0.15205000  0.16349000  0.08500000  1.0
  O  O82  1  0.59805000  0.68660000  0.77705000  1.0
  O  O83  1  0.40196000  0.31340000  0.22295000  1.0
  O  O84  1  0.28656000  0.81235000  0.78755000  1.0
  O  O85  1  0.71344000  0.18766000  0.21245000  1.0
  O  O86  1  0.37740000  0.80730000  0.62527000  1.0
  O  O87  1  0.62260000  0.19271000  0.37474000  1.0
  O  O88  1  0.48471000  0.11113000  0.79374000  1.0
  O  O89  1  0.51529000  0.88888000  0.20626000  1.0
  O  O90  1  0.44434000  0.11091000  0.97308000  1.0
  O  O91  1  0.55566000  0.88911000  0.02693000  1.0
  O  O92  1  0.80267000  0.12356000  0.00284000  1.0
  O  O93  1  0.19734000  0.87644000  0.99716000  1.0
