# generated using pymatgen
data_CaH6C5(NO3)2
_symmetry_space_group_name_H-M   'P 1'
_cell_length_a   6.79452000
_cell_length_b   6.80289000
_cell_length_c   19.04650000
_cell_angle_alpha   89.99990000
_cell_angle_beta   89.99890000
_cell_angle_gamma   100.15800000
_symmetry_Int_Tables_number   1
_chemical_formula_structural   CaH6C5(NO3)2
_chemical_formula_sum   'Ca4 H24 C20 N8 O24'
_cell_volume   866.57467740
_cell_formula_units_Z   4
loop_
 _symmetry_equiv_pos_site_id
 _symmetry_equiv_pos_as_xyz
  1  'x, y, z'
loop_
 _atom_site_type_symbol
 _atom_site_label
 _atom_site_symmetry_multiplicity
 _atom_site_fract_x
 _atom_site_fract_y
 _atom_site_fract_z
 _atom_site_occupancy
  Ca  Ca0  1  0.74551000  0.55490000  0.11608000  1.0
  Ca  Ca1  1  0.75450000  0.44510000  0.61608000  1.0
  Ca  Ca2  1  0.25449000  0.44510000  0.88392000  1.0
  Ca  Ca3  1  0.24550000  0.55490000  0.38392000  1.0
  H  H4  1  0.89436000  0.02134000  0.36913000  1.0
  H  H5  1  0.60564000  0.97864000  0.86912000  1.0
  H  H6  1  0.10564000  0.97866000  0.63087000  1.0
  H  H7  1  0.39437000  0.02137000  0.13087000  1.0
  H  H8  1  0.95685000  0.72179000  0.97114000  1.0
  H  H9  1  0.54313000  0.27820000  0.47114000  1.0
  H  H10  1  0.04314000  0.27820000  0.02886000  1.0
  H  H11  1  0.45688000  0.72179000  0.52885000  1.0
  H  H12  1  0.82522000  0.83102000  0.02334000  1.0
  H  H13  1  0.67478000  0.16897000  0.52333000  1.0
  H  H14  1  0.17478000  0.16897000  0.97667000  1.0
  H  H15  1  0.32523000  0.83102000  0.47666000  1.0
  H  H16  1  0.31702000  0.61545000  0.10372000  1.0
  H  H17  1  0.18299000  0.38454000  0.60371000  1.0
  H  H18  1  0.68298000  0.38454000  0.89629000  1.0
  H  H19  1  0.81700000  0.61546000  0.39629000  1.0
  H  H20  1  0.34974000  0.46859000  0.04532000  1.0
  H  H21  1  0.15027000  0.53140000  0.54532000  1.0
  H  H22  1  0.65025000  0.53139000  0.95468000  1.0
  H  H23  1  0.84973000  0.46859000  0.45468000  1.0
  H  H24  1  0.79386000  0.86709000  0.24900000  1.0
  H  H25  1  0.70614000  0.13290000  0.74900000  1.0
  H  H26  1  0.20614000  0.13291000  0.75100000  1.0
  H  H27  1  0.29386000  0.86710000  0.25100000  1.0
  C  C28  1  0.10665000  0.53198000  0.21790000  1.0
  C  C29  1  0.39335000  0.46803000  0.71791000  1.0
  C  C30  1  0.89334000  0.46803000  0.78209000  1.0
  C  C31  1  0.60665000  0.53197000  0.28209000  1.0
  C  C32  1  0.00859000  0.33027000  0.24117000  1.0
  C  C33  1  0.49141000  0.66972000  0.74116000  1.0
  C  C34  1  0.99141000  0.66973000  0.75883000  1.0
  C  C35  1  0.50858000  0.33028000  0.25884000  1.0
  C  C36  1  0.91443000  0.15866000  0.20546000  1.0
  C  C37  1  0.58557000  0.84133000  0.70546000  1.0
  C  C38  1  0.08558000  0.84134000  0.79454000  1.0
  C  C39  1  0.41442000  0.15865000  0.29455000  1.0
  C  C40  1  0.91982000  0.10167000  0.31973000  1.0
  C  C41  1  0.58018000  0.89833000  0.81973000  1.0
  C  C42  1  0.08018000  0.89833000  0.68027000  1.0
  C  C43  1  0.41982000  0.10168000  0.18027000  1.0
  C  C44  1  0.86417000  0.10828000  0.13062000  1.0
  C  C45  1  0.63587000  0.89173000  0.63061000  1.0
  C  C46  1  0.13583000  0.89171000  0.86938000  1.0
  C  C47  1  0.36414000  0.10827000  0.36939000  1.0
  N  N48  1  0.01093000  0.29022000  0.31224000  1.0
  N  N49  1  0.48907000  0.70977000  0.81223000  1.0
  N  N50  1  0.98907000  0.70978000  0.68775000  1.0
  N  N51  1  0.51094000  0.29024000  0.18776000  1.0
  N  N52  1  0.86273000  0.01779000  0.25703000  1.0
  N  N53  1  0.63729000  0.98221000  0.75702000  1.0
  N  N54  1  0.13727000  0.98221000  0.74297000  1.0
  N  N55  1  0.36271000  0.01780000  0.24298000  1.0
  O  O56  1  0.82610000  0.92519000  0.11399000  1.0
  O  O57  1  0.67395000  0.07482000  0.61399000  1.0
  O  O58  1  0.17390000  0.07481000  0.88601000  1.0
  O  O59  1  0.32607000  0.92520000  0.38601000  1.0
  O  O60  1  0.20660000  0.63859000  0.26572000  1.0
  O  O61  1  0.29340000  0.36141000  0.76571000  1.0
  O  O62  1  0.79340000  0.36141000  0.73428000  1.0
  O  O63  1  0.70659000  0.63859000  0.23429000  1.0
  O  O64  1  0.83166000  0.70208000  0.00004000  1.0
  O  O65  1  0.66833000  0.29791000  0.50004000  1.0
  O  O66  1  0.16834000  0.29792000  0.99996000  1.0
  O  O67  1  0.33168000  0.70209000  0.49996000  1.0
  O  O68  1  0.42163000  0.58697000  0.07094000  1.0
  O  O69  1  0.07838000  0.41302000  0.57094000  1.0
  O  O70  1  0.57837000  0.41302000  0.92906000  1.0
  O  O71  1  0.92161000  0.58697000  0.42906000  1.0
  O  O72  1  0.85922000  0.25149000  0.08733000  1.0
  O  O73  1  0.64079000  0.74850000  0.58731000  1.0
  O  O74  1  0.14076000  0.74850000  0.91267000  1.0
  O  O75  1  0.35922000  0.25151000  0.41268000  1.0
  O  O76  1  0.09016000  0.59256000  0.15553000  1.0
  O  O77  1  0.40985000  0.40744000  0.65552000  1.0
  O  O78  1  0.90985000  0.40744000  0.84447000  1.0
  O  O79  1  0.59015000  0.59257000  0.34448000  1.0
