# generated using pymatgen
data_Zn4H44C56N16O5
_symmetry_space_group_name_H-M   'P 1'
_cell_length_a   15.64030000
_cell_length_b   15.89490000
_cell_length_c   17.58780000
_cell_angle_alpha   104.61800000
_cell_angle_beta   107.58300000
_cell_angle_gamma   110.84800000
_symmetry_Int_Tables_number   1
_chemical_formula_structural   Zn4H44C56N16O5
_chemical_formula_sum   'Zn4 H44 C56 N16 O5'
_cell_volume   3563.20131686
_cell_formula_units_Z   1
loop_
 _symmetry_equiv_pos_site_id
 _symmetry_equiv_pos_as_xyz
  1  'x, y, z'
loop_
 _atom_site_type_symbol
 _atom_site_label
 _atom_site_symmetry_multiplicity
 _atom_site_fract_x
 _atom_site_fract_y
 _atom_site_fract_z
 _atom_site_occupancy
  Zn  Zn0  1  0.87233000  0.87384000  0.49742000  1.0
  Zn  Zn1  1  0.13342000  0.12597000  0.49952000  1.0
  Zn  Zn2  1  0.12070000  0.99593000  0.62306000  1.0
  Zn  Zn3  1  0.88683000  0.00916000  0.38678000  1.0
  H  H4  1  0.79310000  0.76338000  0.62085000  1.0
  H  H5  1  0.85195000  0.18051000  0.32358000  1.0
  H  H6  1  0.64836000  0.67499000  0.35252000  1.0
  H  H7  1  0.44827000  0.24499000  0.54473000  1.0
  H  H8  1  0.27478000  0.73546000  0.69316000  1.0
  H  H9  1  0.27034000  0.83878000  0.75720000  1.0
  H  H10  1  0.19584000  0.71932000  0.74825000  1.0
  H  H11  1  0.08752000  0.77107000  0.65400000  1.0
  H  H12  1  0.08899000  0.66719000  0.58986000  1.0
  H  H13  1  0.21353000  0.77038000  0.54966000  1.0
  H  H14  1  0.22685000  0.87904000  0.62231000  1.0
  H  H15  1  0.86449000  0.84797000  0.22146000  1.0
  H  H16  1  0.22330000  0.97834000  0.31887000  1.0
  H  H17  1  0.39752000  0.42692000  0.08100000  1.0
  H  H18  1  0.80648000  0.73632000  0.90844000  1.0
  H  H19  1  0.37961000  0.50313000  0.48360000  1.0
  H  H20  1  0.41285000  0.41230000  0.50358000  1.0
  H  H21  1  0.39869000  0.42707000  0.40425000  1.0
  H  H22  1  0.24507000  0.27881000  0.37901000  1.0
  H  H23  1  0.21206000  0.36915000  0.35946000  1.0
  H  H24  1  0.22182000  0.42740000  0.51066000  1.0
  H  H25  1  0.25182000  0.33426000  0.52798000  1.0
  H  H26  1  0.85896000  0.69791000  0.34540000  1.0
  H  H27  1  0.29124000  0.87002000  0.96952000  1.0
  H  H28  1  0.35085000  0.96999000  0.07260000  1.0
  H  H29  1  0.36400000  0.86187000  0.06406000  1.0
  H  H30  1  0.23630000  0.86151000  0.12312000  1.0
  H  H31  1  0.17616000  0.76462000  0.01927000  1.0
  H  H32  1  0.12422000  0.87063000  0.95199000  1.0
  H  H33  1  0.18091000  0.96603000  0.05727000  1.0
  H  H34  1  0.37969000  0.24510000  0.98076000  1.0
  H  H35  1  0.35918000  0.13224000  0.90721000  1.0
  H  H36  1  0.46954000  0.24337000  0.93889000  1.0
  H  H37  1  0.66426000  0.85831000  0.20675000  1.0
  H  H38  1  0.34196000  0.19598000  0.78874000  1.0
  H  H39  1  0.36266000  0.30824000  0.86139000  1.0
  H  H40  1  0.20497000  0.22602000  0.87457000  1.0
  H  H41  1  0.18442000  0.10834000  0.81109000  1.0
  H  H42  1  0.12517000  0.93384000  0.85922000  1.0
  H  H43  1  0.36265000  0.02233000  0.68174000  1.0
  H  H44  1  0.34976000  0.60059000  0.96053000  1.0
  H  H45  1  0.82401000  0.16287000  0.48808000  1.0
  H  H46  1  0.10842000  0.30329000  0.60756000  1.0
  H  H47  1  0.82653000  0.99280000  0.64621000  1.0
  C  C48  1  0.87434000  0.81229000  0.65323000  1.0
  C  C49  1  0.93211000  0.73997000  0.40197000  1.0
  C  C50  1  0.67587000  0.82707000  0.25484000  1.0
  C  C51  1  0.10025000  0.28229000  0.43554000  1.0
  C  C52  1  0.34815000  0.06596000  0.64582000  1.0
  C  C53  1  0.61580000  0.73243000  0.24786000  1.0
  C  C54  1  0.41502000  0.12871000  0.62202000  1.0
  C  C55  1  0.00694000  0.71182000  0.43350000  1.0
  C  C56  1  0.03163000  0.90301000  0.25815000  1.0
  C  C57  1  0.74276000  0.12959000  0.61540000  1.0
  C  C58  1  0.67579000  0.14510000  0.62842000  1.0
  C  C59  1  0.01655000  0.29548000  0.39200000  1.0
  C  C60  1  0.59369000  0.15043000  0.63421000  1.0
  C  C61  1  0.51206000  0.14441000  0.63142000  1.0
  C  C62  1  0.01710000  0.38196000  0.38649000  1.0
  C  C63  1  0.16395000  0.19625000  0.74012000  1.0
  C  C64  1  0.01446000  0.45827000  0.38629000  1.0
  C  C65  1  0.01099000  0.54331000  0.39328000  1.0
  C  C66  1  0.00592000  0.62068000  0.40543000  1.0
  C  C67  1  0.21191000  0.37371000  0.80498000  1.0
  C  C68  1  0.32996000  0.52552000  0.95491000  1.0
  C  C69  1  0.37760000  0.51426000  0.02822000  1.0
  C  C70  1  0.16535000  0.28378000  0.73293000  1.0
  C  C71  1  0.45503000  0.59288000  0.10671000  1.0
  C  C72  1  0.26341000  0.44598000  0.87460000  1.0
  C  C73  1  0.52815000  0.65646000  0.17464000  1.0
  C  C74  1  0.04127000  0.87064000  0.18086000  1.0
  C  C75  1  0.83217000  0.11356000  0.51927000  1.0
  C  C76  1  0.04344000  0.84120000  0.02798000  1.0
  C  C77  1  0.95188000  0.79867000  0.95589000  1.0
  C  C78  1  0.94406000  0.80132000  0.87490000  1.0
  C  C79  1  0.04443000  0.85227000  0.10999000  1.0
  C  C80  1  0.93596000  0.81112000  0.80647000  1.0
  C  C81  1  0.80353000  0.09711000  0.58525000  1.0
  C  C82  1  0.12154000  0.25843000  0.64255000  1.0
  C  C83  1  0.83373000  0.02688000  0.60068000  1.0
  C  C84  1  0.93160000  0.20305000  0.36073000  1.0
  C  C85  1  0.03751000  0.90348000  0.74331000  1.0
  C  C86  1  0.94457000  0.83687000  0.73783000  1.0
  C  C87  1  0.17276000  0.80147000  0.57904000  1.0
  C  C88  1  0.13681000  0.74588000  0.63284000  1.0
  C  C89  1  0.22436000  0.76063000  0.71212000  1.0
  C  C90  1  0.21063000  0.35295000  0.47748000  1.0
  C  C91  1  0.25576000  0.35333000  0.41089000  1.0
  C  C92  1  0.66760000  0.73307000  0.32921000  1.0
  C  C93  1  0.36801000  0.42805000  0.45286000  1.0
  C  C94  1  0.14229000  0.88528000  0.02108000  1.0
  C  C95  1  0.21558000  0.84537000  0.05352000  1.0
  C  C96  1  0.31066000  0.88914000  0.03933000  1.0
  C  C97  1  0.21629000  0.18601000  0.82066000  1.0
  C  C98  1  0.33118000  0.22892000  0.84586000  1.0
  C  C99  1  0.38806000  0.21141000  0.92245000  1.0
  C  C100  1  0.35562000  0.16582000  0.57766000  1.0
  C  C101  1  0.08463000  0.79562000  0.51018000  1.0
  C  C102  1  0.94327000  0.89284000  0.26918000  1.0
  C  C103  1  0.11082000  0.97007000  0.34190000  1.0
  N  N104  1  0.92166000  0.85983000  0.61324000  1.0
  N  N105  1  0.12079000  0.12567000  0.65942000  1.0
  N  N106  1  0.87309000  0.05582000  0.49680000  1.0
  N  N107  1  0.09613000  0.16355000  0.59912000  1.0
  N  N108  1  0.87427000  0.00274000  0.54642000  1.0
  N  N109  1  0.96163000  0.14037000  0.38363000  1.0
  N  N110  1  0.02401000  0.91765000  0.66995000  1.0
  N  N111  1  0.75092000  0.82055000  0.37954000  1.0
  N  N112  1  0.26321000  0.12885000  0.57533000  1.0
  N  N113  1  0.05685000  0.86700000  0.52024000  1.0
  N  N114  1  0.96889000  0.95009000  0.35112000  1.0
  N  N115  1  0.07289000  0.99812000  0.39683000  1.0
  N  N116  1  0.96278000  0.83294000  0.45542000  1.0
  N  N117  1  0.75576000  0.87874000  0.33327000  1.0
  N  N118  1  0.25856000  0.06590000  0.61800000  1.0
  N  N119  1  0.06578000  0.18935000  0.43002000  1.0
  O  O120  1  0.37980000  0.22899000  0.53932000  1.0
  O  O121  1  0.21224000  0.00745000  0.36862000  1.0
  O  O122  1  0.35294000  0.42045000  0.02503000  1.0
  O  O123  1  0.86289000  0.75796000  0.96414000  1.0
  O  O124  1  0.13146000  0.94896000  0.80998000  1.0
