# generated using pymatgen
data_Ag2H3C7NO5
_symmetry_space_group_name_H-M   'P 1'
_cell_length_a   5.35737000
_cell_length_b   8.48950000
_cell_length_c   17.96330000
_cell_angle_alpha   92.55480000
_cell_angle_beta   89.99990000
_cell_angle_gamma   89.99990000
_symmetry_Int_Tables_number   1
_chemical_formula_structural   Ag2H3C7NO5
_chemical_formula_sum   'Ag8 H12 C28 N4 O20'
_cell_volume   816.18384303
_cell_formula_units_Z   4
loop_
 _symmetry_equiv_pos_site_id
 _symmetry_equiv_pos_as_xyz
  1  'x, y, z'
loop_
 _atom_site_type_symbol
 _atom_site_label
 _atom_site_symmetry_multiplicity
 _atom_site_fract_x
 _atom_site_fract_y
 _atom_site_fract_z
 _atom_site_occupancy
  Ag  Ag0  1  0.20857000  0.62488000  0.43509000  1.0
  Ag  Ag1  1  0.70855000  0.37513000  0.06492000  1.0
  Ag  Ag2  1  0.79145000  0.37513000  0.56492000  1.0
  Ag  Ag3  1  0.29145000  0.62487000  0.93509000  1.0
  Ag  Ag4  1  0.63748000  0.80270000  0.47552000  1.0
  Ag  Ag5  1  0.13746000  0.19731000  0.02448000  1.0
  Ag  Ag6  1  0.36255000  0.19731000  0.52447000  1.0
  Ag  Ag7  1  0.86254000  0.80268000  0.97552000  1.0
  H  H8  1  0.78969000  0.45339000  0.24787000  1.0
  H  H9  1  0.28971000  0.54662000  0.25213000  1.0
  H  H10  1  0.21029000  0.54662000  0.75213000  1.0
  H  H11  1  0.71032000  0.45337000  0.74787000  1.0
  H  H12  1  0.08948000  0.27608000  0.17591000  1.0
  H  H13  1  0.58950000  0.72392000  0.32409000  1.0
  H  H14  1  0.91047000  0.72391000  0.82408000  1.0
  H  H15  1  0.41052000  0.27608000  0.67592000  1.0
  H  H16  1  0.28452000  0.05323000  0.24050000  1.0
  H  H17  1  0.78454000  0.94677000  0.25949000  1.0
  H  H18  1  0.71542000  0.94676000  0.75949000  1.0
  H  H19  1  0.21545000  0.05324000  0.74050000  1.0
  C  C20  1  0.67216000  0.44459000  0.39457000  1.0
  C  C21  1  0.17213000  0.55543000  0.10543000  1.0
  C  C22  1  0.32786000  0.55542000  0.60543000  1.0
  C  C23  1  0.82787000  0.44457000  0.89457000  1.0
  C  C24  1  0.84263000  0.33608000  0.34958000  1.0
  C  C25  1  0.34262000  0.66393000  0.15042000  1.0
  C  C26  1  0.15737000  0.66392000  0.65042000  1.0
  C  C27  1  0.65738000  0.33606000  0.84958000  1.0
  C  C28  1  0.88496000  0.35751000  0.27437000  1.0
  C  C29  1  0.38497000  0.64250000  0.22563000  1.0
  C  C30  1  0.11502000  0.64250000  0.72563000  1.0
  C  C31  1  0.61505000  0.35749000  0.77437000  1.0
  C  C32  1  0.04999000  0.25930000  0.23448000  1.0
  C  C33  1  0.55000000  0.74070000  0.26552000  1.0
  C  C34  1  0.94999000  0.74068000  0.76552000  1.0
  C  C35  1  0.45002000  0.25930000  0.73448000  1.0
  C  C36  1  0.15984000  0.13505000  0.27026000  1.0
  C  C37  1  0.65984000  0.86495000  0.22973000  1.0
  C  C38  1  0.84013000  0.86495000  0.72973000  1.0
  C  C39  1  0.34015000  0.13505000  0.77027000  1.0
  C  C40  1  0.10913000  0.11328000  0.34473000  1.0
  C  C41  1  0.60913000  0.88673000  0.15527000  1.0
  C  C42  1  0.89087000  0.88672000  0.65526000  1.0
  C  C43  1  0.39086000  0.11327000  0.84474000  1.0
  C  C44  1  0.20712000  0.97472000  0.38556000  1.0
  C  C45  1  0.70712000  0.02529000  0.11444000  1.0
  C  C46  1  0.79288000  0.02529000  0.61443000  1.0
  C  C47  1  0.29288000  0.97471000  0.88556000  1.0
  N  N48  1  0.96016000  0.21704000  0.38466000  1.0
  N  N49  1  0.46014000  0.78297000  0.11534000  1.0
  N  N50  1  0.03985000  0.78297000  0.61534000  1.0
  N  N51  1  0.53985000  0.21703000  0.88467000  1.0
  O  O52  1  0.44155000  0.42757000  0.38330000  1.0
  O  O53  1  0.94153000  0.57245000  0.11670000  1.0
  O  O54  1  0.55847000  0.57245000  0.61670000  1.0
  O  O55  1  0.05847000  0.42755000  0.88330000  1.0
  O  O56  1  0.77590000  0.54996000  0.43717000  1.0
  O  O57  1  0.27587000  0.45004000  0.06283000  1.0
  O  O58  1  0.22414000  0.45003000  0.56284000  1.0
  O  O59  1  0.72413000  0.54995000  0.93717000  1.0
  O  O60  1  0.93287000  0.19810000  0.45672000  1.0
  O  O61  1  0.43286000  0.80190000  0.04328000  1.0
  O  O62  1  0.06715000  0.80190000  0.54328000  1.0
  O  O63  1  0.56713000  0.19810000  0.95672000  1.0
  O  O64  1  0.41262000  0.99608000  0.42003000  1.0
  O  O65  1  0.91263000  0.00392000  0.07996000  1.0
  O  O66  1  0.58738000  0.00392000  0.57996000  1.0
  O  O67  1  0.08737000  0.99607000  0.92004000  1.0
  O  O68  1  0.07843000  0.85072000  0.37814000  1.0
  O  O69  1  0.57843000  0.14928000  0.12186000  1.0
  O  O70  1  0.92157000  0.14928000  0.62186000  1.0
  O  O71  1  0.42156000  0.85072000  0.87814000  1.0
