# generated using pymatgen
data_AgH25C13BrN6
_symmetry_space_group_name_H-M   'P 1'
_cell_length_a   9.71498000
_cell_length_b   10.80050000
_cell_length_c   11.83250000
_cell_angle_alpha   96.35270000
_cell_angle_beta   109.03300000
_cell_angle_gamma   108.10500000
_symmetry_Int_Tables_number   1
_chemical_formula_structural   AgH25C13BrN6
_chemical_formula_sum   'Ag2 H50 C26 Br2 N12'
_cell_volume   1084.06758499
_cell_formula_units_Z   2
loop_
 _symmetry_equiv_pos_site_id
 _symmetry_equiv_pos_as_xyz
  1  'x, y, z'
loop_
 _atom_site_type_symbol
 _atom_site_label
 _atom_site_symmetry_multiplicity
 _atom_site_fract_x
 _atom_site_fract_y
 _atom_site_fract_z
 _atom_site_occupancy
  Ag  Ag0  1  0.84591000  0.36154000  0.49703000  1.0
  Ag  Ag1  1  0.15410000  0.63845000  0.50297000  1.0
  H  H2  1  0.31522000  0.01323000  0.30586000  1.0
  H  H3  1  0.68478000  0.98678000  0.69415000  1.0
  H  H4  1  0.05645000  0.05822000  0.84532000  1.0
  H  H5  1  0.94354000  0.94177000  0.15468000  1.0
  H  H6  1  0.07479000  0.92414000  0.75425000  1.0
  H  H7  1  0.92520000  0.07586000  0.24574000  1.0
  H  H8  1  0.89657000  0.90015000  0.77482000  1.0
  H  H9  1  0.10342000  0.09984000  0.22517000  1.0
  H  H10  1  0.73786000  0.85467000  0.53817000  1.0
  H  H11  1  0.26214000  0.14534000  0.46182000  1.0
  H  H12  1  0.91971000  0.86304000  0.52961000  1.0
  H  H13  1  0.08027000  0.13696000  0.47038000  1.0
  H  H14  1  0.82650000  0.97239000  0.46404000  1.0
  H  H15  1  0.17349000  0.02763000  0.53595000  1.0
  H  H16  1  0.21598000  0.16543000  0.72398000  1.0
  H  H17  1  0.78403000  0.83456000  0.27602000  1.0
  H  H18  1  0.29934000  0.29899000  0.85791000  1.0
  H  H19  1  0.70067000  0.70100000  0.14209000  1.0
  H  H20  1  0.26113000  0.33418000  0.70895000  1.0
  H  H21  1  0.73888000  0.66581000  0.29105000  1.0
  H  H22  1  0.07297000  0.45009000  0.73298000  1.0
  H  H23  1  0.92705000  0.54992000  0.26703000  1.0
  H  H24  1  0.13226000  0.42589000  0.88679000  1.0
  H  H25  1  0.86776000  0.57411000  0.11321000  1.0
  H  H26  1  0.92933000  0.36228000  0.78640000  1.0
  H  H27  1  0.07068000  0.63773000  0.21360000  1.0
  H  H28  1  0.68397000  0.01429000  0.28677000  1.0
  H  H29  1  0.31604000  0.98572000  0.71323000  1.0
  H  H30  1  0.58054000  0.90710000  0.13616000  1.0
  H  H31  1  0.41946000  0.09290000  0.86385000  1.0
  H  H32  1  0.49745000  0.88647000  0.25071000  1.0
  H  H33  1  0.50256000  0.11353000  0.74931000  1.0
  H  H34  1  0.26229000  0.92067000  0.09422000  1.0
  H  H35  1  0.73771000  0.07933000  0.90579000  1.0
  H  H36  1  0.35588000  0.95654000  0.98818000  1.0
  H  H37  1  0.64412000  0.04346000  0.01183000  1.0
  H  H38  1  0.29864000  0.07924000  0.05423000  1.0
  H  H39  1  0.70135000  0.92078000  0.94578000  1.0
  H  H40  1  0.46206000  0.36566000  0.34238000  1.0
  H  H41  1  0.53792000  0.63433000  0.65761000  1.0
  H  H42  1  0.46289000  0.45070000  0.22115000  1.0
  H  H43  1  0.53709000  0.54929000  0.77884000  1.0
  H  H44  1  0.64374000  0.46758000  0.34008000  1.0
  H  H45  1  0.35624000  0.53242000  0.65991000  1.0
  H  H46  1  0.58032000  0.21997000  0.05903000  1.0
  H  H47  1  0.41968000  0.78004000  0.94097000  1.0
  H  H48  1  0.67202000  0.39460000  0.12847000  1.0
  H  H49  1  0.32797000  0.60539000  0.87152000  1.0
  H  H50  1  0.46927000  0.32543000  0.02993000  1.0
  H  H51  1  0.53074000  0.67456000  0.97007000  1.0
  C  C52  1  0.65977000  0.08916000  0.54778000  1.0
  C  C53  1  0.34023000  0.91085000  0.45224000  1.0
  C  C54  1  0.55280000  0.09640000  0.43588000  1.0
  C  C55  1  0.44720000  0.90361000  0.56414000  1.0
  C  C56  1  0.39709000  0.00660000  0.39131000  1.0
  C  C57  1  0.60292000  0.99342000  0.60871000  1.0
  C  C58  1  0.93105000  0.15132000  0.66400000  1.0
  C  C59  1  0.06895000  0.84868000  0.33600000  1.0
  C  C60  1  0.99558000  0.97514000  0.76332000  1.0
  C  C61  1  0.00442000  0.02485000  0.23667000  1.0
  C  C62  1  0.85034000  0.92340000  0.54054000  1.0
  C  C63  1  0.14965000  0.07661000  0.45944000  1.0
  C  C64  1  0.21762000  0.26331000  0.76105000  1.0
  C  C65  1  0.78239000  0.73669000  0.23895000  1.0
  C  C66  1  0.04847000  0.37960000  0.79117000  1.0
  C  C67  1  0.95155000  0.62040000  0.20882000  1.0
  C  C68  1  0.54130000  0.17742000  0.25700000  1.0
  C  C69  1  0.45871000  0.82258000  0.74300000  1.0
  C  C70  1  0.56759000  0.96050000  0.21430000  1.0
  C  C71  1  0.43241000  0.03949000  0.78571000  1.0
  C  C72  1  0.34610000  0.00056000  0.07232000  1.0
  C  C73  1  0.65389000  0.99944000  0.92768000  1.0
  C  C74  1  0.52350000  0.39791000  0.28172000  1.0
  C  C75  1  0.47649000  0.60209000  0.71827000  1.0
  C  C76  1  0.56265000  0.30665000  0.09998000  1.0
  C  C77  1  0.43735000  0.69335000  0.90002000  1.0
  Br  Br78  1  0.07473000  0.38132000  0.40236000  1.0
  Br  Br79  1  0.92527000  0.61868000  0.59761000  1.0
  N  N80  1  0.81418000  0.18060000  0.59529000  1.0
  N  N81  1  0.18583000  0.81941000  0.40471000  1.0
  N  N82  1  0.93860000  0.02506000  0.65499000  1.0
  N  N83  1  0.06141000  0.97495000  0.34502000  1.0
  N  N84  1  0.06110000  0.25303000  0.75124000  1.0
  N  N85  1  0.93891000  0.74697000  0.24875000  1.0
  N  N86  1  0.60127000  0.19740000  0.37724000  1.0
  N  N87  1  0.39873000  0.80260000  0.62277000  1.0
  N  N88  1  0.49774000  0.05676000  0.17439000  1.0
  N  N89  1  0.50226000  0.94324000  0.82563000  1.0
  N  N90  1  0.52203000  0.28180000  0.20540000  1.0
  N  N91  1  0.47797000  0.71820000  0.79461000  1.0
