# generated using pymatgen
data_BiH15C14S2O15
_symmetry_space_group_name_H-M   'P 1'
_cell_length_a   7.44838000
_cell_length_b   11.09700000
_cell_length_c   12.49210000
_cell_angle_alpha   81.49890000
_cell_angle_beta   86.24620000
_cell_angle_gamma   86.99130000
_symmetry_Int_Tables_number   1
_chemical_formula_structural   BiH15C14S2O15
_chemical_formula_sum   'Bi2 H30 C28 S4 O30'
_cell_volume   1018.03603550
_cell_formula_units_Z   2
loop_
 _symmetry_equiv_pos_site_id
 _symmetry_equiv_pos_as_xyz
  1  'x, y, z'
loop_
 _atom_site_type_symbol
 _atom_site_label
 _atom_site_symmetry_multiplicity
 _atom_site_fract_x
 _atom_site_fract_y
 _atom_site_fract_z
 _atom_site_occupancy
  Bi  Bi0  1  0.39298000  0.11455000  0.85847000  1.0
  Bi  Bi1  1  0.60702000  0.88544000  0.14153000  1.0
  H  H2  1  0.31222000  0.56566000  0.94594000  1.0
  H  H3  1  0.68777000  0.43433000  0.05406000  1.0
  H  H4  1  0.64988000  0.71327000  0.59753000  1.0
  H  H5  1  0.35012000  0.28672000  0.40247000  1.0
  H  H6  1  0.59498000  0.39586000  0.66926000  1.0
  H  H7  1  0.40501000  0.60413000  0.33074000  1.0
  H  H8  1  0.52091000  0.86082000  0.71681000  1.0
  H  H9  1  0.47910000  0.13918000  0.28319000  1.0
  H  H10  1  0.91883000  0.40176000  0.83068000  1.0
  H  H11  1  0.08117000  0.59824000  0.16932000  1.0
  H  H12  1  0.76757000  0.61218000  0.98983000  1.0
  H  H13  1  0.23242000  0.38783000  0.01016000  1.0
  H  H14  1  0.01404000  0.80286000  0.72827000  1.0
  H  H15  1  0.98596000  0.19714000  0.27174000  1.0
  H  H16  1  0.22430000  0.65765000  0.51638000  1.0
  H  H17  1  0.77571000  0.34236000  0.48363000  1.0
  H  H18  1  0.21962000  0.43396000  0.52120000  1.0
  H  H19  1  0.78040000  0.56604000  0.47881000  1.0
  H  H20  1  0.03131000  0.10989000  0.98109000  1.0
  H  H21  1  0.96868000  0.89011000  0.01891000  1.0
  H  H22  1  0.14745000  0.16094000  0.06198000  1.0
  H  H23  1  0.85255000  0.83907000  0.93802000  1.0
  H  H24  1  0.56011000  0.11230000  0.63525000  1.0
  H  H25  1  0.43990000  0.88771000  0.36475000  1.0
  H  H26  1  0.34711000  0.12811000  0.62428000  1.0
  H  H27  1  0.65290000  0.87189000  0.37572000  1.0
  H  H28  1  0.77902000  0.01889000  0.87644000  1.0
  H  H29  1  0.22099000  0.98111000  0.12356000  1.0
  H  H30  1  0.77990000  0.12145000  0.76927000  1.0
  H  H31  1  0.22010000  0.87855000  0.23073000  1.0
  C  C32  1  0.41093000  0.71967000  0.83906000  1.0
  C  C33  1  0.58907000  0.28033000  0.16094000  1.0
  C  C34  1  0.38673000  0.59611000  0.86981000  1.0
  C  C35  1  0.61327000  0.40389000  0.13018000  1.0
  C  C36  1  0.45625000  0.51182000  0.80239000  1.0
  C  C37  1  0.54375000  0.48817000  0.19761000  1.0
  C  C38  1  0.55115000  0.55588000  0.70276000  1.0
  C  C39  1  0.44885000  0.44412000  0.29724000  1.0
  C  C40  1  0.57464000  0.68189000  0.67350000  1.0
  C  C41  1  0.42537000  0.31810000  0.32650000  1.0
  C  C42  1  0.50471000  0.76332000  0.74054000  1.0
  C  C43  1  0.49530000  0.23668000  0.25946000  1.0
  C  C44  1  0.42845000  0.38068000  0.83148000  1.0
  C  C45  1  0.57154000  0.61932000  0.16852000  1.0
  C  C46  1  0.06753000  0.40431000  0.67568000  1.0
  C  C47  1  0.93247000  0.59570000  0.32432000  1.0
  C  C48  1  0.98583000  0.45708000  0.76165000  1.0
  C  C49  1  0.01417000  0.54292000  0.23835000  1.0
  C  C50  1  0.98833000  0.58378000  0.75964000  1.0
  C  C51  1  0.01167000  0.41623000  0.24036000  1.0
  C  C52  1  0.07418000  0.65734000  0.66928000  1.0
  C  C53  1  0.92581000  0.34266000  0.33072000  1.0
  C  C54  1  0.15900000  0.60088000  0.58481000  1.0
  C  C55  1  0.84101000  0.39912000  0.41519000  1.0
  C  C56  1  0.15518000  0.47598000  0.58775000  1.0
  C  C57  1  0.84483000  0.52402000  0.41226000  1.0
  C  C58  1  0.90100000  0.64168000  0.84845000  1.0
  C  C59  1  0.09899000  0.35832000  0.15155000  1.0
  S  S60  1  0.31669000  0.82613000  0.92099000  1.0
  S  S61  1  0.68331000  0.17387000  0.07900000  1.0
  S  S62  1  0.05255000  0.24617000  0.67420000  1.0
  S  S63  1  0.94745000  0.75384000  0.32580000  1.0
  O  O64  1  0.47204000  0.88726000  0.95969000  1.0
  O  O65  1  0.52796000  0.11274000  0.04031000  1.0
  O  O66  1  0.22062000  0.92176000  0.84749000  1.0
  O  O67  1  0.77937000  0.07823000  0.15251000  1.0
  O  O68  1  0.20536000  0.76287000  0.00936000  1.0
  O  O69  1  0.79464000  0.23712000  0.99064000  1.0
  O  O70  1  0.34047000  0.33416000  0.91746000  1.0
  O  O71  1  0.65952000  0.66584000  0.08254000  1.0
  O  O72  1  0.49699000  0.30758000  0.76585000  1.0
  O  O73  1  0.50300000  0.69241000  0.23415000  1.0
  O  O74  1  0.62069000  0.48156000  0.63421000  1.0
  O  O75  1  0.37931000  0.51843000  0.36579000  1.0
  O  O76  1  0.11170000  0.18431000  0.78179000  1.0
  O  O77  1  0.88830000  0.81569000  0.21821000  1.0
  O  O78  1  0.17197000  0.21453000  0.58331000  1.0
  O  O79  1  0.82803000  0.78547000  0.41669000  1.0
  O  O80  1  0.86224000  0.22228000  0.66552000  1.0
  O  O81  1  0.13775000  0.77772000  0.33448000  1.0
  O  O82  1  0.83300000  0.56733000  0.93141000  1.0
  O  O83  1  0.16698000  0.43267000  0.06859000  1.0
  O  O84  1  0.89186000  0.75584000  0.84418000  1.0
  O  O85  1  0.10814000  0.24416000  0.15582000  1.0
  O  O86  1  0.07952000  0.77870000  0.66160000  1.0
  O  O87  1  0.92048000  0.22130000  0.33840000  1.0
  O  O88  1  0.14924000  0.09632000  0.01250000  1.0
  O  O89  1  0.85076000  0.90368000  0.98750000  1.0
  O  O90  1  0.44534000  0.08066000  0.66615000  1.0
  O  O91  1  0.55467000  0.91934000  0.33384000  1.0
  O  O92  1  0.70717000  0.05907000  0.81645000  1.0
  O  O93  1  0.29284000  0.94094000  0.18355000  1.0
