# generated using pymatgen
data_AgH2(CN)4
_symmetry_space_group_name_H-M   'P 1'
_cell_length_a   6.88109000
_cell_length_b   7.59139000
_cell_length_c   10.44050000
_cell_angle_alpha   81.41830000
_cell_angle_beta   70.78280000
_cell_angle_gamma   63.05190000
_symmetry_Int_Tables_number   1
_chemical_formula_structural   AgH2(CN)4
_chemical_formula_sum   'Ag4 H8 C16 N16'
_cell_volume   459.07181723
_cell_formula_units_Z   4
loop_
 _symmetry_equiv_pos_site_id
 _symmetry_equiv_pos_as_xyz
  1  'x, y, z'
loop_
 _atom_site_type_symbol
 _atom_site_label
 _atom_site_symmetry_multiplicity
 _atom_site_fract_x
 _atom_site_fract_y
 _atom_site_fract_z
 _atom_site_occupancy
  Ag  Ag0  1  0.52461000  0.75003000  0.45057000  1.0
  Ag  Ag1  1  0.72515000  0.75000000  0.04951000  1.0
  Ag  Ag2  1  0.47539000  0.24997000  0.54942000  1.0
  Ag  Ag3  1  0.27485000  0.25000000  0.95049000  1.0
  H  H4  1  0.92116000  0.93069000  0.46845000  1.0
  H  H5  1  0.14823000  0.93059000  0.03155000  1.0
  H  H6  1  0.32063000  0.56930000  0.03150000  1.0
  H  H7  1  0.11010000  0.56926000  0.46859000  1.0
  H  H8  1  0.07885000  0.06931000  0.53155000  1.0
  H  H9  1  0.85178000  0.06941000  0.96845000  1.0
  H  H10  1  0.67937000  0.43070000  0.96850000  1.0
  H  H11  1  0.88990000  0.43074000  0.53141000  1.0
  C  C12  1  0.01174000  0.85242000  0.37225000  1.0
  C  C13  1  0.13609000  0.85240000  0.12778000  1.0
  C  C14  1  0.23647000  0.64738000  0.12779000  1.0
  C  C15  1  0.11632000  0.64739000  0.37230000  1.0
  C  C16  1  0.98827000  0.14758000  0.62775000  1.0
  C  C17  1  0.86391000  0.14759000  0.87222000  1.0
  C  C18  1  0.76352000  0.35262000  0.87221000  1.0
  C  C19  1  0.88369000  0.35260000  0.62770000  1.0
  C  C20  1  0.02079000  0.95863000  0.25001000  1.0
  C  C21  1  0.22943000  0.54120000  0.25005000  1.0
  C  C22  1  0.97922000  0.04137000  0.74999000  1.0
  C  C23  1  0.77057000  0.45880000  0.74995000  1.0
  C  C24  1  0.91293000  0.17431000  0.25000000  1.0
  C  C25  1  0.33734000  0.32555000  0.24998000  1.0
  C  C26  1  0.08708000  0.82569000  0.75001000  1.0
  C  C27  1  0.66266000  0.67444000  0.75002000  1.0
  N  N28  1  0.76975000  0.28911000  0.36029000  1.0
  N  N29  1  0.94121000  0.28918000  0.13971000  1.0
  N  N30  1  0.41928000  0.21075000  0.13967000  1.0
  N  N31  1  0.37013000  0.21080000  0.36030000  1.0
  N  N32  1  0.23025000  0.71088000  0.63971000  1.0
  N  N33  1  0.05879000  0.71082000  0.86029000  1.0
  N  N34  1  0.58072000  0.78924000  0.86033000  1.0
  N  N35  1  0.62987000  0.78920000  0.63970000  1.0
  N  N36  1  0.71133000  0.47591000  0.31608000  1.0
  N  N37  1  0.81289000  0.47595000  0.18396000  1.0
  N  N38  1  0.50334000  0.02399000  0.18395000  1.0
  N  N39  1  0.47276000  0.02402000  0.31609000  1.0
  N  N40  1  0.28867000  0.52409000  0.68392000  1.0
  N  N41  1  0.18711000  0.52405000  0.81604000  1.0
  N  N42  1  0.49666000  0.97601000  0.81605000  1.0
  N  N43  1  0.52724000  0.97598000  0.68391000  1.0
