# generated using pymatgen
data_MnH22C30(NO)4
_symmetry_space_group_name_H-M   'P 1'
_cell_length_a   10.15920000
_cell_length_b   11.62490000
_cell_length_c   12.10700000
_cell_angle_alpha   63.78710000
_cell_angle_beta   71.52060000
_cell_angle_gamma   84.08350000
_symmetry_Int_Tables_number   1
_chemical_formula_structural   MnH22C30(NO)4
_chemical_formula_sum   'Mn2 H44 C60 N8 O8'
_cell_volume   1215.49767013
_cell_formula_units_Z   2
loop_
 _symmetry_equiv_pos_site_id
 _symmetry_equiv_pos_as_xyz
  1  'x, y, z'
loop_
 _atom_site_type_symbol
 _atom_site_label
 _atom_site_symmetry_multiplicity
 _atom_site_fract_x
 _atom_site_fract_y
 _atom_site_fract_z
 _atom_site_occupancy
  Mn  Mn0  1  0.00000000  0.50000000  0.50000000  1.0
  Mn  Mn1  1  0.50000000  0.50000000  0.50000000  1.0
  H  H2  1  0.09558000  0.19054000  0.57066000  1.0
  H  H3  1  0.90441000  0.80946000  0.42934000  1.0
  H  H4  1  0.41296000  0.17094000  0.47396000  1.0
  H  H5  1  0.58703000  0.82906000  0.52604000  1.0
  H  H6  1  0.06529000  0.99638000  0.57897000  1.0
  H  H7  1  0.93470000  0.00361000  0.42103000  1.0
  H  H8  1  0.04537000  0.80743000  0.54048000  1.0
  H  H9  1  0.95463000  0.19256000  0.45951000  1.0
  H  H10  1  0.48513000  0.83029000  0.35796000  1.0
  H  H11  1  0.51487000  0.16972000  0.64203000  1.0
  H  H12  1  0.50411000  0.03269000  0.37811000  1.0
  H  H13  1  0.49588000  0.96731000  0.62189000  1.0
  H  H14  1  0.08611000  0.59413000  0.67261000  1.0
  H  H15  1  0.91390000  0.40586000  0.32739000  1.0
  H  H16  1  0.99382000  0.59487000  0.88904000  1.0
  H  H17  1  0.00619000  0.40513000  0.11096000  1.0
  H  H18  1  0.60317000  0.44122000  0.92666000  1.0
  H  H19  1  0.39683000  0.55878000  0.07334000  1.0
  H  H20  1  0.70963000  0.45752000  0.70297000  1.0
  H  H21  1  0.29037000  0.54248000  0.29704000  1.0
  H  H22  1  0.58912000  0.34414000  0.13165000  1.0
  H  H23  1  0.41089000  0.65586000  0.86835000  1.0
  H  H24  1  0.49144000  0.34129000  0.35043000  1.0
  H  H25  1  0.50857000  0.65871000  0.64957000  1.0
  H  H26  1  0.74790000  0.64734000  0.24920000  1.0
  H  H27  1  0.25210000  0.35267000  0.75080000  1.0
  H  H28  1  0.86012000  0.66489000  0.02802000  1.0
  H  H29  1  0.13988000  0.33511000  0.97198000  1.0
  H  H30  1  0.41345000  0.74725000  0.12092000  1.0
  H  H31  1  0.58655000  0.25275000  0.87908000  1.0
  H  H32  1  0.54004000  0.89335000  0.15381000  1.0
  H  H33  1  0.45996000  0.10665000  0.84619000  1.0
  H  H34  1  0.85313000  0.95307000  0.79269000  1.0
  H  H35  1  0.14687000  0.04692000  0.20731000  1.0
  H  H36  1  0.71160000  0.80506000  0.77402000  1.0
  H  H37  1  0.28839000  0.19493000  0.22599000  1.0
  H  H38  1  0.71990000  0.93445000  0.20247000  1.0
  H  H39  1  0.28011000  0.06555000  0.79753000  1.0
  H  H40  1  0.84543000  0.09404000  0.21982000  1.0
  H  H41  1  0.15458000  0.90597000  0.78017000  1.0
  H  H42  1  0.00236000  0.29398000  0.82135000  1.0
  H  H43  1  0.99764000  0.70602000  0.17865000  1.0
  H  H44  1  0.87779000  0.14972000  0.78612000  1.0
  H  H45  1  0.12221000  0.85028000  0.21388000  1.0
  C  C46  1  0.24437000  0.32006000  0.56147000  1.0
  C  C47  1  0.75563000  0.67994000  0.43853000  1.0
  C  C48  1  0.20680000  0.20981000  0.54492000  1.0
  C  C49  1  0.79319000  0.79019000  0.45507000  1.0
  C  C50  1  0.30494000  0.14091000  0.49892000  1.0
  C  C51  1  0.69505000  0.85909000  0.50108000  1.0
  C  C52  1  0.28655000  0.02891000  0.48049000  1.0
  C  C53  1  0.71343000  0.97109000  0.51951000  1.0
  C  C54  1  0.15728000  0.96310000  0.52691000  1.0
  C  C55  1  0.84272000  0.03689000  0.47309000  1.0
  C  C56  1  0.14592000  0.85661000  0.50652000  1.0
  C  C57  1  0.85408000  0.14339000  0.49348000  1.0
  C  C58  1  0.26390000  0.80855000  0.44443000  1.0
  C  C59  1  0.73610000  0.19144000  0.55557000  1.0
  C  C60  1  0.39339000  0.87123000  0.40102000  1.0
  C  C61  1  0.60660000  0.12877000  0.59898000  1.0
  C  C62  1  0.40380000  0.98147000  0.41603000  1.0
  C  C63  1  0.59619000  0.01853000  0.58397000  1.0
  C  C64  1  0.25066000  0.69310000  0.42281000  1.0
  C  C65  1  0.74934000  0.30690000  0.57718000  1.0
  C  C66  1  0.97856000  0.56407000  0.73097000  1.0
  C  C67  1  0.02144000  0.43593000  0.26903000  1.0
  C  C68  1  0.92689000  0.56267000  0.85243000  1.0
  C  C69  1  0.07312000  0.43733000  0.14757000  1.0
  C  C70  1  0.79034000  0.51573000  0.92769000  1.0
  C  C71  1  0.20967000  0.48427000  0.07231000  1.0
  C  C72  1  0.71020000  0.47786000  0.87291000  1.0
  C  C73  1  0.28981000  0.52214000  0.12709000  1.0
  C  C74  1  0.76856000  0.48622000  0.74902000  1.0
  C  C75  1  0.23144000  0.51377000  0.25099000  1.0
  C  C76  1  0.73273000  0.50631000  0.05958000  1.0
  C  C77  1  0.26728000  0.49369000  0.94043000  1.0
  C  C78  1  0.62797000  0.41357000  0.15328000  1.0
  C  C79  1  0.37204000  0.58643000  0.84672000  1.0
  C  C80  1  0.57317000  0.41102000  0.27512000  1.0
  C  C81  1  0.42684000  0.58898000  0.72488000  1.0
  C  C82  1  0.71623000  0.58215000  0.21900000  1.0
  C  C83  1  0.28377000  0.41785000  0.78100000  1.0
  C  C84  1  0.77874000  0.59062000  0.09546000  1.0
  C  C85  1  0.22127000  0.40939000  0.90454000  1.0
  C  C86  1  0.51148000  0.79436000  0.04907000  1.0
  C  C87  1  0.48852000  0.20564000  0.95094000  1.0
  C  C88  1  0.58396000  0.87558000  0.06855000  1.0
  C  C89  1  0.41604000  0.12443000  0.93145000  1.0
  C  C90  1  0.70955000  0.93699000  0.97607000  1.0
  C  C91  1  0.29045000  0.06300000  0.02393000  1.0
  C  C92  1  0.75558000  0.91044000  0.86782000  1.0
  C  C93  1  0.24442000  0.08955000  0.13218000  1.0
  C  C94  1  0.67598000  0.82713000  0.85730000  1.0
  C  C95  1  0.32402000  0.17287000  0.14271000  1.0
  C  C96  1  0.78689000  0.02688000  0.99184000  1.0
  C  C97  1  0.21311000  0.97312000  0.00815000  1.0
  C  C98  1  0.77918000  0.01410000  0.11474000  1.0
  C  C99  1  0.22082000  0.98591000  0.88526000  1.0
  C  C100  1  0.85140000  0.10303000  0.12455000  1.0
  C  C101  1  0.14860000  0.89697000  0.87545000  1.0
  C  C102  1  0.93827000  0.21376000  0.90492000  1.0
  C  C103  1  0.06173000  0.78624000  0.09507000  1.0
  C  C104  1  0.86920000  0.13041000  0.88492000  1.0
  C  C105  1  0.13080000  0.86959000  0.11507000  1.0
  N  N106  1  0.90155000  0.52678000  0.67928000  1.0
  N  N107  1  0.09845000  0.47322000  0.32072000  1.0
  N  N108  1  0.61481000  0.49414000  0.30859000  1.0
  N  N109  1  0.38519000  0.50586000  0.69141000  1.0
  N  N110  1  0.55481000  0.76946000  0.94519000  1.0
  N  N111  1  0.44519000  0.23053000  0.05482000  1.0
  N  N112  1  0.93071000  0.20209000  0.02233000  1.0
  N  N113  1  0.06929000  0.79791000  0.97766000  1.0
  O  O114  1  0.14669000  0.38951000  0.59137000  1.0
  O  O115  1  0.85332000  0.61050000  0.40862000  1.0
  O  O116  1  0.37159000  0.33787000  0.54865000  1.0
  O  O117  1  0.62842000  0.66212000  0.45135000  1.0
  O  O118  1  0.12997000  0.66882000  0.42455000  1.0
  O  O119  1  0.87003000  0.33118000  0.57545000  1.0
  O  O120  1  0.35816000  0.63043000  0.40078000  1.0
  O  O121  1  0.64184000  0.36957000  0.59922000  1.0
