# generated using pymatgen
data_Co3P2H7C3NO10
_symmetry_space_group_name_H-M   'P 1'
_cell_length_a   7.84491000
_cell_length_b   12.45160000
_cell_length_c   16.06870391
_cell_angle_alpha   67.26154049
_cell_angle_beta   86.30928297
_cell_angle_gamma   89.99230000
_symmetry_Int_Tables_number   1
_chemical_formula_structural   Co3P2H7C3NO10
_chemical_formula_sum   'Co12 P8 H28 C12 N4 O40'
_cell_volume   1444.10091446
_cell_formula_units_Z   4
loop_
 _symmetry_equiv_pos_site_id
 _symmetry_equiv_pos_as_xyz
  1  'x, y, z'
loop_
 _atom_site_type_symbol
 _atom_site_label
 _atom_site_symmetry_multiplicity
 _atom_site_fract_x
 _atom_site_fract_y
 _atom_site_fract_z
 _atom_site_occupancy
  Co  Co0  1  0.93015000  0.11831000  0.50412000  1.0
  Co  Co1  1  0.54924000  0.11483000  0.50967000  1.0
  Co  Co2  1  0.85622000  0.01879000  0.73235000  1.0
  Co  Co3  1  0.56988000  0.62241000  0.49585000  1.0
  Co  Co4  1  0.95080000  0.62446000  0.49033000  1.0
  Co  Co5  1  0.64395000  0.75074000  0.26754000  1.0
  Co  Co6  1  0.06986000  0.88170000  0.49588000  1.0
  Co  Co7  1  0.45076000  0.88516000  0.49033000  1.0
  Co  Co8  1  0.14378000  0.98121000  0.26765000  1.0
  Co  Co9  1  0.43011000  0.37758000  0.50415000  1.0
  Co  Co10  1  0.04920000  0.37554000  0.50967000  1.0
  Co  Co11  1  0.35606000  0.24926000  0.73246000  1.0
  P  P12  1  0.72658000  0.87708000  0.62717000  1.0
  P  P13  1  0.21176000  0.13355000  0.63529000  1.0
  P  P14  1  0.77331000  0.50398000  0.37285000  1.0
  P  P15  1  0.28821000  0.76853000  0.36469000  1.0
  P  P16  1  0.27343000  0.12291000  0.37283000  1.0
  P  P17  1  0.78823000  0.86645000  0.36471000  1.0
  P  P18  1  0.22669000  0.49601000  0.62715000  1.0
  P  P19  1  0.71180000  0.23146000  0.63531000  1.0
  H  H20  1  0.62622000  0.72728000  0.60873000  1.0
  H  H21  1  0.07980000  0.90138000  0.82857000  1.0
  H  H22  1  0.00201000  0.86760000  0.97450000  1.0
  H  H23  1  0.68532000  0.79813000  0.90329000  1.0
  H  H24  1  0.86704000  0.71267000  0.93704000  1.0
  H  H25  1  0.86403000  0.05988000  0.93582000  1.0
  H  H26  1  0.68185000  0.00614000  0.90476000  1.0
  H  H27  1  0.87366000  0.33578000  0.39131000  1.0
  H  H28  1  0.42024000  0.73039000  0.17100000  1.0
  H  H29  1  0.49816000  0.84236000  0.02523000  1.0
  H  H30  1  0.81479000  0.70143000  0.09599000  1.0
  H  H31  1  0.63292000  0.65021000  0.06193000  1.0
  H  H32  1  0.63624000  0.99561000  0.06431000  1.0
  H  H33  1  0.81840000  0.91078000  0.09520000  1.0
  H  H34  1  0.37379000  0.27271000  0.39128000  1.0
  H  H35  1  0.92021000  0.09865000  0.17143000  1.0
  H  H36  1  0.99799000  0.13240000  0.02551000  1.0
  H  H37  1  0.31469000  0.20187000  0.09671000  1.0
  H  H38  1  0.13296000  0.28734000  0.06296000  1.0
  H  H39  1  0.13596000  0.94013000  0.06418000  1.0
  H  H40  1  0.31815000  0.99386000  0.09524000  1.0
  H  H41  1  0.12634000  0.66422000  0.60868000  1.0
  H  H42  1  0.57976000  0.26963000  0.82899000  1.0
  H  H43  1  0.50183000  0.15765000  0.97476000  1.0
  H  H44  1  0.18520000  0.29857000  0.90401000  1.0
  H  H45  1  0.36708000  0.34980000  0.93806000  1.0
  H  H46  1  0.36375000  0.00440000  0.93568000  1.0
  H  H47  1  0.18159000  0.08923000  0.90480000  1.0
  C  C48  1  0.89512000  0.89049000  0.92950000  1.0
  C  C49  1  0.78745000  0.77761000  0.95061000  1.0
  C  C50  1  0.78635000  0.98023000  0.95078000  1.0
  C  C51  1  0.60513000  0.82013000  0.07017000  1.0
  C  C52  1  0.71270000  0.72849000  0.04868000  1.0
  C  C53  1  0.71390000  0.93100000  0.04916000  1.0
  C  C54  1  0.10488000  0.10951000  0.07051000  1.0
  C  C55  1  0.21255000  0.22240000  0.04939000  1.0
  C  C56  1  0.21365000  0.01978000  0.04921000  1.0
  C  C57  1  0.39486000  0.17988000  0.92983000  1.0
  C  C58  1  0.28730000  0.27151000  0.95132000  1.0
  C  C59  1  0.28609000  0.06901000  0.95083000  1.0
  N  N60  1  0.96468000  0.93601000  0.83677000  1.0
  N  N61  1  0.53570000  0.77272000  0.16294000  1.0
  N  N62  1  0.03532000  0.06399000  0.16324000  1.0
  N  N63  1  0.46430000  0.22729000  0.83706000  1.0
  O  O64  1  0.57005000  0.93714000  0.57155000  1.0
  O  O65  1  0.89276000  0.93113000  0.56579000  1.0
  O  O66  1  0.72793000  0.89875000  0.71432000  1.0
  O  O67  1  0.70776000  0.74416000  0.65176000  1.0
  O  O68  1  0.03184000  0.08054000  0.63277000  1.0
  O  O69  1  0.20179000  0.27069000  0.59067000  1.0
  O  O70  1  0.34254000  0.08229000  0.58912000  1.0
  O  O71  1  0.25113000  0.10973000  0.73459000  1.0
  O  O72  1  0.74175000  0.13108000  0.44257000  1.0
  O  O73  1  0.98810000  0.27325000  0.46173000  1.0
  O  O74  1  0.92993000  0.50853000  0.42843000  1.0
  O  O75  1  0.60718000  0.49686000  0.43424000  1.0
  O  O76  1  0.77198000  0.61257000  0.28568000  1.0
  O  O77  1  0.79198000  0.39554000  0.34831000  1.0
  O  O78  1  0.46826000  0.71316000  0.36712000  1.0
  O  O79  1  0.29816000  0.86113000  0.40935000  1.0
  O  O80  1  0.15759000  0.67117000  0.41088000  1.0
  O  O81  1  0.24866000  0.84383000  0.26542000  1.0
  O  O82  1  0.75826000  0.57378000  0.55745000  1.0
  O  O83  1  0.51181000  0.73504000  0.53826000  1.0
  O  O84  1  0.42995000  0.06285000  0.42845000  1.0
  O  O85  1  0.10725000  0.06887000  0.43421000  1.0
  O  O86  1  0.27209000  0.10124000  0.28568000  1.0
  O  O87  1  0.29225000  0.25583000  0.34824000  1.0
  O  O88  1  0.96815000  0.91946000  0.36723000  1.0
  O  O89  1  0.79820000  0.72931000  0.40933000  1.0
  O  O90  1  0.65746000  0.91771000  0.41088000  1.0
  O  O91  1  0.74885000  0.89027000  0.26541000  1.0
  O  O92  1  0.25826000  0.86892000  0.55743000  1.0
  O  O93  1  0.01191000  0.72674000  0.53827000  1.0
  O  O94  1  0.07007000  0.49146000  0.57157000  1.0
  O  O95  1  0.39282000  0.50314000  0.56576000  1.0
  O  O96  1  0.22802000  0.38743000  0.71432000  1.0
  O  O97  1  0.20802000  0.60445000  0.65169000  1.0
  O  O98  1  0.53175000  0.28684000  0.63288000  1.0
  O  O99  1  0.70186000  0.13886000  0.59065000  1.0
  O  O100  1  0.84241000  0.32883000  0.58912000  1.0
  O  O101  1  0.75135000  0.15618000  0.73458000  1.0
  O  O102  1  0.24173000  0.42621000  0.44256000  1.0
  O  O103  1  0.48818000  0.26496000  0.46174000  1.0
