# generated using pymatgen
data_MnH24C22N5O4
_symmetry_space_group_name_H-M   'P 1'
_cell_length_a   9.94243000
_cell_length_b   10.44530000
_cell_length_c   10.93320000
_cell_angle_alpha   96.80000000
_cell_angle_beta   103.43000000
_cell_angle_gamma   99.41110000
_symmetry_Int_Tables_number   1
_chemical_formula_structural   MnH24C22N5O4
_chemical_formula_sum   'Mn2 H48 C44 N10 O8'
_cell_volume   1074.95143508
_cell_formula_units_Z   2
loop_
 _symmetry_equiv_pos_site_id
 _symmetry_equiv_pos_as_xyz
  1  'x, y, z'
loop_
 _atom_site_type_symbol
 _atom_site_label
 _atom_site_symmetry_multiplicity
 _atom_site_fract_x
 _atom_site_fract_y
 _atom_site_fract_z
 _atom_site_occupancy
  Mn  Mn0  1  0.50005000  0.99999000  0.50007000  1.0
  Mn  Mn1  1  0.49999000  0.99999000  0.00001000  1.0
  H  H2  1  0.51877000  0.29805000  0.36638000  1.0
  H  H3  1  0.48123000  0.70194000  0.63362000  1.0
  H  H4  1  0.58294000  0.43930000  0.30145000  1.0
  H  H5  1  0.41706000  0.56070000  0.69855000  1.0
  H  H6  1  0.65801000  0.18146000  0.26809000  1.0
  H  H7  1  0.34199000  0.81855000  0.73191000  1.0
  H  H8  1  0.29039000  0.05700000  0.67161000  1.0
  H  H9  1  0.70960000  0.94300000  0.32840000  1.0
  H  H10  1  0.07461000  0.94797000  0.74546000  1.0
  H  H11  1  0.92539000  0.05203000  0.25454000  1.0
  H  H12  1  0.14798000  0.31181000  0.10546000  1.0
  H  H13  1  0.85202000  0.68818000  0.89454000  1.0
  H  H14  1  0.25610000  0.32974000  0.70853000  1.0
  H  H15  1  0.74390000  0.67026000  0.29147000  1.0
  H  H16  1  0.35615000  0.24990000  0.82384000  1.0
  H  H17  1  0.64386000  0.75011000  0.17616000  1.0
  H  H18  1  0.90332000  0.22852000  0.46977000  1.0
  H  H19  1  0.09668000  0.77148000  0.53023000  1.0
  H  H20  1  0.70589000  0.48184000  0.77621000  1.0
  H  H21  1  0.29411000  0.51816000  0.22380000  1.0
  H  H22  1  0.17310000  0.04137000  0.44866000  1.0
  H  H23  1  0.82690000  0.95863000  0.55134000  1.0
  H  H24  1  0.08784000  0.12744000  0.54689000  1.0
  H  H25  1  0.91217000  0.87256000  0.45311000  1.0
  H  H26  1  0.28815000  0.25354000  0.39703000  1.0
  H  H27  1  0.71186000  0.74646000  0.60297000  1.0
  H  H28  1  0.20403000  0.34427000  0.49428000  1.0
  H  H29  1  0.79597000  0.65574000  0.50572000  1.0
  H  H30  1  0.10322000  0.23600000  0.35492000  1.0
  H  H31  1  0.89679000  0.76400000  0.64508000  1.0
  H  H32  1  0.95106000  0.56182000  0.76178000  1.0
  H  H33  1  0.04894000  0.43818000  0.23822000  1.0
  H  H34  1  0.04717000  0.43680000  0.60370000  1.0
  H  H35  1  0.95283000  0.56320000  0.39630000  1.0
  H  H36  1  0.87790000  0.05925000  0.76787000  1.0
  H  H37  1  0.12210000  0.94075000  0.23213000  1.0
  H  H38  1  0.80732000  0.38124000  0.24132000  1.0
  H  H39  1  0.19268000  0.61876000  0.75868000  1.0
  H  H40  1  0.77845000  0.25229000  0.11239000  1.0
  H  H41  1  0.22155000  0.74771000  0.88761000  1.0
  H  H42  1  0.61526000  0.48057000  0.10034000  1.0
  H  H43  1  0.38474000  0.51943000  0.89966000  1.0
  H  H44  1  0.61059000  0.35635000  0.97237000  1.0
  H  H45  1  0.38941000  0.64365000  0.02763000  1.0
  H  H46  1  0.76664000  0.47561000  0.04219000  1.0
  H  H47  1  0.23336000  0.52439000  0.95781000  1.0
  H  H48  1  0.91236000  0.24217000  0.94827000  1.0
  H  H49  1  0.08764000  0.75783000  0.05173000  1.0
  C  C50  1  0.53524000  0.33444000  0.27988000  1.0
  C  C51  1  0.46476000  0.66556000  0.72012000  1.0
  C  C52  1  0.61213000  0.24805000  0.20749000  1.0
  C  C53  1  0.38787000  0.75195000  0.79251000  1.0
  C  C54  1  0.30768000  0.14469000  0.62679000  1.0
  C  C55  1  0.69233000  0.85531000  0.37322000  1.0
  C  C56  1  0.08946000  0.02850000  0.82344000  1.0
  C  C57  1  0.91054000  0.97149000  0.17656000  1.0
  C  C58  1  0.38023000  0.21678000  0.10176000  1.0
  C  C59  1  0.61977000  0.78322000  0.89824000  1.0
  C  C60  1  0.22352000  0.06601000  0.91076000  1.0
  C  C61  1  0.77649000  0.93399000  0.08924000  1.0
  C  C62  1  0.13015000  0.23284000  0.02553000  1.0
  C  C63  1  0.86985000  0.76715000  0.97447000  1.0
  C  C64  1  0.24353000  0.17109000  0.01324000  1.0
  C  C65  1  0.75647000  0.82890000  0.98676000  1.0
  C  C66  1  0.33761000  0.27008000  0.72586000  1.0
  C  C67  1  0.66239000  0.72992000  0.27414000  1.0
  C  C68  1  0.52576000  0.26519000  0.64361000  1.0
  C  C69  1  0.47424000  0.73482000  0.35640000  1.0
  C  C70  1  0.72465000  0.23389000  0.54810000  1.0
  C  C71  1  0.27536000  0.76611000  0.45191000  1.0
  C  C72  1  0.66756000  0.30954000  0.63413000  1.0
  C  C73  1  0.33245000  0.69046000  0.36588000  1.0
  C  C74  1  0.86167000  0.28480000  0.53764000  1.0
  C  C75  1  0.13833000  0.71520000  0.46236000  1.0
  C  C76  1  0.75105000  0.42694000  0.71034000  1.0
  C  C77  1  0.24895000  0.57306000  0.28966000  1.0
  C  C78  1  0.18318000  0.13484000  0.51101000  1.0
  C  C79  1  0.81683000  0.86517000  0.48899000  1.0
  C  C80  1  0.19573000  0.24850000  0.43620000  1.0
  C  C81  1  0.80428000  0.75150000  0.56381000  1.0
  C  C82  1  0.88714000  0.47169000  0.70165000  1.0
  C  C83  1  0.11286000  0.52831000  0.29835000  1.0
  C  C84  1  0.94137000  0.40069000  0.61347000  1.0
  C  C85  1  0.05863000  0.59931000  0.38653000  1.0
  C  C86  1  0.98013000  0.09148000  0.83684000  1.0
  C  C87  1  0.01987000  0.90851000  0.16316000  1.0
  C  C88  1  0.72734000  0.32405000  0.15685000  1.0
  C  C89  1  0.27266000  0.67596000  0.84315000  1.0
  C  C90  1  0.67667000  0.41402000  0.06305000  1.0
  C  C91  1  0.32333000  0.58598000  0.93695000  1.0
  C  C92  1  0.99961000  0.19437000  0.93843000  1.0
  C  C93  1  0.00039000  0.80563000  0.06157000  1.0
  N  N94  1  0.49394000  0.16828000  0.10373000  1.0
  N  N95  1  0.50606000  0.83172000  0.89627000  1.0
  N  N96  1  0.44401000  0.15095000  0.59213000  1.0
  N  N97  1  0.55600000  0.84904000  0.40790000  1.0
  N  N98  1  0.36369000  0.02221000  0.31407000  1.0
  N  N99  1  0.63622000  0.97782000  0.68584000  1.0
  N  N100  1  0.37346000  0.95599000  0.22093000  1.0
  N  N101  1  0.62652000  0.04402000  0.77903000  1.0
  N  N102  1  0.37898000  0.89297000  0.12607000  1.0
  N  N103  1  0.62105000  0.10701000  0.87392000  1.0
  O  O104  1  0.32471000  0.00457000  0.89066000  1.0
  O  O105  1  0.67529000  0.99544000  0.10934000  1.0
  O  O106  1  0.46912000  0.34752000  0.71394000  1.0
  O  O107  1  0.53087000  0.65249000  0.28605000  1.0
  O  O108  1  0.39540000  0.32082000  0.19271000  1.0
  O  O109  1  0.60460000  0.67918000  0.80728000  1.0
  O  O110  1  0.65521000  0.12084000  0.47613000  1.0
  O  O111  1  0.34479000  0.87915000  0.52388000  1.0
