# generated using pymatgen
data_CuPH5C5BrNO4
_symmetry_space_group_name_H-M   'P 1'
_cell_length_a   6.90859000
_cell_length_b   7.00137000
_cell_length_c   18.33470000
_cell_angle_alpha   87.20730000
_cell_angle_beta   89.99870000
_cell_angle_gamma   89.99700000
_symmetry_Int_Tables_number   1
_chemical_formula_structural   CuPH5C5BrNO4
_chemical_formula_sum   'Cu4 P4 H20 C20 Br4 N4 O16'
_cell_volume   885.78875267
_cell_formula_units_Z   4
loop_
 _symmetry_equiv_pos_site_id
 _symmetry_equiv_pos_as_xyz
  1  'x, y, z'
loop_
 _atom_site_type_symbol
 _atom_site_label
 _atom_site_symmetry_multiplicity
 _atom_site_fract_x
 _atom_site_fract_y
 _atom_site_fract_z
 _atom_site_occupancy
  Cu  Cu0  1  0.99998000  0.99984000  0.00003000  1.0
  Cu  Cu1  1  0.50004000  0.99983000  0.50003000  1.0
  Cu  Cu2  1  0.99999000  0.49986000  0.99998000  1.0
  Cu  Cu3  1  0.50002000  0.49984000  0.49997000  1.0
  P  P4  1  0.29609000  0.23658000  0.07187000  1.0
  P  P5  1  0.79615000  0.76321000  0.42814000  1.0
  P  P6  1  0.70386000  0.76325000  0.92814000  1.0
  P  P7  1  0.20391000  0.23659000  0.57187000  1.0
  H  H8  1  0.63202000  0.24267000  0.08304000  1.0
  H  H9  1  0.13208000  0.75714000  0.41697000  1.0
  H  H10  1  0.36794000  0.75718000  0.91697000  1.0
  H  H11  1  0.86798000  0.24266000  0.58304000  1.0
  H  H12  1  0.38128000  0.18835000  0.23184000  1.0
  H  H13  1  0.88143000  0.81193000  0.26820000  1.0
  H  H14  1  0.61860000  0.81191000  0.76820000  1.0
  H  H15  1  0.11867000  0.18826000  0.73182000  1.0
  H  H16  1  0.16967000  0.20535000  0.34185000  1.0
  H  H17  1  0.66984000  0.79526000  0.15816000  1.0
  H  H18  1  0.83019000  0.79521000  0.65817000  1.0
  H  H19  1  0.33024000  0.20524000  0.84184000  1.0
  H  H20  1  0.81476000  0.27762000  0.32328000  1.0
  H  H21  1  0.31498000  0.72277000  0.17669000  1.0
  H  H22  1  0.18508000  0.72278000  0.67669000  1.0
  H  H23  1  0.68513000  0.27758000  0.82329000  1.0
  H  H24  1  0.68709000  0.30615000  0.19436000  1.0
  H  H25  1  0.18723000  0.69381000  0.30560000  1.0
  H  H26  1  0.31281000  0.69385000  0.80560000  1.0
  H  H27  1  0.81287000  0.30613000  0.69438000  1.0
  C  C28  1  0.14987000  0.22950000  0.15562000  1.0
  C  C29  1  0.64998000  0.77054000  0.34438000  1.0
  C  C30  1  0.85004000  0.77055000  0.84439000  1.0
  C  C31  1  0.35011000  0.22945000  0.65562000  1.0
  C  C32  1  0.22634000  0.21146000  0.22597000  1.0
  C  C33  1  0.72647000  0.78876000  0.27405000  1.0
  C  C34  1  0.77355000  0.78875000  0.77405000  1.0
  C  C35  1  0.27362000  0.21140000  0.72596000  1.0
  C  C36  1  0.10832000  0.22253000  0.28725000  1.0
  C  C37  1  0.60847000  0.77793000  0.21275000  1.0
  C  C38  1  0.89158000  0.77790000  0.71276000  1.0
  C  C39  1  0.39163000  0.22245000  0.78725000  1.0
  C  C40  1  0.91233000  0.26176000  0.27714000  1.0
  C  C41  1  0.41248000  0.73856000  0.22283000  1.0
  C  C42  1  0.08756000  0.73855000  0.72284000  1.0
  C  C43  1  0.58761000  0.26172000  0.77715000  1.0
  C  C44  1  0.83794000  0.27777000  0.20719000  1.0
  C  C45  1  0.33807000  0.72231000  0.29278000  1.0
  C  C46  1  0.16197000  0.72234000  0.79278000  1.0
  C  C47  1  0.66201000  0.27773000  0.70720000  1.0
  Br  Br48  1  0.00242000  0.25950000  0.90220000  1.0
  Br  Br49  1  0.50252000  0.74008000  0.59781000  1.0
  Br  Br50  1  0.99753000  0.74009000  0.09781000  1.0
  Br  Br51  1  0.49755000  0.25949000  0.40220000  1.0
  N  N52  1  0.95349000  0.25350000  0.14821000  1.0
  N  N53  1  0.45359000  0.74645000  0.35178000  1.0
  N  N54  1  0.04643000  0.74647000  0.85178000  1.0
  N  N55  1  0.54650000  0.25347000  0.64821000  1.0
  O  O56  1  0.25990000  0.42874000  0.03160000  1.0
  O  O57  1  0.75990000  0.57097000  0.46834000  1.0
  O  O58  1  0.74009000  0.57100000  0.96834000  1.0
  O  O59  1  0.24011000  0.42875000  0.53160000  1.0
  O  O60  1  0.50180000  0.22896000  0.10814000  1.0
  O  O61  1  0.00186000  0.77084000  0.39188000  1.0
  O  O62  1  0.49815000  0.77093000  0.89188000  1.0
  O  O63  1  0.99821000  0.22897000  0.60814000  1.0
  O  O64  1  0.26024000  0.05771000  0.02985000  1.0
  O  O65  1  0.76032000  0.94198000  0.47022000  1.0
  O  O66  1  0.73970000  0.94201000  0.97023000  1.0
  O  O67  1  0.23978000  0.05772000  0.52984000  1.0
  O  O68  1  0.87530000  0.25592000  0.08172000  1.0
  O  O69  1  0.37536000  0.74386000  0.41827000  1.0
  O  O70  1  0.12465000  0.74387000  0.91827000  1.0
  O  O71  1  0.62472000  0.25588000  0.58173000  1.0
