# generated using pymatgen
data_Zn4H28C63N16O5
_symmetry_space_group_name_H-M   'P 1'
_cell_length_a   18.51590000
_cell_length_b   19.50760000
_cell_length_c   20.52850000
_cell_angle_alpha   105.19700000
_cell_angle_beta   111.09500000
_cell_angle_gamma   108.88800000
_symmetry_Int_Tables_number   1
_chemical_formula_structural   Zn4H28C63N16O5
_chemical_formula_sum   'Zn4 H28 C63 N16 O5'
_cell_volume   5912.73740266
_cell_formula_units_Z   1
loop_
 _symmetry_equiv_pos_site_id
 _symmetry_equiv_pos_as_xyz
  1  'x, y, z'
loop_
 _atom_site_type_symbol
 _atom_site_label
 _atom_site_symmetry_multiplicity
 _atom_site_fract_x
 _atom_site_fract_y
 _atom_site_fract_z
 _atom_site_occupancy
  Zn  Zn0  1  0.89317000  0.90776000  0.50979000  1.0
  Zn  Zn1  1  0.11818000  0.11263000  0.50461000  1.0
  Zn  Zn2  1  0.11654000  0.01953000  0.61768000  1.0
  Zn  Zn3  1  0.89439000  0.99072000  0.39445000  1.0
  H  H4  1  0.87111000  0.89151000  0.65714000  1.0
  H  H5  1  0.11664000  0.61227000  0.68064000  1.0
  H  H6  1  0.84144000  0.49807000  0.51817000  1.0
  H  H7  1  0.12191000  0.25290000  0.62946000  1.0
  H  H8  1  0.45571000  0.52667000  0.12693000  1.0
  H  H9  1  0.91767000  0.84512000  0.88500000  1.0
  H  H10  1  0.18628000  0.04280000  0.13363000  1.0
  H  H11  1  0.18234000  0.03533000  0.01001000  1.0
  H  H12  1  0.22982000  0.18248000  0.78054000  1.0
  H  H13  1  0.67057000  0.95651000  0.32069000  1.0
  H  H14  1  0.28327000  0.29553000  0.63654000  1.0
  H  H15  1  0.17008000  0.00927000  0.39035000  1.0
  H  H16  1  0.73330000  0.92541000  0.53246000  1.0
  H  H17  1  0.84187000  0.11069000  0.48070000  1.0
  H  H18  1  0.13641000  0.08253000  0.77916000  1.0
  H  H19  1  0.71661000  0.73226000  0.36857000  1.0
  H  H20  1  0.75064000  0.36942000  0.47757000  1.0
  H  H21  1  0.35149000  0.39696000  0.06595000  1.0
  H  H22  1  0.37340000  0.50143000  0.82583000  1.0
  H  H23  1  0.50501000  0.67432000  0.95294000  1.0
  H  H24  1  0.84843000  0.78973000  0.94165000  1.0
  H  H25  1  0.14267000  0.86741000  0.67899000  1.0
  H  H26  1  0.89914000  0.93675000  0.23462000  1.0
  H  H27  1  0.15753000  0.13948000  0.36810000  1.0
  H  H28  1  0.88953000  0.74040000  0.47168000  1.0
  H  H29  1  0.79892000  0.84493000  0.23482000  1.0
  H  H30  1  0.17967000  0.89582000  0.54685000  1.0
  H  H31  1  0.10170000  0.48337000  0.68625000  1.0
  C  C32  1  0.93396000  0.93973000  0.67477000  1.0
  C  C33  1  0.95256000  0.78395000  0.52188000  1.0
  C  C34  1  0.79344000  0.82803000  0.27981000  1.0
  C  C35  1  0.05577000  0.20666000  0.58737000  1.0
  C  C36  1  0.17106000  0.93090000  0.51422000  1.0
  C  C37  1  0.72227000  0.76494000  0.27228000  1.0
  C  C38  1  0.19428000  0.93600000  0.45653000  1.0
  C  C39  1  0.01145000  0.77141000  0.57800000  1.0
  C  C40  1  0.03473000  0.02770000  0.27358000  1.0
  C  C41  1  0.58079000  0.91864000  0.41141000  1.0
  C  C42  1  0.50902000  0.90564000  0.40665000  1.0
  C  C43  1  0.97696000  0.21096000  0.56917000  1.0
  C  C44  1  0.43350000  0.89583000  0.40558000  1.0
  C  C45  1  0.36703000  0.89146000  0.40929000  1.0
  C  C46  1  0.30048000  0.89549000  0.41901000  1.0
  C  C47  1  0.23509000  0.19567000  0.73382000  1.0
  C  C48  1  0.24559000  0.90715000  0.43395000  1.0
  C  C49  1  0.05309000  0.55900000  0.64645000  1.0
  C  C50  1  0.98047000  0.56456000  0.59766000  1.0
  C  C51  1  0.89897000  0.49529000  0.55529000  1.0
  C  C52  1  0.88947000  0.42219000  0.55795000  1.0
  C  C53  1  0.96376000  0.41614000  0.60423000  1.0
  C  C54  1  0.27401000  0.27213000  0.73603000  1.0
  C  C55  1  0.04468000  0.48693000  0.64965000  1.0
  C  C56  1  0.99038000  0.63688000  0.59098000  1.0
  C  C57  1  0.96148000  0.34248000  0.60125000  1.0
  C  C58  1  0.96837000  0.28088000  0.59222000  1.0
  C  C59  1  0.70014000  0.95062000  0.37379000  1.0
  C  C60  1  0.00073000  0.69934000  0.58443000  1.0
  C  C61  1  0.38625000  0.46345000  0.00309000  1.0
  C  C62  1  0.37683000  0.46762000  0.93230000  1.0
  C  C63  1  0.42012000  0.54326000  0.93530000  1.0
  C  C64  1  0.47987000  0.61134000  0.00591000  1.0
  C  C65  1  0.66399000  0.93360000  0.42123000  1.0
  C  C66  1  0.49800000  0.60460000  0.07638000  1.0
  C  C67  1  0.44592000  0.53131000  0.07288000  1.0
  C  C68  1  0.33359000  0.40011000  0.86089000  1.0
  C  C69  1  0.57161000  0.66588000  0.14660000  1.0
  C  C70  1  0.64149000  0.71141000  0.20549000  1.0
  C  C71  1  0.26348000  0.25457000  0.66105000  1.0
  C  C72  1  0.30883000  0.34518000  0.79954000  1.0
  C  C73  1  0.97792000  0.89252000  0.00882000  1.0
  C  C74  1  0.05213000  0.95301000  0.08068000  1.0
  C  C75  1  0.12718000  0.99990000  0.07898000  1.0
  C  C76  1  0.75094000  0.76997000  0.34792000  1.0
  C  C77  1  0.12496000  0.99582000  0.00980000  1.0
  C  C78  1  0.04710000  0.94418000  0.93851000  1.0
  C  C79  1  0.97660000  0.88927000  0.93957000  1.0
  C  C80  1  0.04994000  0.97294000  0.15081000  1.0
  C  C81  1  0.03761000  0.95249000  0.86999000  1.0
  C  C82  1  0.02483000  0.96696000  0.81358000  1.0
  C  C83  1  0.73241000  0.93483000  0.48239000  1.0
  C  C84  1  0.04748000  0.00178000  0.21005000  1.0
  C  C85  1  0.91218000  0.13375000  0.51091000  1.0
  C  C86  1  0.06957000  0.03766000  0.73689000  1.0
  C  C87  1  0.16589000  0.98904000  0.43390000  1.0
  C  C88  1  0.01030000  0.98135000  0.74764000  1.0
  C  C89  1  0.80108000  0.35333000  0.50950000  1.0
  C  C90  1  0.33813000  0.38912000  0.00605000  1.0
  C  C91  1  0.89896000  0.83377000  0.00277000  1.0
  C  C92  1  0.08228000  0.84908000  0.62789000  1.0
  C  C93  1  0.95940000  0.99004000  0.27893000  1.0
  C  C94  1  0.09158000  0.09385000  0.34654000  1.0
  N  N95  1  0.94839000  0.96831000  0.62545000  1.0
  N  N96  1  0.20329000  0.13819000  0.66354000  1.0
  N  N97  1  0.78205000  0.96031000  0.40439000  1.0
  N  N98  1  0.22062000  0.17468000  0.61773000  1.0
  N  N99  1  0.80217000  0.95075000  0.47147000  1.0
  N  N100  1  0.95070000  0.08875000  0.49472000  1.0
  N  N101  1  0.03277000  0.02871000  0.66308000  1.0
  N  N102  1  0.83156000  0.83139000  0.39555000  1.0
  N  N103  1  0.13093000  0.01415000  0.47624000  1.0
  N  N104  1  0.06537000  0.90230000  0.60352000  1.0
  N  N105  1  0.97104000  0.02972000  0.34906000  1.0
  N  N106  1  0.05383000  0.09480000  0.39170000  1.0
  N  N107  1  0.98558000  0.86247000  0.53796000  1.0
  N  N108  1  0.85858000  0.86856000  0.35417000  1.0
  N  N109  1  0.13424000  0.97893000  0.52561000  1.0
  N  N110  1  0.03888000  0.13355000  0.54167000  1.0
  O  O111  1  0.78062000  0.28442000  0.50237000  1.0
  O  O112  1  0.28715000  0.32332000  0.95066000  1.0
  O  O113  1  0.41157000  0.55423000  0.87026000  1.0
  O  O114  1  0.52419000  0.68236000  0.00665000  1.0
  O  O115  1  0.88614000  0.82981000  0.05650000  1.0
