# generated using pymatgen
data_Mn3H16C8(Cl3O2)2
_symmetry_space_group_name_H-M   'P 1'
_cell_length_a   9.04037796
_cell_length_b   9.04613000
_cell_length_c   12.25040000
_cell_angle_alpha   95.55460000
_cell_angle_beta   90.00009346
_cell_angle_gamma   60.02110490
_symmetry_Int_Tables_number   1
_chemical_formula_structural   Mn3H16C8(Cl3O2)2
_chemical_formula_sum   'Mn6 H32 C16 Cl12 O8'
_cell_volume   862.37095575
_cell_formula_units_Z   2
loop_
 _symmetry_equiv_pos_site_id
 _symmetry_equiv_pos_as_xyz
  1  'x, y, z'
loop_
 _atom_site_type_symbol
 _atom_site_label
 _atom_site_symmetry_multiplicity
 _atom_site_fract_x
 _atom_site_fract_y
 _atom_site_fract_z
 _atom_site_occupancy
  Mn  Mn0  1  0.91235000  0.00000000  0.75000000  1.0
  Mn  Mn1  1  0.08765000  0.00000000  0.25000000  1.0
  Mn  Mn2  1  0.79885000  0.19794000  0.49756000  1.0
  Mn  Mn3  1  0.99679000  0.80206000  0.00244000  1.0
  Mn  Mn4  1  0.20115000  0.80206000  0.50244000  1.0
  Mn  Mn5  1  0.00321000  0.19794000  0.99756000  1.0
  H  H6  1  0.45934000  0.41435000  0.26881000  1.0
  H  H7  1  0.87369000  0.58565000  0.23119000  1.0
  H  H8  1  0.54065000  0.58566000  0.73119000  1.0
  H  H9  1  0.12631000  0.41435000  0.76881000  1.0
  H  H10  1  0.54300000  0.50873000  0.37113000  1.0
  H  H11  1  0.05173000  0.49127000  0.12887000  1.0
  H  H12  1  0.45700000  0.49126000  0.62887000  1.0
  H  H13  1  0.94827000  0.50873000  0.87113000  1.0
  H  H14  1  0.19153000  0.44081000  0.30684000  1.0
  H  H15  1  0.63234000  0.55919000  0.19316000  1.0
  H  H16  1  0.80847000  0.55919000  0.69316000  1.0
  H  H17  1  0.36766000  0.44081000  0.80684000  1.0
  H  H18  1  0.08244000  0.54530000  0.43754000  1.0
  H  H19  1  0.62774000  0.45470000  0.06245000  1.0
  H  H20  1  0.91756000  0.45470000  0.56246000  1.0
  H  H21  1  0.37226000  0.54530000  0.93754000  1.0
  H  H22  1  0.30582000  0.30542000  0.53102000  1.0
  H  H23  1  0.61124000  0.69458000  0.96898000  1.0
  H  H24  1  0.69418000  0.69459000  0.46898000  1.0
  H  H25  1  0.38876000  0.30542000  0.03102000  1.0
  H  H26  1  0.23030000  0.21599000  0.42452000  1.0
  H  H27  1  0.44629000  0.78401000  0.07548000  1.0
  H  H28  1  0.76970000  0.78401000  0.57549000  1.0
  H  H29  1  0.55371000  0.21599000  0.92451000  1.0
  H  H30  1  0.55871000  0.06248000  0.42498000  1.0
  H  H31  1  0.62119000  0.93752000  0.07502000  1.0
  H  H32  1  0.44129000  0.93752000  0.57502000  1.0
  H  H33  1  0.37881000  0.06249000  0.92498000  1.0
  H  H34  1  0.47640000  0.14972000  0.29908000  1.0
  H  H35  1  0.62612000  0.85028000  0.20092000  1.0
  H  H36  1  0.52360000  0.85028000  0.70092000  1.0
  H  H37  1  0.37388000  0.14972000  0.79908000  1.0
  C  C38  1  0.47318000  0.43940000  0.35716000  1.0
  C  C39  1  0.91257000  0.56061000  0.14285000  1.0
  C  C40  1  0.52682000  0.56060000  0.64284000  1.0
  C  C41  1  0.08743000  0.43939000  0.85715000  1.0
  C  C42  1  0.20727000  0.45690000  0.39556000  1.0
  C  C43  1  0.66416000  0.54311000  0.10444000  1.0
  C  C44  1  0.79274000  0.54309000  0.60444000  1.0
  C  C45  1  0.33584000  0.45690000  0.89556000  1.0
  C  C46  1  0.29979000  0.28550000  0.44148000  1.0
  C  C47  1  0.58529000  0.71450000  0.05852000  1.0
  C  C48  1  0.70021000  0.71450000  0.55852000  1.0
  C  C49  1  0.41471000  0.28550000  0.94148000  1.0
  C  C50  1  0.47898000  0.18104000  0.38800000  1.0
  C  C51  1  0.66002000  0.81896000  0.11200000  1.0
  C  C52  1  0.52102000  0.81896000  0.61200000  1.0
  C  C53  1  0.33998000  0.18104000  0.88800000  1.0
  Cl  Cl54  1  0.06277000  0.09477000  0.61316000  1.0
  Cl  Cl55  1  0.15754000  0.90522000  0.88684000  1.0
  Cl  Cl56  1  0.93724000  0.90522000  0.38684000  1.0
  Cl  Cl57  1  0.84246000  0.09478000  0.11316000  1.0
  Cl  Cl58  1  0.78170000  0.87599000  0.86305000  1.0
  Cl  Cl59  1  0.65769000  0.12401000  0.63695000  1.0
  Cl  Cl60  1  0.21830000  0.12401000  0.13695000  1.0
  Cl  Cl61  1  0.34231000  0.87599000  0.36305000  1.0
  Cl  Cl62  1  0.08591000  0.70703000  0.64349000  1.0
  Cl  Cl63  1  0.79294000  0.29297000  0.85651000  1.0
  Cl  Cl64  1  0.91409000  0.29297000  0.35651000  1.0
  Cl  Cl65  1  0.20706000  0.70703000  0.14349000  1.0
  O  O66  1  0.56551000  0.28101000  0.40262000  1.0
  O  O67  1  0.84652000  0.71899000  0.09738000  1.0
  O  O68  1  0.43449000  0.71898000  0.59738000  1.0
  O  O69  1  0.15348000  0.28101000  0.90262000  1.0
  O  O70  1  0.30808000  0.54220000  0.41103000  1.0
  O  O71  1  0.85028000  0.45780000  0.08897000  1.0
  O  O72  1  0.69192000  0.45780000  0.58897000  1.0
  O  O73  1  0.14972000  0.54220000  0.91103000  1.0
