# generated using pymatgen
data_H16Au2C15(SCl)2
_symmetry_space_group_name_H-M   'P 1'
_cell_length_a   5.51216000
_cell_length_b   7.83309000
_cell_length_c   11.16378927
_cell_angle_alpha   71.96197200
_cell_angle_beta   75.72343435
_cell_angle_gamma   89.98940000
_symmetry_Int_Tables_number   1
_chemical_formula_structural   H16Au2C15(SCl)2
_chemical_formula_sum   'H16 Au2 C15 S2 Cl2'
_cell_volume   442.65584592
_cell_formula_units_Z   1
loop_
 _symmetry_equiv_pos_site_id
 _symmetry_equiv_pos_as_xyz
  1  'x, y, z'
loop_
 _atom_site_type_symbol
 _atom_site_label
 _atom_site_symmetry_multiplicity
 _atom_site_fract_x
 _atom_site_fract_y
 _atom_site_fract_z
 _atom_site_occupancy
  H  H0  1  0.47704000  0.56882000  0.24603000  1.0
  H  H1  1  0.72193000  0.43161000  0.75404000  1.0
  H  H2  1  0.61330000  0.56445000  0.44221000  1.0
  H  H3  1  0.05477000  0.43647000  0.55793000  1.0
  H  H4  1  0.39583000  0.73634000  0.58586000  1.0
  H  H5  1  0.98217000  0.26428000  0.41420000  1.0
  H  H6  1  0.04276000  0.91544000  0.53106000  1.0
  H  H7  1  0.57497000  0.08462000  0.46881000  1.0
  H  H8  1  0.92176000  0.93607000  0.32604000  1.0
  H  H9  1  0.24849000  0.06372000  0.67366000  1.0
  H  H10  1  0.50824000  0.71655000  0.01978000  1.0
  H  H11  1  0.52765000  0.28283000  0.98036000  1.0
  H  H12  1  0.33672000  0.84779000  0.91405000  1.0
  H  H13  1  0.25046000  0.15158000  0.08593000  1.0
  H  H14  1  0.70291000  0.02860000  0.91499000  1.0
  H  H15  1  0.61761000  0.97083000  0.08522000  1.0
  Au  Au16  1  0.94946000  0.49666000  0.14497000  1.0
  Au  Au17  1  0.09424000  0.50299000  0.85509000  1.0
  C  C18  1  0.19240000  0.75447000  0.27417000  1.0
  C  C19  1  0.46653000  0.24555000  0.72575000  1.0
  C  C20  1  0.38553000  0.64855000  0.30651000  1.0
  C  C21  1  0.69147000  0.35189000  0.69349000  1.0
  C  C22  1  0.46114000  0.64523000  0.41749000  1.0
  C  C23  1  0.87825000  0.35538000  0.58258000  1.0
  C  C24  1  0.33921000  0.74215000  0.49781000  1.0
  C  C25  1  0.83724000  0.25829000  0.50222000  1.0
  C  C26  1  0.14191000  0.84353000  0.46680000  1.0
  C  C27  1  0.60923000  0.15668000  0.53312000  1.0
  C  C28  1  0.07001000  0.85248000  0.35357000  1.0
  C  C29  1  0.42396000  0.14750000  0.64630000  1.0
  C  C30  1  0.39423000  0.83203000  0.00419000  1.0
  C  C31  1  0.39813000  0.16742000  0.99581000  1.0
  C  C32  1  0.53961000  0.99973000  0.00006000  1.0
  S  S33  1  0.09522000  0.77601000  0.12907000  1.0
  S  S34  1  0.22404000  0.22361000  0.87084000  1.0
  Cl  Cl35  1  0.75638000  0.21822000  0.18672000  1.0
  Cl  Cl36  1  0.94337000  0.78162000  0.81326000  1.0
