# generated using pymatgen
data_AgH9C8N2O5
_symmetry_space_group_name_H-M   'P 1'
_cell_length_a   5.18681000
_cell_length_b   13.89640000
_cell_length_c   14.86210727
_cell_angle_alpha   106.97644941
_cell_angle_beta   100.03605348
_cell_angle_gamma   90.02180000
_symmetry_Int_Tables_number   1
_chemical_formula_structural   AgH9C8N2O5
_chemical_formula_sum   'Ag4 H36 C32 N8 O20'
_cell_volume   1007.37868762
_cell_formula_units_Z   4
loop_
 _symmetry_equiv_pos_site_id
 _symmetry_equiv_pos_as_xyz
  1  'x, y, z'
loop_
 _atom_site_type_symbol
 _atom_site_label
 _atom_site_symmetry_multiplicity
 _atom_site_fract_x
 _atom_site_fract_y
 _atom_site_fract_z
 _atom_site_occupancy
  Ag  Ag0  1  0.82473000  0.53161000  0.56294000  1.0
  Ag  Ag1  1  0.26192000  0.96836000  0.43718000  1.0
  Ag  Ag2  1  0.17525000  0.46838000  0.43706000  1.0
  Ag  Ag3  1  0.73817000  0.03164000  0.56283000  1.0
  H  H4  1  0.40313000  0.81280000  0.54415000  1.0
  H  H5  1  0.85816000  0.68710000  0.45616000  1.0
  H  H6  1  0.59690000  0.18718000  0.45584000  1.0
  H  H7  1  0.14183000  0.31289000  0.54383000  1.0
  H  H8  1  0.62017000  0.78312000  0.63608000  1.0
  H  H9  1  0.98389000  0.71667000  0.36425000  1.0
  H  H10  1  0.37984000  0.21686000  0.36392000  1.0
  H  H11  1  0.01611000  0.28330000  0.63574000  1.0
  H  H12  1  0.07090000  0.86491000  0.65311000  1.0
  H  H13  1  0.41750000  0.63488000  0.34719000  1.0
  H  H14  1  0.92911000  0.13509000  0.34688000  1.0
  H  H15  1  0.58246000  0.36513000  0.65282000  1.0
  H  H16  1  0.36038000  0.94386000  0.68224000  1.0
  H  H17  1  0.67773000  0.55596000  0.31797000  1.0
  H  H18  1  0.63965000  0.05613000  0.31774000  1.0
  H  H19  1  0.32219000  0.44403000  0.68203000  1.0
  H  H20  1  0.98746000  0.77294000  0.75222000  1.0
  H  H21  1  0.23511000  0.72697000  0.24822000  1.0
  H  H22  1  0.01259000  0.22706000  0.24779000  1.0
  H  H23  1  0.76485000  0.27303000  0.75178000  1.0
  H  H24  1  0.05346000  0.76327000  0.91969000  1.0
  H  H25  1  0.13380000  0.73698000  0.08088000  1.0
  H  H26  1  0.94658000  0.23675000  0.08031000  1.0
  H  H27  1  0.86620000  0.26303000  0.91913000  1.0
  H  H28  1  0.46508000  0.84991000  0.03573000  1.0
  H  H29  1  0.42930000  0.65046000  0.96468000  1.0
  H  H30  1  0.53496000  0.15010000  0.96427000  1.0
  H  H31  1  0.57067000  0.34955000  0.03532000  1.0
  H  H32  1  0.78316000  0.93959000  0.97714000  1.0
  H  H33  1  0.80562000  0.56059000  0.02315000  1.0
  H  H34  1  0.21686000  0.06043000  0.02285000  1.0
  H  H35  1  0.19433000  0.43941000  0.97686000  1.0
  H  H36  1  0.68018000  0.94818000  0.80730000  1.0
  H  H37  1  0.87238000  0.55178000  0.19286000  1.0
  H  H38  1  0.31984000  0.05182000  0.19269000  1.0
  H  H39  1  0.12756000  0.44821000  0.80714000  1.0
  C  C40  1  0.27532000  0.68424000  0.57538000  1.0
  C  C41  1  0.69975000  0.81567000  0.42484000  1.0
  C  C42  1  0.72467000  0.31575000  0.42462000  1.0
  C  C43  1  0.30030000  0.18433000  0.57516000  1.0
  C  C44  1  0.41153000  0.78859000  0.60876000  1.0
  C  C45  1  0.80239000  0.71128000  0.39152000  1.0
  C  C46  1  0.58848000  0.21140000  0.39123000  1.0
  C  C47  1  0.19760000  0.28870000  0.60847000  1.0
  C  C48  1  0.28285000  0.86882000  0.67759000  1.0
  C  C49  1  0.60492000  0.63101000  0.32268000  1.0
  C  C50  1  0.71717000  0.13117000  0.32239000  1.0
  C  C51  1  0.39503000  0.36899000  0.67732000  1.0
  C  C52  1  0.15640000  0.80995000  0.80560000  1.0
  C  C53  1  0.35058000  0.69001000  0.19480000  1.0
  C  C54  1  0.84364000  0.19006000  0.19440000  1.0
  C  C55  1  0.64940000  0.30998000  0.80521000  1.0
  C  C56  1  0.19931000  0.80469000  0.89873000  1.0
  C  C57  1  0.30047000  0.69548000  0.10173000  1.0
  C  C58  1  0.80072000  0.19533000  0.10127000  1.0
  C  C59  1  0.69950000  0.30452000  0.89828000  1.0
  C  C60  1  0.42568000  0.85171000  0.96186000  1.0
  C  C61  1  0.46363000  0.64853000  0.03853000  1.0
  C  C62  1  0.57434000  0.14831000  0.03814000  1.0
  C  C63  1  0.53632000  0.35147000  0.96147000  1.0
  C  C64  1  0.60470000  0.90249000  0.92960000  1.0
  C  C65  1  0.67471000  0.59767000  0.07070000  1.0
  C  C66  1  0.39531000  0.09752000  0.07039000  1.0
  C  C67  1  0.32524000  0.40233000  0.92931000  1.0
  C  C68  1  0.55264000  0.90717000  0.83662000  1.0
  C  C69  1  0.71555000  0.59284000  0.16363000  1.0
  C  C70  1  0.44738000  0.09284000  0.16337000  1.0
  C  C71  1  0.28439000  0.40715000  0.83637000  1.0
  N  N72  1  0.79304000  0.59077000  0.79148000  1.0
  N  N73  1  0.00161000  0.90931000  0.20876000  1.0
  N  N74  1  0.20693000  0.40923000  0.20853000  1.0
  N  N75  1  0.99843000  0.09071000  0.79125000  1.0
  N  N76  1  0.33072000  0.86135000  0.77664000  1.0
  N  N77  1  0.55371000  0.63857000  0.22367000  1.0
  N  N78  1  0.66930000  0.13866000  0.22335000  1.0
  N  N79  1  0.44624000  0.36142000  0.77633000  1.0
  O  O80  1  0.87693000  0.51827000  0.72926000  1.0
  O  O81  1  0.14841000  0.98166000  0.27094000  1.0
  O  O82  1  0.12303000  0.48173000  0.27075000  1.0
  O  O83  1  0.85166000  0.01835000  0.72907000  1.0
  O  O84  1  0.65855000  0.65620000  0.76492000  1.0
  O  O85  1  0.89370000  0.84383000  0.23531000  1.0
  O  O86  1  0.34143000  0.34381000  0.23508000  1.0
  O  O87  1  0.10634000  0.15618000  0.76469000  1.0
  O  O88  1  0.84954000  0.59447000  0.87900000  1.0
  O  O89  1  0.96993000  0.90581000  0.12127000  1.0
  O  O90  1  0.15042000  0.40554000  0.12101000  1.0
  O  O91  1  0.03008000  0.09422000  0.87874000  1.0
  O  O92  1  0.06271000  0.67402000  0.60390000  1.0
  O  O93  1  0.45858000  0.82587000  0.39642000  1.0
  O  O94  1  0.93728000  0.32597000  0.39610000  1.0
  O  O95  1  0.54147000  0.17413000  0.60357000  1.0
  O  O96  1  0.61953000  0.38349000  0.48324000  1.0
  O  O97  1  0.13640000  0.11654000  0.51666000  1.0
  O  O98  1  0.38044000  0.61649000  0.51677000  1.0
  O  O99  1  0.86366000  0.88345000  0.48335000  1.0
