# generated using pymatgen
data_ZnH3C5N4ClO2
_symmetry_space_group_name_H-M   'P 1'
_cell_length_a   12.09400000
_cell_length_b   12.09400000
_cell_length_c   12.09400000
_cell_angle_alpha   95.78610000
_cell_angle_beta   95.78630000
_cell_angle_gamma   95.78650000
_symmetry_Int_Tables_number   1
_chemical_formula_structural   ZnH3C5N4ClO2
_chemical_formula_sum   'Zn6 H18 C30 N24 Cl6 O12'
_cell_volume   1739.90616441
_cell_formula_units_Z   6
loop_
 _symmetry_equiv_pos_site_id
 _symmetry_equiv_pos_as_xyz
  1  'x, y, z'
loop_
 _atom_site_type_symbol
 _atom_site_label
 _atom_site_symmetry_multiplicity
 _atom_site_fract_x
 _atom_site_fract_y
 _atom_site_fract_z
 _atom_site_occupancy
  Zn  Zn0  1  0.32401000  0.04832000  0.75972000  1.0
  Zn  Zn1  1  0.04832000  0.75971000  0.32402000  1.0
  Zn  Zn2  1  0.75972000  0.32401000  0.04832000  1.0
  Zn  Zn3  1  0.67599000  0.95168000  0.24029000  1.0
  Zn  Zn4  1  0.95168000  0.24029000  0.67599000  1.0
  Zn  Zn5  1  0.24029000  0.67598000  0.95168000  1.0
  H  H6  1  0.69269000  0.12897000  0.62606000  1.0
  H  H7  1  0.12898000  0.62606000  0.69269000  1.0
  H  H8  1  0.62606000  0.69268000  0.12898000  1.0
  H  H9  1  0.30731000  0.87102000  0.37394000  1.0
  H  H10  1  0.87102000  0.37394000  0.30731000  1.0
  H  H11  1  0.37394000  0.30731000  0.87102000  1.0
  H  H12  1  0.59804000  0.05329000  0.51219000  1.0
  H  H13  1  0.05329000  0.51219000  0.59804000  1.0
  H  H14  1  0.51219000  0.59804000  0.05329000  1.0
  H  H15  1  0.40196000  0.94671000  0.48781000  1.0
  H  H16  1  0.94671000  0.48781000  0.40196000  1.0
  H  H17  1  0.48781000  0.40196000  0.94671000  1.0
  H  H18  1  0.91362000  0.30381000  0.89902000  1.0
  H  H19  1  0.30381000  0.89902000  0.91362000  1.0
  H  H20  1  0.89903000  0.91362000  0.30381000  1.0
  H  H21  1  0.08638000  0.69619000  0.10098000  1.0
  H  H22  1  0.69619000  0.10098000  0.08638000  1.0
  H  H23  1  0.10098000  0.08638000  0.69619000  1.0
  C  C24  1  0.52187000  0.15598000  0.94992000  1.0
  C  C25  1  0.15598000  0.94992000  0.52187000  1.0
  C  C26  1  0.94992000  0.52187000  0.15598000  1.0
  C  C27  1  0.47814000  0.84402000  0.05008000  1.0
  C  C28  1  0.84402000  0.05008000  0.47813000  1.0
  C  C29  1  0.05008000  0.47813000  0.84402000  1.0
  C  C30  1  0.53604000  0.08296000  0.66225000  1.0
  C  C31  1  0.08295000  0.66225000  0.53604000  1.0
  C  C32  1  0.66225000  0.53604000  0.08295000  1.0
  C  C33  1  0.46396000  0.91705000  0.33775000  1.0
  C  C34  1  0.91705000  0.33776000  0.46396000  1.0
  C  C35  1  0.33775000  0.46396000  0.91705000  1.0
  C  C36  1  0.56366000  0.12655000  0.78089000  1.0
  C  C37  1  0.12655000  0.78089000  0.56366000  1.0
  C  C38  1  0.78089000  0.56366000  0.12655000  1.0
  C  C39  1  0.43634000  0.87345000  0.21911000  1.0
  C  C40  1  0.87345000  0.21911000  0.43634000  1.0
  C  C41  1  0.21911000  0.43634000  0.87345000  1.0
  C  C42  1  0.65776000  0.18117000  0.84884000  1.0
  C  C43  1  0.18117000  0.84884000  0.65776000  1.0
  C  C44  1  0.84884000  0.65776000  0.18116000  1.0
  C  C45  1  0.34224000  0.81883000  0.15116000  1.0
  C  C46  1  0.81884000  0.15116000  0.34224000  1.0
  C  C47  1  0.15116000  0.34224000  0.81883000  1.0
  C  C48  1  0.77215000  0.22195000  0.82830000  1.0
  C  C49  1  0.22195000  0.82830000  0.77216000  1.0
  C  C50  1  0.82830000  0.77216000  0.22195000  1.0
  C  C51  1  0.22785000  0.77805000  0.17170000  1.0
  C  C52  1  0.77805000  0.17170000  0.22784000  1.0
  C  C53  1  0.17170000  0.22785000  0.77805000  1.0
  N  N54  1  0.62949000  0.19951000  0.95639000  1.0
  N  N55  1  0.19951000  0.95640000  0.62949000  1.0
  N  N56  1  0.95639000  0.62949000  0.19951000  1.0
  N  N57  1  0.37051000  0.80049000  0.04360000  1.0
  N  N58  1  0.80049000  0.04361000  0.37051000  1.0
  N  N59  1  0.04360000  0.37051000  0.80049000  1.0
  N  N60  1  0.47846000  0.11151000  0.84704000  1.0
  N  N61  1  0.11151000  0.84704000  0.47846000  1.0
  N  N62  1  0.84704000  0.47846000  0.11151000  1.0
  N  N63  1  0.52154000  0.88849000  0.15296000  1.0
  N  N64  1  0.88849000  0.15296000  0.52154000  1.0
  N  N65  1  0.15296000  0.52154000  0.88849000  1.0
  N  N66  1  0.61425000  0.09137000  0.59306000  1.0
  N  N67  1  0.09137000  0.59306000  0.61426000  1.0
  N  N68  1  0.59306000  0.61425000  0.09137000  1.0
  N  N69  1  0.38574000  0.90863000  0.40694000  1.0
  N  N70  1  0.90863000  0.40694000  0.38575000  1.0
  N  N71  1  0.40694000  0.38574000  0.90863000  1.0
  N  N72  1  0.83526000  0.27562000  0.91587000  1.0
  N  N73  1  0.27561000  0.91587000  0.83527000  1.0
  N  N74  1  0.91588000  0.83527000  0.27561000  1.0
  N  N75  1  0.16473000  0.72438000  0.08413000  1.0
  N  N76  1  0.72438000  0.08413000  0.16473000  1.0
  N  N77  1  0.08413000  0.16473000  0.72439000  1.0
  Cl  Cl78  1  0.44783000  0.15548000  0.06251000  1.0
  Cl  Cl79  1  0.15548000  0.06251000  0.44783000  1.0
  Cl  Cl80  1  0.06251000  0.44783000  0.15548000  1.0
  Cl  Cl81  1  0.55217000  0.84452000  0.93749000  1.0
  Cl  Cl82  1  0.84452000  0.93749000  0.55217000  1.0
  Cl  Cl83  1  0.93749000  0.55217000  0.84452000  1.0
  O  O84  1  0.43635000  0.03730000  0.63060000  1.0
  O  O85  1  0.03730000  0.63060000  0.43636000  1.0
  O  O86  1  0.63060000  0.43635000  0.03729000  1.0
  O  O87  1  0.56364000  0.96270000  0.36940000  1.0
  O  O88  1  0.96270000  0.36940000  0.56365000  1.0
  O  O89  1  0.36940000  0.56364000  0.96270000  1.0
  O  O90  1  0.80051000  0.20239000  0.72832000  1.0
  O  O91  1  0.20239000  0.72832000  0.80051000  1.0
  O  O92  1  0.72832000  0.80051000  0.20239000  1.0
  O  O93  1  0.19949000  0.79761000  0.27168000  1.0
  O  O94  1  0.79761000  0.27168000  0.19949000  1.0
  O  O95  1  0.27168000  0.19949000  0.79761000  1.0
