# generated using pymatgen
data_ZnH9C12I(NO2)2
_symmetry_space_group_name_H-M   'P 1'
_cell_length_a   7.80058000
_cell_length_b   12.06350000
_cell_length_c   13.87500000
_cell_angle_alpha   90.00010000
_cell_angle_beta   90.00000000
_cell_angle_gamma   89.96980000
_symmetry_Int_Tables_number   1
_chemical_formula_structural   ZnH9C12I(NO2)2
_chemical_formula_sum   'Zn4 H36 C48 I4 N8 O16'
_cell_volume   1305.66918714
_cell_formula_units_Z   4
loop_
 _symmetry_equiv_pos_site_id
 _symmetry_equiv_pos_as_xyz
  1  'x, y, z'
loop_
 _atom_site_type_symbol
 _atom_site_label
 _atom_site_symmetry_multiplicity
 _atom_site_fract_x
 _atom_site_fract_y
 _atom_site_fract_z
 _atom_site_occupancy
  Zn  Zn0  1  0.60593000  0.75277000  0.43699000  1.0
  Zn  Zn1  1  0.10593000  0.25277000  0.06300000  1.0
  Zn  Zn2  1  0.39407000  0.24722000  0.56300000  1.0
  Zn  Zn3  1  0.89407000  0.74723000  0.93700000  1.0
  H  H4  1  0.18516000  0.49894000  0.88488000  1.0
  H  H5  1  0.68516000  0.99894000  0.61512000  1.0
  H  H6  1  0.81484000  0.50106000  0.11512000  1.0
  H  H7  1  0.31484000  0.00106000  0.38488000  1.0
  H  H8  1  0.12172000  0.24203000  0.28059000  1.0
  H  H9  1  0.62172000  0.74203000  0.21941000  1.0
  H  H10  1  0.87828000  0.75797000  0.71941000  1.0
  H  H11  1  0.37828000  0.25797000  0.78059000  1.0
  H  H12  1  0.99073000  0.12934000  0.41232000  1.0
  H  H13  1  0.49073000  0.62934000  0.08768000  1.0
  H  H14  1  0.00927000  0.87066000  0.58768000  1.0
  H  H15  1  0.50926000  0.37066000  0.91232000  1.0
  H  H16  1  0.70034000  0.95612000  0.19417000  1.0
  H  H17  1  0.20034000  0.45612000  0.30582000  1.0
  H  H18  1  0.29966000  0.04388000  0.80582000  1.0
  H  H19  1  0.79966000  0.54388000  0.69418000  1.0
  H  H20  1  0.84115000  0.07604000  0.07128000  1.0
  H  H21  1  0.34115000  0.57604000  0.42871000  1.0
  H  H22  1  0.15885000  0.92395000  0.92871000  1.0
  H  H23  1  0.65886000  0.42395000  0.57128000  1.0
  H  H24  1  0.23429000  0.58939000  0.59479000  1.0
  H  H25  1  0.73429000  0.08939000  0.90521000  1.0
  H  H26  1  0.76571000  0.41061000  0.40521000  1.0
  H  H27  1  0.26571000  0.91061000  0.09479000  1.0
  H  H28  1  0.11463000  0.46400000  0.72474000  1.0
  H  H29  1  0.61463000  0.96400000  0.77526000  1.0
  H  H30  1  0.88537000  0.53600000  0.27526000  1.0
  H  H31  1  0.38537000  0.03600000  0.22474000  1.0
  H  H32  1  0.34630000  0.64621000  0.94084000  1.0
  H  H33  1  0.84630000  0.14621000  0.55916000  1.0
  H  H34  1  0.65370000  0.35380000  0.05916000  1.0
  H  H35  1  0.15370000  0.85379000  0.44084000  1.0
  H  H36  1  0.47982000  0.77832000  0.82052000  1.0
  H  H37  1  0.97983000  0.27832000  0.67948000  1.0
  H  H38  1  0.52017000  0.22168000  0.17948000  1.0
  H  H39  1  0.02018000  0.72168000  0.32052000  1.0
  C  C40  1  0.02627000  0.17869000  0.26472000  1.0
  C  C41  1  0.52627000  0.67869000  0.23528000  1.0
  C  C42  1  0.97373000  0.82131000  0.73528000  1.0
  C  C43  1  0.47373000  0.32132000  0.76472000  1.0
  C  C44  1  0.95158000  0.11630000  0.33785000  1.0
  C  C45  1  0.45158000  0.61630000  0.16215000  1.0
  C  C46  1  0.04842000  0.88370000  0.66215000  1.0
  C  C47  1  0.54842000  0.38370000  0.83785000  1.0
  C  C48  1  0.83124000  0.03502000  0.31390000  1.0
  C  C49  1  0.33124000  0.53502000  0.18610000  1.0
  C  C50  1  0.16876000  0.96497000  0.68610000  1.0
  C  C51  1  0.66876000  0.46498000  0.81390000  1.0
  C  C52  1  0.79084000  0.01965000  0.21660000  1.0
  C  C53  1  0.29085000  0.51965000  0.28340000  1.0
  C  C54  1  0.20915000  0.98035000  0.78340000  1.0
  C  C55  1  0.70916000  0.48035000  0.71660000  1.0
  C  C56  1  0.86992000  0.08537000  0.14768000  1.0
  C  C57  1  0.36992000  0.58537000  0.35232000  1.0
  C  C58  1  0.13008000  0.91463000  0.85232000  1.0
  C  C59  1  0.63008000  0.41463000  0.64768000  1.0
  C  C60  1  0.75099000  0.96341000  0.39114000  1.0
  C  C61  1  0.25099000  0.46341000  0.10886000  1.0
  C  C62  1  0.24900000  0.03659000  0.60886000  1.0
  C  C63  1  0.74901000  0.53659000  0.89114000  1.0
  C  C64  1  0.45558000  0.76657000  0.62396000  1.0
  C  C65  1  0.95559000  0.26657000  0.87604000  1.0
  C  C66  1  0.54441000  0.23343000  0.37604000  1.0
  C  C67  1  0.04442000  0.73343000  0.12396000  1.0
  C  C68  1  0.36675000  0.69385000  0.69814000  1.0
  C  C69  1  0.86676000  0.19385000  0.80186000  1.0
  C  C70  1  0.63325000  0.30615000  0.30186000  1.0
  C  C71  1  0.13325000  0.80615000  0.19813000  1.0
  C  C72  1  0.26135000  0.60543000  0.67035000  1.0
  C  C73  1  0.76135000  0.10544000  0.82965000  1.0
  C  C74  1  0.73865000  0.39457000  0.32965000  1.0
  C  C75  1  0.23865000  0.89457000  0.17035000  1.0
  C  C76  1  0.19355000  0.53606000  0.74003000  1.0
  C  C77  1  0.69356000  0.03606000  0.75997000  1.0
  C  C78  1  0.80644000  0.46394000  0.25997000  1.0
  C  C79  1  0.30644000  0.96394000  0.24003000  1.0
  C  C80  1  0.32667000  0.63993000  0.86355000  1.0
  C  C81  1  0.82668000  0.13993000  0.63645000  1.0
  C  C82  1  0.67332000  0.36007000  0.13645000  1.0
  C  C83  1  0.17333000  0.86007000  0.36355000  1.0
  C  C84  1  0.39757000  0.71108000  0.79619000  1.0
  C  C85  1  0.89758000  0.21108000  0.70381000  1.0
  C  C86  1  0.60242000  0.28892000  0.20381000  1.0
  C  C87  1  0.10243000  0.78892000  0.29619000  1.0
  I  I88  1  0.87001000  0.64525000  0.49699000  1.0
  I  I89  1  0.37001000  0.14525000  0.00301000  1.0
  I  I90  1  0.12999000  0.35475000  0.50301000  1.0
  I  I91  1  0.62999000  0.85475000  0.99699000  1.0
  N  N92  1  0.98593000  0.16376000  0.17112000  1.0
  N  N93  1  0.48593000  0.66376000  0.32888000  1.0
  N  N94  1  0.01407000  0.83623000  0.82888000  1.0
  N  N95  1  0.51407000  0.33624000  0.67112000  1.0
  N  N96  1  0.22877000  0.55464000  0.83375000  1.0
  N  N97  1  0.72877000  0.05464000  0.66625000  1.0
  N  N98  1  0.77123000  0.44536000  0.16625000  1.0
  N  N99  1  0.27123000  0.94536000  0.33375000  1.0
  O  O100  1  0.65778000  0.88317000  0.35785000  1.0
  O  O101  1  0.15778000  0.38317000  0.14215000  1.0
  O  O102  1  0.34222000  0.11683000  0.64215000  1.0
  O  O103  1  0.84222000  0.61683000  0.85785000  1.0
  O  O104  1  0.42427000  0.73934000  0.53553000  1.0
  O  O105  1  0.92427000  0.23934000  0.96447000  1.0
  O  O106  1  0.57573000  0.26066000  0.46447000  1.0
  O  O107  1  0.07573000  0.76065000  0.03553000  1.0
  O  O108  1  0.78011000  0.98326000  0.47768000  1.0
  O  O109  1  0.28012000  0.48326000  0.02233000  1.0
  O  O110  1  0.21988000  0.01674000  0.52232000  1.0
  O  O111  1  0.71988000  0.51674000  0.97767000  1.0
  O  O112  1  0.55214000  0.84201000  0.65246000  1.0
  O  O113  1  0.05215000  0.34201000  0.84754000  1.0
  O  O114  1  0.44785000  0.15799000  0.34754000  1.0
  O  O115  1  0.94785000  0.65799000  0.15246000  1.0
