# generated using pymatgen
data_CoH12C17N3O5
_symmetry_space_group_name_H-M   'P 1'
_cell_length_a   9.65909000
_cell_length_b   9.84714000
_cell_length_c   10.08870000
_cell_angle_alpha   102.87000000
_cell_angle_beta   110.29400000
_cell_angle_gamma   114.24900000
_symmetry_Int_Tables_number   1
_chemical_formula_structural   CoH12C17N3O5
_chemical_formula_sum   'Co2 H24 C34 N6 O10'
_cell_volume   742.02131415
_cell_formula_units_Z   2
loop_
 _symmetry_equiv_pos_site_id
 _symmetry_equiv_pos_as_xyz
  1  'x, y, z'
loop_
 _atom_site_type_symbol
 _atom_site_label
 _atom_site_symmetry_multiplicity
 _atom_site_fract_x
 _atom_site_fract_y
 _atom_site_fract_z
 _atom_site_occupancy
  Co  Co0  1  0.07456000  0.23965000  0.92070000  1.0
  Co  Co1  1  0.92544000  0.76035000  0.07930000  1.0
  H  H2  1  0.74472000  0.98687000  0.32560000  1.0
  H  H3  1  0.25529000  0.01313000  0.67441000  1.0
  H  H4  1  0.39823000  0.47666000  0.84204000  1.0
  H  H5  1  0.60178000  0.52334000  0.15796000  1.0
  H  H6  1  0.15272000  0.50476000  0.69439000  1.0
  H  H7  1  0.84727000  0.49523000  0.30560000  1.0
  H  H8  1  0.02491000  0.41809000  0.40823000  1.0
  H  H9  1  0.97509000  0.58191000  0.59177000  1.0
  H  H10  1  0.13660000  0.29681000  0.25868000  1.0
  H  H11  1  0.86340000  0.70319000  0.74132000  1.0
  H  H12  1  0.54726000  0.09420000  0.30314000  1.0
  H  H13  1  0.45274000  0.90580000  0.69686000  1.0
  H  H14  1  0.96350000  0.05183000  0.59187000  1.0
  H  H15  1  0.03650000  0.94818000  0.40813000  1.0
  H  H16  1  0.82073000  0.33823000  0.80768000  1.0
  H  H17  1  0.17927000  0.66178000  0.19232000  1.0
  H  H18  1  0.59527000  0.28446000  0.02749000  1.0
  H  H19  1  0.40472000  0.71554000  0.97251000  1.0
  H  H20  1  0.40184000  0.22977000  0.31108000  1.0
  H  H21  1  0.59817000  0.77023000  0.68892000  1.0
  H  H22  1  0.19077000  0.53799000  0.97227000  1.0
  H  H23  1  0.80923000  0.46201000  0.02773000  1.0
  H  H24  1  0.32247000  0.54473000  0.13166000  1.0
  H  H25  1  0.67753000  0.45527000  0.86834000  1.0
  C  C26  1  0.40670000  0.37293000  0.63292000  1.0
  C  C27  1  0.59330000  0.62707000  0.36708000  1.0
  C  C28  1  0.75481000  0.06309000  0.42931000  1.0
  C  C29  1  0.24520000  0.93691000  0.57069000  1.0
  C  C30  1  0.34275000  0.43904000  0.71654000  1.0
  C  C31  1  0.65725000  0.56096000  0.28346000  1.0
  C  C32  1  0.20551000  0.45401000  0.63256000  1.0
  C  C33  1  0.79450000  0.54599000  0.36744000  1.0
  C  C34  1  0.13209000  0.40398000  0.46948000  1.0
  C  C35  1  0.86791000  0.59602000  0.53052000  1.0
  C  C36  1  0.19232000  0.33613000  0.38417000  1.0
  C  C37  1  0.80768000  0.66387000  0.61583000  1.0
  C  C38  1  0.33004000  0.32114000  0.46887000  1.0
  C  C39  1  0.66996000  0.67886000  0.53113000  1.0
  C  C40  1  0.54770000  0.27997000  0.55548000  1.0
  C  C41  1  0.45230000  0.72003000  0.44452000  1.0
  C  C42  1  0.66457000  0.22223000  0.55503000  1.0
  C  C43  1  0.33543000  0.77776000  0.44496000  1.0
  C  C44  1  0.64643000  0.12440000  0.41780000  1.0
  C  C45  1  0.35357000  0.87560000  0.58220000  1.0
  C  C46  1  0.87849000  0.09994000  0.57638000  1.0
  C  C47  1  0.12151000  0.90006000  0.42362000  1.0
  C  C48  1  0.79656000  0.25782000  0.69820000  1.0
  C  C49  1  0.20344000  0.74218000  0.30180000  1.0
  C  C50  1  0.83580000  0.21255000  0.03069000  1.0
  C  C51  1  0.16420000  0.78744000  0.96931000  1.0
  C  C52  1  0.72093000  0.86849000  0.00482000  1.0
  C  C53  1  0.27907000  0.13150000  0.99517000  1.0
  C  C54  1  0.66533000  0.10282000  0.01899000  1.0
  C  C55  1  0.33467000  0.89717000  0.98101000  1.0
  C  C56  1  0.61069000  0.94077000  0.00273000  1.0
  C  C57  1  0.38931000  0.05922000  0.99727000  1.0
  C  C58  1  0.55357000  0.15965000  0.01620000  1.0
  C  C59  1  0.44643000  0.84034000  0.98379000  1.0
  N  N60  1  0.90006000  0.19741000  0.70903000  1.0
  N  N61  1  0.09994000  0.80260000  0.29097000  1.0
  N  N62  1  0.54220000  0.34675000  0.68346000  1.0
  N  N63  1  0.45780000  0.65326000  0.31654000  1.0
  N  N64  1  0.42124000  0.26175000  0.42393000  1.0
  N  N65  1  0.57877000  0.73825000  0.57607000  1.0
  O  O66  1  0.24448000  0.47642000  0.01211000  1.0
  O  O67  1  0.75552000  0.52358000  0.98789000  1.0
  O  O68  1  0.90828000  0.13994000  0.98922000  1.0
  O  O69  1  0.09172000  0.86006000  0.01077000  1.0
  O  O70  1  0.89946000  0.36554000  0.07540000  1.0
  O  O71  1  0.10054000  0.63445000  0.92459000  1.0
  O  O72  1  0.83018000  0.89272000  0.13929000  1.0
  O  O73  1  0.16982000  0.10728000  0.86070000  1.0
  O  O74  1  0.69619000  0.77695000  0.87921000  1.0
  O  O75  1  0.30381000  0.22304000  0.12079000  1.0
