# generated using pymatgen
data_BaH14C5O8
_symmetry_space_group_name_H-M   'P 1'
_cell_length_a   7.65926000
_cell_length_b   12.42320000
_cell_length_c   13.29300000
_cell_angle_alpha   90.00000000
_cell_angle_beta   90.00000000
_cell_angle_gamma   90.00000000
_symmetry_Int_Tables_number   1
_chemical_formula_structural   BaH14C5O8
_chemical_formula_sum   'Ba4 H56 C20 O32'
_cell_volume   1264.86243283
_cell_formula_units_Z   4
loop_
 _symmetry_equiv_pos_site_id
 _symmetry_equiv_pos_as_xyz
  1  'x, y, z'
loop_
 _atom_site_type_symbol
 _atom_site_label
 _atom_site_symmetry_multiplicity
 _atom_site_fract_x
 _atom_site_fract_y
 _atom_site_fract_z
 _atom_site_occupancy
  Ba  Ba0  1  0.75000000  0.63769000  0.96205000  1.0
  Ba  Ba1  1  0.25000000  0.86231000  0.46205000  1.0
  Ba  Ba2  1  0.75000000  0.13770000  0.53795000  1.0
  Ba  Ba3  1  0.25000000  0.36231000  0.03795000  1.0
  H  H4  1  0.86613000  0.15563000  0.92645000  1.0
  H  H5  1  0.13387000  0.34437000  0.42644000  1.0
  H  H6  1  0.63386000  0.65564000  0.57356000  1.0
  H  H7  1  0.36615000  0.84437000  0.07355000  1.0
  H  H8  1  0.13387000  0.84437000  0.07356000  1.0
  H  H9  1  0.86613000  0.65564000  0.57356000  1.0
  H  H10  1  0.36614000  0.34438000  0.42645000  1.0
  H  H11  1  0.63386000  0.15563000  0.92645000  1.0
  H  H12  1  0.63601000  0.02762000  0.07376000  1.0
  H  H13  1  0.36398000  0.47238000  0.57377000  1.0
  H  H14  1  0.86398000  0.52763000  0.42624000  1.0
  H  H15  1  0.13601000  0.97237000  0.92624000  1.0
  H  H16  1  0.36398000  0.97237000  0.92624000  1.0
  H  H17  1  0.63601000  0.52763000  0.42624000  1.0
  H  H18  1  0.13600000  0.47237000  0.57377000  1.0
  H  H19  1  0.86398000  0.02762000  0.07376000  1.0
  H  H20  1  0.86587000  0.23346000  0.10136000  1.0
  H  H21  1  0.13413000  0.26653000  0.60136000  1.0
  H  H22  1  0.63413000  0.73347000  0.39864000  1.0
  H  H23  1  0.36587000  0.76653000  0.89864000  1.0
  H  H24  1  0.13413000  0.76653000  0.89865000  1.0
  H  H25  1  0.86586000  0.73347000  0.39864000  1.0
  H  H26  1  0.36587000  0.26653000  0.60136000  1.0
  H  H27  1  0.63413000  0.23346000  0.10136000  1.0
  H  H28  1  0.88916000  0.50061000  0.74652000  1.0
  H  H29  1  0.11084000  0.99939000  0.24652000  1.0
  H  H30  1  0.61084000  0.00060000  0.75348000  1.0
  H  H31  1  0.38916000  0.49939000  0.25348000  1.0
  H  H32  1  0.11084000  0.49939000  0.25348000  1.0
  H  H33  1  0.88916000  0.00061000  0.75348000  1.0
  H  H34  1  0.38916000  0.99940000  0.24652000  1.0
  H  H35  1  0.61084000  0.50060000  0.74653000  1.0
  H  H36  1  0.64745000  0.54799000  0.18548000  1.0
  H  H37  1  0.35256000  0.95201000  0.68548000  1.0
  H  H38  1  0.85256000  0.04799000  0.31452000  1.0
  H  H39  1  0.14744000  0.45200000  0.81452000  1.0
  H  H40  1  0.35255000  0.45200000  0.81452000  1.0
  H  H41  1  0.64744000  0.04800000  0.31452000  1.0
  H  H42  1  0.14745000  0.95201000  0.68548000  1.0
  H  H43  1  0.85256000  0.54799000  0.18548000  1.0
  H  H44  1  0.91327000  0.45658000  0.85912000  1.0
  H  H45  1  0.08673000  0.04342000  0.35911000  1.0
  H  H46  1  0.58673000  0.95659000  0.64088000  1.0
  H  H47  1  0.41327000  0.54342000  0.14089000  1.0
  H  H48  1  0.08673000  0.54342000  0.14089000  1.0
  H  H49  1  0.91327000  0.95658000  0.64088000  1.0
  H  H50  1  0.41327000  0.04342000  0.35911000  1.0
  H  H51  1  0.58673000  0.45657000  0.85912000  1.0
  H  H52  1  0.74999000  0.83331000  0.80474000  1.0
  H  H53  1  0.25000000  0.66666667  0.30475000  1.0
  H  H54  1  0.75000000  0.33333333  0.69526000  1.0
  H  H55  1  0.25000000  0.16668000  0.19525000  1.0
  H  H56  1  0.75003000  0.74680000  0.71503000  1.0
  H  H57  1  0.25003000  0.75319000  0.21503000  1.0
  H  H58  1  0.75002000  0.24681000  0.78497000  1.0
  H  H59  1  0.25002000  0.25319000  0.28496000  1.0
  C  C60  1  0.75000000  0.14765000  0.97479000  1.0
  C  C61  1  0.25000000  0.35235000  0.47479000  1.0
  C  C62  1  0.75000000  0.64766000  0.52522000  1.0
  C  C63  1  0.25001000  0.85234000  0.02522000  1.0
  C  C64  1  0.75000000  0.34511000  0.99642000  1.0
  C  C65  1  0.25000000  0.15489000  0.49640000  1.0
  C  C66  1  0.75001000  0.84512000  0.50358000  1.0
  C  C67  1  0.25000000  0.65488000  0.00359000  1.0
  C  C68  1  0.75000000  0.03702000  0.02392000  1.0
  C  C69  1  0.25000000  0.46297000  0.52392000  1.0
  C  C70  1  0.75000000  0.53703000  0.47609000  1.0
  C  C71  1  0.25000000  0.96297000  0.97608000  1.0
  C  C72  1  0.75000000  0.94104000  0.95247000  1.0
  C  C73  1  0.25000000  0.55896000  0.45247000  1.0
  C  C74  1  0.75000000  0.44104000  0.54753000  1.0
  C  C75  1  0.25000000  0.05896000  0.04752000  1.0
  C  C76  1  0.75000000  0.23941000  0.05289000  1.0
  C  C77  1  0.25000000  0.26059000  0.55289000  1.0
  C  C78  1  0.75000000  0.73942000  0.44711000  1.0
  C  C79  1  0.25000000  0.76059000  0.94711000  1.0
  O  O80  1  0.75000000  0.84866000  0.99196000  1.0
  O  O81  1  0.25000000  0.65133000  0.49197000  1.0
  O  O82  1  0.74999000  0.34867000  0.50804000  1.0
  O  O83  1  0.24999000  0.15133000  0.00804000  1.0
  O  O84  1  0.60331000  0.38602000  0.97052000  1.0
  O  O85  1  0.39668000  0.11398000  0.47050000  1.0
  O  O86  1  0.89669000  0.88603000  0.52948000  1.0
  O  O87  1  0.10332000  0.61397000  0.02948000  1.0
  O  O88  1  0.39668000  0.61398000  0.02949000  1.0
  O  O89  1  0.60333000  0.88604000  0.52947000  1.0
  O  O90  1  0.10333000  0.11398000  0.47050000  1.0
  O  O91  1  0.89667000  0.38602000  0.97052000  1.0
  O  O92  1  0.75000000  0.95742000  0.85650000  1.0
  O  O93  1  0.25000000  0.54259000  0.35650000  1.0
  O  O94  1  0.75000000  0.45742000  0.64350000  1.0
  O  O95  1  0.25000000  0.04258000  0.14350000  1.0
  O  O96  1  0.75000000  0.59132000  0.16457000  1.0
  O  O97  1  0.25000000  0.90868000  0.66456000  1.0
  O  O98  1  0.75000000  0.09133000  0.33543000  1.0
  O  O99  1  0.25000000  0.40867000  0.83544000  1.0
  O  O100  1  0.94697000  0.51523000  0.81149000  1.0
  O  O101  1  0.05302000  0.98477000  0.31149000  1.0
  O  O102  1  0.55303000  0.01523000  0.68851000  1.0
  O  O103  1  0.44697000  0.48477000  0.18851000  1.0
  O  O104  1  0.05303000  0.48477000  0.18851000  1.0
  O  O105  1  0.94697000  0.01523000  0.68851000  1.0
  O  O106  1  0.44697000  0.98477000  0.31149000  1.0
  O  O107  1  0.55302000  0.51522000  0.81150000  1.0
  O  O108  1  0.74998000  0.75465000  0.78760000  1.0
  O  O109  1  0.25000000  0.74535000  0.28760000  1.0
  O  O110  1  0.74999000  0.25465000  0.71240000  1.0
  O  O111  1  0.25000000  0.24535000  0.21240000  1.0
