# generated using pymatgen
data_Ca2CuH10(C9O7)2
_symmetry_space_group_name_H-M   'P 1'
_cell_length_a   6.63136000
_cell_length_b   8.81281000
_cell_length_c   8.96485000
_cell_angle_alpha   102.92500000
_cell_angle_beta   110.64500000
_cell_angle_gamma   92.29400000
_symmetry_Int_Tables_number   1
_chemical_formula_structural   Ca2CuH10(C9O7)2
_chemical_formula_sum   'Ca2 Cu1 H10 C18 O14'
_cell_volume   473.77112410
_cell_formula_units_Z   1
loop_
 _symmetry_equiv_pos_site_id
 _symmetry_equiv_pos_as_xyz
  1  'x, y, z'
loop_
 _atom_site_type_symbol
 _atom_site_label
 _atom_site_symmetry_multiplicity
 _atom_site_fract_x
 _atom_site_fract_y
 _atom_site_fract_z
 _atom_site_occupancy
  Ca  Ca0  1  0.14821000  0.78855000  0.58811000  1.0
  Ca  Ca1  1  0.85178000  0.21145000  0.41189000  1.0
  Cu  Cu2  1  0.49999000  0.00000000  0.00000000  1.0
  H  H3  1  0.32514000  0.67006000  0.27153000  1.0
  H  H4  1  0.67486000  0.32994000  0.72848000  1.0
  H  H5  1  0.15839000  0.16819000  0.11736000  1.0
  H  H6  1  0.84161000  0.83181000  0.88263000  1.0
  H  H7  1  0.20713000  0.42469000  0.77131000  1.0
  H  H8  1  0.79287000  0.57531000  0.22869000  1.0
  H  H9  1  0.61824000  0.83178000  0.61126000  1.0
  H  H10  1  0.38177000  0.16822000  0.38874000  1.0
  H  H11  1  0.56406000  0.00205000  0.67940000  1.0
  H  H12  1  0.43594000  0.99794000  0.32059000  1.0
  C  C13  1  0.27288000  0.56239000  0.01748000  1.0
  C  C14  1  0.72712000  0.43761000  0.98253000  1.0
  C  C15  1  0.28528000  0.56087000  0.17568000  1.0
  C  C16  1  0.71473000  0.43913000  0.82433000  1.0
  C  C17  1  0.24129000  0.41922000  0.21165000  1.0
  C  C18  1  0.75872000  0.58077000  0.78835000  1.0
  C  C19  1  0.19440000  0.27821000  0.09012000  1.0
  C  C20  1  0.80560000  0.72179000  0.90988000  1.0
  C  C21  1  0.18084000  0.27947000  0.93097000  1.0
  C  C22  1  0.81916000  0.72054000  0.06903000  1.0
  C  C23  1  0.21624000  0.42149000  0.89430000  1.0
  C  C24  1  0.78376000  0.57851000  0.10570000  1.0
  C  C25  1  0.31938000  0.70908000  0.97126000  1.0
  C  C26  1  0.68063000  0.29092000  0.02874000  1.0
  C  C27  1  0.22241000  0.42275000  0.37438000  1.0
  C  C28  1  0.77759000  0.57725000  0.62562000  1.0
  C  C29  1  0.12815000  0.13158000  0.79851000  1.0
  C  C30  1  0.87185000  0.86842000  0.20149000  1.0
  O  O31  1  0.29890000  0.69843000  0.82435000  1.0
  O  O32  1  0.70108000  0.30158000  0.17565000  1.0
  O  O33  1  0.38619000  0.84001000  0.08506000  1.0
  O  O34  1  0.61381000  0.16000000  0.91495000  1.0
  O  O35  1  0.22159000  0.55427000  0.46507000  1.0
  O  O36  1  0.77839000  0.44573000  0.53492000  1.0
  O  O37  1  0.19639000  0.29102000  0.40947000  1.0
  O  O38  1  0.80362000  0.70897000  0.59053000  1.0
  O  O39  1  0.20564000  0.00608000  0.83610000  1.0
  O  O40  1  0.79434000  0.99391000  0.16389000  1.0
  O  O41  1  0.00962000  0.12706000  0.65257000  1.0
  O  O42  1  0.99037000  0.87294000  0.34743000  1.0
  O  O43  1  0.49819000  0.89443000  0.61946000  1.0
  O  O44  1  0.50182000  0.10557000  0.38055000  1.0
