# generated using pymatgen
data_ZnH14C21N3O4
_symmetry_space_group_name_H-M   'P 1'
_cell_length_a   15.89260000
_cell_length_b   17.32950000
_cell_length_c   17.91910000
_cell_angle_alpha   90.11650000
_cell_angle_beta   92.70140000
_cell_angle_gamma   95.61380000
_symmetry_Int_Tables_number   1
_chemical_formula_structural   ZnH14C21N3O4
_chemical_formula_sum   'Zn2 H28 C42 N6 O8'
_cell_volume   4905.87687992
_cell_formula_units_Z   2
loop_
 _symmetry_equiv_pos_site_id
 _symmetry_equiv_pos_as_xyz
  1  'x, y, z'
loop_
 _atom_site_type_symbol
 _atom_site_label
 _atom_site_symmetry_multiplicity
 _atom_site_fract_x
 _atom_site_fract_y
 _atom_site_fract_z
 _atom_site_occupancy
  Zn  Zn0  1  0.41244000  0.49633000  0.49622000  1.0
  Zn  Zn1  1  0.58755000  0.50368000  0.50377000  1.0
  H  H2  1  0.71534000  0.42509000  0.42509000  1.0
  H  H3  1  0.87492000  0.42633000  0.42677000  1.0
  H  H4  1  0.88874000  0.60067000  0.60042000  1.0
  H  H5  1  0.72802000  0.59191000  0.59144000  1.0
  H  H6  1  0.11127000  0.39935000  0.39956000  1.0
  H  H7  1  0.12507000  0.57370000  0.57320000  1.0
  H  H8  1  0.28466000  0.57494000  0.57490000  1.0
  H  H9  1  0.27199000  0.40810000  0.40856000  1.0
  H  H10  1  0.62131000  0.25847000  0.50479000  1.0
  H  H11  1  0.61441000  0.11267000  0.50489000  1.0
  H  H12  1  0.34286000  0.09978000  0.49391000  1.0
  H  H13  1  0.35016000  0.24611000  0.49382000  1.0
  H  H14  1  0.65713000  0.90022000  0.50616000  1.0
  H  H15  1  0.38558000  0.88736000  0.49518000  1.0
  H  H16  1  0.37866000  0.74156000  0.49525000  1.0
  H  H17  1  0.64981000  0.75388000  0.50621000  1.0
  H  H18  1  0.36378000  0.49417000  0.73296000  1.0
  H  H19  1  0.36470000  0.49407000  0.87277000  1.0
  H  H20  1  0.63452000  0.50513000  0.74296000  1.0
  H  H21  1  0.36546000  0.49484000  0.25702000  1.0
  H  H22  1  0.63619000  0.50564000  0.26705000  1.0
  H  H23  1  0.63528000  0.50558000  0.12724000  1.0
  H  H24  1  0.69637000  0.45617000  0.88028000  1.0
  H  H25  1  0.65352000  0.50587000  0.95441000  1.0
  H  H26  1  0.70279000  0.55879000  0.88062000  1.0
  H  H27  1  0.29730000  0.44090000  0.11908000  1.0
  H  H28  1  0.34648000  0.49435000  0.04558000  1.0
  H  H29  1  0.30350000  0.54352000  0.12000000  1.0
  C  C30  1  0.49093000  0.34740000  0.49865000  1.0
  C  C31  1  0.50024000  0.49947000  0.35349000  1.0
  C  C32  1  0.50905000  0.65261000  0.50136000  1.0
  C  C33  1  0.49975000  0.50048000  0.64650000  1.0
  C  C34  1  0.75688000  0.46273000  0.46277000  1.0
  C  C35  1  0.84426000  0.46358000  0.46377000  1.0
  C  C36  1  0.89278000  0.51403000  0.51412000  1.0
  C  C37  1  0.85178000  0.56131000  0.56115000  1.0
  C  C38  1  0.76377000  0.55669000  0.55641000  1.0
  C  C39  1  0.14823000  0.43872000  0.43883000  1.0
  C  C40  1  0.10722000  0.48601000  0.48585000  1.0
  C  C41  1  0.15573000  0.53645000  0.53621000  1.0
  C  C42  1  0.24311000  0.53730000  0.53721000  1.0
  C  C43  1  0.23624000  0.44333000  0.44358000  1.0
  C  C44  1  0.48613000  0.26051000  0.49884000  1.0
  C  C45  1  0.56077000  0.22288000  0.50218000  1.0
  C  C46  1  0.55719000  0.14262000  0.50232000  1.0
  C  C47  1  0.47787000  0.09833000  0.49917000  1.0
  C  C48  1  0.40325000  0.13569000  0.49612000  1.0
  C  C49  1  0.40739000  0.21621000  0.49596000  1.0
  C  C50  1  0.59674000  0.86432000  0.50394000  1.0
  C  C51  1  0.52213000  0.90168000  0.50090000  1.0
  C  C52  1  0.44280000  0.85740000  0.49774000  1.0
  C  C53  1  0.43921000  0.77714000  0.49787000  1.0
  C  C54  1  0.51385000  0.73950000  0.50119000  1.0
  C  C55  1  0.59259000  0.78379000  0.50408000  1.0
  C  C56  1  0.49955000  0.50012000  0.73006000  1.0
  C  C57  1  0.42300000  0.49679000  0.76650000  1.0
  C  C58  1  0.42375000  0.49664000  0.84388000  1.0
  C  C59  1  0.50094000  0.49976000  0.88697000  1.0
  C  C60  1  0.57862000  0.50292000  0.85052000  1.0
  C  C61  1  0.57591000  0.50298000  0.77257000  1.0
  C  C62  1  0.50006000  0.49974000  0.96589000  1.0
  C  C63  1  0.49993000  0.49988000  0.03411000  1.0
  C  C64  1  0.49905000  0.49991000  0.11301000  1.0
  C  C65  1  0.42136000  0.49688000  0.14946000  1.0
  C  C66  1  0.42407000  0.49689000  0.22742000  1.0
  C  C67  1  0.50044000  0.49974000  0.26993000  1.0
  C  C68  1  0.57698000  0.50299000  0.23350000  1.0
  C  C69  1  0.57624000  0.50306000  0.15612000  1.0
  C  C70  1  0.66216000  0.50609000  0.89407000  1.0
  C  C71  1  0.33783000  0.49377000  0.10592000  1.0
  N  N72  1  0.71763000  0.50835000  0.50823000  1.0
  N  N73  1  0.98257000  0.52150000  0.52188000  1.0
  N  N74  1  0.01744000  0.47854000  0.47809000  1.0
  N  N75  1  0.28236000  0.49168000  0.49177000  1.0
  N  N76  1  0.46607000  0.01651000  0.49890000  1.0
  N  N77  1  0.53393000  0.98350000  0.50118000  1.0
  O  O78  1  0.42109000  0.37794000  0.49551000  1.0
  O  O79  1  0.56457000  0.38409000  0.50172000  1.0
  O  O80  1  0.57190000  0.50245000  0.38911000  1.0
  O  O81  1  0.42846000  0.49639000  0.38295000  1.0
  O  O82  1  0.57890000  0.62206000  0.50436000  1.0
  O  O83  1  0.43541000  0.61593000  0.49840000  1.0
  O  O84  1  0.42810000  0.49741000  0.61089000  1.0
  O  O85  1  0.57155000  0.50372000  0.61705000  1.0
