# generated using pymatgen
data_CuH6(C3N)3
_symmetry_space_group_name_H-M   'P 1'
_cell_length_a   7.86279000
_cell_length_b   7.89147229
_cell_length_c   15.90660000
_cell_angle_alpha   84.94469274
_cell_angle_beta   79.87180000
_cell_angle_gamma   60.17309233
_symmetry_Int_Tables_number   1
_chemical_formula_structural   CuH6(C3N)3
_chemical_formula_sum   'Cu4 H24 C36 N12'
_cell_volume   842.90072140
_cell_formula_units_Z   4
loop_
 _symmetry_equiv_pos_site_id
 _symmetry_equiv_pos_as_xyz
  1  'x, y, z'
loop_
 _atom_site_type_symbol
 _atom_site_label
 _atom_site_symmetry_multiplicity
 _atom_site_fract_x
 _atom_site_fract_y
 _atom_site_fract_z
 _atom_site_occupancy
  Cu  Cu0  1  0.25104000  0.81943000  0.17003000  1.0
  Cu  Cu1  1  0.92984000  0.81947000  0.32992000  1.0
  Cu  Cu2  1  0.74896000  0.18055000  0.82998000  1.0
  Cu  Cu3  1  0.07017000  0.18053000  0.67008000  1.0
  H  H4  1  0.26022000  0.35472000  0.50314000  1.0
  H  H5  1  0.38509000  0.35480000  0.99681000  1.0
  H  H6  1  0.73978000  0.64530000  0.49685000  1.0
  H  H7  1  0.61491000  0.64518000  0.00319000  1.0
  H  H8  1  0.54273000  0.79389000  0.38012000  1.0
  H  H9  1  0.66319000  0.79380000  0.11995000  1.0
  H  H10  1  0.45726000  0.20613000  0.61987000  1.0
  H  H11  1  0.33679000  0.20620000  0.88005000  1.0
  H  H12  1  0.18373000  0.65690000  0.03354000  1.0
  H  H13  1  0.15927000  0.65698000  0.46652000  1.0
  H  H14  1  0.81628000  0.34309000  0.96647000  1.0
  H  H15  1  0.84073000  0.34303000  0.53349000  1.0
  H  H16  1  0.89367000  0.26659000  0.17731000  1.0
  H  H17  1  0.83973000  0.26686000  0.32262000  1.0
  H  H18  1  0.10632000  0.73342000  0.82269000  1.0
  H  H19  1  0.16030000  0.73313000  0.67738000  1.0
  H  H20  1  0.89481000  0.42361000  0.08951000  1.0
  H  H21  1  0.68191000  0.42363000  0.41039000  1.0
  H  H22  1  0.10519000  0.57639000  0.91049000  1.0
  H  H23  1  0.31811000  0.57636000  0.58961000  1.0
  H  H24  1  0.12179000  0.24309000  0.12407000  1.0
  H  H25  1  0.63528000  0.24302000  0.37591000  1.0
  H  H26  1  0.87820000  0.75692000  0.87594000  1.0
  H  H27  1  0.36474000  0.75697000  0.62409000  1.0
  C  C28  1  0.36751000  0.19893000  0.50063000  1.0
  C  C29  1  0.43354000  0.19899000  0.99934000  1.0
  C  C30  1  0.63247000  0.80109000  0.49936000  1.0
  C  C31  1  0.56645000  0.80100000  0.00066000  1.0
  C  C32  1  0.52294000  0.88517000  0.43270000  1.0
  C  C33  1  0.59174000  0.88512000  0.06735000  1.0
  C  C34  1  0.47705000  0.11485000  0.56729000  1.0
  C  C35  1  0.40826000  0.11487000  0.93265000  1.0
  C  C36  1  0.27167000  0.17636000  0.36154000  1.0
  C  C37  1  0.55179000  0.17637000  0.13847000  1.0
  C  C38  1  0.72831000  0.82366000  0.63845000  1.0
  C  C39  1  0.44821000  0.82361000  0.86153000  1.0
  C  C40  1  0.10024000  0.81165000  0.01819000  1.0
  C  C41  1  0.08803000  0.81170000  0.48184000  1.0
  C  C42  1  0.89976000  0.18835000  0.98182000  1.0
  C  C43  1  0.91198000  0.18830000  0.51817000  1.0
  C  C44  1  0.26645000  0.06365000  0.30105000  1.0
  C  C45  1  0.66984000  0.06364000  0.19894000  1.0
  C  C46  1  0.73357000  0.93633000  0.69895000  1.0
  C  C47  1  0.33017000  0.93633000  0.80106000  1.0
  C  C48  1  0.38763000  0.08692000  0.43165000  1.0
  C  C49  1  0.52536000  0.08693000  0.06837000  1.0
  C  C50  1  0.61235000  0.91310000  0.56835000  1.0
  C  C51  1  0.47463000  0.91306000  0.93163000  1.0
  C  C52  1  0.16021000  0.37746000  0.35263000  1.0
  C  C53  1  0.46229000  0.37748000  0.14737000  1.0
  C  C54  1  0.83978000  0.62254000  0.64736000  1.0
  C  C55  1  0.53771000  0.62252000  0.85264000  1.0
  C  C56  1  0.99016000  0.12968000  0.05504000  1.0
  C  C57  1  0.88028000  0.12971000  0.44493000  1.0
  C  C58  1  0.00984000  0.87031000  0.94497000  1.0
  C  C59  1  0.11974000  0.87029000  0.55507000  1.0
  C  C60  1  0.97398000  0.27475000  0.11447000  1.0
  C  C61  1  0.75142000  0.27481000  0.38548000  1.0
  C  C62  1  0.02602000  0.72526000  0.88554000  1.0
  C  C63  1  0.24860000  0.72518000  0.61452000  1.0
  N  N64  1  0.09313000  0.93645000  0.07282000  1.0
  N  N65  1  0.97045000  0.93652000  0.42716000  1.0
  N  N66  1  0.90687000  0.06355000  0.92718000  1.0
  N  N67  1  0.02955000  0.06349000  0.57284000  1.0
  N  N68  1  0.25871000  0.96630000  0.25132000  1.0
  N  N69  1  0.77503000  0.96637000  0.24866000  1.0
  N  N70  1  0.74129000  0.03369000  0.74868000  1.0
  N  N71  1  0.22498000  0.03362000  0.75134000  1.0
  N  N72  1  0.06431000  0.54830000  0.34546000  1.0
  N  N73  1  0.38732000  0.54829000  0.15457000  1.0
  N  N74  1  0.93568000  0.45172000  0.65454000  1.0
  N  N75  1  0.61268000  0.45168000  0.84544000  1.0
