# generated using pymatgen
data_CaH16C11(NO4)2
_symmetry_space_group_name_H-M   'P 1'
_cell_length_a   8.20697000
_cell_length_b   9.72993000
_cell_length_c   9.72988000
_cell_angle_alpha   78.82870000
_cell_angle_beta   75.00450000
_cell_angle_gamma   75.00440000
_symmetry_Int_Tables_number   1
_chemical_formula_structural   CaH16C11(NO4)2
_chemical_formula_sum   'Ca2 H32 C22 N4 O16'
_cell_volume   718.22115439
_cell_formula_units_Z   2
loop_
 _symmetry_equiv_pos_site_id
 _symmetry_equiv_pos_as_xyz
  1  'x, y, z'
loop_
 _atom_site_type_symbol
 _atom_site_label
 _atom_site_symmetry_multiplicity
 _atom_site_fract_x
 _atom_site_fract_y
 _atom_site_fract_z
 _atom_site_occupancy
  Ca  Ca0  1  0.25000000  0.53927000  0.46073000  1.0
  Ca  Ca1  1  0.75000000  0.46073000  0.53927000  1.0
  H  H2  1  0.12431000  0.39952000  0.95099000  1.0
  H  H3  1  0.37569000  0.04902000  0.60048000  1.0
  H  H4  1  0.87568000  0.60048000  0.04902000  1.0
  H  H5  1  0.62431000  0.95099000  0.39952000  1.0
  H  H6  1  0.33254000  0.33205000  0.17306000  1.0
  H  H7  1  0.16746000  0.82694000  0.66794000  1.0
  H  H8  1  0.66746000  0.66795000  0.82694000  1.0
  H  H9  1  0.83254000  0.17306000  0.33205000  1.0
  H  H10  1  0.10580000  0.34015000  0.20414000  1.0
  H  H11  1  0.39420000  0.79586000  0.65984000  1.0
  H  H12  1  0.89420000  0.65985000  0.79586000  1.0
  H  H13  1  0.60580000  0.20414000  0.34016000  1.0
  H  H14  1  0.49832000  0.31158000  0.85745000  1.0
  H  H15  1  0.00169000  0.14255000  0.68842000  1.0
  H  H16  1  0.50169000  0.68842000  0.14255000  1.0
  H  H17  1  0.99831000  0.85745000  0.31158000  1.0
  H  H18  1  0.42272000  0.47477000  0.93254000  1.0
  H  H19  1  0.07727000  0.06747000  0.52523000  1.0
  H  H20  1  0.57727000  0.52524000  0.06746000  1.0
  H  H21  1  0.92273000  0.93254000  0.47477000  1.0
  H  H22  1  0.13633000  0.16126000  0.06173000  1.0
  H  H23  1  0.36367000  0.93827000  0.83873000  1.0
  H  H24  1  0.86367000  0.83874000  0.93827000  1.0
  H  H25  1  0.63634000  0.06173000  0.16126000  1.0
  H  H26  1  0.36746000  0.12628000  0.01973000  1.0
  H  H27  1  0.13255000  0.98027000  0.87372000  1.0
  H  H28  1  0.63254000  0.87372000  0.98028000  1.0
  H  H29  1  0.86746000  0.01972000  0.12628000  1.0
  H  H30  1  0.36446000  0.19713000  0.75649000  1.0
  H  H31  1  0.13554000  0.24350000  0.80287000  1.0
  H  H32  1  0.63554000  0.80287000  0.24351000  1.0
  H  H33  1  0.86446000  0.75649000  0.19713000  1.0
  C  C34  1  0.16818000  0.54682000  0.12867000  1.0
  C  C35  1  0.33182000  0.87133000  0.45317000  1.0
  C  C36  1  0.83182000  0.45318000  0.87133000  1.0
  C  C37  1  0.66818000  0.12867000  0.54682000  1.0
  C  C38  1  0.21477000  0.38191000  0.13267000  1.0
  C  C39  1  0.28524000  0.86734000  0.61808000  1.0
  C  C40  1  0.78523000  0.61809000  0.86734000  1.0
  C  C41  1  0.71477000  0.13266000  0.38191000  1.0
  C  C42  1  0.33530000  0.48029000  0.74279000  1.0
  C  C43  1  0.16470000  0.25721000  0.51971000  1.0
  C  C44  1  0.66470000  0.51971000  0.25721000  1.0
  C  C45  1  0.83530000  0.74279000  0.48030000  1.0
  C  C46  1  0.38557000  0.39988000  0.88211000  1.0
  C  C47  1  0.11443000  0.11789000  0.60011000  1.0
  C  C48  1  0.61443000  0.60012000  0.11789000  1.0
  C  C49  1  0.88557000  0.88211000  0.39989000  1.0
  C  C50  1  0.25019000  0.18804000  0.98322000  1.0
  C  C51  1  0.24981000  0.01678000  0.81196000  1.0
  C  C52  1  0.74981000  0.81196000  0.01678000  1.0
  C  C53  1  0.75019000  0.98322000  0.18804000  1.0
  C  C54  1  0.25000000  0.16787000  0.83213000  1.0
  C  C55  1  0.75000000  0.83212000  0.16787000  1.0
  N  N56  1  0.23866000  0.34473000  0.98553000  1.0
  N  N57  1  0.26134000  0.01447000  0.65527000  1.0
  N  N58  1  0.76134000  0.65527000  0.01447000  1.0
  N  N59  1  0.73866000  0.98553000  0.34473000  1.0
  O  O60  1  0.19858000  0.59450000  0.22896000  1.0
  O  O61  1  0.30142000  0.77104000  0.40549000  1.0
  O  O62  1  0.80142000  0.40550000  0.77104000  1.0
  O  O63  1  0.69858000  0.22896000  0.59450000  1.0
  O  O64  1  0.10288000  0.61972000  0.02578000  1.0
  O  O65  1  0.39712000  0.97422000  0.38028000  1.0
  O  O66  1  0.89712000  0.38028000  0.97422000  1.0
  O  O67  1  0.60288000  0.02578000  0.61972000  1.0
  O  O68  1  0.18373000  0.49342000  0.72770000  1.0
  O  O69  1  0.31627000  0.27230000  0.50657000  1.0
  O  O70  1  0.81627000  0.50658000  0.27230000  1.0
  O  O71  1  0.68372000  0.72770000  0.49343000  1.0
  O  O72  1  0.45318000  0.52891000  0.64881000  1.0
  O  O73  1  0.04682000  0.35118000  0.47109000  1.0
  O  O74  1  0.54682000  0.47109000  0.35118000  1.0
  O  O75  1  0.95318000  0.64881000  0.52891000  1.0
