# generated using pymatgen
data_DyH17C26N4O9
_symmetry_space_group_name_H-M   'P 1'
_cell_length_a   9.04668000
_cell_length_b   9.32231000
_cell_length_c   15.97620000
_cell_angle_alpha   75.06010000
_cell_angle_beta   74.16390000
_cell_angle_gamma   77.43550000
_symmetry_Int_Tables_number   1
_chemical_formula_structural   DyH17C26N4O9
_chemical_formula_sum   'Dy2 H34 C52 N8 O18'
_cell_volume   1236.61278704
_cell_formula_units_Z   2
loop_
 _symmetry_equiv_pos_site_id
 _symmetry_equiv_pos_as_xyz
  1  'x, y, z'
loop_
 _atom_site_type_symbol
 _atom_site_label
 _atom_site_symmetry_multiplicity
 _atom_site_fract_x
 _atom_site_fract_y
 _atom_site_fract_z
 _atom_site_occupancy
  Dy  Dy0  1  0.69068000  0.89049000  0.72186000  1.0
  Dy  Dy1  1  0.30932000  0.10951000  0.27814000  1.0
  H  H2  1  0.28526000  0.25842000  0.94047000  1.0
  H  H3  1  0.71474000  0.74158000  0.05952000  1.0
  H  H4  1  0.41935000  0.71835000  0.88190000  1.0
  H  H5  1  0.58065000  0.28166000  0.11811000  1.0
  H  H6  1  0.13570000  0.75733000  0.96246000  1.0
  H  H7  1  0.86430000  0.24267000  0.03755000  1.0
  H  H8  1  0.96539000  0.99258000  0.90999000  1.0
  H  H9  1  0.03460000  0.00742000  0.09001000  1.0
  H  H10  1  0.04317000  0.39907000  0.65349000  1.0
  H  H11  1  0.95683000  0.60093000  0.34651000  1.0
  H  H12  1  0.93441000  0.23313000  0.79553000  1.0
  H  H13  1  0.06558000  0.76687000  0.20447000  1.0
  H  H14  1  0.27074000  0.45241000  0.52344000  1.0
  H  H15  1  0.72926000  0.54759000  0.47656000  1.0
  H  H16  1  0.54725000  0.37735000  0.45042000  1.0
  H  H17  1  0.45275000  0.62264000  0.54958000  1.0
  H  H18  1  0.70561000  0.15016000  0.52684000  1.0
  H  H19  1  0.29439000  0.84984000  0.47317000  1.0
  H  H20  1  0.64087000  0.17278000  0.99088000  1.0
  H  H21  1  0.35913000  0.82722000  0.00912000  1.0
  H  H22  1  0.63741000  0.44371000  0.90395000  1.0
  H  H23  1  0.36260000  0.55629000  0.09605000  1.0
  H  H24  1  0.67704000  0.27931000  0.66988000  1.0
  H  H25  1  0.32295000  0.72069000  0.33012000  1.0
  H  H26  1  0.32317000  0.79338000  0.64404000  1.0
  H  H27  1  0.67683000  0.20662000  0.35596000  1.0
  H  H28  1  0.36669000  0.54996000  0.75670000  1.0
  H  H29  1  0.63331000  0.45004000  0.24329000  1.0
  H  H30  1  0.86946000  0.58939000  0.85136000  1.0
  H  H31  1  0.13055000  0.41061000  0.14864000  1.0
  H  H32  1  0.79978000  0.86724000  0.52617000  1.0
  H  H33  1  0.20022000  0.13276000  0.47383000  1.0
  H  H34  1  0.73500000  0.71226000  0.59329000  1.0
  H  H35  1  0.26501000  0.28774000  0.40671000  1.0
  C  C36  1  0.33934000  0.81817000  0.85989000  1.0
  C  C37  1  0.66066000  0.18184000  0.14011000  1.0
  C  C38  1  0.18209000  0.84050000  0.90488000  1.0
  C  C39  1  0.81791000  0.15950000  0.09512000  1.0
  C  C40  1  0.08706000  0.97057000  0.87508000  1.0
  C  C41  1  0.91294000  0.02943000  0.12492000  1.0
  C  C42  1  0.14782000  0.07439000  0.79833000  1.0
  C  C43  1  0.85218000  0.92561000  0.20167000  1.0
  C  C44  1  0.30739000  0.04042000  0.75627000  1.0
  C  C45  1  0.69261000  0.95958000  0.24373000  1.0
  C  C46  1  0.37246000  0.13819000  0.67488000  1.0
  C  C47  1  0.62753000  0.86181000  0.32512000  1.0
  C  C48  1  0.27512000  0.26666000  0.63777000  1.0
  C  C49  1  0.72488000  0.73334000  0.36223000  1.0
  C  C50  1  0.11579000  0.29982000  0.68312000  1.0
  C  C51  1  0.88421000  0.70018000  0.31688000  1.0
  C  C52  1  0.05513000  0.20772000  0.76075000  1.0
  C  C53  1  0.94487000  0.79228000  0.23925000  1.0
  C  C54  1  0.34144000  0.35447000  0.55554000  1.0
  C  C55  1  0.65856000  0.64553000  0.44446000  1.0
  C  C56  1  0.49505000  0.31260000  0.51472000  1.0
  C  C57  1  0.50494000  0.68740000  0.48528000  1.0
  C  C58  1  0.58364000  0.18542000  0.55690000  1.0
  C  C59  1  0.41636000  0.81458000  0.44310000  1.0
  C  C60  1  0.67189000  0.92575000  0.92278000  1.0
  C  C61  1  0.32811000  0.07425000  0.07722000  1.0
  C  C62  1  0.65870000  0.08953000  0.87560000  1.0
  C  C63  1  0.34129000  0.91047000  0.12440000  1.0
  C  C64  1  0.64710000  0.20365000  0.91989000  1.0
  C  C65  1  0.35290000  0.79635000  0.08011000  1.0
  C  C66  1  0.64500000  0.35132000  0.87203000  1.0
  C  C67  1  0.35500000  0.64868000  0.12797000  1.0
  C  C68  1  0.65753000  0.37989000  0.78025000  1.0
  C  C69  1  0.34248000  0.62011000  0.21975000  1.0
  C  C70  1  0.66586000  0.25924000  0.74134000  1.0
  C  C71  1  0.33414000  0.74076000  0.25866000  1.0
  C  C72  1  0.66885000  0.53336000  0.72141000  1.0
  C  C73  1  0.33116000  0.46664000  0.27859000  1.0
  C  C74  1  0.03784000  0.96309000  0.62593000  1.0
  C  C75  1  0.96215000  0.03692000  0.37407000  1.0
  C  C76  1  0.07492000  0.81381000  0.68886000  1.0
  C  C77  1  0.92508000  0.18619000  0.31114000  1.0
  C  C78  1  0.22679000  0.74188000  0.69036000  1.0
  C  C79  1  0.77321000  0.25812000  0.30964000  1.0
  C  C80  1  0.25009000  0.60881000  0.75287000  1.0
  C  C81  1  0.74991000  0.39119000  0.24713000  1.0
  C  C82  1  0.12114000  0.55178000  0.81283000  1.0
  C  C83  1  0.87886000  0.44822000  0.18717000  1.0
  C  C84  1  0.97295000  0.62950000  0.80583000  1.0
  C  C85  1  0.02706000  0.37049000  0.19417000  1.0
  C  C86  1  0.13331000  0.41322000  0.88483000  1.0
  C  C87  1  0.86669000  0.58678000  0.11516000  1.0
  N  N88  1  0.40146000  0.91541000  0.78847000  1.0
  N  N89  1  0.59854000  0.08459000  0.21153000  1.0
  N  N90  1  0.52479000  0.10064000  0.63525000  1.0
  N  N91  1  0.47521000  0.89936000  0.36476000  1.0
  N  N92  1  0.66448000  0.11737000  0.78766000  1.0
  N  N93  1  0.33552000  0.88263000  0.21234000  1.0
  N  N94  1  0.95066000  0.75622000  0.74502000  1.0
  N  N95  1  0.04935000  0.24377000  0.25498000  1.0
  O  O96  1  0.67243000  0.83144000  0.87732000  1.0
  O  O97  1  0.32755000  0.16856000  0.12269000  1.0
  O  O98  1  0.68475000  0.89615000  0.00246000  1.0
  O  O99  1  0.31526000  0.10385000  0.99754000  1.0
  O  O100  1  0.64787000  0.64302000  0.76027000  1.0
  O  O101  1  0.35212000  0.35698000  0.23973000  1.0
  O  O102  1  0.69922000  0.54299000  0.63828000  1.0
  O  O103  1  0.30079000  0.45701000  0.36172000  1.0
  O  O104  1  0.89332000  0.01932000  0.63559000  1.0
  O  O105  1  0.10668000  0.98069000  0.36441000  1.0
  O  O106  1  0.15094000  0.01806000  0.57186000  1.0
  O  O107  1  0.84906000  0.98194000  0.42814000  1.0
  O  O108  1  0.01675000  0.36057000  0.93188000  1.0
  O  O109  1  0.98325000  0.63942000  0.06812000  1.0
  O  O110  1  0.27856000  0.35714000  0.89124000  1.0
  O  O111  1  0.72144000  0.64286000  0.10875000  1.0
  O  O112  1  0.75045000  0.81828000  0.58803000  1.0
  O  O113  1  0.24954000  0.18173000  0.41197000  1.0
