# generated using pymatgen
data_CdH10C7(IN)2
_symmetry_space_group_name_H-M   'P 1'
_cell_length_a   7.62739000
_cell_length_b   9.90324000
_cell_length_c   14.65650000
_cell_angle_alpha   89.99990000
_cell_angle_beta   87.18340000
_cell_angle_gamma   89.99960000
_symmetry_Int_Tables_number   1
_chemical_formula_structural   CdH10C7(IN)2
_chemical_formula_sum   'Cd4 H40 C28 I8 N8'
_cell_volume   1105.75410320
_cell_formula_units_Z   4
loop_
 _symmetry_equiv_pos_site_id
 _symmetry_equiv_pos_as_xyz
  1  'x, y, z'
loop_
 _atom_site_type_symbol
 _atom_site_label
 _atom_site_symmetry_multiplicity
 _atom_site_fract_x
 _atom_site_fract_y
 _atom_site_fract_z
 _atom_site_occupancy
  Cd  Cd0  1  0.80596000  0.34582000  0.71892000  1.0
  Cd  Cd1  1  0.69404000  0.84582000  0.28107000  1.0
  Cd  Cd2  1  0.19403000  0.65418000  0.28108000  1.0
  Cd  Cd3  1  0.30596000  0.15419000  0.71893000  1.0
  H  H4  1  0.74015000  0.45800000  0.54882000  1.0
  H  H5  1  0.75984000  0.95800000  0.45118000  1.0
  H  H6  1  0.25985000  0.54200000  0.45118000  1.0
  H  H7  1  0.24015000  0.04200000  0.54882000  1.0
  H  H8  1  0.55209000  0.39982000  0.59434000  1.0
  H  H9  1  0.94790000  0.89982000  0.40565000  1.0
  H  H10  1  0.44790000  0.60018000  0.40566000  1.0
  H  H11  1  0.05209000  0.10018000  0.59435000  1.0
  H  H12  1  0.89211000  0.44806000  0.91039000  1.0
  H  H13  1  0.60789000  0.94806000  0.08961000  1.0
  H  H14  1  0.10788000  0.55193000  0.08961000  1.0
  H  H15  1  0.39213000  0.05194000  0.91039000  1.0
  H  H16  1  0.88062000  0.65048000  0.01504000  1.0
  H  H17  1  0.61937000  0.15048000  0.98496000  1.0
  H  H18  1  0.11937000  0.34951000  0.98497000  1.0
  H  H19  1  0.38064000  0.84952000  0.01503000  1.0
  H  H20  1  0.80865000  0.87587000  0.94850000  1.0
  H  H21  1  0.69134000  0.37587000  0.05150000  1.0
  H  H22  1  0.19136000  0.12412000  0.05150000  1.0
  H  H23  1  0.30865000  0.62413000  0.94850000  1.0
  H  H24  1  0.74465000  0.88972000  0.78327000  1.0
  H  H25  1  0.75534000  0.38973000  0.21672000  1.0
  H  H26  1  0.25535000  0.11027000  0.21673000  1.0
  H  H27  1  0.24465000  0.61028000  0.78328000  1.0
  H  H28  1  0.87521000  0.65660000  0.61838000  1.0
  H  H29  1  0.62478000  0.15661000  0.38162000  1.0
  H  H30  1  0.12478000  0.34339000  0.38162000  1.0
  H  H31  1  0.37522000  0.84340000  0.61838000  1.0
  H  H32  1  0.72795000  0.79089000  0.64267000  1.0
  H  H33  1  0.77205000  0.29089000  0.35733000  1.0
  H  H34  1  0.27205000  0.20911000  0.35733000  1.0
  H  H35  1  0.22795000  0.70912000  0.64267000  1.0
  H  H36  1  0.49732000  0.59282000  0.68111000  1.0
  H  H37  1  0.00267000  0.09282000  0.31888000  1.0
  H  H38  1  0.50267000  0.40718000  0.31889000  1.0
  H  H39  1  0.99733000  0.90718000  0.68112000  1.0
  H  H40  1  0.55024000  0.64538000  0.56714000  1.0
  H  H41  1  0.94977000  0.14537000  0.43286000  1.0
  H  H42  1  0.44976000  0.35462000  0.43286000  1.0
  H  H43  1  0.05023000  0.85463000  0.56714000  1.0
  C  C44  1  0.86135000  0.54893000  0.88539000  1.0
  C  C45  1  0.63865000  0.04893000  0.11461000  1.0
  C  C46  1  0.13865000  0.45107000  0.11461000  1.0
  C  C47  1  0.36136000  0.95107000  0.88539000  1.0
  C  C48  1  0.85484000  0.66044000  0.94292000  1.0
  C  C49  1  0.64516000  0.16044000  0.05707000  1.0
  C  C50  1  0.14516000  0.33955000  0.05708000  1.0
  C  C51  1  0.35485000  0.83956000  0.94292000  1.0
  C  C52  1  0.81329000  0.78546000  0.90602000  1.0
  C  C53  1  0.68670000  0.28546000  0.09397000  1.0
  C  C54  1  0.18671000  0.21454000  0.09398000  1.0
  C  C55  1  0.31330000  0.71455000  0.90602000  1.0
  C  C56  1  0.77914000  0.79344000  0.81381000  1.0
  C  C57  1  0.72086000  0.29344000  0.18618000  1.0
  C  C58  1  0.22086000  0.20656000  0.18619000  1.0
  C  C59  1  0.27914000  0.70656000  0.81382000  1.0
  C  C60  1  0.78957000  0.67713000  0.75933000  1.0
  C  C61  1  0.71044000  0.17714000  0.24067000  1.0
  C  C62  1  0.21043000  0.32286000  0.24067000  1.0
  C  C63  1  0.28957000  0.82287000  0.75933000  1.0
  C  C64  1  0.75555000  0.68501000  0.65921000  1.0
  C  C65  1  0.74445000  0.18501000  0.34079000  1.0
  C  C66  1  0.24445000  0.31499000  0.34079000  1.0
  C  C67  1  0.25555000  0.81499000  0.65921000  1.0
  C  C68  1  0.60341000  0.59796000  0.62792000  1.0
  C  C69  1  0.89659000  0.09796000  0.37208000  1.0
  C  C70  1  0.39659000  0.40204000  0.37208000  1.0
  C  C71  1  0.10341000  0.90204000  0.62792000  1.0
  I  I72  1  0.95838000  0.16200000  0.83984000  1.0
  I  I73  1  0.54162000  0.66201000  0.16016000  1.0
  I  I74  1  0.04162000  0.83799000  0.16016000  1.0
  I  I75  1  0.45838000  0.33799000  0.83984000  1.0
  I  I76  1  0.15104000  0.39819000  0.60802000  1.0
  I  I77  1  0.34895000  0.89818000  0.39198000  1.0
  I  I78  1  0.84895000  0.60182000  0.39198000  1.0
  I  I79  1  0.65104000  0.10181000  0.60802000  1.0
  N  N80  1  0.83102000  0.55655000  0.79586000  1.0
  N  N81  1  0.66898000  0.05655000  0.20414000  1.0
  N  N82  1  0.16897000  0.44345000  0.20414000  1.0
  N  N83  1  0.33104000  0.94345000  0.79586000  1.0
  N  N84  1  0.65902000  0.45847000  0.60701000  1.0
  N  N85  1  0.84097000  0.95847000  0.39299000  1.0
  N  N86  1  0.34097000  0.54153000  0.39299000  1.0
  N  N87  1  0.15903000  0.04153000  0.60701000  1.0
