# generated using pymatgen
data_NiH7C7NO6
_symmetry_space_group_name_H-M   'P 1'
_cell_length_a   7.15551000
_cell_length_b   9.20507000
_cell_length_c   13.03800000
_cell_angle_alpha   90.00040000
_cell_angle_beta   90.00020000
_cell_angle_gamma   89.99990000
_symmetry_Int_Tables_number   1
_chemical_formula_structural   NiH7C7NO6
_chemical_formula_sum   'Ni4 H28 C28 N4 O24'
_cell_volume   858.77356051
_cell_formula_units_Z   4
loop_
 _symmetry_equiv_pos_site_id
 _symmetry_equiv_pos_as_xyz
  1  'x, y, z'
loop_
 _atom_site_type_symbol
 _atom_site_label
 _atom_site_symmetry_multiplicity
 _atom_site_fract_x
 _atom_site_fract_y
 _atom_site_fract_z
 _atom_site_occupancy
  Ni  Ni0  1  0.88556000  0.12525000  0.73854000  1.0
  Ni  Ni1  1  0.61443000  0.87476000  0.23854000  1.0
  Ni  Ni2  1  0.11443000  0.62524000  0.76146000  1.0
  Ni  Ni3  1  0.38556000  0.37475000  0.26146000  1.0
  H  H4  1  0.41088000  0.90363000  0.51062000  1.0
  H  H5  1  0.08912000  0.09636000  0.01062000  1.0
  H  H6  1  0.58912000  0.40364000  0.98938000  1.0
  H  H7  1  0.91089000  0.59637000  0.48938000  1.0
  H  H8  1  0.15537000  0.09220000  0.53449000  1.0
  H  H9  1  0.34464000  0.90779000  0.03450000  1.0
  H  H10  1  0.84463000  0.59221000  0.96550000  1.0
  H  H11  1  0.65537000  0.40780000  0.46551000  1.0
  H  H12  1  0.54491000  0.33553000  0.72010000  1.0
  H  H13  1  0.95509000  0.66447000  0.22011000  1.0
  H  H14  1  0.45508000  0.83553000  0.77989000  1.0
  H  H15  1  0.04490000  0.16446000  0.27990000  1.0
  H  H16  1  0.11320000  0.97179000  0.83294000  1.0
  H  H17  1  0.38680000  0.02822000  0.33295000  1.0
  H  H18  1  0.88680000  0.47179000  0.66705000  1.0
  H  H19  1  0.61320000  0.52821000  0.16705000  1.0
  H  H20  1  0.18412000  0.13449000  0.86171000  1.0
  H  H21  1  0.31588000  0.86551000  0.36171000  1.0
  H  H22  1  0.81589000  0.63449000  0.63829000  1.0
  H  H23  1  0.68411000  0.36551000  0.13829000  1.0
  H  H24  1  0.91531000  0.34578000  0.85893000  1.0
  H  H25  1  0.58469000  0.65422000  0.35893000  1.0
  H  H26  1  0.08469000  0.84578000  0.64108000  1.0
  H  H27  1  0.41531000  0.15422000  0.14107000  1.0
  H  H28  1  0.79219000  0.22901000  0.91712000  1.0
  H  H29  1  0.70781000  0.77099000  0.41712000  1.0
  H  H30  1  0.20781000  0.72901000  0.58289000  1.0
  H  H31  1  0.29219000  0.27099000  0.08288000  1.0
  C  C32  1  0.76271000  0.91625000  0.59280000  1.0
  C  C33  1  0.73730000  0.08376000  0.09280000  1.0
  C  C34  1  0.23730000  0.41624000  0.90720000  1.0
  C  C35  1  0.26270000  0.58375000  0.40719000  1.0
  C  C36  1  0.60566000  0.02400000  0.60070000  1.0
  C  C37  1  0.89434000  0.97599000  0.10071000  1.0
  C  C38  1  0.39434000  0.52401000  0.89929000  1.0
  C  C39  1  0.10566000  0.47599000  0.39929000  1.0
  C  C40  1  0.43347000  0.00296000  0.55395000  1.0
  C  C41  1  0.06654000  0.99703000  0.05396000  1.0
  C  C42  1  0.56654000  0.50297000  0.94605000  1.0
  C  C43  1  0.93347000  0.49704000  0.44605000  1.0
  C  C44  1  0.29392000  0.10684000  0.56743000  1.0
  C  C45  1  0.20607000  0.89315000  0.06744000  1.0
  C  C46  1  0.70607000  0.60685000  0.93257000  1.0
  C  C47  1  0.79393000  0.39316000  0.43257000  1.0
  C  C48  1  0.33188000  0.22882000  0.62741000  1.0
  C  C49  1  0.16811000  0.77117000  0.12742000  1.0
  C  C50  1  0.66811000  0.72882000  0.87258000  1.0
  C  C51  1  0.83188000  0.27117000  0.37259000  1.0
  C  C52  1  0.50993000  0.24312000  0.67146000  1.0
  C  C53  1  0.99007000  0.75687000  0.17147000  1.0
  C  C54  1  0.49006000  0.74313000  0.82854000  1.0
  C  C55  1  0.00993000  0.25688000  0.32854000  1.0
  C  C56  1  0.18747000  0.34203000  0.65096000  1.0
  C  C57  1  0.31252000  0.65795000  0.15096000  1.0
  C  C58  1  0.81251000  0.84205000  0.84904000  1.0
  C  C59  1  0.68747000  0.15796000  0.34905000  1.0
  N  N60  1  0.64216000  0.14232000  0.65909000  1.0
  N  N61  1  0.85784000  0.85768000  0.15910000  1.0
  N  N62  1  0.35783000  0.64232000  0.84091000  1.0
  N  N63  1  0.14216000  0.35768000  0.34091000  1.0
  O  O64  1  0.91932000  0.95964000  0.63075000  1.0
  O  O65  1  0.58068000  0.04036000  0.13076000  1.0
  O  O66  1  0.08068000  0.45963000  0.86924000  1.0
  O  O67  1  0.41932000  0.54037000  0.36925000  1.0
  O  O68  1  0.73637000  0.79303000  0.55339000  1.0
  O  O69  1  0.76364000  0.20696000  0.05339000  1.0
  O  O70  1  0.26364000  0.29304000  0.94661000  1.0
  O  O71  1  0.23636000  0.70697000  0.44661000  1.0
  O  O72  1  0.25038000  0.46919000  0.66709000  1.0
  O  O73  1  0.24963000  0.53082000  0.16710000  1.0
  O  O74  1  0.74962000  0.96918000  0.83290000  1.0
  O  O75  1  0.75037000  0.03082000  0.33291000  1.0
  O  O76  1  0.01438000  0.30686000  0.65425000  1.0
  O  O77  1  0.48563000  0.69314000  0.15425000  1.0
  O  O78  1  0.98563000  0.80685000  0.84575000  1.0
  O  O79  1  0.51438000  0.19315000  0.34576000  1.0
  O  O80  1  0.14751000  0.06919000  0.80509000  1.0
  O  O81  1  0.35250000  0.93081000  0.30510000  1.0
  O  O82  1  0.85250000  0.56920000  0.69491000  1.0
  O  O83  1  0.64750000  0.43081000  0.19490000  1.0
  O  O84  1  0.81220000  0.27263000  0.84867000  1.0
  O  O85  1  0.68780000  0.72738000  0.34867000  1.0
  O  O86  1  0.18780000  0.77263000  0.65134000  1.0
  O  O87  1  0.31219000  0.22737000  0.15133000  1.0
