# generated using pymatgen
data_MnH15C20N5O7
_symmetry_space_group_name_H-M   'P 1'
_cell_length_a   7.35766000
_cell_length_b   10.63220000
_cell_length_c   13.69840000
_cell_angle_alpha   80.18400000
_cell_angle_beta   74.42940000
_cell_angle_gamma   69.76740000
_symmetry_Int_Tables_number   1
_chemical_formula_structural   MnH15C20N5O7
_chemical_formula_sum   'Mn2 H30 C40 N10 O14'
_cell_volume   964.99650615
_cell_formula_units_Z   2
loop_
 _symmetry_equiv_pos_site_id
 _symmetry_equiv_pos_as_xyz
  1  'x, y, z'
loop_
 _atom_site_type_symbol
 _atom_site_label
 _atom_site_symmetry_multiplicity
 _atom_site_fract_x
 _atom_site_fract_y
 _atom_site_fract_z
 _atom_site_occupancy
  Mn  Mn0  1  0.60078000  0.65172000  0.42000000  1.0
  Mn  Mn1  1  0.32743000  0.15170000  0.92006000  1.0
  H  H2  1  0.04786000  0.56898000  0.24426000  1.0
  H  H3  1  0.13778000  0.06918000  0.74442000  1.0
  H  H4  1  0.67275000  0.42470000  0.31463000  1.0
  H  H5  1  0.58770000  0.92477000  0.81469000  1.0
  H  H6  1  0.45478000  0.44882000  0.38321000  1.0
  H  H7  1  0.71324000  0.94892000  0.88316000  1.0
  H  H8  1  0.57588000  0.12040000  0.23795000  1.0
  H  H9  1  0.06573000  0.62050000  0.73820000  1.0
  H  H10  1  0.54246000  0.98385000  0.09915000  1.0
  H  H11  1  0.37435000  0.48402000  0.59935000  1.0
  H  H12  1  0.50338000  0.65636000  0.66396000  1.0
  H  H13  1  0.17643000  0.15628000  0.16397000  1.0
  H  H14  1  0.96799000  0.31161000  0.75389000  1.0
  H  H15  1  0.96680000  0.81138000  0.25378000  1.0
  H  H16  1  0.16342000  0.32125000  0.57484000  1.0
  H  H17  1  0.94107000  0.82091000  0.07472000  1.0
  H  H18  1  0.73905000  0.27297000  0.86702000  1.0
  H  H19  1  0.12068000  0.77289000  0.36712000  1.0
  H  H20  1  0.22182000  0.68853000  0.99574000  1.0
  H  H21  1  0.09449000  0.18843000  0.49564000  1.0
  H  H22  1  0.42729000  0.69790000  0.82169000  1.0
  H  H23  1  0.05402000  0.19770000  0.32153000  1.0
  H  H24  1  0.62047000  0.93590000  0.53645000  1.0
  H  H25  1  0.90727000  0.43600000  0.03670000  1.0
  H  H26  1  0.58949000  0.17524000  0.41114000  1.0
  H  H27  1  0.82432000  0.67539000  0.91144000  1.0
  H  H28  1  0.52014000  0.79061000  0.02245000  1.0
  H  H29  1  0.66650000  0.29074000  0.52265000  1.0
  H  H30  1  0.53284000  0.58130000  0.17640000  1.0
  H  H31  1  0.70902000  0.08147000  0.67664000  1.0
  C  C32  1  0.04017000  0.49717000  0.41648000  1.0
  C  C33  1  0.04643000  0.99712000  0.91643000  1.0
  C  C34  1  0.93218000  0.48831000  0.52620000  1.0
  C  C35  1  0.05354000  0.98818000  0.02614000  1.0
  C  C36  1  0.64889000  0.57965000  0.64866000  1.0
  C  C37  1  0.12290000  0.07958000  0.14865000  1.0
  C  C38  1  0.72142000  0.48627000  0.72619000  1.0
  C  C39  1  0.06630000  0.98612000  0.22617000  1.0
  C  C40  1  0.90698000  0.38883000  0.69772000  1.0
  C  C41  1  0.00675000  0.88862000  0.19764000  1.0
  C  C42  1  0.01595000  0.39258000  0.59793000  1.0
  C  C43  1  0.99390000  0.89235000  0.09784000  1.0
  C  C44  1  0.60151000  0.48606000  0.83136000  1.0
  C  C45  1  0.08115000  0.98595000  0.33134000  1.0
  C  C46  1  0.62854000  0.36568000  0.89501000  1.0
  C  C47  1  0.11053000  0.86561000  0.39509000  1.0
  C  C48  1  0.51073000  0.36047000  0.99290000  1.0
  C  C49  1  0.13549000  0.86048000  0.49301000  1.0
  C  C50  1  0.54551000  0.22873000  0.05729000  1.0
  C  C51  1  0.16824000  0.72873000  0.55739000  1.0
  C  C52  1  0.36232000  0.47748000  0.03009000  1.0
  C  C53  1  0.12977000  0.97751000  0.53019000  1.0
  C  C54  1  0.21836000  0.46811000  0.12923000  1.0
  C  C55  1  0.18363000  0.96838000  0.62936000  1.0
  C  C56  1  0.33827000  0.59831000  0.96773000  1.0
  C  C57  1  0.09597000  0.09824000  0.46768000  1.0
  C  C58  1  0.45439000  0.60299000  0.86937000  1.0
  C  C59  1  0.07373000  0.10285000  0.36929000  1.0
  C  C60  1  0.60307000  0.95927000  0.45865000  1.0
  C  C61  1  0.97900000  0.45934000  0.95889000  1.0
  C  C62  1  0.58859000  0.07818000  0.39743000  1.0
  C  C63  1  0.93584000  0.57829000  0.89771000  1.0
  C  C64  1  0.57285000  0.92600000  0.31228000  1.0
  C  C65  1  0.18873000  0.42612000  0.81250000  1.0
  C  C66  1  0.56017000  0.85170000  0.23733000  1.0
  C  C67  1  0.35057000  0.35188000  0.73753000  1.0
  C  C68  1  0.53545000  0.78257000  0.09989000  1.0
  C  C69  1  0.58176000  0.28272000  0.60008000  1.0
  C  C70  1  0.54292000  0.68044000  0.17720000  1.0
  C  C71  1  0.59907000  0.18061000  0.67741000  1.0
  N  N72  1  0.74765000  0.57727000  0.55103000  1.0
  N  N73  1  0.12405000  0.07725000  0.05104000  1.0
  N  N74  1  0.59272000  0.86467000  0.40509000  1.0
  N  N75  1  0.13736000  0.36473000  0.90529000  1.0
  N  N76  1  0.57008000  0.05521000  0.30531000  1.0
  N  N77  1  0.06934000  0.55534000  0.80557000  1.0
  N  N78  1  0.54735000  0.88968000  0.13908000  1.0
  N  N79  1  0.42368000  0.38986000  0.63929000  1.0
  N  N80  1  0.55912000  0.72395000  0.26259000  1.0
  N  N81  1  0.45401000  0.22411000  0.76278000  1.0
  O  O82  1  0.92792000  0.56446000  0.35415000  1.0
  O  O83  1  0.15419000  0.06411000  0.85411000  1.0
  O  O84  1  0.22407000  0.44184000  0.39186000  1.0
  O  O85  1  0.94214000  0.94211000  0.89174000  1.0
  O  O86  1  0.61626000  0.21627000  0.13333000  1.0
  O  O87  1  0.03412000  0.71614000  0.63348000  1.0
  O  O88  1  0.50759000  0.13407000  0.02623000  1.0
  O  O89  1  0.33199000  0.63420000  0.52629000  1.0
  O  O90  1  0.17901000  0.36340000  0.16521000  1.0
  O  O91  1  0.29259000  0.86400000  0.66522000  1.0
  O  O92  1  0.13388000  0.58366000  0.17235000  1.0
  O  O93  1  0.10815000  0.08380000  0.67270000  1.0
  O  O94  1  0.59160000  0.44828000  0.38181000  1.0
  O  O95  1  0.57835000  0.94829000  0.88185000  1.0
