# generated using pymatgen
data_Hg3H12C16(N2Cl3)2
_symmetry_space_group_name_H-M   'P 1'
_cell_length_a   3.87846000
_cell_length_b   9.85434000
_cell_length_c   15.00530000
_cell_angle_alpha   102.75700000
_cell_angle_beta   91.94000000
_cell_angle_gamma   97.17170000
_symmetry_Int_Tables_number   1
_chemical_formula_structural   Hg3H12C16(N2Cl3)2
_chemical_formula_sum   'Hg3 H12 C16 N4 Cl6'
_cell_volume   553.84591897
_cell_formula_units_Z   1
loop_
 _symmetry_equiv_pos_site_id
 _symmetry_equiv_pos_as_xyz
  1  'x, y, z'
loop_
 _atom_site_type_symbol
 _atom_site_label
 _atom_site_symmetry_multiplicity
 _atom_site_fract_x
 _atom_site_fract_y
 _atom_site_fract_z
 _atom_site_occupancy
  Hg  Hg0  1  0.50002000  0.50000000  0.00000000  1.0
  Hg  Hg1  1  0.00001000  0.99999000  0.50000000  1.0
  Hg  Hg2  1  0.00001000  0.00000000  0.00000000  1.0
  H  H3  1  0.37734000  0.65621000  0.83485000  1.0
  H  H4  1  0.62263000  0.34379000  0.16515000  1.0
  H  H5  1  0.31421000  0.04779000  0.71364000  1.0
  H  H6  1  0.68579000  0.95221000  0.28636000  1.0
  H  H7  1  0.54940000  0.20917000  0.86282000  1.0
  H  H8  1  0.45061000  0.79083000  0.13718000  1.0
  H  H9  1  0.07904000  0.74813000  0.71590000  1.0
  H  H10  1  0.92099000  0.25188000  0.28409000  1.0
  H  H11  1  0.80672000  0.58657000  0.57365000  1.0
  H  H12  1  0.19327000  0.41343000  0.42635000  1.0
  H  H13  1  0.83667000  0.32857000  0.54644000  1.0
  H  H14  1  0.16329000  0.67143000  0.45356000  1.0
  C  C15  1  0.12283000  0.34642000  0.67538000  1.0
  C  C16  1  0.87718000  0.65358000  0.32462000  1.0
  C  C17  1  0.27031000  0.44021000  0.75936000  1.0
  C  C18  1  0.72970000  0.55980000  0.24064000  1.0
  C  C19  1  0.25783000  0.58585000  0.77217000  1.0
  C  C20  1  0.74217000  0.41415000  0.22782000  1.0
  C  C21  1  0.29416000  0.15975000  0.72589000  1.0
  C  C22  1  0.70585000  0.84026000  0.27411000  1.0
  C  C23  1  0.43069000  0.25080000  0.80949000  1.0
  C  C24  1  0.56931000  0.74920000  0.19051000  1.0
  C  C25  1  0.09414000  0.63612000  0.70562000  1.0
  C  C26  1  0.90586000  0.36388000  0.29437000  1.0
  C  C27  1  0.94017000  0.54374000  0.62408000  1.0
  C  C28  1  0.05984000  0.45626000  0.37592000  1.0
  C  C29  1  0.95542000  0.40140000  0.60854000  1.0
  C  C30  1  0.04457000  0.59859000  0.39145000  1.0
  N  N31  1  0.41945000  0.38757000  0.82595000  1.0
  N  N32  1  0.58053000  0.61244000  0.17405000  1.0
  N  N33  1  0.14118000  0.20586000  0.66051000  1.0
  N  N34  1  0.85881000  0.79414000  0.33949000  1.0
  Cl  Cl35  1  0.00064000  0.31452000  0.00975000  1.0
  Cl  Cl36  1  0.99937000  0.68549000  0.99025000  1.0
  Cl  Cl37  1  0.59724000  0.86697000  0.57630000  1.0
  Cl  Cl38  1  0.40274000  0.13303000  0.42370000  1.0
  Cl  Cl39  1  0.61114000  0.94388000  0.87001000  1.0
  Cl  Cl40  1  0.38888000  0.05612000  0.12999000  1.0
