# generated using pymatgen
data_CdH26C30(N2O3)2
_symmetry_space_group_name_H-M   'P 1'
_cell_length_a   11.66990000
_cell_length_b   11.66950000
_cell_length_c   12.63600000
_cell_angle_alpha   69.06700000
_cell_angle_beta   69.06790000
_cell_angle_gamma   83.16110000
_symmetry_Int_Tables_number   1
_chemical_formula_structural   CdH26C30(N2O3)2
_chemical_formula_sum   'Cd2 H52 C60 N8 O12'
_cell_volume   1501.07839012
_cell_formula_units_Z   2
loop_
 _symmetry_equiv_pos_site_id
 _symmetry_equiv_pos_as_xyz
  1  'x, y, z'
loop_
 _atom_site_type_symbol
 _atom_site_label
 _atom_site_symmetry_multiplicity
 _atom_site_fract_x
 _atom_site_fract_y
 _atom_site_fract_z
 _atom_site_occupancy
  Cd  Cd0  1  0.49767000  0.50233000  0.75000000  1.0
  Cd  Cd1  1  0.50233000  0.49767000  0.25000000  1.0
  H  H2  1  0.50871000  0.80888000  0.65433000  1.0
  H  H3  1  0.19112000  0.49129000  0.84567000  1.0
  H  H4  1  0.49129000  0.19112000  0.34567000  1.0
  H  H5  1  0.80888000  0.50871000  0.15433000  1.0
  H  H6  1  0.36022000  0.94647000  0.79161000  1.0
  H  H7  1  0.05354000  0.63978000  0.70839000  1.0
  H  H8  1  0.63978000  0.05353000  0.20839000  1.0
  H  H9  1  0.94646000  0.36022000  0.29161000  1.0
  H  H10  1  0.36068000  0.57805000  0.01713000  1.0
  H  H11  1  0.42195000  0.63932000  0.48288000  1.0
  H  H12  1  0.63932000  0.42195000  0.98287000  1.0
  H  H13  1  0.57805000  0.36068000  0.51712000  1.0
  H  H14  1  0.26069000  0.89262000  0.02539000  1.0
  H  H15  1  0.10738000  0.73931000  0.47461000  1.0
  H  H16  1  0.73931000  0.10738000  0.97461000  1.0
  H  H17  1  0.89262000  0.26069000  0.52539000  1.0
  H  H18  1  0.25616000  0.73630000  0.11652000  1.0
  H  H19  1  0.26369000  0.74384000  0.38348000  1.0
  H  H20  1  0.74385000  0.26370000  0.88348000  1.0
  H  H21  1  0.73631000  0.25616000  0.61652000  1.0
  H  H22  1  0.82287000  0.87209000  0.16650000  1.0
  H  H23  1  0.12791000  0.17714000  0.33350000  1.0
  H  H24  1  0.17713000  0.12791000  0.83350000  1.0
  H  H25  1  0.87209000  0.82286000  0.66650000  1.0
  H  H26  1  0.77760000  0.75094000  0.05946000  1.0
  H  H27  1  0.24906000  0.22240000  0.44054000  1.0
  H  H28  1  0.22240000  0.24906000  0.94054000  1.0
  H  H29  1  0.75094000  0.77760000  0.55946000  1.0
  H  H30  1  0.94772000  0.65460000  0.93411000  1.0
  H  H31  1  0.34540000  0.05228000  0.56589000  1.0
  H  H32  1  0.05228000  0.34540000  0.06589000  1.0
  H  H33  1  0.65460000  0.94772000  0.43411000  1.0
  H  H34  1  0.16253000  0.67810000  0.91767000  1.0
  H  H35  1  0.32190000  0.83746000  0.58233000  1.0
  H  H36  1  0.83747000  0.32190000  0.08232000  1.0
  H  H37  1  0.67810000  0.16254000  0.41767000  1.0
  H  H38  1  0.90127000  0.89927000  0.30623000  1.0
  H  H39  1  0.10073000  0.09873000  0.19377000  1.0
  H  H40  1  0.09873000  0.10073000  0.69377000  1.0
  H  H41  1  0.89927000  0.90127000  0.80623000  1.0
  H  H42  1  0.91331000  0.03402000  0.17627000  1.0
  H  H43  1  0.96598000  0.08670000  0.32373000  1.0
  H  H44  1  0.08669000  0.96598000  0.82373000  1.0
  H  H45  1  0.03402000  0.91330000  0.67627000  1.0
  H  H46  1  0.38394000  0.15066000  0.09640000  1.0
  H  H47  1  0.84934000  0.61606000  0.40360000  1.0
  H  H48  1  0.61606000  0.84934000  0.90360000  1.0
  H  H49  1  0.15066000  0.38394000  0.59641000  1.0
  H  H50  1  0.59721000  0.06808000  0.77699000  1.0
  H  H51  1  0.93192000  0.40279000  0.72301000  1.0
  H  H52  1  0.40279000  0.93192000  0.22301000  1.0
  H  H53  1  0.06808000  0.59721000  0.27699000  1.0
  C  C54  1  0.45422000  0.78042000  0.74924000  1.0
  C  C55  1  0.21958000  0.54578000  0.75076000  1.0
  C  C56  1  0.54578000  0.21958000  0.25076000  1.0
  C  C57  1  0.78042000  0.45422000  0.24924000  1.0
  C  C58  1  0.38189000  0.84974000  0.81550000  1.0
  C  C59  1  0.15026000  0.61811000  0.68450000  1.0
  C  C60  1  0.61811000  0.15026000  0.18450000  1.0
  C  C61  1  0.84974000  0.38189000  0.31550000  1.0
  C  C62  1  0.38178000  0.65721000  0.93489000  1.0
  C  C63  1  0.34279000  0.61822000  0.56511000  1.0
  C  C64  1  0.61822000  0.34279000  0.06511000  1.0
  C  C65  1  0.65721000  0.38178000  0.43489000  1.0
  C  C66  1  0.24410000  0.79914000  0.03231000  1.0
  C  C67  1  0.20086000  0.75590000  0.46769000  1.0
  C  C68  1  0.75590000  0.20086000  0.96769000  1.0
  C  C69  1  0.79914000  0.24410000  0.53231000  1.0
  C  C70  1  0.11581000  0.78609000  0.03403000  1.0
  C  C71  1  0.21391000  0.88419000  0.46597000  1.0
  C  C72  1  0.88420000  0.21391000  0.96597000  1.0
  C  C73  1  0.78609000  0.11581000  0.53402000  1.0
  C  C74  1  0.01906000  0.84245000  0.10276000  1.0
  C  C75  1  0.15755000  0.98094000  0.39724000  1.0
  C  C76  1  0.98094000  0.15755000  0.89724000  1.0
  C  C77  1  0.84245000  0.01906000  0.60276000  1.0
  C  C78  1  0.89757000  0.82963000  0.11236000  1.0
  C  C79  1  0.17037000  0.10243000  0.38764000  1.0
  C  C80  1  0.10243000  0.17037000  0.88764000  1.0
  C  C81  1  0.82963000  0.89757000  0.61236000  1.0
  C  C82  1  0.87222000  0.76153000  0.05181000  1.0
  C  C83  1  0.23847000  0.12778000  0.44818000  1.0
  C  C84  1  0.12778000  0.23847000  0.94818000  1.0
  C  C85  1  0.76153000  0.87222000  0.55181000  1.0
  C  C86  1  0.96735000  0.70705000  0.98201000  1.0
  C  C87  1  0.29295000  0.03265000  0.51799000  1.0
  C  C88  1  0.03265000  0.29295000  0.01799000  1.0
  C  C89  1  0.70705000  0.96735000  0.48201000  1.0
  C  C90  1  0.08839000  0.71968000  0.97349000  1.0
  C  C91  1  0.28032000  0.91161000  0.52651000  1.0
  C  C92  1  0.91161000  0.28032000  0.02651000  1.0
  C  C93  1  0.71968000  0.08839000  0.47349000  1.0
  C  C94  1  0.96514000  0.96753000  0.22875000  1.0
  C  C95  1  0.03247000  0.03486000  0.27125000  1.0
  C  C96  1  0.03486000  0.03247000  0.77125000  1.0
  C  C97  1  0.96753000  0.96514000  0.72875000  1.0
  C  C98  1  0.48274000  0.25306000  0.85429000  1.0
  C  C99  1  0.74694000  0.51726000  0.64571000  1.0
  C  C100  1  0.51726000  0.74694000  0.14571000  1.0
  C  C101  1  0.25306000  0.48274000  0.35429000  1.0
  C  C102  1  0.48856000  0.12150000  0.92940000  1.0
  C  C103  1  0.87850000  0.51144000  0.57060000  1.0
  C  C104  1  0.51144000  0.87850000  0.07060000  1.0
  C  C105  1  0.12150000  0.48856000  0.42940000  1.0
  C  C106  1  0.43350000  0.08352000  0.05520000  1.0
  C  C107  1  0.91648000  0.56650000  0.44480000  1.0
  C  C108  1  0.56650000  0.91648000  0.94480000  1.0
  C  C109  1  0.08352000  0.43350000  0.55520000  1.0
  C  C110  1  0.55503000  0.03716000  0.87474000  1.0
  C  C111  1  0.96284000  0.44497000  0.62526000  1.0
  C  C112  1  0.44497000  0.96284000  0.12526000  1.0
  C  C113  1  0.03716000  0.55503000  0.37474000  1.0
  N  N114  1  0.45315000  0.66040000  0.82467000  1.0
  N  N115  1  0.33959000  0.54685000  0.67533000  1.0
  N  N116  1  0.54685000  0.33959000  0.17533000  1.0
  N  N117  1  0.66041000  0.45315000  0.32466000  1.0
  N  N118  1  0.33739000  0.77056000  0.93279000  1.0
  N  N119  1  0.22944000  0.66261000  0.56721000  1.0
  N  N120  1  0.66261000  0.22944000  0.06721000  1.0
  N  N121  1  0.77056000  0.33739000  0.43279000  1.0
  O  O122  1  0.05566000  0.90786000  0.15552000  1.0
  O  O123  1  0.09214000  0.94434000  0.34448000  1.0
  O  O124  1  0.94434000  0.09214000  0.84448000  1.0
  O  O125  1  0.90786000  0.05566000  0.65552000  1.0
  O  O126  1  0.42648000  0.32756000  0.91038000  1.0
  O  O127  1  0.67245000  0.57352000  0.58962000  1.0
  O  O128  1  0.57352000  0.67244000  0.08962000  1.0
  O  O129  1  0.32755000  0.42648000  0.41038000  1.0
  O  O130  1  0.53586000  0.28684000  0.74100000  1.0
  O  O131  1  0.71317000  0.46414000  0.75900000  1.0
  O  O132  1  0.46414000  0.71316000  0.25900000  1.0
  O  O133  1  0.28683000  0.53586000  0.24100000  1.0
