# generated using pymatgen
data_AlH5(C4O3)2
_symmetry_space_group_name_H-M   'P 1'
_cell_length_a   6.74352000
_cell_length_b   13.43610000
_cell_length_c   16.46480000
_cell_angle_alpha   89.98150000
_cell_angle_beta   89.89510000
_cell_angle_gamma   89.84760000
_symmetry_Int_Tables_number   1
_chemical_formula_structural   AlH5(C4O3)2
_chemical_formula_sum   'Al4 H20 C32 O24'
_cell_volume   1491.81184403
_cell_formula_units_Z   4
loop_
 _symmetry_equiv_pos_site_id
 _symmetry_equiv_pos_as_xyz
  1  'x, y, z'
loop_
 _atom_site_type_symbol
 _atom_site_label
 _atom_site_symmetry_multiplicity
 _atom_site_fract_x
 _atom_site_fract_y
 _atom_site_fract_z
 _atom_site_occupancy
  Al  Al0  1  0.00039000  0.99875000  0.50128000  1.0
  Al  Al1  1  0.50037000  0.00142000  0.49904000  1.0
  Al  Al2  1  0.99789000  0.50003000  0.00004000  1.0
  Al  Al3  1  0.49787000  0.50016000  0.00028000  1.0
  H  H4  1  0.24949000  0.86685000  0.49722000  1.0
  H  H5  1  0.75222000  0.13330000  0.50056000  1.0
  H  H6  1  0.24696000  0.63206000  0.99893000  1.0
  H  H7  1  0.74832000  0.36812000  0.99980000  1.0
  H  H8  1  0.06740000  0.69198000  0.81029000  1.0
  H  H9  1  0.42887000  0.69286000  0.81082000  1.0
  H  H10  1  0.06698000  0.80670000  0.69170000  1.0
  H  H11  1  0.56723000  0.31012000  0.19210000  1.0
  H  H12  1  0.92892000  0.30498000  0.18705000  1.0
  H  H13  1  0.56502000  0.19547000  0.31071000  1.0
  H  H14  1  0.92962000  0.31006000  0.80869000  1.0
  H  H15  1  0.56798000  0.30564000  0.81209000  1.0
  H  H16  1  0.93155000  0.19510000  0.69038000  1.0
  H  H17  1  0.06788000  0.68882000  0.19161000  1.0
  H  H18  1  0.42962000  0.69561000  0.18802000  1.0
  H  H19  1  0.06743000  0.80376000  0.31002000  1.0
  H  H20  1  0.41858000  0.85697000  0.64178000  1.0
  H  H21  1  0.91647000  0.13927000  0.35495000  1.0
  H  H22  1  0.58072000  0.13990000  0.64456000  1.0
  H  H23  1  0.41888000  0.86188000  0.35514000  1.0
  C  C24  1  0.75302000  0.88179000  0.38746000  1.0
  C  C25  1  0.75383000  0.88159000  0.61266000  1.0
  C  C26  1  0.24707000  0.11824000  0.61279000  1.0
  C  C27  1  0.24990000  0.11846000  0.38755000  1.0
  C  C28  1  0.74764000  0.61744000  0.11124000  1.0
  C  C29  1  0.74732000  0.61794000  0.88935000  1.0
  C  C30  1  0.24871000  0.38260000  0.88908000  1.0
  C  C31  1  0.24803000  0.38230000  0.11096000  1.0
  C  C32  1  0.74849000  0.81473000  0.68333000  1.0
  C  C33  1  0.74782000  0.68622000  0.81748000  1.0
  C  C34  1  0.56621000  0.78240000  0.71769000  1.0
  C  C35  1  0.92886000  0.71801000  0.78387000  1.0
  C  C36  1  0.56831000  0.71803000  0.78459000  1.0
  C  C37  1  0.92774000  0.78152000  0.71777000  1.0
  C  C38  1  0.24641000  0.18515000  0.31678000  1.0
  C  C39  1  0.24784000  0.31387000  0.18274000  1.0
  C  C40  1  0.06476000  0.21609000  0.28094000  1.0
  C  C41  1  0.42830000  0.28322000  0.21759000  1.0
  C  C42  1  0.06789000  0.28075000  0.21425000  1.0
  C  C43  1  0.42614000  0.21971000  0.28372000  1.0
  C  C44  1  0.25023000  0.18517000  0.68339000  1.0
  C  C45  1  0.24903000  0.31422000  0.81728000  1.0
  C  C46  1  0.43193000  0.21646000  0.71874000  1.0
  C  C47  1  0.06852000  0.28326000  0.78292000  1.0
  C  C48  1  0.42886000  0.28125000  0.78531000  1.0
  C  C49  1  0.07051000  0.21960000  0.71691000  1.0
  C  C50  1  0.74893000  0.81491000  0.31683000  1.0
  C  C51  1  0.74834000  0.68580000  0.18303000  1.0
  C  C52  1  0.56674000  0.78434000  0.28140000  1.0
  C  C53  1  0.92933000  0.71609000  0.21739000  1.0
  C  C54  1  0.56897000  0.71950000  0.21487000  1.0
  C  C55  1  0.92817000  0.77975000  0.28341000  1.0
  O  O56  1  0.91803000  0.90650000  0.41863000  1.0
  O  O57  1  0.58493000  0.90845000  0.58170000  1.0
  O  O58  1  0.41764000  0.08887000  0.58459000  1.0
  O  O59  1  0.08046000  0.08843000  0.41566000  1.0
  O  O60  1  0.08229000  0.09277000  0.58188000  1.0
  O  O61  1  0.41585000  0.09390000  0.41856000  1.0
  O  O62  1  0.58269000  0.91196000  0.41534000  1.0
  O  O63  1  0.92050000  0.90936000  0.58455000  1.0
  O  O64  1  0.25195000  0.93887000  0.50003000  1.0
  O  O65  1  0.75051000  0.06120000  0.50017000  1.0
  O  O66  1  0.91605000  0.59108000  0.08339000  1.0
  O  O67  1  0.57891000  0.59180000  0.91718000  1.0
  O  O68  1  0.41672000  0.40821000  0.91735000  1.0
  O  O69  1  0.07991000  0.40794000  0.08259000  1.0
  O  O70  1  0.07994000  0.40894000  0.91663000  1.0
  O  O71  1  0.41660000  0.40873000  0.08351000  1.0
  O  O72  1  0.57931000  0.59184000  0.08329000  1.0
  O  O73  1  0.91566000  0.59216000  0.91742000  1.0
  O  O74  1  0.24759000  0.56005000  0.00020000  1.0
  O  O75  1  0.74805000  0.44013000  0.00005000  1.0
  O  O76  1  0.38849000  0.81175000  0.68838000  1.0
  O  O77  1  0.88671000  0.18519000  0.30870000  1.0
  O  O78  1  0.61024000  0.18588000  0.69071000  1.0
  O  O79  1  0.38874000  0.81576000  0.30918000  1.0
