# generated using pymatgen
data_CdNi2H58C80(N10Cl)2
_symmetry_space_group_name_H-M   'P 1'
_cell_length_a   13.53390000
_cell_length_b   21.95110000
_cell_length_c   21.95110000
_cell_angle_alpha   66.20200000
_cell_angle_beta   72.05120000
_cell_angle_gamma   72.04940000
_symmetry_Int_Tables_number   1
_chemical_formula_structural   CdNi2H58C80(N10Cl)2
_chemical_formula_sum   'Cd2 Ni4 H116 C160 N40 Cl4'
_cell_volume   5548.38681573
_cell_formula_units_Z   2
loop_
 _symmetry_equiv_pos_site_id
 _symmetry_equiv_pos_as_xyz
  1  'x, y, z'
loop_
 _atom_site_type_symbol
 _atom_site_label
 _atom_site_symmetry_multiplicity
 _atom_site_fract_x
 _atom_site_fract_y
 _atom_site_fract_z
 _atom_site_occupancy
  Cd  Cd0  1  0.91529000  0.23649000  0.23650000  1.0
  Cd  Cd1  1  0.38811000  0.76363000  0.76362000  1.0
  Ni  Ni2  1  0.98430000  0.64806000  0.18563000  1.0
  Ni  Ni3  1  0.81803000  0.35199000  0.81429000  1.0
  Ni  Ni4  1  0.81804000  0.81428000  0.35200000  1.0
  Ni  Ni5  1  0.98430000  0.18565000  0.64804000  1.0
  H  H6  1  0.06819000  0.78868000  0.12298000  1.0
  H  H7  1  0.27395000  0.79636000  0.10032000  1.0
  H  H8  1  0.38415000  0.66633000  0.14070000  1.0
  H  H9  1  0.26858000  0.42014000  0.25033000  1.0
  H  H10  1  0.08580000  0.38304000  0.26927000  1.0
  H  H11  1  0.94047000  0.50304000  0.23015000  1.0
  H  H12  1  0.36402000  0.57929000  0.26617000  1.0
  H  H13  1  0.54978000  0.51877000  0.27657000  1.0
  H  H14  1  0.56509000  0.42367000  0.13521000  1.0
  H  H15  1  0.37746000  0.48084000  0.12865000  1.0
  H  H16  1  0.73248000  0.50426000  0.23059000  1.0
  H  H17  1  0.91559000  0.39950000  0.23558000  1.0
  H  H18  1  0.67983000  0.33662000  0.20221000  1.0
  H  H19  1  0.86630000  0.31500000  0.95853000  1.0
  H  H20  1  0.71879000  0.29289000  0.07904000  1.0
  H  H21  1  0.53198000  0.31392000  0.04533000  1.0
  H  H22  1  0.42974000  0.35367000  0.80947000  1.0
  H  H23  1  0.53045000  0.39589000  0.67681000  1.0
  H  H24  1  0.72292000  0.41057000  0.67662000  1.0
  H  H25  1  0.49498000  0.22846000  0.99567000  1.0
  H  H26  1  0.30971000  0.21405000  0.05256000  1.0
  H  H27  1  0.19216000  0.42552000  0.94503000  1.0
  H  H28  1  0.37705000  0.43855000  0.88623000  1.0
  H  H29  1  0.04319000  0.37267000  0.95978000  1.0
  H  H30  1  0.87801000  0.32688000  0.06709000  1.0
  H  H31  1  0.16191000  0.24712000  0.13844000  1.0
  H  H32  1  0.05461000  0.54476000  0.32789000  1.0
  H  H33  1  0.86504000  0.78639000  0.08631000  1.0
  H  H34  1  0.97958000  0.21129000  0.87706000  1.0
  H  H35  1  0.17034000  0.20352000  0.89981000  1.0
  H  H36  1  0.19122000  0.33351000  0.85921000  1.0
  H  H37  1  0.93914000  0.57989000  0.74982000  1.0
  H  H38  1  0.73824000  0.61705000  0.73078000  1.0
  H  H39  1  0.67387000  0.49709000  0.76958000  1.0
  H  H40  1  0.20967000  0.42061000  0.73384000  1.0
  H  H41  1  0.34527000  0.48117000  0.72336000  1.0
  H  H42  1  0.12424000  0.57630000  0.86470000  1.0
  H  H43  1  0.98729000  0.51907000  0.87140000  1.0
  H  H44  1  0.46767000  0.49589000  0.76952000  1.0
  H  H45  1  0.55063000  0.60071000  0.76481000  1.0
  H  H46  1  0.21864000  0.66345000  0.79769000  1.0
  H  H47  1  0.13966000  0.68513000  0.04136000  1.0
  H  H48  1  0.09057000  0.70708000  0.92088000  1.0
  H  H49  1  0.89112000  0.68598000  0.95462000  1.0
  H  H50  1  0.59296000  0.64615000  0.19045000  1.0
  H  H51  1  0.60313000  0.60381000  0.32313000  1.0
  H  H52  1  0.80996000  0.58944000  0.32340000  1.0
  H  H53  1  0.71897000  0.77152000  0.00423000  1.0
  H  H54  1  0.57612000  0.78580000  0.94742000  1.0
  H  H55  1  0.56249000  0.57435000  0.05523000  1.0
  H  H56  1  0.70161000  0.56147000  0.11400000  1.0
  H  H57  1  0.37546000  0.62720000  0.04015000  1.0
  H  H58  1  0.27185000  0.67331000  0.93276000  1.0
  H  H59  1  0.54771000  0.75266000  0.86166000  1.0
  H  H60  1  0.92736000  0.45517000  0.67230000  1.0
  H  H61  1  0.73794000  0.21369000  0.91371000  1.0
  H  H62  1  0.97961000  0.87706000  0.21131000  1.0
  H  H63  1  0.17035000  0.89981000  0.20357000  1.0
  H  H64  1  0.19120000  0.85920000  0.33358000  1.0
  H  H65  1  0.93909000  0.74982000  0.57992000  1.0
  H  H66  1  0.73819000  0.73079000  0.61707000  1.0
  H  H67  1  0.67385000  0.76957000  0.49710000  1.0
  H  H68  1  0.20964000  0.73381000  0.42067000  1.0
  H  H69  1  0.34525000  0.72335000  0.48121000  1.0
  H  H70  1  0.12424000  0.86471000  0.57631000  1.0
  H  H71  1  0.98728000  0.87140000  0.51909000  1.0
  H  H72  1  0.46766000  0.76953000  0.49589000  1.0
  H  H73  1  0.55064000  0.76486000  0.60068000  1.0
  H  H74  1  0.21866000  0.79773000  0.66345000  1.0
  H  H75  1  0.13965000  0.04139000  0.68510000  1.0
  H  H76  1  0.09057000  0.92090000  0.70707000  1.0
  H  H77  1  0.89109000  0.95463000  0.68600000  1.0
  H  H78  1  0.59293000  0.19049000  0.64615000  1.0
  H  H79  1  0.60311000  0.32317000  0.60380000  1.0
  H  H80  1  0.80995000  0.32343000  0.58942000  1.0
  H  H81  1  0.71896000  0.00426000  0.77152000  1.0
  H  H82  1  0.57614000  0.94744000  0.78580000  1.0
  H  H83  1  0.56246000  0.05526000  0.57436000  1.0
  H  H84  1  0.70158000  0.11404000  0.56148000  1.0
  H  H85  1  0.37546000  0.04018000  0.62722000  1.0
  H  H86  1  0.27185000  0.93278000  0.67332000  1.0
  H  H87  1  0.54771000  0.86168000  0.75267000  1.0
  H  H88  1  0.92734000  0.67228000  0.45517000  1.0
  H  H89  1  0.73796000  0.91372000  0.21369000  1.0
  H  H90  1  0.06817000  0.12301000  0.78867000  1.0
  H  H91  1  0.27393000  0.10035000  0.79637000  1.0
  H  H92  1  0.38415000  0.14072000  0.66634000  1.0
  H  H93  1  0.26859000  0.25033000  0.42013000  1.0
  H  H94  1  0.08582000  0.26927000  0.38303000  1.0
  H  H95  1  0.94049000  0.23016000  0.50302000  1.0
  H  H96  1  0.36402000  0.26617000  0.57930000  1.0
  H  H97  1  0.54977000  0.27657000  0.51878000  1.0
  H  H98  1  0.56509000  0.13523000  0.42367000  1.0
  H  H99  1  0.37746000  0.12866000  0.48083000  1.0
  H  H100  1  0.73246000  0.23061000  0.50427000  1.0
  H  H101  1  0.91556000  0.23561000  0.39951000  1.0
  H  H102  1  0.67981000  0.20223000  0.33663000  1.0
  H  H103  1  0.86630000  0.95853000  0.31501000  1.0
  H  H104  1  0.71878000  0.07904000  0.29288000  1.0
  H  H105  1  0.53197000  0.04532000  0.31391000  1.0
  H  H106  1  0.42973000  0.80947000  0.35369000  1.0
  H  H107  1  0.53043000  0.67680000  0.39592000  1.0
  H  H108  1  0.72292000  0.67661000  0.41057000  1.0
  H  H109  1  0.49495000  0.99565000  0.22847000  1.0
  H  H110  1  0.30969000  0.05255000  0.21406000  1.0
  H  H111  1  0.19217000  0.94505000  0.42554000  1.0
  H  H112  1  0.37706000  0.88626000  0.43857000  1.0
  H  H113  1  0.04316000  0.95978000  0.37272000  1.0
  H  H114  1  0.87797000  0.06708000  0.32692000  1.0
  H  H115  1  0.16188000  0.13843000  0.24713000  1.0
  H  H116  1  0.05464000  0.32789000  0.54477000  1.0
  H  H117  1  0.86505000  0.08631000  0.78638000  1.0
  H  H118  1  0.03042000  0.55786000  0.44223000  1.0
  H  H119  1  0.75411000  0.89890000  0.10119000  1.0
  H  H120  1  0.03046000  0.44223000  0.55788000  1.0
  H  H121  1  0.75409000  0.10119000  0.89889000  1.0
  C  C122  1  0.13541000  0.74645000  0.13410000  1.0
  C  C123  1  0.24288000  0.75021000  0.12223000  1.0
  C  C124  1  0.29912000  0.68348000  0.14341000  1.0
  C  C125  1  0.22374000  0.64058000  0.16793000  1.0
  C  C126  1  0.24588000  0.56863000  0.19235000  1.0
  C  C127  1  0.17323000  0.52688000  0.21148000  1.0
  C  C128  1  0.19335000  0.45359000  0.23975000  1.0
  C  C129  1  0.09929000  0.43452000  0.25057000  1.0
  C  C130  1  0.02373000  0.49632000  0.22938000  1.0
  C  C131  1  0.35761000  0.53371000  0.19729000  1.0
  C  C132  1  0.40802000  0.54471000  0.23794000  1.0
  C  C133  1  0.51205000  0.51121000  0.24367000  1.0
  C  C134  1  0.56835000  0.46702000  0.20723000  1.0
  C  C135  1  0.52023000  0.45651000  0.16522000  1.0
  C  C136  1  0.41525000  0.48910000  0.16114000  1.0
  C  C137  1  0.74926000  0.45466000  0.22564000  1.0
  C  C138  1  0.83847000  0.40323000  0.22761000  1.0
  C  C139  1  0.71991000  0.36890000  0.20870000  1.0
  C  C140  1  0.78191000  0.31821000  0.96589000  1.0
  C  C141  1  0.70435000  0.30792000  0.02828000  1.0
  C  C142  1  0.60929000  0.31696000  0.01133000  1.0
  C  C143  1  0.63114000  0.33180000  0.93889000  1.0
  C  C144  1  0.55864000  0.34264000  0.89987000  1.0
  C  C145  1  0.57941000  0.36069000  0.82825000  1.0
  C  C146  1  0.50827000  0.36535000  0.78910000  1.0
  C  C147  1  0.55990000  0.38688000  0.72112000  1.0
  C  C148  1  0.66077000  0.39398000  0.72078000  1.0
  C  C149  1  0.44857000  0.33440000  0.93653000  1.0
  C  C150  1  0.42852000  0.27161000  0.98458000  1.0
  C  C151  1  0.32499000  0.26351000  0.01687000  1.0
  C  C152  1  0.23971000  0.31893000  0.00253000  1.0
  C  C153  1  0.25832000  0.38206000  0.95526000  1.0
  C  C154  1  0.36206000  0.38925000  0.92240000  1.0
  C  C155  1  0.04227000  0.34045000  0.01238000  1.0
  C  C156  1  0.96225000  0.31645000  0.06541000  1.0
  C  C157  1  0.10734000  0.27120000  0.10404000  1.0
  C  C158  1  0.01241000  0.59196000  0.33805000  1.0
  C  C159  1  0.84970000  0.79671000  0.13343000  1.0
  C  C160  1  0.01581000  0.25349000  0.86588000  1.0
  C  C161  1  0.11517000  0.24969000  0.87778000  1.0
  C  C162  1  0.12600000  0.31640000  0.85653000  1.0
  C  C163  1  0.03231000  0.35936000  0.83196000  1.0
  C  C164  1  0.00698000  0.43134000  0.80760000  1.0
  C  C165  1  0.91170000  0.47314000  0.78850000  1.0
  C  C166  1  0.88681000  0.54644000  0.76033000  1.0
  C  C167  1  0.78451000  0.56556000  0.74945000  1.0
  C  C168  1  0.74959000  0.50377000  0.77047000  1.0
  C  C169  1  0.08882000  0.46619000  0.80272000  1.0
  C  C170  1  0.19088000  0.45521000  0.76206000  1.0
  C  C171  1  0.26713000  0.48877000  0.75628000  1.0
  C  C172  1  0.24285000  0.53300000  0.79267000  1.0
  C  C173  1  0.14222000  0.54345000  0.83471000  1.0
  C  C174  1  0.06576000  0.51081000  0.83886000  1.0
  C  C175  1  0.42975000  0.54549000  0.77446000  1.0
  C  C176  1  0.46931000  0.59692000  0.77263000  1.0
  C  C177  1  0.29751000  0.63120000  0.79124000  1.0
  C  C178  1  0.06588000  0.68185000  0.03401000  1.0
  C  C179  1  0.04041000  0.69206000  0.97165000  1.0
  C  C180  1  0.93749000  0.68297000  0.98861000  1.0
  C  C181  1  0.90174000  0.66821000  0.06105000  1.0
  C  C182  1  0.80110000  0.65737000  0.10010000  1.0
  C  C183  1  0.76830000  0.63934000  0.17172000  1.0
  C  C184  1  0.66273000  0.63454000  0.21085000  1.0
  C  C185  1  0.66788000  0.61294000  0.27884000  1.0
  C  C186  1  0.77548000  0.60598000  0.27920000  1.0
  C  C187  1  0.71938000  0.66559000  0.06350000  1.0
  C  C188  1  0.68458000  0.72834000  0.01540000  1.0
  C  C189  1  0.60523000  0.73636000  0.98314000  1.0
  C  C190  1  0.56107000  0.68091000  0.99756000  1.0
  C  C191  1  0.59548000  0.61782000  0.04491000  1.0
  C  C192  1  0.67352000  0.61073000  0.07774000  1.0
  C  C193  1  0.39502000  0.65946000  0.98758000  1.0
  C  C194  1  0.34405000  0.68361000  0.93453000  1.0
  C  C195  1  0.48271000  0.72866000  0.89600000  1.0
  C  C196  1  0.94244000  0.40802000  0.66205000  1.0
  C  C197  1  0.77988000  0.20336000  0.86658000  1.0
  C  C198  1  0.01583000  0.86587000  0.25353000  1.0
  C  C199  1  0.11518000  0.87777000  0.24974000  1.0
  C  C200  1  0.12599000  0.85652000  0.31645000  1.0
  C  C201  1  0.03230000  0.83195000  0.35939000  1.0
  C  C202  1  0.00695000  0.80759000  0.43137000  1.0
  C  C203  1  0.91167000  0.78848000  0.47317000  1.0
  C  C204  1  0.88676000  0.76032000  0.54648000  1.0
  C  C205  1  0.78448000  0.74945000  0.56558000  1.0
  C  C206  1  0.74957000  0.77047000  0.50379000  1.0
  C  C207  1  0.08880000  0.80270000  0.46623000  1.0
  C  C208  1  0.19085000  0.76203000  0.45526000  1.0
  C  C209  1  0.26711000  0.75627000  0.48880000  1.0
  C  C210  1  0.24284000  0.79267000  0.53301000  1.0
  C  C211  1  0.14220000  0.83472000  0.54346000  1.0
  C  C212  1  0.06574000  0.83886000  0.51083000  1.0
  C  C213  1  0.42975000  0.77448000  0.54549000  1.0
  C  C214  1  0.46932000  0.77267000  0.59690000  1.0
  C  C215  1  0.29753000  0.79129000  0.63119000  1.0
  C  C216  1  0.06587000  0.03404000  0.68183000  1.0
  C  C217  1  0.04041000  0.97168000  0.69205000  1.0
  C  C218  1  0.93747000  0.98863000  0.68297000  1.0
  C  C219  1  0.90173000  0.06107000  0.66820000  1.0
  C  C220  1  0.80108000  0.10012000  0.65737000  1.0
  C  C221  1  0.76829000  0.17175000  0.63933000  1.0
  C  C222  1  0.66271000  0.21088000  0.63454000  1.0
  C  C223  1  0.66786000  0.27887000  0.61294000  1.0
  C  C224  1  0.77547000  0.27923000  0.60596000  1.0
  C  C225  1  0.71936000  0.06353000  0.66559000  1.0
  C  C226  1  0.68458000  0.01542000  0.72834000  1.0
  C  C227  1  0.60523000  0.98316000  0.73636000  1.0
  C  C228  1  0.56107000  0.99758000  0.68091000  1.0
  C  C229  1  0.59546000  0.04493000  0.61783000  1.0
  C  C230  1  0.67350000  0.07777000  0.61073000  1.0
  C  C231  1  0.39502000  0.98760000  0.65946000  1.0
  C  C232  1  0.34405000  0.93455000  0.68361000  1.0
  C  C233  1  0.48272000  0.89601000  0.72867000  1.0
  C  C234  1  0.94244000  0.66203000  0.40802000  1.0
  C  C235  1  0.77990000  0.86660000  0.20335000  1.0
  C  C236  1  0.13541000  0.13412000  0.74645000  1.0
  C  C237  1  0.24288000  0.12226000  0.75021000  1.0
  C  C238  1  0.29912000  0.14343000  0.68348000  1.0
  C  C239  1  0.22374000  0.16794000  0.64058000  1.0
  C  C240  1  0.24588000  0.19235000  0.56862000  1.0
  C  C241  1  0.17323000  0.21149000  0.52688000  1.0
  C  C242  1  0.19337000  0.23975000  0.45359000  1.0
  C  C243  1  0.09931000  0.25057000  0.43451000  1.0
  C  C244  1  0.02374000  0.22938000  0.49631000  1.0
  C  C245  1  0.35762000  0.19729000  0.53371000  1.0
  C  C246  1  0.40802000  0.23794000  0.54472000  1.0
  C  C247  1  0.51205000  0.24367000  0.51122000  1.0
  C  C248  1  0.56835000  0.20723000  0.46703000  1.0
  C  C249  1  0.52023000  0.16522000  0.45651000  1.0
  C  C250  1  0.41525000  0.16114000  0.48910000  1.0
  C  C251  1  0.74925000  0.22566000  0.45467000  1.0
  C  C252  1  0.83844000  0.22763000  0.40324000  1.0
  C  C253  1  0.71989000  0.20872000  0.36890000  1.0
  C  C254  1  0.78190000  0.96589000  0.31821000  1.0
  C  C255  1  0.70434000  0.02828000  0.30792000  1.0
  C  C256  1  0.60928000  0.01133000  0.31696000  1.0
  C  C257  1  0.63114000  0.93888000  0.33180000  1.0
  C  C258  1  0.55864000  0.89986000  0.34265000  1.0
  C  C259  1  0.57941000  0.82824000  0.36070000  1.0
  C  C260  1  0.50826000  0.78910000  0.36537000  1.0
  C  C261  1  0.55988000  0.72112000  0.38690000  1.0
  C  C262  1  0.66077000  0.72078000  0.39399000  1.0
  C  C263  1  0.44857000  0.93652000  0.33441000  1.0
  C  C264  1  0.42852000  0.98457000  0.27162000  1.0
  C  C265  1  0.32498000  0.01686000  0.26352000  1.0
  C  C266  1  0.23970000  0.00252000  0.31895000  1.0
  C  C267  1  0.25832000  0.95527000  0.38208000  1.0
  C  C268  1  0.36206000  0.92241000  0.38926000  1.0
  C  C269  1  0.04225000  0.01238000  0.34049000  1.0
  C  C270  1  0.96223000  0.06541000  0.31648000  1.0
  C  C271  1  0.10731000  0.10403000  0.27121000  1.0
  C  C272  1  0.01242000  0.33805000  0.59198000  1.0
  C  C273  1  0.84969000  0.13343000  0.79669000  1.0
  C  C274  1  0.99877000  0.59960000  0.40045000  1.0
  C  C275  1  0.91988000  0.70170000  0.29829000  1.0
  C  C276  1  0.87595000  0.75777000  0.24222000  1.0
  C  C277  1  0.79019000  0.85828000  0.14178000  1.0
  C  C278  1  0.99879000  0.40045000  0.59962000  1.0
  C  C279  1  0.91987000  0.29829000  0.70170000  1.0
  C  C280  1  0.87593000  0.24223000  0.75776000  1.0
  C  C281  1  0.79017000  0.14178000  0.85827000  1.0
  N  N282  1  0.12329000  0.68160000  0.16107000  1.0
  N  N283  1  0.06659000  0.55106000  0.20657000  1.0
  N  N284  1  0.67393000  0.43241000  0.21309000  1.0
  N  N285  1  0.81849000  0.35054000  0.21740000  1.0
  N  N286  1  0.73942000  0.33230000  0.91285000  1.0
  N  N287  1  0.67340000  0.37806000  0.78431000  1.0
  N  N288  1  0.13502000  0.31066000  0.03736000  1.0
  N  N289  1  0.00404000  0.27372000  0.12188000  1.0
  N  N290  1  0.89286000  0.74644000  0.18383000  1.0
  N  N291  1  0.97256000  0.64333000  0.28688000  1.0
  N  N292  1  0.96594000  0.31836000  0.83882000  1.0
  N  N293  1  0.82435000  0.44901000  0.79327000  1.0
  N  N294  1  0.31960000  0.56769000  0.78681000  1.0
  N  N295  1  0.38631000  0.64959000  0.78274000  1.0
  N  N296  1  0.98446000  0.66778000  0.08706000  1.0
  N  N297  1  0.83570000  0.62201000  0.21569000  1.0
  N  N298  1  0.48307000  0.68912000  0.96267000  1.0
  N  N299  1  0.39969000  0.72630000  0.87811000  1.0
  N  N300  1  0.82313000  0.25361000  0.81612000  1.0
  N  N301  1  0.90274000  0.35664000  0.71315000  1.0
  N  N302  1  0.96595000  0.83882000  0.31838000  1.0
  N  N303  1  0.82433000  0.79325000  0.44903000  1.0
  N  N304  1  0.31960000  0.78684000  0.56769000  1.0
  N  N305  1  0.38633000  0.78279000  0.64957000  1.0
  N  N306  1  0.98445000  0.08709000  0.66777000  1.0
  N  N307  1  0.83569000  0.21571000  0.62200000  1.0
  N  N308  1  0.48308000  0.96269000  0.68913000  1.0
  N  N309  1  0.39970000  0.87813000  0.72630000  1.0
  N  N310  1  0.82315000  0.81613000  0.25360000  1.0
  N  N311  1  0.90275000  0.71314000  0.35664000  1.0
  N  N312  1  0.12329000  0.16108000  0.68159000  1.0
  N  N313  1  0.06660000  0.20658000  0.55105000  1.0
  N  N314  1  0.67391000  0.21310000  0.43242000  1.0
  N  N315  1  0.81847000  0.21743000  0.35054000  1.0
  N  N316  1  0.73943000  0.91284000  0.33231000  1.0
  N  N317  1  0.67341000  0.78430000  0.37806000  1.0
  N  N318  1  0.13500000  0.03736000  0.31068000  1.0
  N  N319  1  0.00401000  0.12187000  0.27374000  1.0
  N  N320  1  0.89286000  0.18384000  0.74643000  1.0
  N  N321  1  0.97255000  0.28688000  0.64334000  1.0
  Cl  Cl322  1  0.75764000  0.21008000  0.21012000  1.0
  Cl  Cl323  1  0.07056000  0.26501000  0.26500000  1.0
  Cl  Cl324  1  0.17763000  0.78994000  0.78995000  1.0
  Cl  Cl325  1  0.60059000  0.73506000  0.73505000  1.0
