# generated using pymatgen
data_Cd3H62C52(N2O3)4
_symmetry_space_group_name_H-M   'P 1'
_cell_length_a   8.65692000
_cell_length_b   9.42036000
_cell_length_c   16.06400000
_cell_angle_alpha   93.74600000
_cell_angle_beta   94.96590000
_cell_angle_gamma   98.83230000
_symmetry_Int_Tables_number   1
_chemical_formula_structural   Cd3H62C52(N2O3)4
_chemical_formula_sum   'Cd3 H62 C52 N8 O12'
_cell_volume   1285.52675153
_cell_formula_units_Z   1
loop_
 _symmetry_equiv_pos_site_id
 _symmetry_equiv_pos_as_xyz
  1  'x, y, z'
loop_
 _atom_site_type_symbol
 _atom_site_label
 _atom_site_symmetry_multiplicity
 _atom_site_fract_x
 _atom_site_fract_y
 _atom_site_fract_z
 _atom_site_occupancy
  Cd  Cd0  1  0.32742000  0.43284000  0.74224000  1.0
  Cd  Cd1  1  0.67258000  0.56715000  0.25776000  1.0
  Cd  Cd2  1  0.50000000  0.50000000  0.00000000  1.0
  H  H3  1  0.02788000  0.74115000  0.42301000  1.0
  H  H4  1  0.97213000  0.25885000  0.57699000  1.0
  H  H5  1  0.28569000  0.74751000  0.36108000  1.0
  H  H6  1  0.71431000  0.25249000  0.63892000  1.0
  H  H7  1  0.51611000  0.68208000  0.44136000  1.0
  H  H8  1  0.48390000  0.31792000  0.55864000  1.0
  H  H9  1  0.50135000  0.60553000  0.58745000  1.0
  H  H10  1  0.49866000  0.39448000  0.41255000  1.0
  H  H11  1  0.98975000  0.57375000  0.71373000  1.0
  H  H12  1  0.01026000  0.42626000  0.28627000  1.0
  H  H13  1  0.80025000  0.62905000  0.51064000  1.0
  H  H14  1  0.19975000  0.37095000  0.48936000  1.0
  H  H15  1  0.77308000  0.63553000  0.61926000  1.0
  H  H16  1  0.22693000  0.36448000  0.38075000  1.0
  H  H17  1  0.92917000  0.89022000  0.52916000  1.0
  H  H18  1  0.07083000  0.10978000  0.47084000  1.0
  H  H19  1  0.72746000  0.85862000  0.53905000  1.0
  H  H20  1  0.27254000  0.14138000  0.46095000  1.0
  H  H21  1  0.90641000  0.04516000  0.64861000  1.0
  H  H22  1  0.09359000  0.95484000  0.35139000  1.0
  H  H23  1  0.96564000  0.89610000  0.69456000  1.0
  H  H24  1  0.03435000  0.10390000  0.30544000  1.0
  H  H25  1  0.62454000  0.94794000  0.66399000  1.0
  H  H26  1  0.37546000  0.05206000  0.33601000  1.0
  H  H27  1  0.68157000  0.79905000  0.71180000  1.0
  H  H28  1  0.31842000  0.20095000  0.28820000  1.0
  H  H29  1  0.77064000  0.11768000  0.77679000  1.0
  H  H30  1  0.22936000  0.88232000  0.22321000  1.0
  H  H31  1  0.84645000  0.97745000  0.82636000  1.0
  H  H32  1  0.15354000  0.02255000  0.17364000  1.0
  H  H33  1  0.57727000  0.86782000  0.85503000  1.0
  H  H34  1  0.42272000  0.13218000  0.14497000  1.0
  H  H35  1  0.49462000  0.99268000  0.79381000  1.0
  H  H36  1  0.50538000  0.00732000  0.20619000  1.0
  H  H37  1  0.77407000  0.86979000  0.98721000  1.0
  H  H38  1  0.22592000  0.13020000  0.01280000  1.0
  H  H39  1  0.88958000  0.92348000  0.13526000  1.0
  H  H40  1  0.11041000  0.07652000  0.86474000  1.0
  H  H41  1  0.86825000  0.15192000  0.21491000  1.0
  H  H42  1  0.13175000  0.84808000  0.78509000  1.0
  H  H43  1  0.72827000  0.33571000  0.15014000  1.0
  H  H44  1  0.27172000  0.66428000  0.84986000  1.0
  H  H45  1  0.47975000  0.23243000  0.85358000  1.0
  H  H46  1  0.52024000  0.76757000  0.14642000  1.0
  H  H47  1  0.30996000  0.93235000  0.67236000  1.0
  H  H48  1  0.69004000  0.06764000  0.32763000  1.0
  H  H49  1  0.18561000  0.97331000  0.58479000  1.0
  H  H50  1  0.81439000  0.02669000  0.41521000  1.0
  H  H51  1  0.39263000  0.00650000  0.58474000  1.0
  H  H52  1  0.60737000  0.99349000  0.41526000  1.0
  H  H53  1  0.15599000  0.28465000  0.18390000  1.0
  H  H54  1  0.84400000  0.71534000  0.81610000  1.0
  H  H55  1  0.19976000  0.36092000  0.08731000  1.0
  H  H56  1  0.80023000  0.63908000  0.91269000  1.0
  H  H57  1  0.12529000  0.46239000  0.16794000  1.0
  H  H58  1  0.87471000  0.53760000  0.83206000  1.0
  H  H59  1  0.06951000  0.59233000  0.03403000  1.0
  H  H60  1  0.93050000  0.40767000  0.96597000  1.0
  H  H61  1  0.11960000  0.72227000  0.12068000  1.0
  H  H62  1  0.88041000  0.27773000  0.87932000  1.0
  H  H63  1  0.01600000  0.76462000  0.02611000  1.0
  H  H64  1  0.98401000  0.23538000  0.97388000  1.0
  C  C65  1  0.12565000  0.67149000  0.54015000  1.0
  C  C66  1  0.87436000  0.32851000  0.45984000  1.0
  C  C67  1  0.13132000  0.71437000  0.45859000  1.0
  C  C68  1  0.86869000  0.28563000  0.54141000  1.0
  C  C69  1  0.27494000  0.71751000  0.42499000  1.0
  C  C70  1  0.72506000  0.28249000  0.57501000  1.0
  C  C71  1  0.40723000  0.67998000  0.47093000  1.0
  C  C72  1  0.59278000  0.32002000  0.52907000  1.0
  C  C73  1  0.40073000  0.63688000  0.55201000  1.0
  C  C74  1  0.59928000  0.36313000  0.44798000  1.0
  C  C75  1  0.25717000  0.63196000  0.58649000  1.0
  C  C76  1  0.74284000  0.36805000  0.41351000  1.0
  C  C77  1  0.06197000  0.60286000  0.66360000  1.0
  C  C78  1  0.93804000  0.39714000  0.33640000  1.0
  C  C79  1  0.84512000  0.68423000  0.57225000  1.0
  C  C80  1  0.15488000  0.31577000  0.42775000  1.0
  C  C81  1  0.84200000  0.84597000  0.57038000  1.0
  C  C82  1  0.15800000  0.15403000  0.42962000  1.0
  C  C83  1  0.86792000  0.93030000  0.65630000  1.0
  C  C84  1  0.13208000  0.06970000  0.34370000  1.0
  C  C85  1  0.72084000  0.91356000  0.70319000  1.0
  C  C86  1  0.27916000  0.08644000  0.29681000  1.0
  C  C87  1  0.74445000  0.00248000  0.78746000  1.0
  C  C88  1  0.25554000  0.99752000  0.21254000  1.0
  C  C89  1  0.59817000  0.97754000  0.83456000  1.0
  C  C90  1  0.40182000  0.02246000  0.16544000  1.0
  C  C91  1  0.68571000  0.07455000  0.98659000  1.0
  C  C92  1  0.31429000  0.92545000  0.01341000  1.0
  C  C93  1  0.76568000  0.97148000  0.02149000  1.0
  C  C94  1  0.23431000  0.02852000  0.97852000  1.0
  C  C95  1  0.82982000  0.00238000  0.10452000  1.0
  C  C96  1  0.17018000  0.99762000  0.89548000  1.0
  C  C97  1  0.81673000  0.13222000  0.15006000  1.0
  C  C98  1  0.18326000  0.86778000  0.84994000  1.0
  C  C99  1  0.73754000  0.23523000  0.11501000  1.0
  C  C100  1  0.26245000  0.76477000  0.88499000  1.0
  C  C101  1  0.66972000  0.20482000  0.03241000  1.0
  C  C102  1  0.33028000  0.79518000  0.96759000  1.0
  C  C103  1  0.54803000  0.20480000  0.90826000  1.0
  C  C104  1  0.45197000  0.79521000  0.09174000  1.0
  C  C105  1  0.29559000  0.00844000  0.62453000  1.0
  C  C106  1  0.70442000  0.99155000  0.37546000  1.0
  C  C107  1  0.30334000  0.15969000  0.66407000  1.0
  C  C108  1  0.69666000  0.84031000  0.33593000  1.0
  C  C109  1  0.20271000  0.38288000  0.15527000  1.0
  C  C110  1  0.79729000  0.61712000  0.84473000  1.0
  C  C111  1  0.36635000  0.44115000  0.19496000  1.0
  C  C112  1  0.63365000  0.55885000  0.80504000  1.0
  C  C113  1  0.02921000  0.68115000  0.06937000  1.0
  C  C114  1  0.97079000  0.31885000  0.93063000  1.0
  C  C115  1  0.87340000  0.62739000  0.10194000  1.0
  C  C116  1  0.12660000  0.37261000  0.89806000  1.0
  N  N117  1  0.21283000  0.58907000  0.66347000  1.0
  N  N118  1  0.78718000  0.41093000  0.33653000  1.0
  N  N119  1  0.00432000  0.65331000  0.59184000  1.0
  N  N120  1  0.99568000  0.34669000  0.40816000  1.0
  N  N121  1  0.58262000  0.28330000  0.98118000  1.0
  N  N122  1  0.41738000  0.71670000  0.01882000  1.0
  N  N123  1  0.60714000  0.07928000  0.90797000  1.0
  N  N124  1  0.39285000  0.92072000  0.09203000  1.0
  O  O125  1  0.21813000  0.24385000  0.63114000  1.0
  O  O126  1  0.78186000  0.75614000  0.36887000  1.0
  O  O127  1  0.39968000  0.20029000  0.72946000  1.0
  O  O128  1  0.60033000  0.79970000  0.27054000  1.0
  O  O129  1  0.39383000  0.45996000  0.27385000  1.0
  O  O130  1  0.60617000  0.54004000  0.72615000  1.0
  O  O131  1  0.47771000  0.47212000  0.14711000  1.0
  O  O132  1  0.52229000  0.52787000  0.85289000  1.0
  O  O133  1  0.75118000  0.61937000  0.05134000  1.0
  O  O134  1  0.24882000  0.38064000  0.94866000  1.0
  O  O135  1  0.87793000  0.59443000  0.17813000  1.0
  O  O136  1  0.12208000  0.40557000  0.82187000  1.0
