# generated using pymatgen
data_Ag2H3(C2O)4
_symmetry_space_group_name_H-M   'P 1'
_cell_length_a   8.43479000
_cell_length_b   9.76208000
_cell_length_c   9.91380000
_cell_angle_alpha   84.98070000
_cell_angle_beta   80.47330000
_cell_angle_gamma   68.15940000
_symmetry_Int_Tables_number   1
_chemical_formula_structural   Ag2H3(C2O)4
_chemical_formula_sum   'Ag8 H12 C32 O16'
_cell_volume   746.97056745
_cell_formula_units_Z   4
loop_
 _symmetry_equiv_pos_site_id
 _symmetry_equiv_pos_as_xyz
  1  'x, y, z'
loop_
 _atom_site_type_symbol
 _atom_site_label
 _atom_site_symmetry_multiplicity
 _atom_site_fract_x
 _atom_site_fract_y
 _atom_site_fract_z
 _atom_site_occupancy
  Ag  Ag0  1  0.27578000  0.56785000  0.61641000  1.0
  Ag  Ag1  1  0.72422000  0.43215000  0.38359000  1.0
  Ag  Ag2  1  0.21635000  0.76423000  0.05693000  1.0
  Ag  Ag3  1  0.78365000  0.23577000  0.94307000  1.0
  Ag  Ag4  1  0.41703000  0.54118000  0.23285000  1.0
  Ag  Ag5  1  0.58297000  0.45882000  0.76715000  1.0
  Ag  Ag6  1  0.77276000  0.00091000  0.16401000  1.0
  Ag  Ag7  1  0.22724000  0.99909000  0.83599000  1.0
  H  H8  1  0.58383000  0.85521000  0.81920000  1.0
  H  H9  1  0.41617000  0.14479000  0.18080000  1.0
  H  H10  1  0.08063000  0.84987000  0.62441000  1.0
  H  H11  1  0.91937000  0.15013000  0.37560000  1.0
  H  H12  1  0.98312000  0.53517000  0.32895000  1.0
  H  H13  1  0.01689000  0.46484000  0.67105000  1.0
  H  H14  1  0.50607000  0.91348000  0.35251000  1.0
  H  H15  1  0.49393000  0.08652000  0.64749000  1.0
  H  H16  1  0.45274000  0.85016000  0.13248000  1.0
  H  H17  1  0.54726000  0.14983000  0.86752000  1.0
  H  H18  1  0.91326000  0.45767000  0.12031000  1.0
  H  H19  1  0.08674000  0.54233000  0.87970000  1.0
  C  C20  1  0.87824000  0.88139000  0.87091000  1.0
  C  C21  1  0.12176000  0.11861000  0.12909000  1.0
  C  C22  1  0.48798000  0.76444000  0.61006000  1.0
  C  C23  1  0.51202000  0.23556000  0.38994000  1.0
  C  C24  1  0.68031000  0.83935000  0.72820000  1.0
  C  C25  1  0.31969000  0.16066000  0.27180000  1.0
  C  C26  1  0.77458000  0.77392000  0.48857000  1.0
  C  C27  1  0.22542000  0.22608000  0.51143000  1.0
  C  C28  1  0.83705000  0.85385000  0.73629000  1.0
  C  C29  1  0.16295000  0.14615000  0.26371000  1.0
  C  C30  1  0.92862000  0.79643000  0.49583000  1.0
  C  C31  1  0.07137000  0.20358000  0.50417000  1.0
  C  C32  1  0.96028000  0.83365000  0.61930000  1.0
  C  C33  1  0.03971000  0.16635000  0.38070000  1.0
  C  C34  1  0.74240000  0.72703000  0.36091000  1.0
  C  C35  1  0.25760000  0.27298000  0.63909000  1.0
  C  C36  1  0.64972000  0.79690000  0.60685000  1.0
  C  C37  1  0.35028000  0.20310000  0.39315000  1.0
  C  C38  1  0.85770000  0.59544000  0.29572000  1.0
  C  C39  1  0.14230000  0.40456000  0.70428000  1.0
  C  C40  1  0.59571000  0.81355000  0.30206000  1.0
  C  C41  1  0.40428000  0.18645000  0.69794000  1.0
  C  C42  1  0.06834000  0.77076000  0.37485000  1.0
  C  C43  1  0.93166000  0.22925000  0.62515000  1.0
  C  C44  1  0.56164000  0.77436000  0.18026000  1.0
  C  C45  1  0.43837000  0.22564000  0.81974000  1.0
  C  C46  1  0.67205000  0.64330000  0.11635000  1.0
  C  C47  1  0.32796000  0.35670000  0.88365000  1.0
  C  C48  1  0.64668000  0.59926000  0.98223000  1.0
  C  C49  1  0.35331000  0.40074000  0.01778000  1.0
  C  C50  1  0.82059000  0.55303000  0.17565000  1.0
  C  C51  1  0.17941000  0.44697000  0.82435000  1.0
  O  O52  1  0.03586000  0.83021000  0.88686000  1.0
  O  O53  1  0.96414000  0.16979000  0.11314000  1.0
  O  O54  1  0.51124000  0.63381000  0.57388000  1.0
  O  O55  1  0.48876000  0.36619000  0.42612000  1.0
  O  O56  1  0.34186000  0.85940000  0.64917000  1.0
  O  O57  1  0.65815000  0.14060000  0.35083000  1.0
  O  O58  1  0.21788000  0.68292000  0.39791000  1.0
  O  O59  1  0.78212000  0.31708000  0.60209000  1.0
  O  O60  1  0.03314000  0.83227000  0.25986000  1.0
  O  O61  1  0.96686000  0.16773000  0.74014000  1.0
  O  O62  1  0.74906000  0.95226000  0.95759000  1.0
  O  O63  1  0.25094000  0.04774000  0.04241000  1.0
  O  O64  1  0.77622000  0.50773000  0.91269000  1.0
  O  O65  1  0.22378000  0.49226000  0.08731000  1.0
  O  O66  1  0.49635000  0.65231000  0.94301000  1.0
  O  O67  1  0.50365000  0.34769000  0.05700000  1.0
