# generated using pymatgen
data_H26Pb(C7O2)2
_symmetry_space_group_name_H-M   'P 1'
_cell_length_a   4.78065000
_cell_length_b   7.47018000
_cell_length_c   22.72286439
_cell_angle_alpha   91.91020670
_cell_angle_beta   93.75852962
_cell_angle_gamma   99.12190000
_symmetry_Int_Tables_number   1
_chemical_formula_structural   H26Pb(C7O2)2
_chemical_formula_sum   'H52 Pb2 C28 O8'
_cell_volume   798.71242171
_cell_formula_units_Z   2
loop_
 _symmetry_equiv_pos_site_id
 _symmetry_equiv_pos_as_xyz
  1  'x, y, z'
loop_
 _atom_site_type_symbol
 _atom_site_label
 _atom_site_symmetry_multiplicity
 _atom_site_fract_x
 _atom_site_fract_y
 _atom_site_fract_z
 _atom_site_occupancy
  H  H0  1  0.54087000  0.09554000  0.12960000  1.0
  H  H1  1  0.45917000  0.90447000  0.87040000  1.0
  H  H2  1  0.53878000  0.33464000  0.12983000  1.0
  H  H3  1  0.46124000  0.66537000  0.87017000  1.0
  H  H4  1  0.07019000  0.15699000  0.15335000  1.0
  H  H5  1  0.92986000  0.84303000  0.84665000  1.0
  H  H6  1  0.05923000  0.39257000  0.15872000  1.0
  H  H7  1  0.94077000  0.60746000  0.84129000  1.0
  H  H8  1  0.74668000  0.10851000  0.23602000  1.0
  H  H9  1  0.25334000  0.89147000  0.76398000  1.0
  H  H10  1  0.75948000  0.34491000  0.24507000  1.0
  H  H11  1  0.24050000  0.65506000  0.75493000  1.0
  H  H12  1  0.28207000  0.15412000  0.25033000  1.0
  H  H13  1  0.71793000  0.84589000  0.74967000  1.0
  H  H14  1  0.28660000  0.38631000  0.26519000  1.0
  H  H15  1  0.71340000  0.61369000  0.73482000  1.0
  H  H16  1  0.00647000  0.31739000  0.35318000  1.0
  H  H17  1  0.99351000  0.68257000  0.64683000  1.0
  H  H18  1  0.98048000  0.08381000  0.33633000  1.0
  H  H19  1  0.01953000  0.91616000  0.66367000  1.0
  H  H20  1  0.51554000  0.11117000  0.35109000  1.0
  H  H21  1  0.48444000  0.88881000  0.64891000  1.0
  H  H22  1  0.36555000  0.18120000  0.41564000  1.0
  H  H23  1  0.63442000  0.81876000  0.58437000  1.0
  H  H24  1  0.53908000  0.34468000  0.36974000  1.0
  H  H25  1  0.46090000  0.65529000  0.63028000  1.0
  H  H26  1  0.53048000  0.58739000  0.20605000  1.0
  H  H27  1  0.46950000  0.41259000  0.79395000  1.0
  H  H28  1  0.67442000  0.81685000  0.20891000  1.0
  H  H29  1  0.32556000  0.18317000  0.79109000  1.0
  H  H30  1  0.10426000  0.65882000  0.25800000  1.0
  H  H31  1  0.89571000  0.34120000  0.74199000  1.0
  H  H32  1  0.25129000  0.88863000  0.26280000  1.0
  H  H33  1  0.74868000  0.11137000  0.73720000  1.0
  H  H34  1  0.65206000  0.82972000  0.33047000  1.0
  H  H35  1  0.34791000  0.17029000  0.66953000  1.0
  H  H36  1  0.54399000  0.59434000  0.32052000  1.0
  H  H37  1  0.45599000  0.40567000  0.67948000  1.0
  H  H38  1  0.07482000  0.62518000  0.36147000  1.0
  H  H39  1  0.92517000  0.37480000  0.63853000  1.0
  H  H40  1  0.18561000  0.85977000  0.37221000  1.0
  H  H41  1  0.81431000  0.14021000  0.62778000  1.0
  H  H42  1  0.59216000  0.79562000  0.44297000  1.0
  H  H43  1  0.40782000  0.20442000  0.55702000  1.0
  H  H44  1  0.44691000  0.56347000  0.43538000  1.0
  H  H45  1  0.55312000  0.43656000  0.56461000  1.0
  H  H46  1  0.15153000  0.86947000  0.48413000  1.0
  H  H47  1  0.84848000  0.13054000  0.51587000  1.0
  H  H48  1  0.26621000  0.69234000  0.52467000  1.0
  H  H49  1  0.73382000  0.30767000  0.47533000  1.0
  H  H50  1  0.97912000  0.64234000  0.47022000  1.0
  H  H51  1  0.02088000  0.35767000  0.52977000  1.0
  Pb  Pb52  1  0.88234000  0.73892000  0.04765000  1.0
  Pb  Pb53  1  0.11767000  0.26108000  0.95234000  1.0
  C  C54  1  0.75881000  0.23189000  0.06038000  1.0
  C  C55  1  0.24122000  0.76814000  0.93962000  1.0
  C  C56  1  0.66861000  0.22805000  0.12285000  1.0
  C  C57  1  0.33142000  0.77196000  0.87715000  1.0
  C  C58  1  0.93687000  0.25780000  0.16533000  1.0
  C  C59  1  0.06316000  0.74222000  0.83467000  1.0
  C  C60  1  0.88101000  0.24017000  0.23032000  1.0
  C  C61  1  0.11900000  0.75982000  0.76968000  1.0
  C  C62  1  0.15762000  0.25192000  0.26871000  1.0
  C  C63  1  0.84239000  0.74807000  0.73130000  1.0
  C  C64  1  0.11964000  0.21547000  0.33356000  1.0
  C  C65  1  0.88037000  0.78451000  0.66645000  1.0
  C  C66  1  0.39913000  0.21284000  0.36951000  1.0
  C  C67  1  0.60085000  0.78713000  0.63049000  1.0
  C  C68  1  0.30371000  0.74571000  0.15037000  1.0
  C  C69  1  0.69631000  0.25429000  0.84963000  1.0
  C  C70  1  0.47065000  0.72383000  0.20821000  1.0
  C  C71  1  0.52935000  0.27616000  0.79179000  1.0
  C  C72  1  0.30852000  0.75182000  0.26250000  1.0
  C  C73  1  0.69146000  0.24818000  0.73750000  1.0
  C  C74  1  0.46273000  0.72449000  0.32180000  1.0
  C  C75  1  0.53724000  0.27551000  0.67820000  1.0
  C  C76  1  0.26456000  0.72901000  0.37181000  1.0
  C  C77  1  0.73540000  0.27099000  0.62818000  1.0
  C  C78  1  0.39146000  0.70101000  0.43360000  1.0
  C  C79  1  0.60854000  0.29901000  0.56640000  1.0
  C  C80  1  0.18680000  0.72746000  0.48086000  1.0
  C  C81  1  0.81321000  0.27255000  0.51914000  1.0
  O  O82  1  0.82545000  0.08889000  0.03616000  1.0
  O  O83  1  0.17447000  0.91112000  0.96383000  1.0
  O  O84  1  0.78286000  0.38078000  0.03352000  1.0
  O  O85  1  0.21727000  0.61927000  0.96649000  1.0
  O  O86  1  0.38525000  0.68706000  0.10179000  1.0
  O  O87  1  0.61478000  0.31293000  0.89821000  1.0
  O  O88  1  0.07980000  0.81891000  0.15147000  1.0
  O  O89  1  0.92024000  0.18110000  0.84853000  1.0
