# generated using pymatgen
data_ZnH16C24(NO2)2
_symmetry_space_group_name_H-M   'P 1'
_cell_length_a   14.35780000
_cell_length_b   15.09360000
_cell_length_c   15.19840000
_cell_angle_alpha   89.99980000
_cell_angle_beta   74.09600000
_cell_angle_gamma   89.99990000
_symmetry_Int_Tables_number   1
_chemical_formula_structural   ZnH16C24(NO2)2
_chemical_formula_sum   'Zn4 H64 C96 N8 O16'
_cell_volume   3167.58471750
_cell_formula_units_Z   4
loop_
 _symmetry_equiv_pos_site_id
 _symmetry_equiv_pos_as_xyz
  1  'x, y, z'
loop_
 _atom_site_type_symbol
 _atom_site_label
 _atom_site_symmetry_multiplicity
 _atom_site_fract_x
 _atom_site_fract_y
 _atom_site_fract_z
 _atom_site_occupancy
  Zn  Zn0  1  0.00616000  0.73546000  0.74796000  1.0
  Zn  Zn1  1  0.49384000  0.23546000  0.25205000  1.0
  Zn  Zn2  1  0.99384000  0.26455000  0.25205000  1.0
  Zn  Zn3  1  0.50616000  0.76455000  0.74795000  1.0
  H  H4  1  0.17667000  0.52224000  0.51069000  1.0
  H  H5  1  0.32333000  0.02223000  0.48932000  1.0
  H  H6  1  0.82333000  0.47777000  0.48932000  1.0
  H  H7  1  0.67667000  0.97777000  0.51069000  1.0
  H  H8  1  0.95124000  0.68980000  0.47384000  1.0
  H  H9  1  0.54876000  0.18980000  0.52616000  1.0
  H  H10  1  0.04876000  0.31020000  0.52616000  1.0
  H  H11  1  0.45124000  0.81020000  0.47384000  1.0
  H  H12  1  0.81240000  0.52844000  0.98385000  1.0
  H  H13  1  0.68760000  0.02844000  0.01616000  1.0
  H  H14  1  0.18760000  0.47156000  0.01616000  1.0
  H  H15  1  0.31240000  0.97156000  0.98384000  1.0
  H  H16  1  0.08734000  0.50342000  0.26139000  1.0
  H  H17  1  0.41266000  0.00341000  0.73861000  1.0
  H  H18  1  0.91266000  0.49659000  0.73861000  1.0
  H  H19  1  0.58734000  0.99658000  0.26139000  1.0
  H  H20  1  0.89140000  0.50642000  0.23847000  1.0
  H  H21  1  0.60860000  0.00642000  0.76153000  1.0
  H  H22  1  0.10860000  0.49358000  0.76153000  1.0
  H  H23  1  0.39140000  0.99358000  0.23847000  1.0
  H  H24  1  0.35499000  0.28888000  0.42890000  1.0
  H  H25  1  0.14501000  0.78888000  0.57110000  1.0
  H  H26  1  0.64501000  0.71112000  0.57110000  1.0
  H  H27  1  0.85499000  0.21112000  0.42890000  1.0
  H  H28  1  0.05489000  0.67291000  0.01927000  1.0
  H  H29  1  0.44510000  0.17291000  0.98073000  1.0
  H  H30  1  0.94511000  0.32709000  0.98073000  1.0
  H  H31  1  0.55489000  0.82709000  0.01927000  1.0
  H  H32  1  0.81423000  0.38500000  0.25536000  1.0
  H  H33  1  0.68577000  0.88500000  0.74464000  1.0
  H  H34  1  0.18577000  0.61500000  0.74464000  1.0
  H  H35  1  0.31423000  0.11500000  0.25536000  1.0
  H  H36  1  0.23260000  0.44902000  0.20248000  1.0
  H  H37  1  0.26740000  0.94902000  0.79752000  1.0
  H  H38  1  0.76740000  0.55098000  0.79752000  1.0
  H  H39  1  0.73260000  0.05098000  0.20248000  1.0
  H  H40  1  0.96818000  0.62399000  0.31962000  1.0
  H  H41  1  0.53182000  0.12399000  0.68038000  1.0
  H  H42  1  0.03182000  0.37601000  0.68038000  1.0
  H  H43  1  0.46818000  0.87601000  0.31962000  1.0
  H  H44  1  0.67445000  0.28278000  0.30579000  1.0
  H  H45  1  0.82555000  0.78278000  0.69421000  1.0
  H  H46  1  0.32555000  0.71722000  0.69421000  1.0
  H  H47  1  0.17445000  0.21722000  0.30579000  1.0
  H  H48  1  0.21810000  0.39268000  0.48491000  1.0
  H  H49  1  0.28190000  0.89268000  0.51509000  1.0
  H  H50  1  0.78190000  0.60732000  0.51509000  1.0
  H  H51  1  0.71810000  0.10732000  0.48491000  1.0
  H  H52  1  0.36601000  0.33880000  0.15864000  1.0
  H  H53  1  0.13399000  0.83879000  0.84136000  1.0
  H  H54  1  0.63399000  0.66120000  0.84136000  1.0
  H  H55  1  0.86601000  0.16120000  0.15864000  1.0
  H  H56  1  0.54342000  0.38298000  0.11627000  1.0
  H  H57  1  0.95658000  0.88298000  0.88373000  1.0
  H  H58  1  0.45658000  0.61702000  0.88373000  1.0
  H  H59  1  0.04342000  0.11702000  0.11627000  1.0
  H  H60  1  0.02785000  0.60955000  0.17567000  1.0
  H  H61  1  0.47214000  0.10955000  0.82433000  1.0
  H  H62  1  0.97215000  0.39045000  0.82433000  1.0
  H  H63  1  0.52785000  0.89045000  0.17567000  1.0
  H  H64  1  0.67335000  0.49401000  0.06112000  1.0
  H  H65  1  0.82665000  0.99401000  0.93889000  1.0
  H  H66  1  0.32665000  0.50599000  0.93888000  1.0
  H  H67  1  0.17335000  0.00599000  0.06112000  1.0
  C  C68  1  0.14280000  0.50475000  0.38048000  1.0
  C  C69  1  0.35720000  0.00474000  0.61952000  1.0
  C  C70  1  0.85720000  0.49526000  0.61952000  1.0
  C  C71  1  0.64280000  0.99525000  0.38048000  1.0
  C  C72  1  0.21644000  0.43524000  0.34858000  1.0
  C  C73  1  0.28356000  0.93524000  0.65142000  1.0
  C  C74  1  0.78356000  0.56476000  0.65142000  1.0
  C  C75  1  0.71644000  0.06476000  0.34858000  1.0
  C  C76  1  0.05136000  0.64110000  0.59649000  1.0
  C  C77  1  0.44864000  0.14110000  0.40351000  1.0
  C  C78  1  0.94865000  0.35890000  0.40351000  1.0
  C  C79  1  0.55135000  0.85890000  0.59649000  1.0
  C  C80  1  0.06239000  0.60758000  0.50138000  1.0
  C  C81  1  0.43761000  0.10758000  0.49862000  1.0
  C  C82  1  0.93761000  0.39242000  0.49862000  1.0
  C  C83  1  0.56239000  0.89242000  0.50138000  1.0
  C  C84  1  0.13154000  0.54241000  0.46716000  1.0
  C  C85  1  0.36847000  0.04241000  0.53283000  1.0
  C  C86  1  0.86847000  0.45759000  0.53283000  1.0
  C  C87  1  0.63153000  0.95759000  0.46717000  1.0
  C  C88  1  0.93325000  0.60508000  0.99371000  1.0
  C  C89  1  0.56675000  0.10508000  0.00629000  1.0
  C  C90  1  0.06675000  0.39492000  0.00629000  1.0
  C  C91  1  0.43325000  0.89492000  0.99371000  1.0
  C  C92  1  0.83905000  0.51126000  0.11724000  1.0
  C  C93  1  0.66095000  0.01126000  0.88276000  1.0
  C  C94  1  0.16095000  0.48874000  0.88276000  1.0
  C  C95  1  0.33905000  0.98874000  0.11724000  1.0
  C  C96  1  0.75776000  0.44921000  0.15184000  1.0
  C  C97  1  0.74224000  0.94921000  0.84816000  1.0
  C  C98  1  0.24224000  0.55079000  0.84815000  1.0
  C  C99  1  0.25776000  0.05079000  0.15184000  1.0
  C  C100  1  0.00452000  0.63819000  0.44702000  1.0
  C  C101  1  0.49548000  0.13819000  0.55298000  1.0
  C  C102  1  0.99549000  0.36181000  0.55298000  1.0
  C  C103  1  0.50452000  0.86181000  0.44702000  1.0
  C  C104  1  0.85650000  0.54698000  0.02893000  1.0
  C  C105  1  0.64350000  0.04698000  0.97107000  1.0
  C  C106  1  0.14350000  0.45302000  0.97107000  1.0
  C  C107  1  0.35650000  0.95302000  0.02893000  1.0
  C  C108  1  0.08300000  0.53476000  0.32718000  1.0
  C  C109  1  0.41700000  0.03476000  0.67281000  1.0
  C  C110  1  0.91700000  0.46524000  0.67282000  1.0
  C  C111  1  0.58300000  0.96524000  0.32718000  1.0
  C  C112  1  0.94911000  0.64024000  0.89847000  1.0
  C  C113  1  0.55089000  0.14024000  0.10153000  1.0
  C  C114  1  0.05089000  0.35976000  0.10153000  1.0
  C  C115  1  0.44911000  0.85975000  0.89847000  1.0
  C  C116  1  0.90193000  0.53446000  0.17019000  1.0
  C  C117  1  0.59807000  0.03446000  0.82981000  1.0
  C  C118  1  0.09807000  0.46553000  0.82981000  1.0
  C  C119  1  0.40193000  0.96553000  0.17019000  1.0
  C  C120  1  0.32599000  0.32626000  0.38105000  1.0
  C  C121  1  0.17401000  0.82626000  0.61895000  1.0
  C  C122  1  0.67401000  0.67374000  0.61895000  1.0
  C  C123  1  0.82599000  0.17374000  0.38105000  1.0
  C  C124  1  0.99454000  0.62822000  0.04751000  1.0
  C  C125  1  0.50546000  0.12822000  0.95249000  1.0
  C  C126  1  0.00546000  0.37178000  0.95249000  1.0
  C  C127  1  0.49454000  0.87178000  0.04751000  1.0
  C  C128  1  0.75578000  0.38848000  0.22254000  1.0
  C  C129  1  0.74422000  0.88848000  0.77746000  1.0
  C  C130  1  0.24422000  0.61152000  0.77746000  1.0
  C  C131  1  0.25578000  0.11152000  0.22254000  1.0
  C  C132  1  0.25819000  0.41670000  0.25546000  1.0
  C  C133  1  0.24181000  0.91670000  0.74454000  1.0
  C  C134  1  0.74181000  0.58330000  0.74454000  1.0
  C  C135  1  0.75819000  0.08330000  0.25546000  1.0
  C  C136  1  0.01505000  0.60143000  0.36063000  1.0
  C  C137  1  0.48495000  0.10142000  0.63937000  1.0
  C  C138  1  0.98496000  0.39858000  0.63937000  1.0
  C  C139  1  0.51505000  0.89858000  0.36063000  1.0
  C  C140  1  0.67828000  0.33045000  0.25104000  1.0
  C  C141  1  0.82172000  0.83045000  0.74896000  1.0
  C  C142  1  0.32172000  0.66955000  0.74896000  1.0
  C  C143  1  0.17828000  0.16955000  0.25104000  1.0
  C  C144  1  0.25035000  0.38536000  0.41166000  1.0
  C  C145  1  0.24965000  0.88535000  0.58834000  1.0
  C  C146  1  0.74965000  0.61464000  0.58834000  1.0
  C  C147  1  0.75035000  0.11464000  0.41166000  1.0
  C  C148  1  0.33274000  0.35527000  0.23025000  1.0
  C  C149  1  0.16725000  0.85527000  0.76975000  1.0
  C  C150  1  0.66726000  0.64473000  0.76975000  1.0
  C  C151  1  0.83274000  0.14473000  0.23025000  1.0
  C  C152  1  0.60460000  0.38653000  0.14563000  1.0
  C  C153  1  0.89540000  0.88654000  0.85437000  1.0
  C  C154  1  0.39540000  0.61347000  0.85437000  1.0
  C  C155  1  0.10460000  0.11347000  0.14563000  1.0
  C  C156  1  0.97868000  0.59254000  0.13501000  1.0
  C  C157  1  0.52132000  0.09254000  0.86499000  1.0
  C  C158  1  0.02132000  0.40746000  0.86499000  1.0
  C  C159  1  0.47868000  0.90746000  0.13501000  1.0
  C  C160  1  0.67839000  0.44744000  0.11429000  1.0
  C  C161  1  0.82161000  0.94744000  0.88571000  1.0
  C  C162  1  0.32161000  0.55256000  0.88571000  1.0
  C  C163  1  0.17839000  0.05256000  0.11429000  1.0
  N  N164  1  0.60376000  0.32846000  0.21309000  1.0
  N  N165  1  0.89624000  0.82847000  0.78691000  1.0
  N  N166  1  0.39624000  0.67154000  0.78691000  1.0
  N  N167  1  0.10375000  0.17154000  0.21309000  1.0
  N  N168  1  0.36857000  0.31215000  0.29157000  1.0
  N  N169  1  0.13143000  0.81215000  0.70843000  1.0
  N  N170  1  0.63143000  0.68785000  0.70843000  1.0
  N  N171  1  0.86857000  0.18785000  0.29157000  1.0
  O  O172  1  0.01869000  0.69731000  0.87049000  1.0
  O  O173  1  0.48131000  0.19731000  0.12951000  1.0
  O  O174  1  0.98131000  0.30269000  0.12951000  1.0
  O  O175  1  0.51869000  0.80269000  0.87049000  1.0
  O  O176  1  0.10484000  0.61164000  0.64290000  1.0
  O  O177  1  0.39516000  0.11164000  0.35710000  1.0
  O  O178  1  0.89517000  0.38836000  0.35710000  1.0
  O  O179  1  0.60483000  0.88836000  0.64290000  1.0
  O  O180  1  0.98594000  0.70131000  0.62700000  1.0
  O  O181  1  0.51406000  0.20130000  0.37300000  1.0
  O  O182  1  0.01407000  0.29869000  0.37300000  1.0
  O  O183  1  0.48593000  0.79869000  0.62700000  1.0
  O  O184  1  0.89618000  0.61533000  0.84961000  1.0
  O  O185  1  0.60382000  0.11533000  0.15039000  1.0
  O  O186  1  0.10382000  0.38467000  0.15039000  1.0
  O  O187  1  0.39618000  0.88467000  0.84961000  1.0
