# generated using pymatgen
data_Ca2H24C8O19
_symmetry_space_group_name_H-M   'P 1'
_cell_length_a   6.27440000
_cell_length_b   8.01187000
_cell_length_c   10.23320000
_cell_angle_alpha   96.58730000
_cell_angle_beta   105.48900000
_cell_angle_gamma   106.58800000
_symmetry_Int_Tables_number   1
_chemical_formula_structural   Ca2H24C8O19
_chemical_formula_sum   'Ca2 H24 C8 O19'
_cell_volume   464.83934450
_cell_formula_units_Z   1
loop_
 _symmetry_equiv_pos_site_id
 _symmetry_equiv_pos_as_xyz
  1  'x, y, z'
loop_
 _atom_site_type_symbol
 _atom_site_label
 _atom_site_symmetry_multiplicity
 _atom_site_fract_x
 _atom_site_fract_y
 _atom_site_fract_z
 _atom_site_occupancy
  Ca  Ca0  1  0.32095000  0.70599000  0.77647000  1.0
  Ca  Ca1  1  0.67577000  0.29337000  0.22300000  1.0
  H  H2  1  0.74416000  0.25523000  0.61163000  1.0
  H  H3  1  0.52110000  0.25368000  0.78167000  1.0
  H  H4  1  0.81426000  0.52690000  0.55891000  1.0
  H  H5  1  0.67823000  0.51622000  0.92794000  1.0
  H  H6  1  0.73832000  0.00447000  0.76271000  1.0
  H  H7  1  0.67090000  0.84663000  0.63034000  1.0
  H  H8  1  0.69515000  0.94178000  0.04857000  1.0
  H  H9  1  0.65072000  0.73953000  0.04663000  1.0
  H  H10  1  0.00127000  0.83641000  0.55560000  1.0
  H  H11  1  0.24169000  0.98560000  0.58297000  1.0
  H  H12  1  0.95462000  0.85665000  0.82360000  1.0
  H  H13  1  0.08941000  0.83670000  0.97087000  1.0
  H  H14  1  0.22516000  0.75389000  0.38088000  1.0
  H  H15  1  0.34779000  0.51232000  0.17891000  1.0
  H  H16  1  0.44554000  0.74841000  0.20401000  1.0
  H  H17  1  0.16067000  0.48194000  0.43393000  1.0
  H  H18  1  0.23639000  0.00461000  0.22444000  1.0
  H  H19  1  0.31005000  0.16130000  0.35841000  1.0
  H  H20  1  0.32176000  0.30725000  0.96042000  1.0
  H  H21  1  0.28370000  0.10103000  0.95027000  1.0
  H  H22  1  0.98312000  0.15979000  0.43583000  1.0
  H  H23  1  0.74261000  0.00954000  0.40853000  1.0
  H  H24  1  0.90253000  0.18142000  0.01565000  1.0
  H  H25  1  0.04004000  0.15851000  0.16478000  1.0
  C  C26  1  0.96641000  0.34179000  0.82130000  1.0
  C  C27  1  0.79495000  0.37147000  0.69659000  1.0
  C  C28  1  0.57222000  0.37162000  0.73662000  1.0
  C  C29  1  0.37274000  0.35151000  0.60657000  1.0
  C  C30  1  0.00012000  0.66724000  0.17153000  1.0
  C  C31  1  0.17630000  0.63900000  0.29511000  1.0
  C  C32  1  0.39489000  0.63621000  0.25437000  1.0
  C  C33  1  0.59661000  0.65126000  0.38019000  1.0
  O  O34  1  0.16730000  0.45603000  0.87909000  1.0
  O  O35  1  0.89005000  0.19742000  0.86090000  1.0
  O  O36  1  0.90042000  0.53064000  0.65810000  1.0
  O  O37  1  0.61508000  0.52985000  0.83162000  1.0
  O  O38  1  0.30757000  0.48494000  0.58695000  1.0
  O  O39  1  0.28427000  0.19935000  0.52359000  1.0
  O  O40  1  0.67250000  0.87215000  0.72759000  1.0
  O  O41  1  0.57000000  0.82245000  0.01432000  1.0
  O  O42  1  0.17277000  0.86511000  0.59825000  1.0
  O  O43  1  0.11504000  0.87391000  0.88527000  1.0
  O  O44  1  0.79836000  0.54909000  0.11677000  1.0
  O  O45  1  0.06663000  0.81023000  0.12952000  1.0
  O  O46  1  0.07298000  0.47927000  0.33478000  1.0
  O  O47  1  0.65440000  0.51379000  0.39898000  1.0
  O  O48  1  0.69931000  0.80273000  0.46404000  1.0
  O  O49  1  0.30979000  0.13673000  0.26103000  1.0
  O  O50  1  0.40008000  0.22205000  0.99409000  1.0
  O  O51  1  0.81153000  0.13030000  0.39250000  1.0
  O  O52  1  0.88250000  0.15245000  0.10580000  1.0
