# generated using pymatgen
data_Ho2CuH20C32(NO7)4
_symmetry_space_group_name_H-M   'P 1'
_cell_length_a   10.21980000
_cell_length_b   10.64200000
_cell_length_c   11.36820000
_cell_angle_alpha   84.37390000
_cell_angle_beta   75.01340000
_cell_angle_gamma   68.86910000
_symmetry_Int_Tables_number   1
_chemical_formula_structural   Ho2CuH20C32(NO7)4
_chemical_formula_sum   'Ho2 Cu1 H20 C32 N4 O28'
_cell_volume   1114.01671087
_cell_formula_units_Z   1
loop_
 _symmetry_equiv_pos_site_id
 _symmetry_equiv_pos_as_xyz
  1  'x, y, z'
loop_
 _atom_site_type_symbol
 _atom_site_label
 _atom_site_symmetry_multiplicity
 _atom_site_fract_x
 _atom_site_fract_y
 _atom_site_fract_z
 _atom_site_occupancy
  Ho  Ho0  1  0.58617000  0.60800000  0.62715000  1.0
  Ho  Ho1  1  0.41384000  0.39200000  0.37285000  1.0
  Cu  Cu2  1  0.00000000  0.50000000  0.50000000  1.0
  H  H3  1  0.36962000  0.97765000  0.45253000  1.0
  H  H4  1  0.63039000  0.02235000  0.54746000  1.0
  H  H5  1  0.96381000  0.18144000  0.35632000  1.0
  H  H6  1  0.03619000  0.81854000  0.64368000  1.0
  H  H7  1  0.16100000  0.74883000  0.32570000  1.0
  H  H8  1  0.83903000  0.25116000  0.67430000  1.0
  H  H9  1  0.66795000  0.47942000  0.94641000  1.0
  H  H10  1  0.33204000  0.52060000  0.05359000  1.0
  H  H11  1  0.92641000  0.31737000  0.20909000  1.0
  H  H12  1  0.07356000  0.68266000  0.79092000  1.0
  H  H13  1  0.13408000  0.33719000  0.83024000  1.0
  H  H14  1  0.86591000  0.66281000  0.16976000  1.0
  H  H15  1  0.46309000  0.83304000  0.81463000  1.0
  H  H16  1  0.53692000  0.16694000  0.18538000  1.0
  H  H17  1  0.34970000  0.87081000  0.73425000  1.0
  H  H18  1  0.65033000  0.12920000  0.26575000  1.0
  H  H19  1  0.71515000  0.46937000  0.38377000  1.0
  H  H20  1  0.28487000  0.53062000  0.61623000  1.0
  H  H21  1  0.80089000  0.56824000  0.38230000  1.0
  H  H22  1  0.19912000  0.43177000  0.61770000  1.0
  C  C23  1  0.27586000  0.85020000  0.39258000  1.0
  C  C24  1  0.72415000  0.14980000  0.60742000  1.0
  C  C25  1  0.28064000  0.97489000  0.41807000  1.0
  C  C26  1  0.71936000  0.02510000  0.58193000  1.0
  C  C27  1  0.16949000  0.09435000  0.40353000  1.0
  C  C28  1  0.83050000  0.90564000  0.59647000  1.0
  C  C29  1  0.05401000  0.08976000  0.36213000  1.0
  C  C30  1  0.94600000  0.91023000  0.63786000  1.0
  C  C31  1  0.05505000  0.96634000  0.33104000  1.0
  C  C32  1  0.94496000  0.03364000  0.66895000  1.0
  C  C33  1  0.16415000  0.84522000  0.34595000  1.0
  C  C34  1  0.83587000  0.15477000  0.65405000  1.0
  C  C35  1  0.38446000  0.72152000  0.42575000  1.0
  C  C36  1  0.61555000  0.27848000  0.57425000  1.0
  C  C37  1  0.16576000  0.22993000  0.43409000  1.0
  C  C38  1  0.83424000  0.77007000  0.56591000  1.0
  C  C39  1  0.89974000  0.41722000  0.87547000  1.0
  C  C40  1  0.10025000  0.58279000  0.12453000  1.0
  C  C41  1  0.77351000  0.43629000  0.96796000  1.0
  C  C42  1  0.22647000  0.56373000  0.03204000  1.0
  C  C43  1  0.78313000  0.39948000  0.08823000  1.0
  C  C44  1  0.21687000  0.60052000  0.91177000  1.0
  C  C45  1  0.91834000  0.34422000  0.11587000  1.0
  C  C46  1  0.08165000  0.65579000  0.88413000  1.0
  C  C47  1  0.04227000  0.32172000  0.02148000  1.0
  C  C48  1  0.95772000  0.67829000  0.97852000  1.0
  C  C49  1  0.03538000  0.35678000  0.90174000  1.0
  C  C50  1  0.96461000  0.64323000  0.09825000  1.0
  C  C51  1  0.89176000  0.45996000  0.74735000  1.0
  C  C52  1  0.10823000  0.54005000  0.25265000  1.0
  C  C53  1  0.64966000  0.41242000  0.18721000  1.0
  C  C54  1  0.35034000  0.58757000  0.81279000  1.0
  N  N55  1  0.93321000  0.96553000  0.28636000  1.0
  N  N56  1  0.06680000  0.03445000  0.71362000  1.0
  N  N57  1  0.18569000  0.26042000  0.04835000  1.0
  N  N58  1  0.81430000  0.73959000  0.95165000  1.0
  O  O59  1  0.39095000  0.61082000  0.38782000  1.0
  O  O60  1  0.60905000  0.38918000  0.61218000  1.0
  O  O61  1  0.45902000  0.73413000  0.49426000  1.0
  O  O62  1  0.54099000  0.26587000  0.50574000  1.0
  O  O63  1  0.28017000  0.24799000  0.43677000  1.0
  O  O64  1  0.71982000  0.75202000  0.56321000  1.0
  O  O65  1  0.03844000  0.31878000  0.45514000  1.0
  O  O66  1  0.96155000  0.68120000  0.54488000  1.0
  O  O67  1  0.84142000  0.07754000  0.27097000  1.0
  O  O68  1  0.15862000  0.92244000  0.72896000  1.0
  O  O69  1  0.92617000  0.85626000  0.26683000  1.0
  O  O70  1  0.07381000  0.14372000  0.73321000  1.0
  O  O71  1  0.01229000  0.43783000  0.66839000  1.0
  O  O72  1  0.98770000  0.56217000  0.33161000  1.0
  O  O73  1  0.77006000  0.51325000  0.72268000  1.0
  O  O74  1  0.22994000  0.48677000  0.27732000  1.0
  O  O75  1  0.52985000  0.43670000  0.16107000  1.0
  O  O76  1  0.47015000  0.56329000  0.83894000  1.0
  O  O77  1  0.66115000  0.39028000  0.29822000  1.0
  O  O78  1  0.33886000  0.60972000  0.70178000  1.0
  O  O79  1  0.19065000  0.24608000  0.15710000  1.0
  O  O80  1  0.80934000  0.75393000  0.84290000  1.0
  O  O81  1  0.29320000  0.22748000  0.96136000  1.0
  O  O82  1  0.70678000  0.77254000  0.03865000  1.0
  O  O83  1  0.45264000  0.82428000  0.73353000  1.0
  O  O84  1  0.54738000  0.17573000  0.26648000  1.0
  O  O85  1  0.73678000  0.52584000  0.43619000  1.0
  O  O86  1  0.26323000  0.47416000  0.56381000  1.0
