# generated using pymatgen
data_AlH12C24(NO6)3
_symmetry_space_group_name_H-M   'P 1'
_cell_length_a   3.90864000
_cell_length_b   15.81380000
_cell_length_c   15.84757023
_cell_angle_alpha   60.27094689
_cell_angle_beta   87.95088498
_cell_angle_gamma   86.68180000
_symmetry_Int_Tables_number   1
_chemical_formula_structural   AlH12C24(NO6)3
_chemical_formula_sum   'Al1 H12 C24 N3 O18'
_cell_volume   849.16367753
_cell_formula_units_Z   1
loop_
 _symmetry_equiv_pos_site_id
 _symmetry_equiv_pos_as_xyz
  1  'x, y, z'
loop_
 _atom_site_type_symbol
 _atom_site_label
 _atom_site_symmetry_multiplicity
 _atom_site_fract_x
 _atom_site_fract_y
 _atom_site_fract_z
 _atom_site_occupancy
  Al  Al0  1  0.94929000  0.00366000  0.49821000  1.0
  H  H1  1  0.73063000  0.19404000  0.52786000  1.0
  H  H2  1  0.07815000  0.20197000  0.28949000  1.0
  H  H3  1  0.65111000  0.52874000  0.36749000  1.0
  H  H4  1  0.24101000  0.52931000  0.10181000  1.0
  H  H5  1  0.63883000  0.75280000  0.69676000  1.0
  H  H6  1  0.50288000  0.60113000  0.89705000  1.0
  H  H7  1  0.47914000  0.03938000  0.81154000  1.0
  H  H8  1  0.49190000  0.87618000  0.02620000  1.0
  H  H9  1  0.93193000  0.96084000  0.12363000  1.0
  H  H10  1  0.82987000  0.02107000  0.27878000  1.0
  H  H11  1  0.07912000  0.63821000  0.45377000  1.0
  H  H12  1  0.13733000  0.79468000  0.50988000  1.0
  C  C13  1  0.47801000  0.92909000  0.41756000  1.0
  C  C14  1  0.42192000  0.15549000  0.42543000  1.0
  C  C15  1  0.45336000  0.92618000  0.64771000  1.0
  C  C16  1  0.44768000  0.71316000  0.06654000  1.0
  C  C17  1  0.45626000  0.57067000  0.21323000  1.0
  C  C18  1  0.51701000  0.71640000  0.20888000  1.0
  C  C19  1  0.25510000  0.31401000  0.28167000  1.0
  C  C20  1  0.28685000  0.41549000  0.22604000  1.0
  C  C21  1  0.43586000  0.46548000  0.26884000  1.0
  C  C22  1  0.56687000  0.41285000  0.36556000  1.0
  C  C23  1  0.57480000  0.31038000  0.41575000  1.0
  C  C24  1  0.41366000  0.26072000  0.37452000  1.0
  C  C25  1  0.46871000  0.71671000  0.90540000  1.0
  C  C26  1  0.48770000  0.77050000  0.80429000  1.0
  C  C27  1  0.46723000  0.87295000  0.75497000  1.0
  C  C28  1  0.45894000  0.92237000  0.80761000  1.0
  C  C29  1  0.46294000  0.86926000  0.90974000  1.0
  C  C30  1  0.45441000  0.76549000  0.96077000  1.0
  C  C31  1  0.66931000  0.86182000  0.22271000  1.0
  C  C32  1  0.66666667  0.91215000  0.27453000  1.0
  C  C33  1  0.49289000  0.87587000  0.36486000  1.0
  C  C34  1  0.33152000  0.78614000  0.40290000  1.0
  C  C35  1  0.35117000  0.73299000  0.35381000  1.0
  C  C36  1  0.51748000  0.77065000  0.26210000  1.0
  N  N37  1  0.39731000  0.61697000  0.11665000  1.0
  N  N38  1  0.53386000  0.61875000  0.26049000  1.0
  N  N39  1  0.49021000  0.76583000  0.11163000  1.0
  O  O40  1  0.20462000  0.98675000  0.60620000  1.0
  O  O41  1  0.24193000  0.90894000  0.48361000  1.0
  O  O42  1  0.20172000  0.11033000  0.40402000  1.0
  O  O43  1  0.69282000  0.90485000  0.60200000  1.0
  O  O44  1  0.65178000  0.10648000  0.49117000  1.0
  O  O45  1  0.69894000  0.99431000  0.39837000  1.0
  O  O46  1  0.72302000  0.26467000  0.50426000  1.0
  O  O47  1  0.09425000  0.27119000  0.23935000  1.0
  O  O48  1  0.69737000  0.45620000  0.41099000  1.0
  O  O49  1  0.16428000  0.46000000  0.13529000  1.0
  O  O50  1  0.50527000  0.71699000  0.75654000  1.0
  O  O51  1  0.47210000  0.61773000  0.94888000  1.0
  O  O52  1  0.46487000  0.02140000  0.76085000  1.0
  O  O53  1  0.47394000  0.92428000  0.95283000  1.0
  O  O54  1  0.83136000  0.90089000  0.13454000  1.0
  O  O55  1  0.82651000  0.99837000  0.23076000  1.0
  O  O56  1  0.19324000  0.64682000  0.39414000  1.0
  O  O57  1  0.15949000  0.74438000  0.48958000  1.0
