# generated using pymatgen
data_Zn4H20C44O13F8
_symmetry_space_group_name_H-M   'P 1'
_cell_length_a   23.98243809
_cell_length_b   23.98280000
_cell_length_c   23.98120000
_cell_angle_alpha   66.92500000
_cell_angle_beta   72.29698069
_cell_angle_gamma   107.69880475
_symmetry_Int_Tables_number   1
_chemical_formula_structural   Zn4H20C44O13F8
_chemical_formula_sum   'Zn8 H40 C88 O26 F16'
_cell_volume   10586.02741816
_cell_formula_units_Z   2
loop_
 _symmetry_equiv_pos_site_id
 _symmetry_equiv_pos_as_xyz
  1  'x, y, z'
loop_
 _atom_site_type_symbol
 _atom_site_label
 _atom_site_symmetry_multiplicity
 _atom_site_fract_x
 _atom_site_fract_y
 _atom_site_fract_z
 _atom_site_occupancy
  Zn  Zn0  1  0.05658000  0.09927000  0.45726000  1.0
  Zn  Zn1  1  0.05658000  0.95731000  0.48615000  1.0
  Zn  Zn2  1  0.94342000  0.95726000  0.59927000  1.0
  Zn  Zn3  1  0.94343000  0.98616000  0.45730000  1.0
  Zn  Zn4  1  0.94346000  0.40073000  0.04270000  1.0
  Zn  Zn5  1  0.05655000  0.54270000  0.90072000  1.0
  Zn  Zn6  1  0.94346000  0.54273000  0.01385000  1.0
  Zn  Zn7  1  0.05653000  0.51384000  0.04274000  1.0
  H  H8  1  0.92353000  0.20899000  0.90177000  1.0
  H  H9  1  0.07645000  0.40177000  0.70896000  1.0
  H  H10  1  0.92354000  0.09823000  0.79103000  1.0
  H  H11  1  0.07640000  0.29102000  0.59820000  1.0
  H  H12  1  0.07647000  0.67473000  0.21453000  1.0
  H  H13  1  0.92354000  0.71459000  0.17467000  1.0
  H  H14  1  0.07641000  0.78539000  0.32537000  1.0
  H  H15  1  0.92354000  0.82532000  0.28544000  1.0
  H  H16  1  0.61076000  0.20899000  0.21458000  1.0
  H  H17  1  0.61076000  0.40179000  0.17466000  1.0
  H  H18  1  0.38926000  0.09822000  0.32534000  1.0
  H  H19  1  0.38926000  0.29100000  0.28549000  1.0
  H  H20  1  0.38925000  0.71462000  0.70898000  1.0
  H  H21  1  0.38923000  0.67466000  0.90181000  1.0
  H  H22  1  0.61075000  0.82534000  0.59820000  1.0
  H  H23  1  0.61073000  0.78545000  0.79101000  1.0
  H  H24  1  0.85668000  0.09970000  0.31899000  1.0
  H  H25  1  0.90842000  0.06672000  0.34130000  1.0
  H  H26  1  0.91853000  0.09993000  0.25673000  1.0
  H  H27  1  0.08133000  0.40030000  0.24301000  1.0
  H  H28  1  0.09199000  0.43327000  0.15829000  1.0
  H  H29  1  0.14334000  0.40007000  0.18139000  1.0
  H  H30  1  0.91868000  0.17567000  0.18102000  1.0
  H  H31  1  0.90801000  0.24971000  0.15872000  1.0
  H  H32  1  0.85666000  0.17526000  0.24327000  1.0
  H  H33  1  0.14332000  0.32434000  0.25697000  1.0
  H  H34  1  0.09158000  0.25029000  0.34169000  1.0
  H  H35  1  0.08148000  0.32474000  0.31860000  1.0
  H  H36  1  0.85668000  0.75697000  0.82436000  1.0
  H  H37  1  0.90842000  0.84169000  0.75031000  1.0
  H  H38  1  0.91853000  0.81859000  0.82475000  1.0
  H  H39  1  0.08132000  0.68103000  0.67564000  1.0
  H  H40  1  0.09198000  0.65871000  0.74970000  1.0
  H  H41  1  0.14334000  0.74327000  0.67525000  1.0
  H  H42  1  0.91868000  0.74301000  0.90031000  1.0
  H  H43  1  0.90802000  0.65830000  0.93329000  1.0
  H  H44  1  0.85666000  0.68139000  0.90010000  1.0
  H  H45  1  0.14332000  0.81899000  0.59968000  1.0
  H  H46  1  0.09158000  0.84130000  0.56670000  1.0
  H  H47  1  0.08147000  0.75674000  0.59991000  1.0
  C  C48  1  0.18090000  0.09044000  0.40955000  1.0
  C  C49  1  0.00000000  0.86208000  0.63792000  1.0
  C  C50  1  0.99999000  0.09042000  0.59044000  1.0
  C  C51  1  0.81911000  0.90957000  0.59043000  1.0
  C  C52  1  0.00001000  0.13793000  0.36207000  1.0
  C  C53  1  0.00000000  0.90957000  0.40956000  1.0
  C  C54  1  0.00000000  0.40956000  0.90955000  1.0
  C  C55  1  0.00001000  0.63793000  0.86207000  1.0
  C  C56  1  0.81914000  0.40958000  0.09043000  1.0
  C  C57  1  0.99999000  0.59045000  0.09045000  1.0
  C  C58  1  0.99999000  0.36207000  0.13793000  1.0
  C  C59  1  0.18086000  0.59043000  0.90958000  1.0
  C  C60  1  0.00001000  0.19564000  0.30436000  1.0
  C  C61  1  0.00000000  0.30437000  0.19563000  1.0
  C  C62  1  0.95655000  0.17964000  0.27689000  1.0
  C  C63  1  0.04347000  0.32035000  0.22309000  1.0
  C  C64  1  0.95653000  0.23344000  0.22312000  1.0
  C  C65  1  0.04345000  0.26656000  0.27690000  1.0
  C  C66  1  0.00000000  0.80437000  0.69563000  1.0
  C  C67  1  0.00000000  0.69563000  0.80437000  1.0
  C  C68  1  0.95655000  0.77690000  0.76657000  1.0
  C  C69  1  0.04347000  0.72312000  0.73343000  1.0
  C  C70  1  0.95653000  0.72309000  0.82036000  1.0
  C  C71  1  0.04345000  0.77689000  0.67964000  1.0
  C  C72  1  0.00000000  0.37211000  0.87209000  1.0
  C  C73  1  0.95807000  0.30007000  0.90582000  1.0
  C  C74  1  0.95723000  0.26443000  0.87223000  1.0
  C  C75  1  0.99999000  0.30055000  0.80053000  1.0
  C  C76  1  0.04275000  0.37224000  0.76440000  1.0
  C  C77  1  0.04192000  0.40584000  0.80004000  1.0
  C  C78  1  0.99998000  0.26523000  0.76523000  1.0
  C  C79  1  0.99998000  0.23477000  0.73475000  1.0
  C  C80  1  0.99997000  0.19946000  0.69945000  1.0
  C  C81  1  0.95723000  0.12777000  0.73557000  1.0
  C  C82  1  0.95806000  0.09416000  0.69994000  1.0
  C  C83  1  0.99998000  0.12788000  0.62790000  1.0
  C  C84  1  0.04188000  0.19993000  0.59415000  1.0
  C  C85  1  0.04271000  0.23558000  0.62774000  1.0
  C  C86  1  0.00000000  0.62792000  0.12789000  1.0
  C  C87  1  0.04194000  0.63613000  0.15798000  1.0
  C  C88  1  0.04277000  0.67056000  0.19279000  1.0
  C  C89  1  0.00001000  0.69949000  0.19943000  1.0
  C  C90  1  0.95725000  0.69285000  0.17050000  1.0
  C  C91  1  0.95809000  0.65805000  0.13606000  1.0
  C  C92  1  0.99999000  0.73477000  0.23476000  1.0
  C  C93  1  0.99999000  0.76523000  0.26525000  1.0
  C  C94  1  0.99998000  0.80052000  0.30057000  1.0
  C  C95  1  0.04271000  0.80714000  0.32953000  1.0
  C  C96  1  0.04188000  0.84194000  0.36396000  1.0
  C  C97  1  0.99998000  0.87209000  0.37213000  1.0
  C  C98  1  0.95806000  0.86390000  0.34201000  1.0
  C  C99  1  0.95723000  0.82947000  0.30720000  1.0
  C  C100  1  0.74422000  0.37212000  0.12789000  1.0
  C  C101  1  0.70591000  0.30008000  0.15802000  1.0
  C  C102  1  0.63667000  0.26443000  0.19283000  1.0
  C  C103  1  0.60109000  0.30055000  0.19946000  1.0
  C  C104  1  0.63667000  0.37225000  0.17050000  1.0
  C  C105  1  0.70591000  0.40585000  0.13606000  1.0
  C  C106  1  0.53048000  0.26524000  0.23477000  1.0
  C  C107  1  0.46954000  0.23476000  0.26526000  1.0
  C  C108  1  0.39893000  0.19945000  0.30058000  1.0
  C  C109  1  0.36335000  0.12775000  0.32951000  1.0
  C  C110  1  0.29412000  0.09416000  0.36393000  1.0
  C  C111  1  0.25581000  0.12790000  0.37211000  1.0
  C  C112  1  0.29411000  0.19992000  0.34203000  1.0
  C  C113  1  0.36335000  0.23556000  0.30723000  1.0
  C  C114  1  0.25578000  0.62790000  0.87212000  1.0
  C  C115  1  0.29410000  0.65805000  0.80007000  1.0
  C  C116  1  0.36334000  0.69286000  0.76443000  1.0
  C  C117  1  0.39891000  0.69948000  0.80056000  1.0
  C  C118  1  0.36332000  0.67051000  0.87227000  1.0
  C  C119  1  0.29409000  0.63608000  0.90586000  1.0
  C  C120  1  0.46952000  0.73478000  0.76525000  1.0
  C  C121  1  0.53046000  0.76526000  0.73476000  1.0
  C  C122  1  0.60108000  0.80057000  0.69944000  1.0
  C  C123  1  0.63666000  0.82951000  0.62774000  1.0
  C  C124  1  0.70590000  0.86394000  0.59414000  1.0
  C  C125  1  0.74420000  0.87212000  0.62789000  1.0
  C  C126  1  0.70588000  0.84200000  0.69993000  1.0
  C  C127  1  0.63665000  0.80720000  0.73556000  1.0
  C  C128  1  0.90794000  0.10727000  0.30056000  1.0
  C  C129  1  0.09218000  0.39274000  0.19932000  1.0
  C  C130  1  0.90782000  0.20850000  0.19944000  1.0
  C  C131  1  0.09207000  0.29150000  0.30067000  1.0
  C  C132  1  0.90794000  0.80067000  0.79151000  1.0
  C  C133  1  0.09218000  0.69944000  0.70848000  1.0
  C  C134  1  0.90782000  0.69931000  0.89276000  1.0
  C  C135  1  0.09207000  0.80058000  0.60724000  1.0
  O  O136  1  0.00000000  0.00000000  0.50000000  1.0
  O  O137  1  0.15209000  0.12621000  0.41484000  1.0
  O  O138  1  0.03971000  0.88609000  0.57490000  1.0
  O  O139  1  0.95901000  0.02582000  0.62624000  1.0
  O  O140  1  0.15210000  0.02587000  0.43306000  1.0
  O  O141  1  0.04098000  0.12622000  0.52583000  1.0
  O  O142  1  0.96027000  0.88538000  0.65363000  1.0
  O  O143  1  0.84790000  0.91484000  0.62623000  1.0
  O  O144  1  0.96031000  0.07490000  0.38607000  1.0
  O  O145  1  0.84791000  0.93307000  0.52586000  1.0
  O  O146  1  0.03971000  0.15363000  0.38540000  1.0
  O  O147  1  0.04097000  0.91474000  0.43320000  1.0
  O  O148  1  0.95903000  0.93320000  0.41474000  1.0
  O  O149  1  0.00000000  0.50000000  0.00000000  1.0
  O  O150  1  0.95893000  0.37379000  0.97412000  1.0
  O  O151  1  0.03905000  0.61394000  0.84637000  1.0
  O  O152  1  0.84794000  0.47417000  0.06681000  1.0
  O  O153  1  0.04107000  0.47413000  0.87377000  1.0
  O  O154  1  0.84794000  0.37377000  0.08527000  1.0
  O  O155  1  0.96097000  0.61459000  0.92510000  1.0
  O  O156  1  0.95894000  0.58517000  0.06692000  1.0
  O  O157  1  0.03899000  0.42510000  0.11463000  1.0
  O  O158  1  0.04105000  0.56693000  0.08517000  1.0
  O  O159  1  0.96099000  0.34637000  0.11390000  1.0
  O  O160  1  0.15206000  0.58525000  0.87378000  1.0
  O  O161  1  0.15205000  0.56681000  0.97419000  1.0
  F  F162  1  0.91569000  0.26170000  0.97466000  1.0
  F  F163  1  0.08430000  0.47467000  0.76166000  1.0
  F  F164  1  0.91569000  0.02532000  0.73832000  1.0
  F  F165  1  0.08424000  0.23831000  0.52530000  1.0
  F  F166  1  0.08434000  0.60970000  0.15396000  1.0
  F  F167  1  0.91571000  0.65404000  0.10961000  1.0
  F  F168  1  0.08425000  0.84594000  0.39043000  1.0
  F  F169  1  0.91568000  0.89035000  0.34601000  1.0
  F  F170  1  0.73637000  0.26170000  0.15403000  1.0
  F  F171  1  0.73637000  0.47469000  0.10959000  1.0
  F  F172  1  0.26365000  0.02532000  0.39040000  1.0
  F  F173  1  0.26365000  0.23830000  0.34606000  1.0
  F  F174  1  0.26364000  0.65407000  0.76169000  1.0
  F  F175  1  0.26362000  0.60960000  0.97471000  1.0
  F  F176  1  0.73637000  0.89040000  0.52530000  1.0
  F  F177  1  0.73634000  0.84601000  0.73831000  1.0
