# generated using pymatgen
data_AgH8C4S2NO4
_symmetry_space_group_name_H-M   'P 1'
_cell_length_a   6.51394000
_cell_length_b   9.45674000
_cell_length_c   13.86010000
_cell_angle_alpha   103.22900000
_cell_angle_beta   89.99980000
_cell_angle_gamma   90.00000000
_symmetry_Int_Tables_number   1
_chemical_formula_structural   AgH8C4S2NO4
_chemical_formula_sum   'Ag4 H32 C16 S8 N4 O16'
_cell_volume   831.13410706
_cell_formula_units_Z   4
loop_
 _symmetry_equiv_pos_site_id
 _symmetry_equiv_pos_as_xyz
  1  'x, y, z'
loop_
 _atom_site_type_symbol
 _atom_site_label
 _atom_site_symmetry_multiplicity
 _atom_site_fract_x
 _atom_site_fract_y
 _atom_site_fract_z
 _atom_site_occupancy
  Ag  Ag0  1  0.78936000  0.36673000  0.66522000  1.0
  Ag  Ag1  1  0.28935000  0.13328000  0.83478000  1.0
  Ag  Ag2  1  0.21064000  0.63327000  0.33478000  1.0
  Ag  Ag3  1  0.71064000  0.86673000  0.16522000  1.0
  H  H4  1  0.38316000  0.48662000  0.81030000  1.0
  H  H5  1  0.88315000  0.01337000  0.68970000  1.0
  H  H6  1  0.61686000  0.51337000  0.18970000  1.0
  H  H7  1  0.11685000  0.98663000  0.31030000  1.0
  H  H8  1  0.40571000  0.17744000  0.60207000  1.0
  H  H9  1  0.90570000  0.32256000  0.89793000  1.0
  H  H10  1  0.59430000  0.82257000  0.39793000  1.0
  H  H11  1  0.09430000  0.67744000  0.10207000  1.0
  H  H12  1  0.16047000  0.16814000  0.54544000  1.0
  H  H13  1  0.66047000  0.33186000  0.95456000  1.0
  H  H14  1  0.83953000  0.83186000  0.45457000  1.0
  H  H15  1  0.33952000  0.66814000  0.04543000  1.0
  H  H16  1  0.19325000  0.42327000  0.52601000  1.0
  H  H17  1  0.69324000  0.07672000  0.97399000  1.0
  H  H18  1  0.80675000  0.57673000  0.47399000  1.0
  H  H19  1  0.30675000  0.92328000  0.02601000  1.0
  H  H20  1  0.43338000  0.33740000  0.48514000  1.0
  H  H21  1  0.93337000  0.16260000  0.01486000  1.0
  H  H22  1  0.56662000  0.66260000  0.51486000  1.0
  H  H23  1  0.06661000  0.83740000  0.98514000  1.0
  H  H24  1  0.04206000  0.60556000  0.82955000  1.0
  H  H25  1  0.54205000  0.89443000  0.67045000  1.0
  H  H26  1  0.95796000  0.39444000  0.17045000  1.0
  H  H27  1  0.45796000  0.10556000  0.32955000  1.0
  H  H28  1  0.23695000  0.71548000  0.79152000  1.0
  H  H29  1  0.73696000  0.78452000  0.70848000  1.0
  H  H30  1  0.76305000  0.28451000  0.20848000  1.0
  H  H31  1  0.26305000  0.21548000  0.29152000  1.0
  H  H32  1  0.08694000  0.66610000  0.63715000  1.0
  H  H33  1  0.58694000  0.83390000  0.86285000  1.0
  H  H34  1  0.91307000  0.33391000  0.36286000  1.0
  H  H35  1  0.41306000  0.16610000  0.13714000  1.0
  C  C36  1  0.28859000  0.48713000  0.74479000  1.0
  C  C37  1  0.78859000  0.01287000  0.75521000  1.0
  C  C38  1  0.71141000  0.51288000  0.25521000  1.0
  C  C39  1  0.21141000  0.98712000  0.24479000  1.0
  C  C40  1  0.27075000  0.24141000  0.59124000  1.0
  C  C41  1  0.77075000  0.25859000  0.90876000  1.0
  C  C42  1  0.72925000  0.75859000  0.40876000  1.0
  C  C43  1  0.22925000  0.74141000  0.09124000  1.0
  C  C44  1  0.32835000  0.36935000  0.54837000  1.0
  C  C45  1  0.82834000  0.13065000  0.95163000  1.0
  C  C46  1  0.67165000  0.63066000  0.45163000  1.0
  C  C47  1  0.17165000  0.86934000  0.04837000  1.0
  C  C48  1  0.14184000  0.61722000  0.76773000  1.0
  C  C49  1  0.64185000  0.88278000  0.73227000  1.0
  C  C50  1  0.85816000  0.38278000  0.23228000  1.0
  C  C51  1  0.35816000  0.11722000  0.26773000  1.0
  S  S52  1  0.15067000  0.31288000  0.71081000  1.0
  S  S53  1  0.65066000  0.18712000  0.78918000  1.0
  S  S54  1  0.84934000  0.68712000  0.28919000  1.0
  S  S55  1  0.34934000  0.81288000  0.21081000  1.0
  S  S56  1  0.46589000  0.49716000  0.64451000  1.0
  S  S57  1  0.96589000  0.00284000  0.85549000  1.0
  S  S58  1  0.53410000  0.50284000  0.35549000  1.0
  S  S59  1  0.03410000  0.99716000  0.14451000  1.0
  N  N60  1  0.79975000  0.14801000  0.45986000  1.0
  N  N61  1  0.29975000  0.35200000  0.04014000  1.0
  N  N62  1  0.20026000  0.85199000  0.54013000  1.0
  N  N63  1  0.70025000  0.64801000  0.95988000  1.0
  O  O64  1  0.01088000  0.62729000  0.68783000  1.0
  O  O65  1  0.51089000  0.87271000  0.81217000  1.0
  O  O66  1  0.98911000  0.37271000  0.31218000  1.0
  O  O67  1  0.48910000  0.12729000  0.18782000  1.0
  O  O68  1  0.82933000  0.28607000  0.47187000  1.0
  O  O69  1  0.32933000  0.21394000  0.02813000  1.0
  O  O70  1  0.17067000  0.71393000  0.52813000  1.0
  O  O71  1  0.67068000  0.78607000  0.97187000  1.0
  O  O72  1  0.76110000  0.09820000  0.53518000  1.0
  O  O73  1  0.26108000  0.40181000  0.96482000  1.0
  O  O74  1  0.23892000  0.90180000  0.46482000  1.0
  O  O75  1  0.73892000  0.59820000  0.03518000  1.0
  O  O76  1  0.80991000  0.06740000  0.37440000  1.0
  O  O77  1  0.30993000  0.43261000  0.12560000  1.0
  O  O78  1  0.19009000  0.93260000  0.62560000  1.0
  O  O79  1  0.69007000  0.56739000  0.87440000  1.0
