# generated using pymatgen
data_CdH21C20Br(NO)4
_symmetry_space_group_name_H-M   'P 1'
_cell_length_a   8.83559000
_cell_length_b   21.09970000
_cell_length_c   25.82620000
_cell_angle_alpha   89.99990000
_cell_angle_beta   90.00110000
_cell_angle_gamma   89.99980000
_symmetry_Int_Tables_number   1
_chemical_formula_structural   CdH21C20Br(NO)4
_chemical_formula_sum   'Cd8 H168 C160 Br8 N32 O32'
_cell_volume   4814.73451723
_cell_formula_units_Z   8
loop_
 _symmetry_equiv_pos_site_id
 _symmetry_equiv_pos_as_xyz
  1  'x, y, z'
loop_
 _atom_site_type_symbol
 _atom_site_label
 _atom_site_symmetry_multiplicity
 _atom_site_fract_x
 _atom_site_fract_y
 _atom_site_fract_z
 _atom_site_occupancy
  Cd  Cd0  1  0.25002000  0.09159000  0.75000000  1.0
  Cd  Cd1  1  0.24999000  0.40842000  0.25001000  1.0
  Cd  Cd2  1  0.75000000  0.90841000  0.25000000  1.0
  Cd  Cd3  1  0.74999000  0.59159000  0.75000000  1.0
  Cd  Cd4  1  0.15032000  0.75001000  0.00000000  1.0
  Cd  Cd5  1  0.34967000  0.75000000  0.50000000  1.0
  Cd  Cd6  1  0.84967000  0.25000000  0.00000000  1.0
  Cd  Cd7  1  0.65034000  0.25000000  0.50000000  1.0
  H  H8  1  0.57769000  0.89807000  0.99902000  1.0
  H  H9  1  0.57766000  0.60193000  0.00099000  1.0
  H  H10  1  0.92231000  0.60192000  0.49902000  1.0
  H  H11  1  0.92233000  0.89806000  0.50099000  1.0
  H  H12  1  0.42234000  0.10193000  0.00097000  1.0
  H  H13  1  0.42231000  0.39807000  0.99901000  1.0
  H  H14  1  0.07768000  0.39806000  0.50099000  1.0
  H  H15  1  0.07769000  0.10193000  0.49902000  1.0
  H  H16  1  0.63845000  0.04231000  0.88186000  1.0
  H  H17  1  0.63842000  0.45769000  0.11816000  1.0
  H  H18  1  0.86155000  0.45769000  0.38186000  1.0
  H  H19  1  0.86156000  0.04231000  0.61814000  1.0
  H  H20  1  0.36155000  0.95768000  0.11813000  1.0
  H  H21  1  0.36155000  0.54230000  0.88185000  1.0
  H  H22  1  0.13845000  0.54230000  0.61815000  1.0
  H  H23  1  0.13844000  0.95769000  0.38185000  1.0
  H  H24  1  0.24020000  0.92526000  0.88077000  1.0
  H  H25  1  0.24016000  0.57475000  0.11923000  1.0
  H  H26  1  0.25981000  0.57474000  0.38078000  1.0
  H  H27  1  0.25984000  0.92527000  0.61923000  1.0
  H  H28  1  0.75980000  0.07474000  0.11923000  1.0
  H  H29  1  0.75981000  0.42526000  0.88077000  1.0
  H  H30  1  0.74018000  0.42526000  0.61924000  1.0
  H  H31  1  0.74016000  0.07474000  0.38077000  1.0
  H  H32  1  0.17110000  0.24898000  0.78469000  1.0
  H  H33  1  0.17111000  0.25103000  0.21532000  1.0
  H  H34  1  0.32889000  0.25103000  0.28468000  1.0
  H  H35  1  0.32890000  0.24898000  0.71532000  1.0
  H  H36  1  0.82889000  0.75102000  0.21532000  1.0
  H  H37  1  0.82889000  0.74897000  0.78468000  1.0
  H  H38  1  0.67110000  0.74898000  0.71531000  1.0
  H  H39  1  0.67109000  0.75103000  0.28469000  1.0
  H  H40  1  0.90155000  0.28375000  0.83212000  1.0
  H  H41  1  0.90157000  0.21625000  0.16788000  1.0
  H  H42  1  0.59844000  0.21625000  0.33212000  1.0
  H  H43  1  0.59844000  0.28376000  0.66787000  1.0
  H  H44  1  0.09843000  0.71624000  0.16788000  1.0
  H  H45  1  0.09843000  0.78375000  0.83212000  1.0
  H  H46  1  0.40156000  0.78376000  0.66787000  1.0
  H  H47  1  0.40155000  0.71625000  0.33212000  1.0
  H  H48  1  0.95970000  0.03808000  0.78168000  1.0
  H  H49  1  0.95971000  0.46192000  0.21831000  1.0
  H  H50  1  0.54031000  0.46192000  0.28168000  1.0
  H  H51  1  0.54030000  0.03809000  0.71831000  1.0
  H  H52  1  0.04031000  0.96191000  0.21832000  1.0
  H  H53  1  0.04030000  0.53808000  0.78168000  1.0
  H  H54  1  0.45972000  0.53809000  0.71831000  1.0
  H  H55  1  0.45970000  0.96192000  0.28168000  1.0
  H  H56  1  0.77220000  0.06116000  0.79881000  1.0
  H  H57  1  0.77221000  0.43885000  0.20119000  1.0
  H  H58  1  0.72780000  0.43884000  0.29881000  1.0
  H  H59  1  0.72780000  0.06116000  0.70118000  1.0
  H  H60  1  0.22780000  0.93884000  0.20119000  1.0
  H  H61  1  0.22780000  0.56116000  0.79881000  1.0
  H  H62  1  0.27222000  0.56116000  0.70118000  1.0
  H  H63  1  0.27220000  0.93885000  0.29881000  1.0
  H  H64  1  0.90985000  0.04677000  0.84775000  1.0
  H  H65  1  0.90984000  0.45323000  0.15225000  1.0
  H  H66  1  0.59016000  0.45323000  0.34775000  1.0
  H  H67  1  0.59015000  0.04678000  0.65225000  1.0
  H  H68  1  0.09016000  0.95322000  0.15225000  1.0
  H  H69  1  0.09016000  0.54677000  0.84775000  1.0
  H  H70  1  0.40986000  0.54678000  0.65225000  1.0
  H  H71  1  0.40984000  0.95323000  0.34775000  1.0
  H  H72  1  0.65395000  0.13613000  0.83416000  1.0
  H  H73  1  0.65396000  0.36387000  0.16583000  1.0
  H  H74  1  0.84605000  0.36387000  0.33417000  1.0
  H  H75  1  0.84604000  0.13613000  0.66583000  1.0
  H  H76  1  0.34604000  0.86387000  0.16583000  1.0
  H  H77  1  0.34604000  0.63613000  0.83417000  1.0
  H  H78  1  0.15396000  0.63613000  0.66583000  1.0
  H  H79  1  0.15395000  0.86387000  0.33416000  1.0
  H  H80  1  0.72623000  0.17234000  0.89135000  1.0
  H  H81  1  0.72624000  0.32766000  0.10865000  1.0
  H  H82  1  0.77377000  0.32765000  0.39135000  1.0
  H  H83  1  0.77376000  0.17235000  0.60865000  1.0
  H  H84  1  0.27375000  0.82765000  0.10865000  1.0
  H  H85  1  0.27376000  0.67235000  0.89135000  1.0
  H  H86  1  0.22623000  0.67235000  0.60864000  1.0
  H  H87  1  0.22623000  0.82766000  0.39135000  1.0
  H  H88  1  0.62058000  0.24884000  0.79695000  1.0
  H  H89  1  0.62059000  0.25116000  0.20305000  1.0
  H  H90  1  0.87942000  0.25116000  0.29695000  1.0
  H  H91  1  0.87942000  0.24884000  0.70305000  1.0
  H  H92  1  0.37943000  0.75115000  0.20305000  1.0
  H  H93  1  0.37942000  0.74884000  0.79695000  1.0
  H  H94  1  0.12058000  0.74884000  0.70305000  1.0
  H  H95  1  0.12058000  0.75116000  0.29695000  1.0
  H  H96  1  0.65135000  0.27756000  0.86075000  1.0
  H  H97  1  0.65136000  0.22244000  0.13925000  1.0
  H  H98  1  0.84866000  0.22244000  0.36075000  1.0
  H  H99  1  0.84866000  0.27757000  0.63925000  1.0
  H  H100  1  0.34865000  0.72243000  0.13925000  1.0
  H  H101  1  0.34865000  0.77756000  0.86075000  1.0
  H  H102  1  0.15135000  0.77757000  0.63924000  1.0
  H  H103  1  0.15136000  0.72244000  0.36076000  1.0
  H  H104  1  0.37778000  0.26620000  0.84204000  1.0
  H  H105  1  0.37780000  0.23379000  0.15796000  1.0
  H  H106  1  0.12222000  0.23380000  0.34204000  1.0
  H  H107  1  0.12222000  0.26621000  0.65796000  1.0
  H  H108  1  0.62222000  0.73379000  0.15796000  1.0
  H  H109  1  0.62222000  0.76620000  0.84204000  1.0
  H  H110  1  0.87779000  0.76621000  0.65796000  1.0
  H  H111  1  0.87779000  0.73379000  0.34204000  1.0
  H  H112  1  0.40282000  0.18538000  0.82507000  1.0
  H  H113  1  0.40283000  0.31462000  0.17493000  1.0
  H  H114  1  0.09718000  0.31463000  0.32507000  1.0
  H  H115  1  0.09718000  0.18538000  0.67493000  1.0
  H  H116  1  0.59718000  0.81462000  0.17493000  1.0
  H  H117  1  0.59718000  0.68537000  0.82507000  1.0
  H  H118  1  0.90282000  0.68538000  0.67493000  1.0
  H  H119  1  0.90281000  0.81462000  0.32507000  1.0
  H  H120  1  0.46314000  0.24024000  0.93332000  1.0
  H  H121  1  0.46314000  0.25976000  0.06668000  1.0
  H  H122  1  0.03686000  0.25976000  0.43332000  1.0
  H  H123  1  0.03687000  0.24023000  0.56668000  1.0
  H  H124  1  0.53686000  0.75976000  0.06667000  1.0
  H  H125  1  0.53687000  0.74023000  0.93332000  1.0
  H  H126  1  0.96313000  0.74023000  0.56667000  1.0
  H  H127  1  0.96314000  0.75977000  0.43333000  1.0
  H  H128  1  0.48401000  0.16056000  0.91586000  1.0
  H  H129  1  0.48401000  0.33944000  0.08414000  1.0
  H  H130  1  0.01600000  0.33944000  0.41586000  1.0
  H  H131  1  0.01601000  0.16055000  0.58415000  1.0
  H  H132  1  0.51599000  0.83944000  0.08414000  1.0
  H  H133  1  0.51600000  0.66056000  0.91586000  1.0
  H  H134  1  0.98400000  0.66056000  0.58415000  1.0
  H  H135  1  0.98400000  0.83944000  0.41585000  1.0
  H  H136  1  0.25750000  0.08889000  0.91310000  1.0
  H  H137  1  0.25750000  0.41111000  0.08690000  1.0
  H  H138  1  0.24251000  0.41111000  0.41310000  1.0
  H  H139  1  0.24252000  0.08889000  0.58690000  1.0
  H  H140  1  0.74250000  0.91111000  0.08690000  1.0
  H  H141  1  0.74252000  0.58889000  0.91310000  1.0
  H  H142  1  0.75748000  0.58889000  0.58690000  1.0
  H  H143  1  0.75750000  0.91111000  0.41311000  1.0
  H  H144  1  0.96174000  0.10733000  0.94688000  1.0
  H  H145  1  0.96174000  0.39266000  0.05312000  1.0
  H  H146  1  0.53827000  0.39266000  0.44688000  1.0
  H  H147  1  0.53827000  0.10734000  0.55311000  1.0
  H  H148  1  0.03825000  0.89267000  0.05312000  1.0
  H  H149  1  0.03828000  0.60734000  0.94688000  1.0
  H  H150  1  0.46173000  0.60734000  0.55311000  1.0
  H  H151  1  0.46174000  0.89267000  0.44688000  1.0
  H  H152  1  0.08259000  0.32934000  0.94658000  1.0
  H  H153  1  0.08259000  0.17065000  0.05342000  1.0
  H  H154  1  0.41741000  0.17066000  0.44658000  1.0
  H  H155  1  0.41741000  0.32935000  0.55343000  1.0
  H  H156  1  0.91741000  0.67066000  0.05342000  1.0
  H  H157  1  0.91741000  0.82935000  0.94657000  1.0
  H  H158  1  0.58259000  0.82934000  0.55342000  1.0
  H  H159  1  0.58259000  0.67066000  0.44657000  1.0
  H  H160  1  0.21784000  0.32189000  0.89627000  1.0
  H  H161  1  0.21785000  0.17810000  0.10373000  1.0
  H  H162  1  0.28216000  0.17811000  0.39627000  1.0
  H  H163  1  0.28216000  0.32190000  0.60374000  1.0
  H  H164  1  0.78216000  0.67811000  0.10373000  1.0
  H  H165  1  0.78215000  0.82190000  0.89626000  1.0
  H  H166  1  0.71785000  0.82189000  0.60373000  1.0
  H  H167  1  0.71784000  0.67810000  0.39626000  1.0
  H  H168  1  0.27727000  0.31676000  0.96156000  1.0
  H  H169  1  0.27728000  0.18324000  0.03844000  1.0
  H  H170  1  0.22273000  0.18324000  0.46155000  1.0
  H  H171  1  0.22272000  0.31676000  0.53845000  1.0
  H  H172  1  0.72273000  0.68324000  0.03844000  1.0
  H  H173  1  0.72273000  0.81676000  0.96155000  1.0
  H  H174  1  0.77727000  0.81676000  0.53845000  1.0
  H  H175  1  0.77727000  0.68324000  0.46155000  1.0
  C  C176  1  0.53885000  0.92281000  0.96454000  1.0
  C  C177  1  0.53882000  0.57718000  0.03547000  1.0
  C  C178  1  0.96114000  0.57718000  0.46454000  1.0
  C  C179  1  0.96117000  0.92281000  0.53547000  1.0
  C  C180  1  0.46117000  0.07719000  0.03546000  1.0
  C  C181  1  0.46115000  0.42281000  0.96453000  1.0
  C  C182  1  0.03885000  0.42281000  0.53547000  1.0
  C  C183  1  0.03884000  0.07719000  0.46453000  1.0
  C  C184  1  0.62415000  0.97093000  0.94196000  1.0
  C  C185  1  0.62413000  0.52907000  0.05805000  1.0
  C  C186  1  0.87585000  0.52906000  0.44196000  1.0
  C  C187  1  0.87586000  0.97093000  0.55804000  1.0
  C  C188  1  0.37587000  0.02906000  0.05803000  1.0
  C  C189  1  0.37585000  0.47093000  0.94195000  1.0
  C  C190  1  0.12415000  0.47093000  0.55805000  1.0
  C  C191  1  0.12414000  0.02907000  0.44196000  1.0
  C  C192  1  0.57253000  0.00418000  0.89895000  1.0
  C  C193  1  0.57249000  0.49582000  0.10107000  1.0
  C  C194  1  0.92748000  0.49581000  0.39895000  1.0
  C  C195  1  0.92749000  0.00418000  0.60105000  1.0
  C  C196  1  0.42748000  0.99581000  0.10105000  1.0
  C  C197  1  0.42748000  0.50418000  0.89894000  1.0
  C  C198  1  0.07252000  0.50418000  0.60106000  1.0
  C  C199  1  0.07251000  0.99582000  0.39894000  1.0
  C  C200  1  0.43246000  0.98796000  0.87716000  1.0
  C  C201  1  0.43242000  0.51204000  0.12285000  1.0
  C  C202  1  0.06755000  0.51204000  0.37716000  1.0
  C  C203  1  0.06757000  0.98796000  0.62284000  1.0
  C  C204  1  0.56754000  0.01204000  0.12284000  1.0
  C  C205  1  0.56755000  0.48796000  0.87715000  1.0
  C  C206  1  0.93245000  0.48796000  0.62285000  1.0
  C  C207  1  0.93243000  0.01204000  0.37716000  1.0
  C  C208  1  0.34794000  0.93828000  0.89818000  1.0
  C  C209  1  0.34791000  0.56172000  0.10182000  1.0
  C  C210  1  0.15206000  0.56172000  0.39819000  1.0
  C  C211  1  0.15209000  0.93828000  0.60181000  1.0
  C  C212  1  0.65206000  0.06172000  0.10181000  1.0
  C  C213  1  0.65207000  0.43828000  0.89819000  1.0
  C  C214  1  0.84793000  0.43828000  0.60182000  1.0
  C  C215  1  0.84791000  0.06172000  0.39819000  1.0
  C  C216  1  0.40056000  0.90582000  0.94182000  1.0
  C  C217  1  0.40053000  0.59417000  0.05818000  1.0
  C  C218  1  0.09944000  0.59417000  0.44183000  1.0
  C  C219  1  0.09947000  0.90582000  0.55818000  1.0
  C  C220  1  0.59945000  0.09418000  0.05818000  1.0
  C  C221  1  0.59945000  0.40583000  0.94182000  1.0
  C  C222  1  0.90055000  0.40582000  0.55819000  1.0
  C  C223  1  0.90054000  0.09418000  0.44182000  1.0
  C  C224  1  0.30978000  0.85225000  0.96391000  1.0
  C  C225  1  0.30976000  0.64774000  0.03608000  1.0
  C  C226  1  0.19022000  0.64774000  0.46393000  1.0
  C  C227  1  0.19025000  0.85225000  0.53608000  1.0
  C  C228  1  0.69024000  0.14775000  0.03608000  1.0
  C  C229  1  0.69023000  0.35226000  0.96392000  1.0
  C  C230  1  0.80976000  0.35226000  0.53609000  1.0
  C  C231  1  0.80976000  0.14775000  0.46392000  1.0
  C  C232  1  0.37407000  0.02464000  0.83148000  1.0
  C  C233  1  0.37404000  0.47537000  0.16853000  1.0
  C  C234  1  0.12594000  0.47536000  0.33149000  1.0
  C  C235  1  0.12595000  0.02464000  0.66852000  1.0
  C  C236  1  0.62593000  0.97536000  0.16852000  1.0
  C  C237  1  0.62594000  0.52463000  0.83148000  1.0
  C  C238  1  0.87406000  0.52464000  0.66852000  1.0
  C  C239  1  0.87404000  0.97537000  0.33148000  1.0
  C  C240  1  0.07553000  0.21996000  0.79593000  1.0
  C  C241  1  0.07554000  0.28004000  0.20407000  1.0
  C  C242  1  0.42446000  0.28004000  0.29593000  1.0
  C  C243  1  0.42446000  0.21997000  0.70407000  1.0
  C  C244  1  0.92446000  0.78003000  0.20407000  1.0
  C  C245  1  0.92446000  0.71996000  0.79593000  1.0
  C  C246  1  0.57554000  0.71997000  0.70406000  1.0
  C  C247  1  0.57553000  0.78004000  0.29593000  1.0
  C  C248  1  0.94249000  0.23817000  0.81885000  1.0
  C  C249  1  0.94250000  0.26183000  0.18115000  1.0
  C  C250  1  0.55750000  0.26183000  0.31885000  1.0
  C  C251  1  0.55750000  0.23818000  0.68115000  1.0
  C  C252  1  0.05750000  0.76182000  0.18115000  1.0
  C  C253  1  0.05750000  0.73817000  0.81885000  1.0
  C  C254  1  0.44250000  0.73818000  0.68114000  1.0
  C  C255  1  0.44249000  0.76183000  0.31885000  1.0
  C  C256  1  0.94162000  0.13362000  0.80646000  1.0
  C  C257  1  0.94163000  0.36638000  0.19354000  1.0
  C  C258  1  0.55837000  0.36638000  0.30646000  1.0
  C  C259  1  0.55838000  0.13362000  0.69354000  1.0
  C  C260  1  0.05838000  0.86638000  0.19354000  1.0
  C  C261  1  0.05837000  0.63362000  0.80646000  1.0
  C  C262  1  0.44163000  0.63363000  0.69354000  1.0
  C  C263  1  0.44162000  0.86638000  0.30646000  1.0
  C  C264  1  0.89248000  0.06640000  0.80869000  1.0
  C  C265  1  0.89248000  0.43360000  0.19131000  1.0
  C  C266  1  0.60753000  0.43359000  0.30869000  1.0
  C  C267  1  0.60752000  0.06641000  0.69131000  1.0
  C  C268  1  0.10752000  0.93359000  0.19131000  1.0
  C  C269  1  0.10752000  0.56640000  0.80869000  1.0
  C  C270  1  0.39250000  0.56641000  0.69130000  1.0
  C  C271  1  0.39248000  0.93360000  0.30869000  1.0
  C  C272  1  0.70988000  0.17876000  0.84940000  1.0
  C  C273  1  0.70989000  0.32125000  0.15060000  1.0
  C  C274  1  0.79011000  0.32124000  0.34940000  1.0
  C  C275  1  0.79011000  0.17876000  0.65060000  1.0
  C  C276  1  0.29011000  0.82124000  0.15060000  1.0
  C  C277  1  0.29011000  0.67876000  0.84940000  1.0
  C  C278  1  0.20989000  0.67876000  0.65060000  1.0
  C  C279  1  0.20988000  0.82125000  0.34940000  1.0
  C  C280  1  0.61095000  0.23661000  0.83825000  1.0
  C  C281  1  0.61097000  0.26339000  0.16175000  1.0
  C  C282  1  0.88904000  0.26339000  0.33825000  1.0
  C  C283  1  0.88904000  0.23661000  0.66175000  1.0
  C  C284  1  0.38904000  0.76338000  0.16175000  1.0
  C  C285  1  0.38904000  0.73661000  0.83825000  1.0
  C  C286  1  0.11096000  0.73662000  0.66175000  1.0
  C  C287  1  0.11096000  0.76339000  0.33825000  1.0
  C  C288  1  0.44444000  0.22341000  0.85042000  1.0
  C  C289  1  0.44444000  0.27659000  0.14958000  1.0
  C  C290  1  0.05557000  0.27659000  0.35042000  1.0
  C  C291  1  0.05557000  0.22341000  0.64958000  1.0
  C  C292  1  0.55556000  0.77659000  0.14958000  1.0
  C  C293  1  0.55557000  0.72341000  0.85042000  1.0
  C  C294  1  0.94444000  0.72341000  0.64958000  1.0
  C  C295  1  0.94443000  0.77659000  0.35042000  1.0
  C  C296  1  0.42058000  0.20372000  0.90669000  1.0
  C  C297  1  0.42058000  0.29628000  0.09331000  1.0
  C  C298  1  0.07943000  0.29628000  0.40669000  1.0
  C  C299  1  0.07943000  0.20372000  0.59331000  1.0
  C  C300  1  0.57942000  0.79628000  0.09331000  1.0
  C  C301  1  0.57943000  0.70372000  0.90669000  1.0
  C  C302  1  0.92057000  0.70372000  0.59331000  1.0
  C  C303  1  0.92057000  0.79628000  0.40669000  1.0
  C  C304  1  0.19603000  0.13172000  0.92264000  1.0
  C  C305  1  0.19602000  0.36828000  0.07736000  1.0
  C  C306  1  0.30399000  0.36828000  0.42264000  1.0
  C  C307  1  0.30399000  0.13172000  0.57736000  1.0
  C  C308  1  0.80397000  0.86828000  0.07736000  1.0
  C  C309  1  0.80399000  0.63172000  0.92264000  1.0
  C  C310  1  0.69601000  0.63172000  0.57736000  1.0
  C  C311  1  0.69602000  0.86828000  0.42264000  1.0
  C  C312  1  0.05039000  0.14156000  0.93910000  1.0
  C  C313  1  0.05039000  0.35843000  0.06089000  1.0
  C  C314  1  0.44962000  0.35843000  0.43911000  1.0
  C  C315  1  0.44962000  0.14157000  0.56090000  1.0
  C  C316  1  0.94960000  0.85844000  0.06089000  1.0
  C  C317  1  0.94962000  0.64157000  0.93910000  1.0
  C  C318  1  0.55038000  0.64157000  0.56089000  1.0
  C  C319  1  0.55039000  0.85843000  0.43911000  1.0
  C  C320  1  0.15721000  0.23501000  0.93392000  1.0
  C  C321  1  0.15721000  0.26498000  0.06608000  1.0
  C  C322  1  0.34280000  0.26499000  0.43392000  1.0
  C  C323  1  0.34281000  0.23501000  0.56608000  1.0
  C  C324  1  0.84279000  0.76499000  0.06608000  1.0
  C  C325  1  0.84280000  0.73501000  0.93392000  1.0
  C  C326  1  0.65719000  0.73501000  0.56608000  1.0
  C  C327  1  0.65720000  0.76499000  0.43392000  1.0
  C  C328  1  0.18535000  0.30427000  0.93476000  1.0
  C  C329  1  0.18535000  0.19572000  0.06524000  1.0
  C  C330  1  0.31466000  0.19572000  0.43476000  1.0
  C  C331  1  0.31466000  0.30428000  0.56524000  1.0
  C  C332  1  0.81466000  0.69573000  0.06523000  1.0
  C  C333  1  0.81466000  0.80428000  0.93476000  1.0
  C  C334  1  0.68535000  0.80428000  0.56524000  1.0
  C  C335  1  0.68534000  0.69572000  0.43476000  1.0
  Br  Br336  1  0.81858000  0.99139000  0.96966000  1.0
  Br  Br337  1  0.81856000  0.50862000  0.03036000  1.0
  Br  Br338  1  0.68142000  0.50862000  0.46966000  1.0
  Br  Br339  1  0.68142000  0.99137000  0.53035000  1.0
  Br  Br340  1  0.18146000  0.00860000  0.03031000  1.0
  Br  Br341  1  0.18140000  0.49137000  0.96964000  1.0
  Br  Br342  1  0.31859000  0.49137000  0.53035000  1.0
  Br  Br343  1  0.31858000  0.00862000  0.46965000  1.0
  N  N344  1  0.07422000  0.15516000  0.78838000  1.0
  N  N345  1  0.07422000  0.34484000  0.21162000  1.0
  N  N346  1  0.42578000  0.34484000  0.28838000  1.0
  N  N347  1  0.42579000  0.15517000  0.71162000  1.0
  N  N348  1  0.92578000  0.84484000  0.21162000  1.0
  N  N349  1  0.92578000  0.65516000  0.78838000  1.0
  N  N350  1  0.57423000  0.65517000  0.71162000  1.0
  N  N351  1  0.57421000  0.84484000  0.28838000  1.0
  N  N352  1  0.85877000  0.18333000  0.82494000  1.0
  N  N353  1  0.85878000  0.31668000  0.17506000  1.0
  N  N354  1  0.64123000  0.31667000  0.32494000  1.0
  N  N355  1  0.64123000  0.18333000  0.67505000  1.0
  N  N356  1  0.14123000  0.81667000  0.17506000  1.0
  N  N357  1  0.14122000  0.68333000  0.82494000  1.0
  N  N358  1  0.35878000  0.68333000  0.67505000  1.0
  N  N359  1  0.35877000  0.81668000  0.32494000  1.0
  N  N360  1  0.26255000  0.19100000  0.91984000  1.0
  N  N361  1  0.26255000  0.30900000  0.08016000  1.0
  N  N362  1  0.23746000  0.30900000  0.41984000  1.0
  N  N363  1  0.23747000  0.19100000  0.58017000  1.0
  N  N364  1  0.73745000  0.80900000  0.08016000  1.0
  N  N365  1  0.73746000  0.69100000  0.91983000  1.0
  N  N366  1  0.76254000  0.69100000  0.58016000  1.0
  N  N367  1  0.76254000  0.80900000  0.41984000  1.0
  N  N368  1  0.02751000  0.20574000  0.94612000  1.0
  N  N369  1  0.02751000  0.29425000  0.05388000  1.0
  N  N370  1  0.47250000  0.29425000  0.44612000  1.0
  N  N371  1  0.47250000  0.20575000  0.55388000  1.0
  N  N372  1  0.97249000  0.79426000  0.05388000  1.0
  N  N373  1  0.97250000  0.70575000  0.94612000  1.0
  N  N374  1  0.52750000  0.70575000  0.55388000  1.0
  N  N375  1  0.52750000  0.79425000  0.44612000  1.0
  O  O376  1  0.20406000  0.82878000  0.93618000  1.0
  O  O377  1  0.20404000  0.67123000  0.06382000  1.0
  O  O378  1  0.29592000  0.67122000  0.43618000  1.0
  O  O379  1  0.29596000  0.82878000  0.56382000  1.0
  O  O380  1  0.79594000  0.17122000  0.06383000  1.0
  O  O381  1  0.79594000  0.32878000  0.93618000  1.0
  O  O382  1  0.70405000  0.32878000  0.56382000  1.0
  O  O383  1  0.70405000  0.17122000  0.43618000  1.0
  O  O384  1  0.34296000  0.83123000  0.00887000  1.0
  O  O385  1  0.34294000  0.66876000  0.99112000  1.0
  O  O386  1  0.15704000  0.66876000  0.50888000  1.0
  O  O387  1  0.15705000  0.83123000  0.49113000  1.0
  O  O388  1  0.65705000  0.16877000  0.99113000  1.0
  O  O389  1  0.65706000  0.33124000  0.00888000  1.0
  O  O390  1  0.84295000  0.33124000  0.49113000  1.0
  O  O391  1  0.84296000  0.16876000  0.50888000  1.0
  O  O392  1  0.24077000  0.01279000  0.81535000  1.0
  O  O393  1  0.24074000  0.48722000  0.18466000  1.0
  O  O394  1  0.25923000  0.48721000  0.31535000  1.0
  O  O395  1  0.25925000  0.01279000  0.68466000  1.0
  O  O396  1  0.75923000  0.98721000  0.18465000  1.0
  O  O397  1  0.75924000  0.51279000  0.81534000  1.0
  O  O398  1  0.74076000  0.51279000  0.68466000  1.0
  O  O399  1  0.74074000  0.98722000  0.31534000  1.0
  O  O400  1  0.45929000  0.06690000  0.81144000  1.0
  O  O401  1  0.45926000  0.43311000  0.18857000  1.0
  O  O402  1  0.04072000  0.43310000  0.31144000  1.0
  O  O403  1  0.04074000  0.06691000  0.68855000  1.0
  O  O404  1  0.54070000  0.93310000  0.18856000  1.0
  O  O405  1  0.54071000  0.56689000  0.81143000  1.0
  O  O406  1  0.95929000  0.56690000  0.68856000  1.0
  O  O407  1  0.95926000  0.93310000  0.31144000  1.0
