# generated using pymatgen
data_ZnH13C15N7O
_symmetry_space_group_name_H-M   'P 1'
_cell_length_a   7.78952000
_cell_length_b   8.73044000
_cell_length_c   13.68170000
_cell_angle_alpha   90.00230000
_cell_angle_beta   90.00050000
_cell_angle_gamma   65.53300000
_symmetry_Int_Tables_number   1
_chemical_formula_structural   ZnH13C15N7O
_chemical_formula_sum   'Zn2 H26 C30 N14 O2'
_cell_volume   846.88356868
_cell_formula_units_Z   2
loop_
 _symmetry_equiv_pos_site_id
 _symmetry_equiv_pos_as_xyz
  1  'x, y, z'
loop_
 _atom_site_type_symbol
 _atom_site_label
 _atom_site_symmetry_multiplicity
 _atom_site_fract_x
 _atom_site_fract_y
 _atom_site_fract_z
 _atom_site_occupancy
  Zn  Zn0  1  0.13235000  0.72711000  0.24084000  1.0
  Zn  Zn1  1  0.86764000  0.27289000  0.74085000  1.0
  H  H2  1  0.21547000  0.25441000  0.25787000  1.0
  H  H3  1  0.78454000  0.74559000  0.75788000  1.0
  H  H4  1  0.48203000  0.23817000  0.18731000  1.0
  H  H5  1  0.51798000  0.76183000  0.68731000  1.0
  H  H6  1  0.76074000  0.18936000  0.11881000  1.0
  H  H7  1  0.23929000  0.81062000  0.61880000  1.0
  H  H8  1  0.99305000  0.27558000  0.03816000  1.0
  H  H9  1  0.00697000  0.72440000  0.53816000  1.0
  H  H10  1  0.92266000  0.58208000  0.02752000  1.0
  H  H11  1  0.07736000  0.41790000  0.52752000  1.0
  H  H12  1  0.62316000  0.79578000  0.09567000  1.0
  H  H13  1  0.37684000  0.20420000  0.59566000  1.0
  H  H14  1  0.65130000  0.26198000  0.36229000  1.0
  H  H15  1  0.34871000  0.73803000  0.86229000  1.0
  H  H16  1  0.49083000  0.43567000  0.43267000  1.0
  H  H17  1  0.50918000  0.56434000  0.93266000  1.0
  H  H18  1  0.70530000  0.29050000  0.48469000  1.0
  H  H19  1  0.29473000  0.70953000  0.98469000  1.0
  H  H20  1  0.52576000  0.70312000  0.42442000  1.0
  H  H21  1  0.47422000  0.29690000  0.92442000  1.0
  H  H22  1  0.67118000  0.95840000  0.28228000  1.0
  H  H23  1  0.32879000  0.04161000  0.78230000  1.0
  H  H24  1  0.79194000  0.94987000  0.39232000  1.0
  H  H25  1  0.20802000  0.05016000  0.89234000  1.0
  H  H26  1  0.55543000  0.96555000  0.39662000  1.0
  H  H27  1  0.44455000  0.03447000  0.89664000  1.0
  C  C28  1  0.83962000  0.03849000  0.91043000  1.0
  C  C29  1  0.16037000  0.96152000  0.41042000  1.0
  C  C30  1  0.88710000  0.90293000  0.05732000  1.0
  C  C31  1  0.11290000  0.09705000  0.55733000  1.0
  C  C32  1  0.99806000  0.46858000  0.30824000  1.0
  C  C33  1  0.00193000  0.53143000  0.80825000  1.0
  C  C34  1  0.43400000  0.37588000  0.19008000  1.0
  C  C35  1  0.56601000  0.62412000  0.69008000  1.0
  C  C36  1  0.55848000  0.44124000  0.14935000  1.0
  C  C37  1  0.44152000  0.55875000  0.64935000  1.0
  C  C38  1  0.73133000  0.32215000  0.11119000  1.0
  C  C39  1  0.26870000  0.67783000  0.61118000  1.0
  C  C40  1  0.86171000  0.36957000  0.06747000  1.0
  C  C41  1  0.13830000  0.63042000  0.56746000  1.0
  C  C42  1  0.82155000  0.54229000  0.06201000  1.0
  C  C43  1  0.17846000  0.45768000  0.56201000  1.0
  C  C44  1  0.65587000  0.66200000  0.10007000  1.0
  C  C45  1  0.34415000  0.33798000  0.60007000  1.0
  C  C46  1  0.51703000  0.61840000  0.14483000  1.0
  C  C47  1  0.48298000  0.38158000  0.64484000  1.0
  C  C48  1  0.74062000  0.45969000  0.38179000  1.0
  C  C49  1  0.25938000  0.54032000  0.88179000  1.0
  C  C50  1  0.63957000  0.35752000  0.41708000  1.0
  C  C51  1  0.36044000  0.64249000  0.91708000  1.0
  C  C52  1  0.66392000  0.63559000  0.39151000  1.0
  C  C53  1  0.33607000  0.36443000  0.89152000  1.0
  C  C54  1  0.76522000  0.72221000  0.35486000  1.0
  C  C55  1  0.23476000  0.27781000  0.85488000  1.0
  C  C56  1  0.69019000  0.90985000  0.35761000  1.0
  C  C57  1  0.30978000  0.09017000  0.85763000  1.0
  N  N58  1  0.79803000  0.95294000  0.97592000  1.0
  N  N59  1  0.20196000  0.04705000  0.47593000  1.0
  N  N60  1  0.95273000  0.85495000  0.13483000  1.0
  N  N61  1  0.04727000  0.14502000  0.63484000  1.0
  N  N62  1  0.93615000  0.63733000  0.31293000  1.0
  N  N63  1  0.06383000  0.36268000  0.81295000  1.0
  N  N64  1  0.17069000  0.38117000  0.26644000  1.0
  N  N65  1  0.82931000  0.61884000  0.76645000  1.0
  N  N66  1  0.27024000  0.46442000  0.23000000  1.0
  N  N67  1  0.72976000  0.53557000  0.73001000  1.0
  N  N68  1  0.90954000  0.37541000  0.34006000  1.0
  N  N69  1  0.09046000  0.62461000  0.84007000  1.0
  N  N70  1  0.86411000  0.11806000  0.84718000  1.0
  N  N71  1  0.13588000  0.88196000  0.34717000  1.0
  O  O72  1  0.36209000  0.73732000  0.17690000  1.0
  O  O73  1  0.63791000  0.26267000  0.67690000  1.0
