# generated using pymatgen
data_LiH6C5(NO)3
_symmetry_space_group_name_H-M   'P 1'
_cell_length_a   3.52546000
_cell_length_b   13.12720000
_cell_length_c   14.24800000
_cell_angle_alpha   73.76700000
_cell_angle_beta   89.99960000
_cell_angle_gamma   89.99950000
_symmetry_Int_Tables_number   1
_chemical_formula_structural   LiH6C5(NO)3
_chemical_formula_sum   'Li4 H24 C20 N12 O12'
_cell_volume   633.10118137
_cell_formula_units_Z   4
loop_
 _symmetry_equiv_pos_site_id
 _symmetry_equiv_pos_as_xyz
  1  'x, y, z'
loop_
 _atom_site_type_symbol
 _atom_site_label
 _atom_site_symmetry_multiplicity
 _atom_site_fract_x
 _atom_site_fract_y
 _atom_site_fract_z
 _atom_site_occupancy
  Li  Li0  1  0.39609000  0.44020000  0.43199000  1.0
  Li  Li1  1  0.89610000  0.05980000  0.56802000  1.0
  Li  Li2  1  0.60391000  0.55980000  0.56801000  1.0
  Li  Li3  1  0.10390000  0.94020000  0.43198000  1.0
  H  H4  1  0.79863000  0.79777000  0.05086000  1.0
  H  H5  1  0.29862000  0.70222000  0.94914000  1.0
  H  H6  1  0.20138000  0.20223000  0.94914000  1.0
  H  H7  1  0.70137000  0.29778000  0.05086000  1.0
  H  H8  1  0.81925000  0.79062000  0.17808000  1.0
  H  H9  1  0.31924000  0.70937000  0.82193000  1.0
  H  H10  1  0.18076000  0.20938000  0.82192000  1.0
  H  H11  1  0.68075000  0.29063000  0.17807000  1.0
  H  H12  1  0.17169000  0.38384000  0.22902000  1.0
  H  H13  1  0.67170000  0.11616000  0.77098000  1.0
  H  H14  1  0.82831000  0.61616000  0.77098000  1.0
  H  H15  1  0.32830000  0.88384000  0.22902000  1.0
  H  H16  1  0.22338000  0.48667000  0.05114000  1.0
  H  H17  1  0.72339000  0.01333000  0.94885000  1.0
  H  H18  1  0.77662000  0.51333000  0.94886000  1.0
  H  H19  1  0.27662000  0.98667000  0.05115000  1.0
  H  H20  1  0.87602000  0.31580000  0.50664000  1.0
  H  H21  1  0.37602000  0.18420000  0.49336000  1.0
  H  H22  1  0.12398000  0.68420000  0.49336000  1.0
  H  H23  1  0.62398000  0.81580000  0.50664000  1.0
  H  H24  1  0.84158000  0.30645000  0.39656000  1.0
  H  H25  1  0.34158000  0.19355000  0.60344000  1.0
  H  H26  1  0.15842000  0.69355000  0.60344000  1.0
  H  H27  1  0.65842000  0.80645000  0.39656000  1.0
  C  C28  1  0.52772000  0.60701000  0.25134000  1.0
  C  C29  1  0.02772000  0.89298000  0.74866000  1.0
  C  C30  1  0.47228000  0.39299000  0.74866000  1.0
  C  C31  1  0.97228000  0.10702000  0.25134000  1.0
  C  C32  1  0.62777000  0.65007000  0.33579000  1.0
  C  C33  1  0.12776000  0.84993000  0.66421000  1.0
  C  C34  1  0.37224000  0.34993000  0.66421000  1.0
  C  C35  1  0.87224000  0.15007000  0.33579000  1.0
  C  C36  1  0.57013000  0.66522000  0.15011000  1.0
  C  C37  1  0.07012000  0.83478000  0.84990000  1.0
  C  C38  1  0.42988000  0.33479000  0.84989000  1.0
  C  C39  1  0.92987000  0.16522000  0.15010000  1.0
  C  C40  1  0.28466000  0.46425000  0.20626000  1.0
  C  C41  1  0.78465000  0.03575000  0.79374000  1.0
  C  C42  1  0.71534000  0.53575000  0.79374000  1.0
  C  C43  1  0.21534000  0.96425000  0.20626000  1.0
  C  C44  1  0.31486000  0.52192000  0.10840000  1.0
  C  C45  1  0.81486000  0.97808000  0.89160000  1.0
  C  C46  1  0.68514000  0.47808000  0.89160000  1.0
  C  C47  1  0.18514000  0.02192000  0.10840000  1.0
  N  N48  1  0.38931000  0.50848000  0.27636000  1.0
  N  N49  1  0.88931000  0.99151000  0.72364000  1.0
  N  N50  1  0.61069000  0.49152000  0.72364000  1.0
  N  N51  1  0.11069000  0.00848000  0.27636000  1.0
  N  N52  1  0.45383000  0.62047000  0.07964000  1.0
  N  N53  1  0.95383000  0.87953000  0.92036000  1.0
  N  N54  1  0.54617000  0.37953000  0.92036000  1.0
  N  N55  1  0.04617000  0.12047000  0.07964000  1.0
  N  N56  1  0.71901000  0.76316000  0.12245000  1.0
  N  N57  1  0.21900000  0.73683000  0.87756000  1.0
  N  N58  1  0.28100000  0.23684000  0.87755000  1.0
  N  N59  1  0.78100000  0.26317000  0.12244000  1.0
  O  O60  1  0.76821000  0.74333000  0.31755000  1.0
  O  O61  1  0.26821000  0.75666000  0.68245000  1.0
  O  O62  1  0.23180000  0.25667000  0.68245000  1.0
  O  O63  1  0.73179000  0.24334000  0.31755000  1.0
  O  O64  1  0.56137000  0.58990000  0.42076000  1.0
  O  O65  1  0.06136000  0.91009000  0.57924000  1.0
  O  O66  1  0.43863000  0.41010000  0.57924000  1.0
  O  O67  1  0.93863000  0.08991000  0.42076000  1.0
  O  O68  1  0.90789000  0.35522000  0.43809000  1.0
  O  O69  1  0.40789000  0.14477000  0.56191000  1.0
  O  O70  1  0.09211000  0.64478000  0.56191000  1.0
  O  O71  1  0.59211000  0.85522000  0.43809000  1.0
