# generated using pymatgen
data_ZnH11C27NO22
_symmetry_space_group_name_H-M   'P 1'
_cell_length_a   14.59720000
_cell_length_b   15.95810000
_cell_length_c   16.89940000
_cell_angle_alpha   89.89760000
_cell_angle_beta   83.53490000
_cell_angle_gamma   89.45030000
_symmetry_Int_Tables_number   1
_chemical_formula_structural   ZnH11C27NO22
_chemical_formula_sum   'Zn2 H22 C54 N2 O44'
_cell_volume   3911.39132355
_cell_formula_units_Z   2
loop_
 _symmetry_equiv_pos_site_id
 _symmetry_equiv_pos_as_xyz
  1  'x, y, z'
loop_
 _atom_site_type_symbol
 _atom_site_label
 _atom_site_symmetry_multiplicity
 _atom_site_fract_x
 _atom_site_fract_y
 _atom_site_fract_z
 _atom_site_occupancy
  Zn  Zn0  1  0.60008000  0.50356000  0.50792000  1.0
  Zn  Zn1  1  0.40524000  0.49926000  0.49340000  1.0
  H  H2  1  0.49204000  0.25265000  0.34719000  1.0
  H  H3  1  0.67932000  0.35801000  0.94536000  1.0
  H  H4  1  0.70369000  0.64428000  0.98954000  1.0
  H  H5  1  0.28477000  0.39353000  0.01673000  1.0
  H  H6  1  0.56372000  0.71033000  0.85164000  1.0
  H  H7  1  0.42909000  0.32026000  0.14302000  1.0
  H  H8  1  0.28268000  0.86166000  0.66449000  1.0
  H  H9  1  0.62941000  0.13679000  0.28541000  1.0
  H  H10  1  0.50899000  0.01563000  0.68778000  1.0
  H  H11  1  0.44068000  0.00681000  0.32431000  1.0
  H  H12  1  0.28217000  0.02899000  0.48709000  1.0
  H  H13  1  0.53752000  0.74551000  0.63160000  1.0
  H  H14  1  0.71307000  0.97013000  0.46235000  1.0
  H  H15  1  0.18178000  0.42106000  0.69569000  1.0
  H  H16  1  0.82669000  0.58187000  0.30806000  1.0
  H  H17  1  0.99022000  0.60609000  0.65780000  1.0
  H  H18  1  0.01565000  0.39340000  0.34695000  1.0
  H  H19  1  0.83039000  0.27319000  0.56488000  1.0
  H  H20  1  0.17773000  0.72473000  0.44105000  1.0
  H  H21  1  0.35288000  0.34147000  0.66599000  1.0
  H  H22  1  0.66376000  0.67369000  0.33711000  1.0
  H  H23  1  0.35511000  0.62656000  0.14961000  1.0
  C  C24  1  0.49571000  0.66081000  0.47414000  1.0
  C  C25  1  0.41127000  0.03313000  0.50143000  1.0
  C  C26  1  0.49629000  0.91492000  0.49279000  1.0
  C  C27  1  0.49865000  0.08711000  0.51166000  1.0
  C  C28  1  0.49397000  0.82733000  0.48303000  1.0
  C  C29  1  0.50113000  0.17492000  0.51800000  1.0
  C  C30  1  0.98297000  0.56479000  0.55470000  1.0
  C  C31  1  0.02271000  0.43493000  0.45005000  1.0
  C  C32  1  0.03946000  0.48458000  0.57163000  1.0
  C  C33  1  0.96630000  0.51516000  0.43307000  1.0
  C  C34  1  0.03835000  0.57227000  0.46757000  1.0
  C  C35  1  0.50368000  0.34157000  0.52384000  1.0
  C  C36  1  0.96738000  0.42747000  0.53720000  1.0
  C  C37  1  0.09711000  0.49230000  0.48754000  1.0
  C  C38  1  0.90852000  0.50740000  0.51717000  1.0
  C  C39  1  0.55354000  0.47171000  0.35117000  1.0
  C  C40  1  0.45692000  0.53597000  0.64929000  1.0
  C  C41  1  0.19404000  0.48707000  0.47642000  1.0
  C  C42  1  0.81152000  0.51278000  0.52716000  1.0
  C  C43  1  0.56333000  0.46667000  0.26139000  1.0
  C  C44  1  0.44251000  0.54937000  0.73837000  1.0
  C  C45  1  0.51629000  0.40490000  0.22216000  1.0
  C  C46  1  0.52907000  0.01846000  0.57487000  1.0
  C  C47  1  0.48505000  0.61607000  0.77480000  1.0
  C  C48  1  0.50451000  0.41572000  0.14077000  1.0
  C  C49  1  0.48868000  0.61460000  0.85827000  1.0
  C  C50  1  0.54721000  0.48342000  0.09720000  1.0
  C  C51  1  0.44440000  0.54997000  0.90498000  1.0
  C  C52  1  0.60288000  0.53771000  0.13471000  1.0
  C  C53  1  0.39333000  0.49059000  0.86913000  1.0
  C  C54  1  0.60902000  0.53070000  0.21725000  1.0
  C  C55  1  0.39386000  0.48921000  0.78559000  1.0
  C  C56  1  0.52873000  0.49412000  0.01308000  1.0
  C  C57  1  0.46726000  0.98228000  0.43140000  1.0
  C  C58  1  0.46054000  0.54382000  0.99019000  1.0
  C  C59  1  0.48192000  0.32659000  0.26022000  1.0
  C  C60  1  0.52662000  0.68842000  0.73102000  1.0
  C  C61  1  0.92752000  0.34977000  0.57584000  1.0
  C  C62  1  0.07897000  0.64996000  0.42960000  1.0
  C  C63  1  0.33888000  0.42568000  0.74703000  1.0
  C  C64  1  0.66913000  0.58914000  0.25716000  1.0
  C  C65  1  0.39747000  0.59933000  0.04353000  1.0
  C  C66  1  0.59159000  0.44575000  0.95239000  1.0
  C  C67  1  0.64915000  0.61045000  0.09155000  1.0
  C  C68  1  0.44172000  0.96615000  0.56411000  1.0
  C  C69  1  0.34740000  0.42007000  0.91598000  1.0
  C  C70  1  0.38393000  0.93250000  0.63376000  1.0
  C  C71  1  0.62240000  0.07040000  0.37959000  1.0
  C  C72  1  0.08043000  0.47709000  0.64861000  1.0
  C  C73  1  0.92601000  0.52335000  0.35587000  1.0
  C  C74  1  0.55608000  0.03464000  0.44217000  1.0
  C  C75  1  0.49414000  0.75149000  0.47518000  1.0
  C  C76  1  0.50392000  0.25093000  0.52347000  1.0
  C  C77  1  0.58599000  0.96949000  0.50323000  1.0
  N  N78  1  0.27407000  0.48498000  0.46949000  1.0
  N  N79  1  0.73160000  0.51539000  0.53179000  1.0
  O  O80  1  0.57359000  0.62700000  0.48231000  1.0
  O  O81  1  0.51892000  0.30573000  0.32689000  1.0
  O  O82  1  0.57702000  0.73950000  0.76047000  1.0
  O  O83  1  0.50264000  0.69862000  0.65715000  1.0
  O  O84  1  0.96559000  0.62695000  0.60826000  1.0
  O  O85  1  0.04038000  0.37278000  0.39645000  1.0
  O  O86  1  0.95495000  0.31574000  0.63332000  1.0
  O  O87  1  0.85634000  0.32331000  0.53752000  1.0
  O  O88  1  0.05220000  0.68519000  0.37245000  1.0
  O  O89  1  0.15072000  0.67492000  0.46815000  1.0
  O  O90  1  0.25388000  0.42534000  0.75725000  1.0
  O  O91  1  0.42441000  0.37645000  0.52607000  1.0
  O  O92  1  0.39116000  0.37360000  0.69905000  1.0
  O  O93  1  0.75387000  0.58399000  0.24595000  1.0
  O  O94  1  0.62161000  0.64345000  0.30623000  1.0
  O  O95  1  0.34884000  0.65288000  0.01727000  1.0
  O  O96  1  0.39836000  0.58551000  0.12285000  1.0
  O  O97  1  0.60132000  0.45716000  0.88059000  1.0
  O  O98  1  0.64008000  0.38625000  0.98829000  1.0
  O  O99  1  0.65788000  0.67882000  0.12197000  1.0
  O  O100  1  0.68064000  0.59219000  0.01499000  1.0
  O  O101  1  0.34607000  0.34814000  0.89174000  1.0
  O  O102  1  0.42012000  0.62446000  0.46712000  1.0
  O  O103  1  0.30716000  0.44448000  0.98871000  1.0
  O  O104  1  0.53546000  0.67158000  0.89518000  1.0
  O  O105  1  0.45348000  0.36342000  0.10224000  1.0
  O  O106  1  0.39508000  0.95033000  0.70280000  1.0
  O  O107  1  0.31641000  0.88133000  0.61445000  1.0
  O  O108  1  0.70619000  0.06053000  0.37580000  1.0
  O  O109  1  0.58062000  0.11544000  0.32483000  1.0
  O  O110  1  0.55761000  0.03575000  0.64697000  1.0
  O  O111  1  0.43721000  0.95892000  0.36056000  1.0
  O  O112  1  0.32635000  0.07039000  0.50124000  1.0
  O  O113  1  0.58148000  0.37695000  0.52043000  1.0
  O  O114  1  0.67299000  0.93647000  0.50059000  1.0
  O  O115  1  0.05399000  0.52513000  0.70398000  1.0
  O  O116  1  0.14639000  0.42011000  0.64680000  1.0
  O  O117  1  0.95238000  0.47550000  0.30032000  1.0
  O  O118  1  0.86095000  0.58121000  0.35746000  1.0
  O  O119  1  0.62532000  0.48090000  0.38585000  1.0
  O  O120  1  0.38639000  0.53373000  0.61176000  1.0
  O  O121  1  0.47038000  0.47129000  0.38244000  1.0
  O  O122  1  0.54028000  0.52371000  0.62192000  1.0
  O  O123  1  0.42767000  0.27923000  0.23060000  1.0
