# generated using pymatgen
data_AlH10C16O9
_symmetry_space_group_name_H-M   'P 1'
_cell_length_a   6.57993000
_cell_length_b   11.07565521
_cell_length_c   15.09290000
_cell_angle_alpha   87.99851031
_cell_angle_beta   78.84250000
_cell_angle_gamma   73.40979816
_symmetry_Int_Tables_number   1
_chemical_formula_structural   AlH10C16O9
_chemical_formula_sum   'Al2 H20 C32 O18'
_cell_volume   1033.97150326
_cell_formula_units_Z   2
loop_
 _symmetry_equiv_pos_site_id
 _symmetry_equiv_pos_as_xyz
  1  'x, y, z'
loop_
 _atom_site_type_symbol
 _atom_site_label
 _atom_site_symmetry_multiplicity
 _atom_site_fract_x
 _atom_site_fract_y
 _atom_site_fract_z
 _atom_site_occupancy
  Al  Al0  1  0.00877000  0.50319000  0.50319000  1.0
  Al  Al1  1  0.50627000  0.50437000  0.50173000  1.0
  H  H2  1  0.35660000  0.35878000  0.44006000  1.0
  H  H3  1  0.67810000  0.65953000  0.52136000  1.0
  H  H4  1  0.72132000  0.46089000  0.04597000  1.0
  H  H5  1  0.36535000  0.47562000  0.95364000  1.0
  H  H6  1  0.81060000  0.61809000  0.76442000  1.0
  H  H7  1  0.70074000  0.63985000  0.93101000  1.0
  H  H8  1  0.11466000  0.60697000  0.24862000  1.0
  H  H9  1  0.20666000  0.63586000  0.08240000  1.0
  H  H10  1  0.53288000  0.23455000  0.61886000  1.0
  H  H11  1  0.79262000  0.76593000  0.61649000  1.0
  H  H12  1  0.44166000  0.46846000  0.26269000  1.0
  H  H13  1  0.65128000  0.32879000  0.25992000  1.0
  H  H14  1  0.53530000  0.37256000  0.16245000  1.0
  H  H15  1  0.61182000  0.49857000  0.73228000  1.0
  H  H16  1  0.58100000  0.34767000  0.74257000  1.0
  H  H17  1  0.63798000  0.41700000  0.83553000  1.0
  H  H18  1  0.20076000  0.81022000  0.32470000  1.0
  H  H19  1  0.10088000  0.14009000  0.30752000  1.0
  H  H20  1  0.34173000  0.24705000  0.77040000  1.0
  H  H21  1  0.38037000  0.76393000  0.62803000  1.0
  C  C22  1  0.86647000  0.27997000  0.51610000  1.0
  C  C23  1  0.81849000  0.50926000  0.34001000  1.0
  C  C24  1  0.13698000  0.73331000  0.49476000  1.0
  C  C25  1  0.19379000  0.51654000  0.66512000  1.0
  C  C26  1  0.86445000  0.52145000  0.24037000  1.0
  C  C27  1  0.14683000  0.53178000  0.76467000  1.0
  C  C28  1  0.74923000  0.47902000  0.18404000  1.0
  C  C29  1  0.80279000  0.49668000  0.09124000  1.0
  C  C30  1  0.30962000  0.49383000  0.81769000  1.0
  C  C31  1  0.24360000  0.50803000  0.91148000  1.0
  C  C32  1  0.93102000  0.58608000  0.80681000  1.0
  C  C33  1  0.86960000  0.59762000  0.89997000  1.0
  C  C34  1  0.02806000  0.57664000  0.20304000  1.0
  C  C35  1  0.07991000  0.59206000  0.11049000  1.0
  C  C36  1  0.96682000  0.55148000  0.05319000  1.0
  C  C37  1  0.02650000  0.55545000  0.95391000  1.0
  C  C38  1  0.93292000  0.13855000  0.51366000  1.0
  C  C39  1  0.79513000  0.07091000  0.56397000  1.0
  C  C40  1  0.12639000  0.07525000  0.45783000  1.0
  C  C41  1  0.59209000  0.13218000  0.61888000  1.0
  C  C42  1  0.46360000  0.06419000  0.66740000  1.0
  C  C43  1  0.06113000  0.87413000  0.50121000  1.0
  C  C44  1  0.18774000  0.94187000  0.44943000  1.0
  C  C45  1  0.86382000  0.93611000  0.55986000  1.0
  C  C46  1  0.73333000  0.86820000  0.61414000  1.0
  C  C47  1  0.53620000  0.92982000  0.66591000  1.0
  C  C48  1  0.58542000  0.40904000  0.21873000  1.0
  C  C49  1  0.54654000  0.43661000  0.78064000  1.0
  C  C50  1  0.38735000  0.87551000  0.38240000  1.0
  C  C51  1  0.26567000  0.14628000  0.39937000  1.0
  C  C52  1  0.23687000  0.12845000  0.71425000  1.0
  C  C53  1  0.41028000  0.85776000  0.72986000  1.0
  O  O54  1  0.00031000  0.33463000  0.53299000  1.0
  O  O55  1  0.62165000  0.52619000  0.37872000  1.0
  O  O56  1  0.32586000  0.68143000  0.51067000  1.0
  O  O57  1  0.03396000  0.53771000  0.62400000  1.0
  O  O58  1  0.01010000  0.67659000  0.47446000  1.0
  O  O59  1  0.39154000  0.48471000  0.62473000  1.0
  O  O60  1  0.68228000  0.33414000  0.49809000  1.0
  O  O61  1  0.97904000  0.48293000  0.38046000  1.0
  O  O62  1  0.30173000  0.44540000  0.46412000  1.0
  O  O63  1  0.70972000  0.57137000  0.53795000  1.0
  O  O64  1  0.35386000  0.80594000  0.31688000  1.0
  O  O65  1  0.56692000  0.88423000  0.38325000  1.0
  O  O66  1  0.22346000  0.16967000  0.31473000  1.0
  O  O67  1  0.40769000  0.18072000  0.42227000  1.0
  O  O68  1  0.20426000  0.23297000  0.76518000  1.0
  O  O69  1  0.08474000  0.09105000  0.70514000  1.0
  O  O70  1  0.34781000  0.76682000  0.69431000  1.0
  O  O71  1  0.37344000  0.87655000  0.81112000  1.0
