# generated using pymatgen
data_CdH16C16(NO)4
_symmetry_space_group_name_H-M   'P 1'
_cell_length_a   7.99674000
_cell_length_b   8.57578000
_cell_length_c   12.07200000
_cell_angle_alpha   90.00020000
_cell_angle_beta   90.00000000
_cell_angle_gamma   94.62640000
_symmetry_Int_Tables_number   1
_chemical_formula_structural   CdH16C16(NO)4
_chemical_formula_sum   'Cd2 H32 C32 N8 O8'
_cell_volume   825.17965916
_cell_formula_units_Z   2
loop_
 _symmetry_equiv_pos_site_id
 _symmetry_equiv_pos_as_xyz
  1  'x, y, z'
loop_
 _atom_site_type_symbol
 _atom_site_label
 _atom_site_symmetry_multiplicity
 _atom_site_fract_x
 _atom_site_fract_y
 _atom_site_fract_z
 _atom_site_occupancy
  Cd  Cd0  1  0.50000000  0.50000000  0.50000000  1.0
  Cd  Cd1  1  0.50000000  0.00000000  0.00000000  1.0
  H  H2  1  0.29319000  0.61176000  0.20035000  1.0
  H  H3  1  0.70681000  0.88825000  0.70034000  1.0
  H  H4  1  0.70681000  0.38825000  0.79965000  1.0
  H  H5  1  0.29319000  0.11176000  0.29966000  1.0
  H  H6  1  0.27543000  0.72137000  0.32255000  1.0
  H  H7  1  0.72457000  0.77863000  0.82254000  1.0
  H  H8  1  0.72457000  0.27863000  0.67746000  1.0
  H  H9  1  0.27543000  0.22137000  0.17746000  1.0
  H  H10  1  0.00738000  0.48875000  0.20513000  1.0
  H  H11  1  0.99262000  0.01126000  0.70512000  1.0
  H  H12  1  0.99262000  0.51126000  0.79488000  1.0
  H  H13  1  0.00738000  0.98873000  0.29488000  1.0
  H  H14  1  0.80349000  0.29016000  0.29438000  1.0
  H  H15  1  0.19651000  0.20985000  0.79438000  1.0
  H  H16  1  0.19651000  0.70985000  0.70562000  1.0
  H  H17  1  0.80349000  0.79014000  0.20562000  1.0
  H  H18  1  0.87993000  0.17114000  0.47488000  1.0
  H  H19  1  0.12007000  0.32886000  0.97488000  1.0
  H  H20  1  0.12008000  0.82885000  0.52512000  1.0
  H  H21  1  0.87994000  0.67113000  0.02511000  1.0
  H  H22  1  0.15726000  0.26175000  0.56218000  1.0
  H  H23  1  0.84273000  0.23826000  0.06218000  1.0
  H  H24  1  0.84274000  0.73825000  0.43782000  1.0
  H  H25  1  0.15728000  0.76174000  0.93782000  1.0
  H  H26  1  0.55140000  0.70040000  0.31923000  1.0
  H  H27  1  0.44860000  0.79960000  0.81923000  1.0
  H  H28  1  0.44860000  0.29960000  0.68077000  1.0
  H  H29  1  0.55140000  0.20040000  0.18077000  1.0
  H  H30  1  0.54210000  0.51887000  0.26772000  1.0
  H  H31  1  0.45790000  0.98113000  0.76772000  1.0
  H  H32  1  0.45790000  0.48113000  0.73228000  1.0
  H  H33  1  0.54210000  0.01887000  0.23228000  1.0
  C  C34  1  0.31033000  0.60784000  0.29080000  1.0
  C  C35  1  0.68967000  0.89217000  0.79080000  1.0
  C  C36  1  0.68968000  0.39217000  0.70920000  1.0
  C  C37  1  0.31033000  0.10783000  0.20920000  1.0
  C  C38  1  0.18696000  0.48188000  0.33867000  1.0
  C  C39  1  0.81304000  0.01813000  0.83867000  1.0
  C  C40  1  0.81304000  0.51813000  0.66133000  1.0
  C  C41  1  0.18696000  0.98187000  0.16133000  1.0
  C  C42  1  0.03642000  0.43588000  0.28430000  1.0
  C  C43  1  0.96358000  0.06413000  0.78429000  1.0
  C  C44  1  0.96358000  0.56413000  0.71570000  1.0
  C  C45  1  0.03642000  0.93587000  0.21571000  1.0
  C  C46  1  0.92353000  0.32439000  0.33333333  1.0
  C  C47  1  0.07647000  0.17562000  0.83331000  1.0
  C  C48  1  0.07648000  0.67562000  0.66666667  1.0
  C  C49  1  0.92353000  0.82437000  0.16669000  1.0
  C  C50  1  0.96520000  0.25906000  0.43467000  1.0
  C  C51  1  0.03480000  0.24095000  0.93467000  1.0
  C  C52  1  0.03481000  0.74094000  0.56533000  1.0
  C  C53  1  0.96521000  0.75905000  0.06533000  1.0
  C  C54  1  0.11719000  0.31002000  0.48365000  1.0
  C  C55  1  0.88281000  0.18999000  0.98365000  1.0
  C  C56  1  0.88281000  0.68998000  0.51635000  1.0
  C  C57  1  0.11720000  0.81001000  0.01635000  1.0
  C  C58  1  0.52773000  0.11362000  0.46898000  1.0
  C  C59  1  0.47227000  0.38638000  0.96898000  1.0
  C  C60  1  0.47227000  0.88638000  0.53102000  1.0
  C  C61  1  0.52773000  0.61361000  0.03102000  1.0
  C  C62  1  0.56225000  0.95428000  0.43235000  1.0
  C  C63  1  0.43774000  0.54571000  0.93235000  1.0
  C  C64  1  0.43774000  0.04572000  0.56765000  1.0
  C  C65  1  0.56225000  0.45428000  0.06765000  1.0
  N  N66  1  0.22424000  0.41997000  0.43697000  1.0
  N  N67  1  0.77576000  0.08004000  0.93697000  1.0
  N  N68  1  0.77576000  0.58003000  0.56303000  1.0
  N  N69  1  0.22425000  0.91996000  0.06303000  1.0
  N  N70  1  0.48544000  0.59164000  0.32161000  1.0
  N  N71  1  0.51456000  0.90836000  0.82161000  1.0
  N  N72  1  0.51457000  0.40836000  0.67839000  1.0
  N  N73  1  0.48543000  0.09164000  0.17839000  1.0
  O  O74  1  0.56392000  0.24786000  0.42919000  1.0
  O  O75  1  0.43609000  0.25214000  0.92919000  1.0
  O  O76  1  0.43608000  0.75214000  0.57081000  1.0
  O  O77  1  0.56391000  0.74785000  0.07081000  1.0
  O  O78  1  0.63671000  0.90182000  0.34964000  1.0
  O  O79  1  0.36328000  0.59818000  0.84964000  1.0
  O  O80  1  0.36328000  0.09819000  0.65036000  1.0
  O  O81  1  0.63671000  0.40181000  0.15036000  1.0
