# generated using pymatgen
data_ZnH16C20(NO2)2
_symmetry_space_group_name_H-M   'P 1'
_cell_length_a   10.21520000
_cell_length_b   15.37410000
_cell_length_c   18.25010000
_cell_angle_alpha   90.00000000
_cell_angle_beta   90.00000000
_cell_angle_gamma   91.05760000
_symmetry_Int_Tables_number   1
_chemical_formula_structural   ZnH16C20(NO2)2
_chemical_formula_sum   'Zn4 H64 C80 N8 O16'
_cell_volume   2865.68092858
_cell_formula_units_Z   4
loop_
 _symmetry_equiv_pos_site_id
 _symmetry_equiv_pos_as_xyz
  1  'x, y, z'
loop_
 _atom_site_type_symbol
 _atom_site_label
 _atom_site_symmetry_multiplicity
 _atom_site_fract_x
 _atom_site_fract_y
 _atom_site_fract_z
 _atom_site_occupancy
  Zn  Zn0  1  0.90299000  0.96162000  0.30894000  1.0
  Zn  Zn1  1  0.59701000  0.53838000  0.80894000  1.0
  Zn  Zn2  1  0.09701000  0.03838000  0.69106000  1.0
  Zn  Zn3  1  0.40299000  0.46162000  0.19106000  1.0
  H  H4  1  0.64034000  0.74860000  0.26325000  1.0
  H  H5  1  0.85966000  0.75141000  0.76325000  1.0
  H  H6  1  0.35966000  0.25140000  0.73675000  1.0
  H  H7  1  0.14034000  0.24859000  0.23675000  1.0
  H  H8  1  0.23453000  0.68505000  0.29858000  1.0
  H  H9  1  0.26547000  0.81495000  0.79858000  1.0
  H  H10  1  0.76547000  0.31494000  0.70142000  1.0
  H  H11  1  0.73453000  0.18505000  0.20142000  1.0
  H  H12  1  0.20971000  0.82193000  0.37083000  1.0
  H  H13  1  0.29029000  0.67807000  0.87083000  1.0
  H  H14  1  0.79029000  0.17807000  0.62917000  1.0
  H  H15  1  0.70971000  0.32193000  0.12917000  1.0
  H  H16  1  0.40522000  0.92029000  0.39144000  1.0
  H  H17  1  0.09478000  0.57971000  0.89144000  1.0
  H  H18  1  0.59478000  0.07971000  0.60856000  1.0
  H  H19  1  0.90522000  0.42029000  0.10856000  1.0
  H  H20  1  0.13249000  0.03997000  0.39483000  1.0
  H  H21  1  0.36751000  0.46003000  0.89483000  1.0
  H  H22  1  0.86751000  0.96003000  0.60517000  1.0
  H  H23  1  0.63249000  0.53997000  0.10517000  1.0
  H  H24  1  0.27491000  0.98827000  0.49896000  1.0
  H  H25  1  0.22509000  0.51173000  0.99896000  1.0
  H  H26  1  0.72509000  0.01173000  0.50104000  1.0
  H  H27  1  0.77491000  0.48827000  0.00104000  1.0
  H  H28  1  0.00693000  0.76957000  0.52192000  1.0
  H  H29  1  0.49307000  0.73042000  0.02192000  1.0
  H  H30  1  0.99307000  0.23042000  0.47808000  1.0
  H  H31  1  0.50693000  0.26958000  0.97808000  1.0
  H  H32  1  0.87522000  0.83178000  0.42101000  1.0
  H  H33  1  0.62477000  0.66822000  0.92101000  1.0
  H  H34  1  0.12477000  0.16822000  0.57899000  1.0
  H  H35  1  0.37523000  0.33178000  0.07899000  1.0
  H  H36  1  0.34896000  0.84105000  0.54953000  1.0
  H  H37  1  0.15104000  0.65895000  0.04953000  1.0
  H  H38  1  0.65104000  0.15895000  0.45047000  1.0
  H  H39  1  0.84896000  0.34105000  0.95047000  1.0
  H  H40  1  0.25025000  0.87640000  0.62176000  1.0
  H  H41  1  0.24975000  0.62360000  0.12176000  1.0
  H  H42  1  0.74975000  0.12360000  0.37824000  1.0
  H  H43  1  0.75025000  0.37640000  0.87824000  1.0
  H  H44  1  0.20952000  0.70145000  0.54116000  1.0
  H  H45  1  0.29048000  0.79855000  0.04116000  1.0
  H  H46  1  0.79048000  0.29855000  0.45884000  1.0
  H  H47  1  0.70952000  0.20145000  0.95884000  1.0
  H  H48  1  0.11982000  0.73570000  0.61777000  1.0
  H  H49  1  0.38018000  0.76430000  0.11777000  1.0
  H  H50  1  0.88018000  0.26430000  0.38223000  1.0
  H  H51  1  0.61983000  0.23570000  0.88223000  1.0
  H  H52  1  0.18737000  0.57938000  0.64911000  1.0
  H  H53  1  0.31263000  0.92062000  0.14911000  1.0
  H  H54  1  0.81263000  0.42062000  0.35089000  1.0
  H  H55  1  0.68737000  0.07938000  0.85089000  1.0
  H  H56  1  0.34117000  0.50143000  0.73227000  1.0
  H  H57  1  0.15883000  0.99857000  0.23227000  1.0
  H  H58  1  0.65883000  0.49857000  0.26773000  1.0
  H  H59  1  0.84117000  0.00143000  0.76773000  1.0
  H  H60  1  0.60357000  0.70947000  0.73212000  1.0
  H  H61  1  0.89643000  0.79053000  0.23212000  1.0
  H  H62  1  0.39643000  0.29053000  0.26788000  1.0
  H  H63  1  0.10357000  0.20947000  0.76788000  1.0
  H  H64  1  0.46031000  0.79740000  0.65058000  1.0
  H  H65  1  0.03969000  0.70260000  0.15058000  1.0
  H  H66  1  0.53969000  0.20260000  0.34942000  1.0
  H  H67  1  0.96031000  0.29740000  0.84942000  1.0
  C  C68  1  0.65118000  0.89986000  0.34171000  1.0
  C  C69  1  0.84882000  0.60014000  0.84171000  1.0
  C  C70  1  0.34882000  0.10014000  0.65829000  1.0
  C  C71  1  0.15118000  0.39987000  0.15829000  1.0
  C  C72  1  0.53442000  0.84086000  0.32884000  1.0
  C  C73  1  0.96557000  0.65914000  0.82884000  1.0
  C  C74  1  0.46558000  0.15914000  0.67116000  1.0
  C  C75  1  0.03442000  0.34086000  0.17116000  1.0
  C  C76  1  0.54644000  0.76512000  0.28713000  1.0
  C  C77  1  0.95356000  0.73488000  0.78713000  1.0
  C  C78  1  0.45356000  0.23488000  0.71287000  1.0
  C  C79  1  0.04645000  0.26512000  0.21287000  1.0
  C  C80  1  0.43903000  0.70887000  0.27655000  1.0
  C  C81  1  0.06097000  0.79113000  0.77655000  1.0
  C  C82  1  0.56096000  0.29113000  0.72345000  1.0
  C  C83  1  0.93904000  0.20887000  0.22345000  1.0
  C  C84  1  0.31744000  0.72951000  0.30711000  1.0
  C  C85  1  0.18256000  0.77049000  0.80711000  1.0
  C  C86  1  0.68256000  0.27049000  0.69289000  1.0
  C  C87  1  0.81744000  0.22951000  0.19289000  1.0
  C  C88  1  0.30451000  0.80575000  0.34773000  1.0
  C  C89  1  0.19549000  0.69425000  0.84773000  1.0
  C  C90  1  0.69549000  0.19425000  0.65227000  1.0
  C  C91  1  0.80451000  0.30575000  0.15227000  1.0
  C  C92  1  0.41261000  0.86096000  0.35912000  1.0
  C  C93  1  0.08739000  0.63904000  0.85912000  1.0
  C  C94  1  0.58739000  0.13904000  0.64088000  1.0
  C  C95  1  0.91261000  0.36096000  0.14088000  1.0
  C  C96  1  0.45769000  0.62608000  0.23477000  1.0
  C  C97  1  0.04231000  0.87392000  0.73477000  1.0
  C  C98  1  0.54231000  0.37392000  0.76523000  1.0
  C  C99  1  0.95769000  0.12608000  0.26523000  1.0
  C  C100  1  0.10969000  0.98084000  0.42570000  1.0
  C  C101  1  0.39031000  0.51916000  0.92570000  1.0
  C  C102  1  0.89031000  0.01916000  0.57430000  1.0
  C  C103  1  0.60969000  0.48084000  0.07430000  1.0
  C  C104  1  0.18823000  0.95100000  0.48208000  1.0
  C  C105  1  0.31177000  0.54900000  0.98208000  1.0
  C  C106  1  0.81177000  0.04900000  0.51792000  1.0
  C  C107  1  0.68823000  0.45100000  0.01792000  1.0
  C  C108  1  0.15701000  0.87205000  0.51713000  1.0
  C  C109  1  0.34299000  0.62795000  0.01713000  1.0
  C  C110  1  0.84298000  0.12795000  0.48287000  1.0
  C  C111  1  0.65702000  0.37205000  0.98287000  1.0
  C  C112  1  0.04016000  0.82980000  0.49602000  1.0
  C  C113  1  0.45984000  0.67020000  0.99602000  1.0
  C  C114  1  0.95984000  0.17020000  0.50398000  1.0
  C  C115  1  0.54016000  0.32980000  0.00398000  1.0
  C  C116  1  0.96534000  0.86384000  0.43978000  1.0
  C  C117  1  0.53466000  0.63616000  0.93978000  1.0
  C  C118  1  0.03466000  0.13616000  0.56022000  1.0
  C  C119  1  0.46534000  0.36384000  0.06022000  1.0
  C  C120  1  0.24944000  0.83476000  0.57249000  1.0
  C  C121  1  0.25056000  0.66524000  0.07249000  1.0
  C  C122  1  0.75056000  0.16524000  0.42751000  1.0
  C  C123  1  0.74944000  0.33476000  0.92751000  1.0
  C  C124  1  0.21728000  0.74042000  0.59193000  1.0
  C  C125  1  0.28272000  0.75958000  0.09193000  1.0
  C  C126  1  0.78272000  0.25958000  0.40807000  1.0
  C  C127  1  0.71729000  0.24042000  0.90807000  1.0
  C  C128  1  0.31117000  0.69512000  0.64183000  1.0
  C  C129  1  0.18883000  0.80487000  0.14183000  1.0
  C  C130  1  0.68883000  0.30488000  0.35817000  1.0
  C  C131  1  0.81117000  0.19512000  0.85817000  1.0
  C  C132  1  0.27925000  0.61070000  0.66582000  1.0
  C  C133  1  0.22075000  0.88930000  0.16582000  1.0
  C  C134  1  0.72074000  0.38930000  0.33418000  1.0
  C  C135  1  0.77926000  0.11070000  0.83418000  1.0
  C  C136  1  0.36301000  0.56690000  0.71201000  1.0
  C  C137  1  0.13699000  0.93310000  0.21201000  1.0
  C  C138  1  0.63698000  0.43310000  0.28799000  1.0
  C  C139  1  0.86302000  0.06690000  0.78799000  1.0
  C  C140  1  0.50985000  0.68372000  0.71227000  1.0
  C  C141  1  0.99014000  0.81628000  0.21227000  1.0
  C  C142  1  0.49014000  0.31628000  0.28773000  1.0
  C  C143  1  0.00986000  0.18372000  0.78773000  1.0
  C  C144  1  0.42972000  0.73173000  0.66631000  1.0
  C  C145  1  0.07028000  0.76827000  0.16631000  1.0
  C  C146  1  0.57028000  0.26827000  0.33369000  1.0
  C  C147  1  0.92972000  0.23173000  0.83369000  1.0
  N  N148  1  0.00060000  0.93708000  0.40386000  1.0
  N  N149  1  0.49940000  0.56292000  0.90386000  1.0
  N  N150  1  0.99940000  0.06292000  0.59614000  1.0
  N  N151  1  0.50060000  0.43708000  0.09614000  1.0
  N  N152  1  0.47747000  0.60278000  0.73498000  1.0
  N  N153  1  0.02253000  0.89722000  0.23498000  1.0
  N  N154  1  0.52253000  0.39722000  0.26502000  1.0
  N  N155  1  0.97747000  0.10278000  0.76502000  1.0
  O  O156  1  0.75643000  0.87726000  0.30649000  1.0
  O  O157  1  0.74357000  0.62274000  0.80649000  1.0
  O  O158  1  0.24357000  0.12274000  0.69351000  1.0
  O  O159  1  0.25643000  0.37726000  0.19351000  1.0
  O  O160  1  0.64438000  0.96407000  0.38336000  1.0
  O  O161  1  0.85562000  0.53593000  0.88336000  1.0
  O  O162  1  0.35562000  0.03593000  0.61664000  1.0
  O  O163  1  0.14438000  0.46407000  0.11664000  1.0
  O  O164  1  0.35538000  0.57455000  0.23089000  1.0
  O  O165  1  0.14462000  0.92545000  0.73089000  1.0
  O  O166  1  0.64462000  0.42545000  0.76911000  1.0
  O  O167  1  0.85539000  0.07455000  0.26911000  1.0
  O  O168  1  0.56666000  0.60882000  0.20703000  1.0
  O  O169  1  0.93334000  0.89118000  0.70703000  1.0
  O  O170  1  0.43334000  0.39118000  0.79297000  1.0
  O  O171  1  0.06666000  0.10882000  0.29297000  1.0
