# generated using pymatgen
data_CuH10C4(ClO2)2
_symmetry_space_group_name_H-M   'P 1'
_cell_length_a   6.32226000
_cell_length_b   7.44265000
_cell_length_c   9.54046000
_cell_angle_alpha   104.61500000
_cell_angle_beta   105.88100000
_cell_angle_gamma   99.34960000
_symmetry_Int_Tables_number   1
_chemical_formula_structural   CuH10C4(ClO2)2
_chemical_formula_sum   'Cu2 H20 C8 Cl4 O8'
_cell_volume   404.68307746
_cell_formula_units_Z   2
loop_
 _symmetry_equiv_pos_site_id
 _symmetry_equiv_pos_as_xyz
  1  'x, y, z'
loop_
 _atom_site_type_symbol
 _atom_site_label
 _atom_site_symmetry_multiplicity
 _atom_site_fract_x
 _atom_site_fract_y
 _atom_site_fract_z
 _atom_site_occupancy
  Cu  Cu0  1  0.28569000  0.14339000  0.09974000  1.0
  Cu  Cu1  1  0.71431000  0.85661000  0.90026000  1.0
  H  H2  1  0.27918000  0.52610000  0.89981000  1.0
  H  H3  1  0.72082000  0.47390000  0.10018000  1.0
  H  H4  1  0.40042000  0.69171000  0.19325000  1.0
  H  H5  1  0.59958000  0.30829000  0.80675000  1.0
  H  H6  1  0.13181000  0.52015000  0.10582000  1.0
  H  H7  1  0.86819000  0.47985000  0.89417000  1.0
  H  H8  1  0.18111000  0.21907000  0.82980000  1.0
  H  H9  1  0.81889000  0.78092000  0.17020000  1.0
  H  H10  1  0.34713000  0.46390000  0.32080000  1.0
  H  H11  1  0.65286000  0.53610000  0.67919000  1.0
  H  H12  1  0.63748000  0.32034000  0.46455000  1.0
  H  H13  1  0.36251000  0.67966000  0.53545000  1.0
  H  H14  1  0.85042000  0.11865000  0.64995000  1.0
  H  H15  1  0.14958000  0.88135000  0.35006000  1.0
  H  H16  1  0.06722000  0.55806000  0.67531000  1.0
  H  H17  1  0.93278000  0.44194000  0.32469000  1.0
  H  H18  1  0.92398000  0.15768000  0.43600000  1.0
  H  H19  1  0.07603000  0.84231000  0.56400000  1.0
  H  H20  1  0.20778000  0.28025000  0.55290000  1.0
  H  H21  1  0.79222000  0.71975000  0.44711000  1.0
  C  C22  1  0.37262000  0.46982000  0.98711000  1.0
  C  C23  1  0.62739000  0.53017000  0.01289000  1.0
  C  C24  1  0.31592000  0.53978000  0.13192000  1.0
  C  C25  1  0.68408000  0.46022000  0.86808000  1.0
  C  C26  1  0.97100000  0.45680000  0.55993000  1.0
  C  C27  1  0.02900000  0.54320000  0.44007000  1.0
  C  C28  1  0.02979000  0.26386000  0.54711000  1.0
  C  C29  1  0.97021000  0.73614000  0.45290000  1.0
  Cl  Cl30  1  0.41919000  0.05893000  0.31354000  1.0
  Cl  Cl31  1  0.58080000  0.94107000  0.68646000  1.0
  Cl  Cl32  1  0.15299000  0.85158000  0.92474000  1.0
  Cl  Cl33  1  0.84701000  0.14843000  0.07526000  1.0
  O  O34  1  0.30395000  0.26330000  0.93395000  1.0
  O  O35  1  0.69606000  0.73670000  0.06605000  1.0
  O  O36  1  0.39531000  0.42367000  0.22658000  1.0
  O  O37  1  0.60469000  0.57634000  0.77342000  1.0
  O  O38  1  0.73518000  0.44152000  0.54431000  1.0
  O  O39  1  0.26482000  0.55848000  0.45568000  1.0
  O  O40  1  0.00552000  0.19374000  0.67030000  1.0
  O  O41  1  0.99447000  0.80626000  0.32971000  1.0
