# generated using pymatgen
data_ZnH22C24(NO)4
_symmetry_space_group_name_H-M   'P 1'
_cell_length_a   9.52260000
_cell_length_b   12.24910000
_cell_length_c   12.57400000
_cell_angle_alpha   104.62100000
_cell_angle_beta   96.83940000
_cell_angle_gamma   105.10000000
_symmetry_Int_Tables_number   1
_chemical_formula_structural   ZnH22C24(NO)4
_chemical_formula_sum   'Zn2 H44 C48 N8 O8'
_cell_volume   1343.08787373
_cell_formula_units_Z   2
loop_
 _symmetry_equiv_pos_site_id
 _symmetry_equiv_pos_as_xyz
  1  'x, y, z'
loop_
 _atom_site_type_symbol
 _atom_site_label
 _atom_site_symmetry_multiplicity
 _atom_site_fract_x
 _atom_site_fract_y
 _atom_site_fract_z
 _atom_site_occupancy
  Zn  Zn0  1  0.29522000  0.26958000  0.72403000  1.0
  Zn  Zn1  1  0.70478000  0.73042000  0.27597000  1.0
  H  H2  1  0.78061000  0.01385000  0.37870000  1.0
  H  H3  1  0.21939000  0.98614000  0.62130000  1.0
  H  H4  1  0.24628000  0.42495000  0.95361000  1.0
  H  H5  1  0.75371000  0.57505000  0.04639000  1.0
  H  H6  1  0.35300000  0.32047000  0.48694000  1.0
  H  H7  1  0.64699000  0.67953000  0.51306000  1.0
  H  H8  1  0.49393000  0.43799000  0.37750000  1.0
  H  H9  1  0.50606000  0.56201000  0.62250000  1.0
  H  H10  1  0.96314000  0.20604000  0.22617000  1.0
  H  H11  1  0.03686000  0.79395000  0.77383000  1.0
  H  H12  1  0.53681000  0.21863000  0.89496000  1.0
  H  H13  1  0.46319000  0.78137000  0.10503000  1.0
  H  H14  1  0.10351000  0.32427000  0.11741000  1.0
  H  H15  1  0.89649000  0.67572000  0.88259000  1.0
  H  H16  1  0.33349000  0.52828000  0.16121000  1.0
  H  H17  1  0.66650000  0.47172000  0.83879000  1.0
  H  H18  1  0.50160000  0.51744000  0.22933000  1.0
  H  H19  1  0.49839000  0.48256000  0.77068000  1.0
  H  H20  1  0.12396000  0.21537000  0.51776000  1.0
  H  H21  1  0.87604000  0.78462000  0.48224000  1.0
  H  H22  1  0.95644000  0.21502000  0.43896000  1.0
  H  H23  1  0.04356000  0.78497000  0.56105000  1.0
  H  H24  1  0.05134000  0.80086000  0.27562000  1.0
  H  H25  1  0.94866000  0.19914000  0.72438000  1.0
  H  H26  1  0.57894000  0.32601000  0.12713000  1.0
  H  H27  1  0.42106000  0.67399000  0.87287000  1.0
  H  H28  1  0.58203000  0.09588000  0.34692000  1.0
  H  H29  1  0.41797000  0.90413000  0.65308000  1.0
  H  H30  1  0.22846000  0.03942000  0.35725000  1.0
  H  H31  1  0.77154000  0.96058000  0.64275000  1.0
  H  H32  1  0.67965000  0.20999000  0.22118000  1.0
  H  H33  1  0.32035000  0.79000000  0.77882000  1.0
  H  H34  1  0.84059000  0.37671000  0.19281000  1.0
  H  H35  1  0.15942000  0.62329000  0.80719000  1.0
  H  H36  1  0.98465000  0.45912000  0.30605000  1.0
  H  H37  1  0.01536000  0.54088000  0.69395000  1.0
  H  H38  1  0.61142000  0.07375000  0.53057000  1.0
  H  H39  1  0.38858000  0.92626000  0.46943000  1.0
  H  H40  1  0.73149000  0.18889000  0.64311000  1.0
  H  H41  1  0.26851000  0.81111000  0.35689000  1.0
  H  H42  1  0.77934000  0.40562000  0.63057000  1.0
  H  H43  1  0.22066000  0.59439000  0.36942000  1.0
  H  H44  1  0.87297000  0.52074000  0.50451000  1.0
  H  H45  1  0.12704000  0.47927000  0.49549000  1.0
  C  C46  1  0.30744000  0.38936000  0.24135000  1.0
  C  C47  1  0.69254000  0.61064000  0.75865000  1.0
  C  C48  1  0.14865000  0.25703000  0.36393000  1.0
  C  C49  1  0.85134000  0.74297000  0.63607000  1.0
  C  C50  1  0.87843000  0.98747000  0.36366000  1.0
  C  C51  1  0.12157000  0.01253000  0.63635000  1.0
  C  C52  1  0.33243000  0.38438000  0.96885000  1.0
  C  C53  1  0.66757000  0.61562000  0.03116000  1.0
  C  C54  1  0.29838000  0.32098000  0.40580000  1.0
  C  C55  1  0.70161000  0.67902000  0.59421000  1.0
  C  C56  1  0.37751000  0.38686000  0.34445000  1.0
  C  C57  1  0.62248000  0.61315000  0.65555000  1.0
  C  C58  1  0.07993000  0.25635000  0.25871000  1.0
  C  C59  1  0.92006000  0.74364000  0.74129000  1.0
  C  C60  1  0.48519000  0.27862000  0.94259000  1.0
  C  C61  1  0.51481000  0.72138000  0.05741000  1.0
  C  C62  1  0.15858000  0.32239000  0.19796000  1.0
  C  C63  1  0.84141000  0.67760000  0.80204000  1.0
  C  C64  1  0.78636000  0.37376000  0.35339000  1.0
  C  C65  1  0.21364000  0.62623000  0.64660000  1.0
  C  C66  1  0.39118000  0.46603000  0.17886000  1.0
  C  C67  1  0.60881000  0.53396000  0.82114000  1.0
  C  C68  1  0.05984000  0.19193000  0.43259000  1.0
  C  C69  1  0.94015000  0.80806000  0.56742000  1.0
  C  C70  1  0.83837000  0.55168000  0.26550000  1.0
  C  C71  1  0.16163000  0.44832000  0.73450000  1.0
  C  C72  1  0.50728000  0.17845000  0.63653000  1.0
  C  C73  1  0.49273000  0.82157000  0.36348000  1.0
  C  C74  1  0.67605000  0.24189000  0.49830000  1.0
  C  C75  1  0.32395000  0.75812000  0.50170000  1.0
  C  C76  1  0.02449000  0.88149000  0.31097000  1.0
  C  C77  1  0.97551000  0.11851000  0.68903000  1.0
  C  C78  1  0.50661000  0.33038000  0.05610000  1.0
  C  C79  1  0.49339000  0.66962000  0.94390000  1.0
  C  C80  1  0.64506000  0.18962000  0.38200000  1.0
  C  C81  1  0.35494000  0.81038000  0.61800000  1.0
  C  C82  1  0.11121000  0.99757000  0.35060000  1.0
  C  C83  1  0.88879000  0.00243000  0.64940000  1.0
  C  C84  1  0.70027000  0.25471000  0.31114000  1.0
  C  C85  1  0.29973000  0.74529000  0.68886000  1.0
  C  C86  1  0.86392000  0.43701000  0.27853000  1.0
  C  C87  1  0.13609000  0.56299000  0.72146000  1.0
  C  C88  1  0.63516000  0.16799000  0.57552000  1.0
  C  C89  1  0.36484000  0.83202000  0.42448000  1.0
  C  C90  1  0.75590000  0.36261000  0.54037000  1.0
  C  C91  1  0.24411000  0.63739000  0.45962000  1.0
  C  C92  1  0.80928000  0.42753000  0.46940000  1.0
  C  C93  1  0.19073000  0.57248000  0.53059000  1.0
  N  N94  1  0.37626000  0.31326000  0.88924000  1.0
  N  N95  1  0.62374000  0.68674000  0.11076000  1.0
  N  N96  1  0.40977000  0.39709000  0.07084000  1.0
  N  N97  1  0.59023000  0.60291000  0.92916000  1.0
  N  N98  1  0.87972000  0.87649000  0.31994000  1.0
  N  N99  1  0.12029000  0.12351000  0.68006000  1.0
  N  N100  1  0.01693000  0.06302000  0.38335000  1.0
  N  N101  1  0.98307000  0.93698000  0.61665000  1.0
  O  O102  1  0.74115000  0.58936000  0.31547000  1.0
  O  O103  1  0.25885000  0.41064000  0.68453000  1.0
  O  O104  1  0.91165000  0.60196000  0.20557000  1.0
  O  O105  1  0.08835000  0.39805000  0.79443000  1.0
  O  O106  1  0.45139000  0.26306000  0.63171000  1.0
  O  O107  1  0.54862000  0.73696000  0.36830000  1.0
  O  O108  1  0.46586000  0.10643000  0.69025000  1.0
  O  O109  1  0.53414000  0.89358000  0.30975000  1.0
