# generated using pymatgen
data_Cd3H58C66(NO4)4
_symmetry_space_group_name_H-M   'P 1'
_cell_length_a   14.20350000
_cell_length_b   17.21630000
_cell_length_c   17.21640000
_cell_angle_alpha   60.13250000
_cell_angle_beta   83.57870000
_cell_angle_gamma   83.57850000
_symmetry_Int_Tables_number   1
_chemical_formula_structural   Cd3H58C66(NO4)4
_chemical_formula_sum   'Cd6 H116 C132 N8 O32'
_cell_volume   3620.17458381
_cell_formula_units_Z   2
loop_
 _symmetry_equiv_pos_site_id
 _symmetry_equiv_pos_as_xyz
  1  'x, y, z'
loop_
 _atom_site_type_symbol
 _atom_site_label
 _atom_site_symmetry_multiplicity
 _atom_site_fract_x
 _atom_site_fract_y
 _atom_site_fract_z
 _atom_site_occupancy
  Cd  Cd0  1  0.68862000  0.83056000  0.51928000  1.0
  Cd  Cd1  1  0.81137000  0.48072000  0.16944000  1.0
  Cd  Cd2  1  0.31139000  0.16944000  0.48072000  1.0
  Cd  Cd3  1  0.18862000  0.51929000  0.83057000  1.0
  Cd  Cd4  1  0.49999000  0.00000000  0.50000000  1.0
  Cd  Cd5  1  0.99999000  0.50000000  0.00000000  1.0
  H  H6  1  0.61236000  0.08790000  0.56094000  1.0
  H  H7  1  0.88762000  0.43905000  0.91212000  1.0
  H  H8  1  0.38762000  0.91211000  0.43905000  1.0
  H  H9  1  0.11237000  0.56094000  0.08790000  1.0
  H  H10  1  0.57985000  0.17056000  0.64418000  1.0
  H  H11  1  0.92015000  0.35582000  0.82946000  1.0
  H  H12  1  0.42015000  0.82944000  0.35583000  1.0
  H  H13  1  0.07985000  0.64417000  0.17057000  1.0
  H  H14  1  0.71382000  0.95053000  0.87162000  1.0
  H  H15  1  0.78620000  0.12835000  0.04947000  1.0
  H  H16  1  0.28621000  0.04947000  0.12836000  1.0
  H  H17  1  0.21382000  0.87163000  0.95053000  1.0
  H  H18  1  0.74236000  0.86539000  0.78844000  1.0
  H  H19  1  0.75765000  0.21152000  0.13463000  1.0
  H  H20  1  0.25766000  0.13462000  0.21153000  1.0
  H  H21  1  0.24235000  0.78845000  0.86539000  1.0
  H  H22  1  0.65369000  0.24328000  0.69045000  1.0
  H  H23  1  0.84632000  0.30956000  0.75672000  1.0
  H  H24  1  0.34631000  0.75672000  0.30955000  1.0
  H  H25  1  0.15370000  0.69045000  0.24328000  1.0
  H  H26  1  0.61599000  0.25985000  0.93286000  1.0
  H  H27  1  0.88402000  0.06715000  0.74013000  1.0
  H  H28  1  0.38402000  0.74013000  0.06714000  1.0
  H  H29  1  0.11598000  0.93286000  0.25987000  1.0
  H  H30  1  0.60730000  0.00578000  0.94349000  1.0
  H  H31  1  0.89271000  0.05651000  0.99421000  1.0
  H  H32  1  0.39272000  0.99421000  0.05651000  1.0
  H  H33  1  0.10730000  0.94349000  0.00579000  1.0
  H  H34  1  0.62525000  0.37513000  0.62268000  1.0
  H  H35  1  0.87475000  0.37735000  0.62486000  1.0
  H  H36  1  0.37472000  0.62486000  0.37733000  1.0
  H  H37  1  0.12526000  0.62266000  0.37515000  1.0
  H  H38  1  0.65804000  0.53524000  0.53443000  1.0
  H  H39  1  0.84195000  0.46559000  0.46475000  1.0
  H  H40  1  0.34194000  0.46475000  0.46558000  1.0
  H  H41  1  0.15804000  0.53442000  0.53526000  1.0
  H  H42  1  0.69311000  0.53921000  0.77701000  1.0
  H  H43  1  0.80689000  0.22300000  0.46080000  1.0
  H  H44  1  0.30690000  0.46079000  0.22299000  1.0
  H  H45  1  0.19312000  0.77700000  0.53921000  1.0
  H  H46  1  0.67237000  0.37691000  0.86553000  1.0
  H  H47  1  0.82765000  0.13449000  0.62309000  1.0
  H  H48  1  0.32764000  0.62309000  0.13447000  1.0
  H  H49  1  0.17237000  0.86552000  0.37691000  1.0
  H  H50  1  0.54188000  0.20500000  0.05190000  1.0
  H  H51  1  0.95812000  0.94809000  0.79500000  1.0
  H  H52  1  0.45813000  0.79499000  0.94809000  1.0
  H  H53  1  0.04188000  0.05191000  0.20501000  1.0
  H  H54  1  0.53295000  0.13496000  0.21693000  1.0
  H  H55  1  0.96705000  0.78307000  0.86504000  1.0
  H  H56  1  0.46706000  0.86504000  0.78307000  1.0
  H  H57  1  0.03294000  0.21693000  0.13497000  1.0
  H  H58  1  0.64865000  0.88473000  0.23916000  1.0
  H  H59  1  0.85135000  0.76085000  0.11526000  1.0
  H  H60  1  0.35135000  0.11526000  0.76085000  1.0
  H  H61  1  0.14864000  0.23916000  0.88474000  1.0
  H  H62  1  0.65846000  0.95382000  0.07236000  1.0
  H  H63  1  0.84154000  0.92765000  0.04617000  1.0
  H  H64  1  0.34155000  0.04617000  0.92765000  1.0
  H  H65  1  0.15845000  0.07235000  0.95383000  1.0
  H  H66  1  0.85317000  0.76445000  0.40990000  1.0
  H  H67  1  0.64683000  0.59009000  0.23554000  1.0
  H  H68  1  0.14683000  0.23556000  0.59009000  1.0
  H  H69  1  0.35317000  0.40990000  0.76445000  1.0
  H  H70  1  0.94360000  0.86256000  0.19461000  1.0
  H  H71  1  0.55641000  0.80539000  0.13744000  1.0
  H  H72  1  0.05641000  0.13744000  0.80539000  1.0
  H  H73  1  0.44360000  0.19462000  0.86255000  1.0
  H  H74  1  0.81819000  0.85595000  0.19872000  1.0
  H  H75  1  0.68181000  0.80127000  0.14405000  1.0
  H  H76  1  0.18181000  0.14404000  0.80128000  1.0
  H  H77  1  0.31819000  0.19872000  0.85594000  1.0
  H  H78  1  0.88732000  0.76756000  0.28386000  1.0
  H  H79  1  0.61268000  0.71613000  0.23244000  1.0
  H  H80  1  0.11269000  0.23244000  0.71614000  1.0
  H  H81  1  0.38732000  0.28388000  0.76755000  1.0
  H  H82  1  0.91053000  0.01030000  0.19397000  1.0
  H  H83  1  0.58947000  0.80603000  0.98970000  1.0
  H  H84  1  0.08947000  0.98971000  0.80601000  1.0
  H  H85  1  0.41053000  0.19398000  0.01030000  1.0
  H  H86  1  0.85092000  0.00657000  0.29346000  1.0
  H  H87  1  0.64908000  0.70654000  0.99343000  1.0
  H  H88  1  0.14908000  0.99344000  0.70652000  1.0
  H  H89  1  0.35092000  0.29347000  0.00656000  1.0
  H  H90  1  0.78479000  0.00490000  0.21195000  1.0
  H  H91  1  0.71521000  0.78805000  0.99510000  1.0
  H  H92  1  0.21521000  0.99510000  0.78804000  1.0
  H  H93  1  0.28479000  0.21196000  0.00490000  1.0
  H  H94  1  0.47169000  0.79927000  0.68922000  1.0
  H  H95  1  0.02830000  0.31078000  0.20073000  1.0
  H  H96  1  0.52830000  0.20074000  0.31076000  1.0
  H  H97  1  0.97169000  0.68924000  0.79925000  1.0
  H  H98  1  0.37949000  0.59692000  0.77296000  1.0
  H  H99  1  0.12051000  0.22705000  0.40308000  1.0
  H  H100  1  0.62051000  0.40308000  0.22704000  1.0
  H  H101  1  0.87950000  0.77296000  0.59691000  1.0
  H  H102  1  0.44648000  0.66381000  0.79502000  1.0
  H  H103  1  0.05352000  0.20498000  0.33619000  1.0
  H  H104  1  0.55352000  0.33620000  0.20497000  1.0
  H  H105  1  0.94648000  0.79503000  0.66379000  1.0
  H  H106  1  0.50666000  0.58686000  0.76148000  1.0
  H  H107  1  0.99333000  0.23852000  0.41314000  1.0
  H  H108  1  0.49334000  0.41315000  0.23852000  1.0
  H  H109  1  0.00667000  0.76148000  0.58685000  1.0
  H  H110  1  0.37173000  0.63408000  0.61512000  1.0
  H  H111  1  0.12826000  0.38488000  0.36592000  1.0
  H  H112  1  0.62827000  0.36591000  0.38488000  1.0
  H  H113  1  0.87174000  0.61512000  0.63408000  1.0
  H  H114  1  0.49659000  0.63709000  0.58697000  1.0
  H  H115  1  0.00341000  0.41304000  0.36291000  1.0
  H  H116  1  0.50341000  0.36290000  0.41303000  1.0
  H  H117  1  0.99659000  0.58697000  0.63709000  1.0
  H  H118  1  0.42088000  0.73602000  0.52808000  1.0
  H  H119  1  0.07911000  0.47192000  0.26398000  1.0
  H  H120  1  0.57911000  0.26396000  0.47192000  1.0
  H  H121  1  0.92089000  0.52808000  0.73603000  1.0
  C  C122  1  0.67887000  0.97044000  0.66969000  1.0
  C  C123  1  0.82112000  0.33029000  0.02958000  1.0
  C  C124  1  0.32112000  0.02957000  0.33030000  1.0
  C  C125  1  0.17887000  0.66969000  0.97044000  1.0
  C  C126  1  0.63434000  0.05709000  0.62920000  1.0
  C  C127  1  0.86565000  0.37079000  0.94293000  1.0
  C  C128  1  0.36565000  0.94291000  0.37079000  1.0
  C  C129  1  0.13434000  0.62921000  0.05710000  1.0
  C  C130  1  0.61698000  0.10421000  0.67602000  1.0
  C  C131  1  0.88302000  0.32397000  0.89581000  1.0
  C  C132  1  0.38302000  0.89579000  0.32397000  1.0
  C  C133  1  0.11698000  0.67603000  0.10421000  1.0
  C  C134  1  0.64429000  0.06679000  0.76428000  1.0
  C  C135  1  0.85572000  0.23571000  0.93322000  1.0
  C  C136  1  0.35572000  0.93321000  0.23572000  1.0
  C  C137  1  0.14429000  0.76428000  0.06679000  1.0
  C  C138  1  0.68927000  0.97987000  0.80431000  1.0
  C  C139  1  0.81075000  0.19567000  0.02014000  1.0
  C  C140  1  0.31075000  0.02014000  0.19568000  1.0
  C  C141  1  0.18926000  0.80431000  0.97987000  1.0
  C  C142  1  0.70655000  0.93235000  0.75776000  1.0
  C  C143  1  0.79346000  0.24221000  0.06766000  1.0
  C  C144  1  0.29346000  0.06766000  0.24222000  1.0
  C  C145  1  0.20654000  0.75777000  0.93235000  1.0
  C  C146  1  0.63051000  0.11928000  0.81167000  1.0
  C  C147  1  0.86950000  0.18834000  0.88072000  1.0
  C  C148  1  0.36949000  0.88071000  0.18833000  1.0
  C  C149  1  0.13052000  0.81167000  0.11929000  1.0
  C  C150  1  0.63719000  0.21253000  0.76256000  1.0
  C  C151  1  0.86282000  0.23745000  0.78747000  1.0
  C  C152  1  0.36281000  0.78746000  0.23744000  1.0
  C  C153  1  0.13719000  0.76255000  0.21254000  1.0
  C  C154  1  0.63118000  0.26504000  0.80458000  1.0
  C  C155  1  0.86883000  0.19544000  0.73496000  1.0
  C  C156  1  0.36882000  0.73495000  0.19543000  1.0
  C  C157  1  0.13118000  0.80457000  0.26505000  1.0
  C  C158  1  0.61783000  0.22118000  0.89842000  1.0
  C  C159  1  0.88218000  0.10160000  0.77881000  1.0
  C  C160  1  0.38219000  0.77881000  0.10159000  1.0
  C  C161  1  0.11782000  0.89841000  0.22119000  1.0
  C  C162  1  0.61042000  0.12798000  0.94986000  1.0
  C  C163  1  0.88959000  0.05014000  0.87201000  1.0
  C  C164  1  0.38960000  0.87201000  0.05014000  1.0
  C  C165  1  0.11041000  0.94987000  0.12799000  1.0
  C  C166  1  0.61583000  0.07778000  0.90539000  1.0
  C  C167  1  0.88418000  0.09462000  0.92221000  1.0
  C  C168  1  0.38418000  0.92221000  0.09461000  1.0
  C  C169  1  0.11583000  0.90539000  0.07779000  1.0
  C  C170  1  0.64496000  0.36257000  0.75177000  1.0
  C  C171  1  0.85504000  0.24825000  0.63742000  1.0
  C  C172  1  0.35503000  0.63742000  0.24824000  1.0
  C  C173  1  0.14497000  0.75176000  0.36259000  1.0
  C  C174  1  0.64129000  0.40966000  0.65770000  1.0
  C  C175  1  0.85871000  0.34232000  0.59033000  1.0
  C  C176  1  0.35869000  0.59033000  0.34231000  1.0
  C  C177  1  0.14130000  0.65769000  0.40968000  1.0
  C  C178  1  0.65865000  0.50023000  0.60742000  1.0
  C  C179  1  0.84135000  0.39260000  0.49977000  1.0
  C  C180  1  0.34134000  0.49976000  0.39258000  1.0
  C  C181  1  0.15866000  0.60742000  0.50024000  1.0
  C  C182  1  0.67626000  0.54798000  0.64998000  1.0
  C  C183  1  0.82373000  0.35003000  0.45202000  1.0
  C  C184  1  0.32373000  0.45201000  0.35001000  1.0
  C  C185  1  0.17627000  0.64998000  0.54799000  1.0
  C  C186  1  0.67897000  0.50234000  0.74369000  1.0
  C  C187  1  0.82103000  0.25632000  0.49766000  1.0
  C  C188  1  0.32103000  0.49765000  0.25630000  1.0
  C  C189  1  0.17898000  0.74369000  0.50235000  1.0
  C  C190  1  0.66540000  0.41096000  0.79338000  1.0
  C  C191  1  0.83461000  0.20664000  0.58904000  1.0
  C  C192  1  0.33460000  0.58903000  0.20662000  1.0
  C  C193  1  0.16540000  0.79338000  0.41097000  1.0
  C  C194  1  0.60044000  0.08470000  0.04889000  1.0
  C  C195  1  0.89956000  0.95111000  0.91529000  1.0
  C  C196  1  0.39957000  0.91529000  0.95111000  1.0
  C  C197  1  0.10044000  0.04889000  0.08471000  1.0
  C  C198  1  0.56523000  0.13450000  0.09170000  1.0
  C  C199  1  0.93478000  0.90830000  0.86549000  1.0
  C  C200  1  0.43478000  0.86549000  0.90830000  1.0
  C  C201  1  0.06522000  0.09170000  0.13451000  1.0
  C  C202  1  0.56033000  0.09586000  0.18444000  1.0
  C  C203  1  0.93967000  0.81557000  0.90413000  1.0
  C  C204  1  0.43968000  0.90413000  0.81556000  1.0
  C  C205  1  0.06032000  0.18444000  0.09587000  1.0
  C  C206  1  0.59150000  0.00600000  0.23816000  1.0
  C  C207  1  0.90851000  0.76185000  0.99399000  1.0
  C  C208  1  0.40851000  0.99399000  0.76184000  1.0
  C  C209  1  0.09149000  0.23816000  0.00601000  1.0
  C  C210  1  0.62480000  0.95484000  0.19678000  1.0
  C  C211  1  0.87519000  0.80323000  0.04515000  1.0
  C  C212  1  0.37520000  0.04515000  0.80323000  1.0
  C  C213  1  0.12480000  0.19678000  0.95485000  1.0
  C  C214  1  0.62933000  0.99368000  0.10368000  1.0
  C  C215  1  0.87067000  0.89634000  0.00630000  1.0
  C  C216  1  0.37068000  0.00631000  0.89633000  1.0
  C  C217  1  0.12932000  0.10367000  0.99370000  1.0
  C  C218  1  0.69579000  0.91744000  0.62163000  1.0
  C  C219  1  0.80419000  0.37834000  0.08258000  1.0
  C  C220  1  0.30419000  0.08257000  0.37836000  1.0
  C  C221  1  0.19579000  0.62163000  0.91745000  1.0
  C  C222  1  0.68904000  0.64673000  0.59606000  1.0
  C  C223  1  0.81095000  0.40395000  0.35327000  1.0
  C  C224  1  0.31097000  0.35326000  0.40392000  1.0
  C  C225  1  0.18904000  0.59607000  0.64674000  1.0
  C  C226  1  0.59304000  0.96863000  0.33763000  1.0
  C  C227  1  0.90695000  0.66236000  0.03138000  1.0
  C  C228  1  0.40696000  0.03137000  0.66236000  1.0
  C  C229  1  0.09304000  0.33764000  0.96863000  1.0
  C  C230  1  0.84925000  0.83791000  0.38227000  1.0
  C  C231  1  0.65075000  0.61772000  0.16208000  1.0
  C  C232  1  0.15075000  0.16210000  0.61772000  1.0
  C  C233  1  0.34925000  0.38228000  0.83790000  1.0
  C  C234  1  0.87921000  0.84033000  0.23946000  1.0
  C  C235  1  0.62080000  0.76053000  0.15967000  1.0
  C  C236  1  0.12080000  0.15967000  0.76054000  1.0
  C  C237  1  0.37920000  0.23947000  0.84032000  1.0
  C  C238  1  0.85203000  0.98264000  0.24517000  1.0
  C  C239  1  0.64797000  0.75483000  0.01736000  1.0
  C  C240  1  0.14797000  0.01737000  0.75481000  1.0
  C  C241  1  0.35203000  0.24518000  0.98263000  1.0
  C  C242  1  0.46535000  0.78625000  0.63351000  1.0
  C  C243  1  0.03464000  0.36649000  0.21375000  1.0
  C  C244  1  0.53464000  0.21375000  0.36648000  1.0
  C  C245  1  0.96535000  0.63352000  0.78626000  1.0
  C  C246  1  0.44401000  0.63348000  0.75255000  1.0
  C  C247  1  0.05599000  0.24746000  0.36651000  1.0
  C  C248  1  0.55599000  0.36652000  0.24745000  1.0
  C  C249  1  0.94402000  0.75255000  0.63348000  1.0
  C  C250  1  0.43232000  0.67618000  0.59317000  1.0
  C  C251  1  0.06767000  0.40683000  0.32382000  1.0
  C  C252  1  0.56768000  0.32380000  0.40683000  1.0
  C  C253  1  0.93232000  0.59317000  0.67619000  1.0
  N  N254  1  0.86358000  0.88506000  0.29286000  1.0
  N  N255  1  0.63642000  0.70714000  0.11494000  1.0
  N  N256  1  0.13642000  0.11495000  0.70714000  1.0
  N  N257  1  0.36358000  0.29286000  0.88505000  1.0
  N  N258  1  0.44282000  0.70359000  0.65899000  1.0
  N  N259  1  0.05718000  0.34101000  0.29641000  1.0
  N  N260  1  0.55718000  0.29641000  0.34100000  1.0
  N  N261  1  0.94282000  0.65900000  0.70359000  1.0
  O  O262  1  0.74931000  0.84731000  0.65112000  1.0
  O  O263  1  0.75066000  0.34885000  0.15270000  1.0
  O  O264  1  0.25067000  0.15269000  0.34886000  1.0
  O  O265  1  0.24932000  0.65112000  0.84732000  1.0
  O  O266  1  0.65230000  0.94686000  0.54784000  1.0
  O  O267  1  0.84768000  0.45213000  0.05317000  1.0
  O  O268  1  0.34767000  0.05315000  0.45215000  1.0
  O  O269  1  0.15231000  0.54784000  0.94686000  1.0
  O  O270  1  0.72328000  0.68093000  0.51566000  1.0
  O  O271  1  0.77672000  0.48435000  0.31906000  1.0
  O  O272  1  0.27674000  0.31904000  0.48433000  1.0
  O  O273  1  0.22326000  0.51566000  0.68095000  1.0
  O  O274  1  0.66214000  0.69305000  0.63564000  1.0
  O  O275  1  0.83784000  0.36435000  0.30696000  1.0
  O  O276  1  0.33786000  0.30695000  0.36432000  1.0
  O  O277  1  0.16215000  0.63566000  0.69305000  1.0
  O  O278  1  0.56162000  0.02256000  0.36632000  1.0
  O  O279  1  0.93838000  0.63368000  0.97744000  1.0
  O  O280  1  0.43838000  0.97743000  0.63368000  1.0
  O  O281  1  0.06161000  0.36632000  0.02257000  1.0
  O  O282  1  0.62724000  0.88834000  0.38370000  1.0
  O  O283  1  0.87276000  0.61630000  0.11166000  1.0
  O  O284  1  0.37276000  0.11165000  0.61630000  1.0
  O  O285  1  0.12723000  0.38371000  0.88835000  1.0
  O  O286  1  0.83139000  0.87250000  0.43199000  1.0
  O  O287  1  0.66861000  0.56800000  0.12749000  1.0
  O  O288  1  0.16861000  0.12751000  0.56799000  1.0
  O  O289  1  0.33139000  0.43200000  0.87250000  1.0
  O  O290  1  0.47874000  0.84623000  0.55271000  1.0
  O  O291  1  0.02124000  0.44729000  0.15377000  1.0
  O  O292  1  0.52124000  0.15377000  0.44726000  1.0
  O  O293  1  0.97874000  0.55274000  0.84623000  1.0
