# generated using pymatgen
data_CuH6C2(N2O)6
_symmetry_space_group_name_H-M   'P 1'
_cell_length_a   7.98636000
_cell_length_b   8.12301000
_cell_length_c   8.95374000
_cell_angle_alpha   90.00000000
_cell_angle_beta   90.00000000
_cell_angle_gamma   107.62300000
_symmetry_Int_Tables_number   1
_chemical_formula_structural   CuH6C2(N2O)6
_chemical_formula_sum   'Cu2 H12 C4 N24 O12'
_cell_volume   553.59835405
_cell_formula_units_Z   2
loop_
 _symmetry_equiv_pos_site_id
 _symmetry_equiv_pos_as_xyz
  1  'x, y, z'
loop_
 _atom_site_type_symbol
 _atom_site_label
 _atom_site_symmetry_multiplicity
 _atom_site_fract_x
 _atom_site_fract_y
 _atom_site_fract_z
 _atom_site_occupancy
  Cu  Cu0  1  0.00000000  0.00000000  0.00000000  1.0
  Cu  Cu1  1  0.50000000  0.50000000  0.50000000  1.0
  H  H2  1  0.57533000  0.86255000  0.94496000  1.0
  H  H3  1  0.92467000  0.63745000  0.44496000  1.0
  H  H4  1  0.42467000  0.13745000  0.05504000  1.0
  H  H5  1  0.07533000  0.36255000  0.55504000  1.0
  H  H6  1  0.62745000  0.88500000  0.50991000  1.0
  H  H7  1  0.87255000  0.61500000  0.00991000  1.0
  H  H8  1  0.37255000  0.11500000  0.49009000  1.0
  H  H9  1  0.12745000  0.38500000  0.99009000  1.0
  H  H10  1  0.41893000  0.82210000  0.43947000  1.0
  H  H11  1  0.08107000  0.67790000  0.93947000  1.0
  H  H12  1  0.58107000  0.17790000  0.56053000  1.0
  H  H13  1  0.91893000  0.32210000  0.06053000  1.0
  C  C14  1  0.61222000  0.86828000  0.06181000  1.0
  C  C15  1  0.88777000  0.63172000  0.56181000  1.0
  C  C16  1  0.38777000  0.13173000  0.93819000  1.0
  C  C17  1  0.11223000  0.36827000  0.43819000  1.0
  N  N18  1  0.49818000  0.82288000  0.17452000  1.0
  N  N19  1  0.00182000  0.67712000  0.67452000  1.0
  N  N20  1  0.50182000  0.17712000  0.82548000  1.0
  N  N21  1  0.99818000  0.32288000  0.32548000  1.0
  N  N22  1  0.60527000  0.85333000  0.29190000  1.0
  N  N23  1  0.89473000  0.64667000  0.79191000  1.0
  N  N24  1  0.39473000  0.14667000  0.70809000  1.0
  N  N25  1  0.10527000  0.35333000  0.20809000  1.0
  N  N26  1  0.77404000  0.91180000  0.26222000  1.0
  N  N27  1  0.72596000  0.58820000  0.76222000  1.0
  N  N28  1  0.22596000  0.08820000  0.73778000  1.0
  N  N29  1  0.27404000  0.41180000  0.23778000  1.0
  N  N30  1  0.77898000  0.92256000  0.11308000  1.0
  N  N31  1  0.72103000  0.57744000  0.61308000  1.0
  N  N32  1  0.22103000  0.07744000  0.88693000  1.0
  N  N33  1  0.27897000  0.42256000  0.38692000  1.0
  N  N34  1  0.85232000  0.12073000  0.72671000  1.0
  N  N35  1  0.64769000  0.37927000  0.22671000  1.0
  N  N36  1  0.14768000  0.87927000  0.27329000  1.0
  N  N37  1  0.35231000  0.62073000  0.77329000  1.0
  N  N38  1  0.54250000  0.80691000  0.43359000  1.0
  N  N39  1  0.95750000  0.69309000  0.93359000  1.0
  N  N40  1  0.45750000  0.19309000  0.56641000  1.0
  N  N41  1  0.04250000  0.30691000  0.06641000  1.0
  O  O42  1  0.84875000  0.98792000  0.80804000  1.0
  O  O43  1  0.65125000  0.51208000  0.30804000  1.0
  O  O44  1  0.15125000  0.01208000  0.19196000  1.0
  O  O45  1  0.34875000  0.48792000  0.69196000  1.0
  O  O46  1  0.93011000  0.26993000  0.76946000  1.0
  O  O47  1  0.56990000  0.23007000  0.26946000  1.0
  O  O48  1  0.06990000  0.73007000  0.23054000  1.0
  O  O49  1  0.43011000  0.76993000  0.73054000  1.0
  O  O50  1  0.77491000  0.09107000  0.60203000  1.0
  O  O51  1  0.72509000  0.40893000  0.10203000  1.0
  O  O52  1  0.22509000  0.90893000  0.39797000  1.0
  O  O53  1  0.27491000  0.59107000  0.89797000  1.0
