# generated using pymatgen
data_CdH8C12(NO2)2
_symmetry_space_group_name_H-M   'P 1'
_cell_length_a   7.82173000
_cell_length_b   12.31980000
_cell_length_c   12.77010000
_cell_angle_alpha   104.83800000
_cell_angle_beta   90.00000000
_cell_angle_gamma   90.00000000
_symmetry_Int_Tables_number   1
_chemical_formula_structural   CdH8C12(NO2)2
_chemical_formula_sum   'Cd4 H32 C48 N8 O16'
_cell_volume   1189.51992122
_cell_formula_units_Z   4
loop_
 _symmetry_equiv_pos_site_id
 _symmetry_equiv_pos_as_xyz
  1  'x, y, z'
loop_
 _atom_site_type_symbol
 _atom_site_label
 _atom_site_symmetry_multiplicity
 _atom_site_fract_x
 _atom_site_fract_y
 _atom_site_fract_z
 _atom_site_occupancy
  Cd  Cd0  1  0.87739000  0.16012000  0.38507000  1.0
  Cd  Cd1  1  0.37739000  0.33988000  0.11493000  1.0
  Cd  Cd2  1  0.12260000  0.83988000  0.61493000  1.0
  Cd  Cd3  1  0.62261000  0.66012000  0.88507000  1.0
  H  H4  1  0.47884000  0.12060000  0.37964000  1.0
  H  H5  1  0.97885000  0.37940000  0.12036000  1.0
  H  H6  1  0.52115000  0.87941000  0.62036000  1.0
  H  H7  1  0.02116000  0.62059000  0.87964000  1.0
  H  H8  1  0.27876000  0.16060000  0.70109000  1.0
  H  H9  1  0.77876000  0.33940000  0.79891000  1.0
  H  H10  1  0.72123000  0.83940000  0.29891000  1.0
  H  H11  1  0.22124000  0.66060000  0.20109000  1.0
  H  H12  1  0.58130000  0.17397000  0.76973000  1.0
  H  H13  1  0.08131000  0.32603000  0.73027000  1.0
  H  H14  1  0.41869000  0.82602000  0.23027000  1.0
  H  H15  1  0.91870000  0.67397000  0.26973000  1.0
  H  H16  1  0.82100000  0.15802000  0.63370000  1.0
  H  H17  1  0.32100000  0.34198000  0.86630000  1.0
  H  H18  1  0.17900000  0.84198000  0.36630000  1.0
  H  H19  1  0.67901000  0.65802000  0.13370000  1.0
  H  H20  1  0.65408000  0.86885000  0.08880000  1.0
  H  H21  1  0.15409000  0.63116000  0.41121000  1.0
  H  H22  1  0.34591000  0.13116000  0.91120000  1.0
  H  H23  1  0.84591000  0.36884000  0.58880000  1.0
  H  H24  1  0.86181000  0.15087000  0.99188000  1.0
  H  H25  1  0.36181000  0.34913000  0.50812000  1.0
  H  H26  1  0.13819000  0.84913000  0.00812000  1.0
  H  H27  1  0.63819000  0.65087000  0.49188000  1.0
  H  H28  1  0.81308000  0.04207000  0.79598000  1.0
  H  H29  1  0.31307000  0.45793000  0.70402000  1.0
  H  H30  1  0.18693000  0.95793000  0.20402000  1.0
  H  H31  1  0.68693000  0.54207000  0.29598000  1.0
  H  H32  1  0.69798000  0.84777000  0.76029000  1.0
  H  H33  1  0.19798000  0.65222000  0.73971000  1.0
  H  H34  1  0.30203000  0.15222000  0.23971000  1.0
  H  H35  1  0.80202000  0.34777000  0.26029000  1.0
  C  C36  1  0.49688000  0.13208000  0.46635000  1.0
  C  C37  1  0.99688000  0.36791000  0.03365000  1.0
  C  C38  1  0.50311000  0.86792000  0.53365000  1.0
  C  C39  1  0.00312000  0.63208000  0.96635000  1.0
  C  C40  1  0.35643000  0.14120000  0.53557000  1.0
  C  C41  1  0.85643000  0.35880000  0.96443000  1.0
  C  C42  1  0.64356000  0.85881000  0.46443000  1.0
  C  C43  1  0.14357000  0.64119000  0.03557000  1.0
  C  C44  1  0.38661000  0.15569000  0.64627000  1.0
  C  C45  1  0.88661000  0.34431000  0.85373000  1.0
  C  C46  1  0.61338000  0.84432000  0.35373000  1.0
  C  C47  1  0.11339000  0.65568000  0.14627000  1.0
  C  C48  1  0.55418000  0.16101000  0.68371000  1.0
  C  C49  1  0.05418000  0.33899000  0.81629000  1.0
  C  C50  1  0.44582000  0.83899000  0.31629000  1.0
  C  C51  1  0.94582000  0.66101000  0.18371000  1.0
  C  C52  1  0.68704000  0.15322000  0.60956000  1.0
  C  C53  1  0.18704000  0.34678000  0.89044000  1.0
  C  C54  1  0.31295000  0.84678000  0.39044000  1.0
  C  C55  1  0.81296000  0.65322000  0.10956000  1.0
  C  C56  1  0.17839000  0.14365000  0.49312000  1.0
  C  C57  1  0.67839000  0.35635000  0.00688000  1.0
  C  C58  1  0.82161000  0.85635000  0.50688000  1.0
  C  C59  1  0.32162000  0.64365000  0.99312000  1.0
  C  C60  1  0.69123000  0.90995000  0.02620000  1.0
  C  C61  1  0.19123000  0.59006000  0.47380000  1.0
  C  C62  1  0.30876000  0.09005000  0.97380000  1.0
  C  C63  1  0.80877000  0.40995000  0.52620000  1.0
  C  C64  1  0.76044000  0.01787000  0.05412000  1.0
  C  C65  1  0.26044000  0.48213000  0.44588000  1.0
  C  C66  1  0.23956000  0.98213000  0.94588000  1.0
  C  C67  1  0.73957000  0.51787000  0.55412000  1.0
  C  C68  1  0.80464000  0.06752000  0.97079000  1.0
  C  C69  1  0.30464000  0.43248000  0.52921000  1.0
  C  C70  1  0.19536000  0.93248000  0.02921000  1.0
  C  C71  1  0.69537000  0.56752000  0.47079000  1.0
  C  C72  1  0.77843000  0.00819000  0.86383000  1.0
  C  C73  1  0.27842000  0.49181000  0.63617000  1.0
  C  C74  1  0.22158000  0.99180000  0.13617000  1.0
  C  C75  1  0.72158000  0.50819000  0.36383000  1.0
  C  C76  1  0.71314000  0.89956000  0.84268000  1.0
  C  C77  1  0.21313000  0.60044000  0.65732000  1.0
  C  C78  1  0.28687000  0.10044000  0.15731000  1.0
  C  C79  1  0.78687000  0.39956000  0.34269000  1.0
  C  C80  1  0.79753000  0.07577000  0.16998000  1.0
  C  C81  1  0.29753000  0.42423000  0.33002000  1.0
  C  C82  1  0.20246000  0.92423000  0.83001000  1.0
  C  C83  1  0.70247000  0.57578000  0.66999000  1.0
  N  N84  1  0.65877000  0.13933000  0.50280000  1.0
  N  N85  1  0.15878000  0.36067000  0.99720000  1.0
  N  N86  1  0.34122000  0.86067000  0.49720000  1.0
  N  N87  1  0.84123000  0.63933000  0.00279000  1.0
  N  N88  1  0.67029000  0.85144000  0.92258000  1.0
  N  N89  1  0.17029000  0.64856000  0.57742000  1.0
  N  N90  1  0.32971000  0.14857000  0.07742000  1.0
  N  N91  1  0.82971000  0.35143000  0.42258000  1.0
  O  O92  1  0.06328000  0.19239000  0.55799000  1.0
  O  O93  1  0.56328000  0.30761000  0.94201000  1.0
  O  O94  1  0.93671000  0.80761000  0.44201000  1.0
  O  O95  1  0.43672000  0.69239000  0.05799000  1.0
  O  O96  1  0.15252000  0.09985000  0.39185000  1.0
  O  O97  1  0.65252000  0.40015000  0.10815000  1.0
  O  O98  1  0.84748000  0.90015000  0.60815000  1.0
  O  O99  1  0.34748000  0.59986000  0.89185000  1.0
  O  O100  1  0.87768000  0.16830000  0.19092000  1.0
  O  O101  1  0.37767000  0.33170000  0.30908000  1.0
  O  O102  1  0.12232000  0.83170000  0.80908000  1.0
  O  O103  1  0.62232000  0.66830000  0.69092000  1.0
  O  O104  1  0.75098000  0.02705000  0.24291000  1.0
  O  O105  1  0.25099000  0.47295000  0.25709000  1.0
  O  O106  1  0.24900000  0.97295000  0.75709000  1.0
  O  O107  1  0.74902000  0.52705000  0.74291000  1.0
