# generated using pymatgen
data_Zn4H24C40N4O21
_symmetry_space_group_name_H-M   'P 1'
_cell_length_a   23.87921857
_cell_length_b   23.87900000
_cell_length_c   23.87640000
_cell_angle_alpha   72.31100000
_cell_angle_beta   66.89603652
_cell_angle_gamma   107.68815233
_symmetry_Int_Tables_number   1
_chemical_formula_structural   Zn4H24C40N4O21
_chemical_formula_sum   'Zn8 H48 C80 N8 O42'
_cell_volume   10448.06412500
_cell_formula_units_Z   2
loop_
 _symmetry_equiv_pos_site_id
 _symmetry_equiv_pos_as_xyz
  1  'x, y, z'
loop_
 _atom_site_type_symbol
 _atom_site_label
 _atom_site_symmetry_multiplicity
 _atom_site_fract_x
 _atom_site_fract_y
 _atom_site_fract_z
 _atom_site_occupancy
  Zn  Zn0  1  0.48792000  0.44448000  0.45610000  1.0
  Zn  Zn1  1  0.45611000  0.55553000  0.48791000  1.0
  Zn  Zn2  1  0.45655000  0.44447000  0.59943000  1.0
  Zn  Zn3  1  0.59943000  0.55553000  0.45654000  1.0
  Zn  Zn4  1  0.01208000  0.55596000  0.04346000  1.0
  Zn  Zn5  1  0.04390000  0.55598000  0.90057000  1.0
  Zn  Zn6  1  0.04345000  0.44403000  0.01209000  1.0
  Zn  Zn7  1  0.90058000  0.44401000  0.04390000  1.0
  H  H8  1  0.18049000  0.89042000  0.90043000  1.0
  H  H9  1  0.20999000  0.89045000  0.70912000  1.0
  H  H10  1  0.27955000  0.10985000  0.79288000  1.0
  H  H11  1  0.33037000  0.10989000  0.59725000  1.0
  H  H12  1  0.70915000  0.10955000  0.20995000  1.0
  H  H13  1  0.90043000  0.10958000  0.18049000  1.0
  H  H14  1  0.59727000  0.89013000  0.33035000  1.0
  H  H15  1  0.79286000  0.89014000  0.27956000  1.0
  H  H16  1  0.16967000  0.57239000  0.22047000  1.0
  H  H17  1  0.22045000  0.42758000  0.16970000  1.0
  H  H18  1  0.29004000  0.58089000  0.31952000  1.0
  H  H19  1  0.31948000  0.41907000  0.29008000  1.0
  H  H20  1  0.90273000  0.57237000  0.70713000  1.0
  H  H21  1  0.70713000  0.42758000  0.90275000  1.0
  H  H22  1  0.79086000  0.58088000  0.59957000  1.0
  H  H23  1  0.59957000  0.41908000  0.79087000  1.0
  H  H24  1  0.75034000  0.59542000  0.32974000  1.0
  H  H25  1  0.83230000  0.63508000  0.25702000  1.0
  H  H26  1  0.74967000  0.41988000  0.15494000  1.0
  H  H27  1  0.66773000  0.41066000  0.19720000  1.0
  H  H28  1  0.92516000  0.58007000  0.17026000  1.0
  H  H29  1  0.89211000  0.58931000  0.24297000  1.0
  H  H30  1  0.57484000  0.40462000  0.34505000  1.0
  H  H31  1  0.60786000  0.36494000  0.30278000  1.0
  H  H32  1  0.32973000  0.40459000  0.75033000  1.0
  H  H33  1  0.25703000  0.36492000  0.83230000  1.0
  H  H34  1  0.15493000  0.58007000  0.74965000  1.0
  H  H35  1  0.19724000  0.58934000  0.66769000  1.0
  H  H36  1  0.17021000  0.41987000  0.92519000  1.0
  H  H37  1  0.24293000  0.41065000  0.89214000  1.0
  H  H38  1  0.34507000  0.59541000  0.57480000  1.0
  H  H39  1  0.30281000  0.63508000  0.60785000  1.0
  H  H40  1  0.09133000  0.71408000  0.99228000  1.0
  H  H41  1  0.12276000  0.71412000  0.79361000  1.0
  H  H42  1  0.36803000  0.28634000  0.70781000  1.0
  H  H43  1  0.41838000  0.28638000  0.50584000  1.0
  H  H44  1  0.79365000  0.28589000  0.12272000  1.0
  H  H45  1  0.99225000  0.28591000  0.09135000  1.0
  H  H46  1  0.50586000  0.71364000  0.41835000  1.0
  H  H47  1  0.70778000  0.71365000  0.36804000  1.0
  H  H48  1  0.08167000  0.57579000  0.13198000  1.0
  H  H49  1  0.13199000  0.42417000  0.08167000  1.0
  H  H50  1  0.37727000  0.58362000  0.40863000  1.0
  H  H51  1  0.40862000  0.41638000  0.37728000  1.0
  H  H52  1  0.99413000  0.57578000  0.79221000  1.0
  H  H53  1  0.79218000  0.42417000  0.99418000  1.0
  H  H54  1  0.70637000  0.58361000  0.50772000  1.0
  H  H55  1  0.50774000  0.41639000  0.70636000  1.0
  C  C56  1  0.40809000  0.49999000  0.40813000  1.0
  C  C57  1  0.36040000  0.50001000  0.63960000  1.0
  C  C58  1  0.40828000  0.31651000  0.59175000  1.0
  C  C59  1  0.59190000  0.50000000  0.59188000  1.0
  C  C60  1  0.63960000  0.50000000  0.36039000  1.0
  C  C61  1  0.59175000  0.68350000  0.40827000  1.0
  C  C62  1  0.09190000  0.68377000  0.90810000  1.0
  C  C63  1  0.13961000  0.50000000  0.86040000  1.0
  C  C64  1  0.09177000  0.49999000  0.09174000  1.0
  C  C65  1  0.90811000  0.31622000  0.09187000  1.0
  C  C66  1  0.86039000  0.49999000  0.13961000  1.0
  C  C67  1  0.90823000  0.49999000  0.90827000  1.0
  C  C68  1  0.69540000  0.50001000  0.30459000  1.0
  C  C69  1  0.80460000  0.49999000  0.19540000  1.0
  C  C70  1  0.76679000  0.54484000  0.27567000  1.0
  C  C71  1  0.73321000  0.45752000  0.22195000  1.0
  C  C72  1  0.82052000  0.54246000  0.22433000  1.0
  C  C73  1  0.67948000  0.45516000  0.27804000  1.0
  C  C74  1  0.30461000  0.50001000  0.69539000  1.0
  C  C75  1  0.19540000  0.50000000  0.80460000  1.0
  C  C76  1  0.27567000  0.45515000  0.76679000  1.0
  C  C77  1  0.22196000  0.54247000  0.73320000  1.0
  C  C78  1  0.22432000  0.45753000  0.82053000  1.0
  C  C79  1  0.27806000  0.54485000  0.67946000  1.0
  C  C80  1  0.12831000  0.75660000  0.87169000  1.0
  C  C81  1  0.13841000  0.79376000  0.90737000  1.0
  C  C82  1  0.17347000  0.86362000  0.87209000  1.0
  C  C83  1  0.19928000  0.89851000  0.80074000  1.0
  C  C84  1  0.19020000  0.86364000  0.76427000  1.0
  C  C85  1  0.15539000  0.79379000  0.79884000  1.0
  C  C86  1  0.23480000  0.96953000  0.76523000  1.0
  C  C87  1  0.26543000  0.03078000  0.73460000  1.0
  C  C88  1  0.30094000  0.10181000  0.69909000  1.0
  C  C89  1  0.30409000  0.13670000  0.73677000  1.0
  C  C90  1  0.33905000  0.20653000  0.70217000  1.0
  C  C91  1  0.37188000  0.24369000  0.62816000  1.0
  C  C92  1  0.36756000  0.20656000  0.59128000  1.0
  C  C93  1  0.33268000  0.13672000  0.62652000  1.0
  C  C94  1  0.87171000  0.24341000  0.12828000  1.0
  C  C95  1  0.79887000  0.20623000  0.15535000  1.0
  C  C96  1  0.76430000  0.13637000  0.19015000  1.0
  C  C97  1  0.80075000  0.10149000  0.19925000  1.0
  C  C98  1  0.87209000  0.13637000  0.17345000  1.0
  C  C99  1  0.90737000  0.20623000  0.13839000  1.0
  C  C100  1  0.76524000  0.03047000  0.23477000  1.0
  C  C101  1  0.73462000  0.96923000  0.26539000  1.0
  C  C102  1  0.69910000  0.89820000  0.30092000  1.0
  C  C103  1  0.62654000  0.86330000  0.33266000  1.0
  C  C104  1  0.59130000  0.79346000  0.36753000  1.0
  C  C105  1  0.62816000  0.75632000  0.37187000  1.0
  C  C106  1  0.70216000  0.79346000  0.33905000  1.0
  C  C107  1  0.73676000  0.86330000  0.30409000  1.0
  C  C108  1  0.12817000  0.49999000  0.12816000  1.0
  C  C109  1  0.13249000  0.54118000  0.16097000  1.0
  C  C110  1  0.16736000  0.54082000  0.19594000  1.0
  C  C111  1  0.19909000  0.49999000  0.19911000  1.0
  C  C112  1  0.19594000  0.45917000  0.16737000  1.0
  C  C113  1  0.16098000  0.45880000  0.13249000  1.0
  C  C114  1  0.23459000  0.49998000  0.23464000  1.0
  C  C115  1  0.26521000  0.49998000  0.26526000  1.0
  C  C116  1  0.30072000  0.49997000  0.30077000  1.0
  C  C117  1  0.30981000  0.54552000  0.32656000  1.0
  C  C118  1  0.34462000  0.54576000  0.36161000  1.0
  C  C119  1  0.37168000  0.49998000  0.37172000  1.0
  C  C120  1  0.36157000  0.45421000  0.34465000  1.0
  C  C121  1  0.32650000  0.45443000  0.30987000  1.0
  C  C122  1  0.87183000  0.49998000  0.87185000  1.0
  C  C123  1  0.90869000  0.54116000  0.79784000  1.0
  C  C124  1  0.87346000  0.54080000  0.76324000  1.0
  C  C125  1  0.80090000  0.49997000  0.80090000  1.0
  C  C126  1  0.76323000  0.45916000  0.87348000  1.0
  C  C127  1  0.79783000  0.45880000  0.90872000  1.0
  C  C128  1  0.76538000  0.49996000  0.76539000  1.0
  C  C129  1  0.73477000  0.49997000  0.73477000  1.0
  C  C130  1  0.69925000  0.49997000  0.69926000  1.0
  C  C131  1  0.73571000  0.54551000  0.62791000  1.0
  C  C132  1  0.70115000  0.54576000  0.59262000  1.0
  C  C133  1  0.62830000  0.49999000  0.62830000  1.0
  C  C134  1  0.59263000  0.45422000  0.70115000  1.0
  C  C135  1  0.62791000  0.45443000  0.73572000  1.0
  N  N136  1  0.78905000  0.59096000  0.29655000  1.0
  N  N137  1  0.71095000  0.41436000  0.19811000  1.0
  N  N138  1  0.88752000  0.58560000  0.20344000  1.0
  N  N139  1  0.61247000  0.40906000  0.30189000  1.0
  N  N140  1  0.29656000  0.40905000  0.78905000  1.0
  N  N141  1  0.19810000  0.58561000  0.71094000  1.0
  N  N142  1  0.20341000  0.41436000  0.88754000  1.0
  N  N143  1  0.30191000  0.59096000  0.61245000  1.0
  O  O144  1  0.50000000  0.50001000  0.50000000  1.0
  O  O145  1  0.43198000  0.45797000  0.41585000  1.0
  O  O146  1  0.38371000  0.53942000  0.57556000  1.0
  O  O147  1  0.41216000  0.34810000  0.62688000  1.0
  O  O148  1  0.41583000  0.54202000  0.43200000  1.0
  O  O149  1  0.43599000  0.34811000  0.52503000  1.0
  O  O150  1  0.38502000  0.46061000  0.65570000  1.0
  O  O151  1  0.52599000  0.45800000  0.62618000  1.0
  O  O152  1  0.65571000  0.53941000  0.38500000  1.0
  O  O153  1  0.62621000  0.54201000  0.52596000  1.0
  O  O154  1  0.57558000  0.46060000  0.38369000  1.0
  O  O155  1  0.52504000  0.65190000  0.43596000  1.0
  O  O156  1  0.62687000  0.65191000  0.41216000  1.0
  O  O157  1  1.00000000  0.49999000  0.00001000  1.0
  O  O158  1  0.06799000  0.65216000  0.97402000  1.0
  O  O159  1  0.11631000  0.54072000  0.84429000  1.0
  O  O160  1  0.08788000  0.46099000  0.06403000  1.0
  O  O161  1  0.08419000  0.65217000  0.87379000  1.0
  O  O162  1  0.06406000  0.53900000  0.08785000  1.0
  O  O163  1  0.11499000  0.45927000  0.92443000  1.0
  O  O164  1  0.97402000  0.34784000  0.06799000  1.0
  O  O165  1  0.84429000  0.45927000  0.11631000  1.0
  O  O166  1  0.87381000  0.34782000  0.08415000  1.0
  O  O167  1  0.92442000  0.54072000  0.11498000  1.0
  O  O168  1  0.97496000  0.53900000  0.87313000  1.0
  O  O169  1  0.87311000  0.46099000  0.97499000  1.0
  O  O170  1  0.11478000  0.76315000  0.97574000  1.0
  O  O171  1  0.14840000  0.76319000  0.76107000  1.0
  O  O172  1  0.34050000  0.23729000  0.74097000  1.0
  O  O173  1  0.39687000  0.23733000  0.52173000  1.0
  O  O174  1  0.76111000  0.23682000  0.14836000  1.0
  O  O175  1  0.97573000  0.23684000  0.11478000  1.0
  O  O176  1  0.52175000  0.76269000  0.39684000  1.0
  O  O177  1  0.74095000  0.76270000  0.34050000  1.0
  O  O178  1  0.10318000  0.58142000  0.15951000  1.0
  O  O179  1  0.15952000  0.41855000  0.10319000  1.0
  O  O180  1  0.35162000  0.59052000  0.38521000  1.0
  O  O181  1  0.38518000  0.40946000  0.35165000  1.0
  O  O182  1  0.97825000  0.58141000  0.75905000  1.0
  O  O183  1  0.75903000  0.41855000  0.97828000  1.0
  O  O184  1  0.73891000  0.59051000  0.52425000  1.0
  O  O185  1  0.52426000  0.40947000  0.73892000  1.0
