# generated using pymatgen
data_ZnH10C18Br4(N4O)2
_symmetry_space_group_name_H-M   'P 1'
_cell_length_a   8.94424000
_cell_length_b   10.28970000
_cell_length_c   12.53950000
_cell_angle_alpha   98.94590000
_cell_angle_beta   90.00000000
_cell_angle_gamma   89.99990000
_symmetry_Int_Tables_number   1
_chemical_formula_structural   ZnH10C18Br4(N4O)2
_chemical_formula_sum   'Zn2 H20 C36 Br8 N16 O4'
_cell_volume   1140.01628250
_cell_formula_units_Z   2
loop_
 _symmetry_equiv_pos_site_id
 _symmetry_equiv_pos_as_xyz
  1  'x, y, z'
loop_
 _atom_site_type_symbol
 _atom_site_label
 _atom_site_symmetry_multiplicity
 _atom_site_fract_x
 _atom_site_fract_y
 _atom_site_fract_z
 _atom_site_occupancy
  Zn  Zn0  1  0.50000000  0.50000000  0.00000000  1.0
  Zn  Zn1  1  0.00000000  0.00000000  0.00000000  1.0
  H  H2  1  0.64894000  0.61558000  0.72047000  1.0
  H  H3  1  0.14894000  0.88442000  0.27953000  1.0
  H  H4  1  0.35106000  0.38442000  0.27953000  1.0
  H  H5  1  0.85106000  0.11558000  0.72047000  1.0
  H  H6  1  0.64455000  0.45803000  0.57458000  1.0
  H  H7  1  0.14456000  0.04197000  0.42542000  1.0
  H  H8  1  0.35545000  0.54197000  0.42542000  1.0
  H  H9  1  0.85545000  0.95803000  0.57458000  1.0
  H  H10  1  0.44554000  0.07679000  0.57926000  1.0
  H  H11  1  0.94554000  0.42321000  0.42074000  1.0
  H  H12  1  0.55445000  0.92321000  0.42074000  1.0
  H  H13  1  0.05445000  0.57679000  0.57926000  1.0
  H  H14  1  0.44619000  0.87169000  0.88317000  1.0
  H  H15  1  0.94619000  0.62831000  0.11683000  1.0
  H  H16  1  0.55381000  0.12831000  0.11683000  1.0
  H  H17  1  0.05381000  0.37169000  0.88317000  1.0
  H  H18  1  0.85221000  0.68165000  0.93578000  1.0
  H  H19  1  0.35221000  0.81835000  0.06422000  1.0
  H  H20  1  0.14779000  0.31835000  0.06422000  1.0
  H  H21  1  0.64779000  0.18164000  0.93578000  1.0
  C  C22  1  0.58481000  0.55961000  0.77264000  1.0
  C  C23  1  0.08480000  0.94039000  0.22737000  1.0
  C  C24  1  0.41520000  0.44039000  0.22736000  1.0
  C  C25  1  0.91519000  0.05961000  0.77264000  1.0
  C  C26  1  0.58266000  0.38968000  0.61634000  1.0
  C  C27  1  0.08266000  0.11032000  0.38367000  1.0
  C  C28  1  0.41734000  0.61032000  0.38366000  1.0
  C  C29  1  0.91734000  0.88968000  0.61634000  1.0
  C  C30  1  0.53761000  0.43104000  0.72499000  1.0
  C  C31  1  0.03761000  0.06896000  0.27501000  1.0
  C  C32  1  0.46239000  0.56896000  0.27501000  1.0
  C  C33  1  0.96239000  0.93104000  0.72499000  1.0
  C  C34  1  0.44964000  0.34580000  0.78199000  1.0
  C  C35  1  0.94965000  0.15420000  0.21800000  1.0
  C  C36  1  0.55035000  0.65420000  0.21800000  1.0
  C  C37  1  0.05035000  0.84580000  0.78200000  1.0
  C  C38  1  0.42525000  0.21577000  0.72440000  1.0
  C  C39  1  0.92525000  0.28423000  0.27560000  1.0
  C  C40  1  0.57475000  0.78423000  0.27560000  1.0
  C  C41  1  0.07475000  0.71577000  0.72440000  1.0
  C  C42  1  0.54767000  0.26519000  0.56473000  1.0
  C  C43  1  0.04767000  0.23481000  0.43527000  1.0
  C  C44  1  0.45233000  0.73481000  0.43526000  1.0
  C  C45  1  0.95234000  0.76519000  0.56473000  1.0
  C  C46  1  0.47104000  0.17600000  0.61931000  1.0
  C  C47  1  0.97104000  0.32400000  0.38069000  1.0
  C  C48  1  0.52896000  0.82400000  0.38069000  1.0
  C  C49  1  0.02896000  0.67600000  0.61931000  1.0
  C  C50  1  0.56264000  0.85824000  0.90289000  1.0
  C  C51  1  0.06264000  0.64176000  0.09711000  1.0
  C  C52  1  0.43736000  0.14176000  0.09711000  1.0
  C  C53  1  0.93736000  0.35824000  0.90289000  1.0
  C  C54  1  0.77370000  0.76082000  0.93008000  1.0
  C  C55  1  0.27370000  0.73918000  0.06992000  1.0
  C  C56  1  0.22630000  0.23918000  0.06992000  1.0
  C  C57  1  0.72630000  0.26082000  0.93008000  1.0
  Br  Br58  1  0.31646000  0.09767000  0.79622000  1.0
  Br  Br59  1  0.81646000  0.40233000  0.20378000  1.0
  Br  Br60  1  0.68354000  0.90233000  0.20378000  1.0
  Br  Br61  1  0.18354000  0.59767000  0.79622000  1.0
  Br  Br62  1  0.59923000  0.20968000  0.41713000  1.0
  Br  Br63  1  0.09923000  0.29032000  0.58287000  1.0
  Br  Br64  1  0.40078000  0.79032000  0.58287000  1.0
  Br  Br65  1  0.90077000  0.70968000  0.41713000  1.0
  N  N66  1  0.56065000  0.61441000  0.87261000  1.0
  N  N67  1  0.06065000  0.88560000  0.12739000  1.0
  N  N68  1  0.43935000  0.38559000  0.12739000  1.0
  N  N69  1  0.93935000  0.11441000  0.87261000  1.0
  N  N70  1  0.79390000  0.88950000  0.95192000  1.0
  N  N71  1  0.29390000  0.61050000  0.04808000  1.0
  N  N72  1  0.20610000  0.11050000  0.04808000  1.0
  N  N73  1  0.70610000  0.38950000  0.95192000  1.0
  N  N74  1  0.62934000  0.73782000  0.89803000  1.0
  N  N75  1  0.12934000  0.76218000  0.10197000  1.0
  N  N76  1  0.37066000  0.26218000  0.10197000  1.0
  N  N77  1  0.87066000  0.23782000  0.89803000  1.0
  N  N78  1  0.66159000  0.95141000  0.93445000  1.0
  N  N79  1  0.16159000  0.54859000  0.06555000  1.0
  N  N80  1  0.33841000  0.04859000  0.06555000  1.0
  N  N81  1  0.83841000  0.45141000  0.93445000  1.0
  O  O82  1  0.39339000  0.38067000  0.87693000  1.0
  O  O83  1  0.89339000  0.11934000  0.12307000  1.0
  O  O84  1  0.60661000  0.61933000  0.12307000  1.0
  O  O85  1  0.10661000  0.88067000  0.87693000  1.0
