# generated using pymatgen
data_KH6C4SN3
_symmetry_space_group_name_H-M   'P 1'
_cell_length_a   6.56095000
_cell_length_b   6.56078000
_cell_length_c   16.20240000
_cell_angle_alpha   93.34490000
_cell_angle_beta   93.34070000
_cell_angle_gamma   90.29360000
_symmetry_Int_Tables_number   1
_chemical_formula_structural   KH6C4SN3
_chemical_formula_sum   'K4 H24 C16 S4 N12'
_cell_volume   695.03477593
_cell_formula_units_Z   4
loop_
 _symmetry_equiv_pos_site_id
 _symmetry_equiv_pos_as_xyz
  1  'x, y, z'
loop_
 _atom_site_type_symbol
 _atom_site_label
 _atom_site_symmetry_multiplicity
 _atom_site_fract_x
 _atom_site_fract_y
 _atom_site_fract_z
 _atom_site_occupancy
  K  K0  1  0.26257000  0.69007000  0.07194000  1.0
  K  K1  1  0.80989000  0.23741000  0.42805000  1.0
  K  K2  1  0.73743000  0.30991000  0.92806000  1.0
  K  K3  1  0.19011000  0.76257000  0.57194000  1.0
  H  H4  1  0.40721000  0.19570000  0.10649000  1.0
  H  H5  1  0.30425000  0.09283000  0.39352000  1.0
  H  H6  1  0.59281000  0.80429000  0.89351000  1.0
  H  H7  1  0.69574000  0.90718000  0.60649000  1.0
  H  H8  1  0.13295000  0.19489000  0.10543000  1.0
  H  H9  1  0.30505000  0.36710000  0.39458000  1.0
  H  H10  1  0.86706000  0.80510000  0.89457000  1.0
  H  H11  1  0.69494000  0.63291000  0.60542000  1.0
  H  H12  1  0.10743000  0.89770000  0.28719000  1.0
  H  H13  1  0.60228000  0.39259000  0.21283000  1.0
  H  H14  1  0.89258000  0.10230000  0.71282000  1.0
  H  H15  1  0.39771000  0.60742000  0.78717000  1.0
  H  H16  1  0.96332000  0.02409000  0.20844000  1.0
  H  H17  1  0.47586000  0.53672000  0.29157000  1.0
  H  H18  1  0.03668000  0.97590000  0.79156000  1.0
  H  H19  1  0.52413000  0.46329000  0.70843000  1.0
  H  H20  1  0.60106000  0.02633000  0.21123000  1.0
  H  H21  1  0.47367000  0.89893000  0.28880000  1.0
  H  H22  1  0.39894000  0.97368000  0.78878000  1.0
  H  H23  1  0.52633000  0.10106000  0.71121000  1.0
  H  H24  1  0.10921000  0.53569000  0.28996000  1.0
  H  H25  1  0.96434000  0.39077000  0.21003000  1.0
  H  H26  1  0.89078000  0.46432000  0.71003000  1.0
  H  H27  1  0.03566000  0.60923000  0.78996000  1.0
  C  C28  1  0.23873000  0.11077000  0.92970000  1.0
  C  C29  1  0.38917000  0.26125000  0.57030000  1.0
  C  C30  1  0.76127000  0.88921000  0.07030000  1.0
  C  C31  1  0.61083000  0.73874000  0.42970000  1.0
  C  C32  1  0.27484000  0.20068000  0.14522000  1.0
  C  C33  1  0.29929000  0.22519000  0.35479000  1.0
  C  C34  1  0.72517000  0.79931000  0.85478000  1.0
  C  C35  1  0.70071000  0.77483000  0.64521000  1.0
  C  C36  1  0.10447000  0.02970000  0.24839000  1.0
  C  C37  1  0.47030000  0.39553000  0.25160000  1.0
  C  C38  1  0.89553000  0.97031000  0.75161000  1.0
  C  C39  1  0.52971000  0.60446000  0.74839000  1.0
  C  C40  1  0.46920000  0.03083000  0.25000000  1.0
  C  C41  1  0.53081000  0.96918000  0.75000000  1.0
  C  C42  1  0.10561000  0.39434000  0.24999000  1.0
  C  C43  1  0.89438000  0.60565000  0.75000000  1.0
  S  S44  1  0.23550000  0.35492000  0.91323000  1.0
  S  S45  1  0.14506000  0.26449000  0.58677000  1.0
  S  S46  1  0.76452000  0.64510000  0.08676000  1.0
  S  S47  1  0.85493000  0.73551000  0.41323000  1.0
  N  N48  1  0.24089000  0.93290000  0.93963000  1.0
  N  N49  1  0.56706000  0.25908000  0.56036000  1.0
  N  N50  1  0.75910000  0.06713000  0.06038000  1.0
  N  N51  1  0.43293000  0.74090000  0.43963000  1.0
  N  N52  1  0.28047000  0.01934000  0.19547000  1.0
  N  N53  1  0.48063000  0.21957000  0.30455000  1.0
  N  N54  1  0.71954000  0.98066000  0.80454000  1.0
  N  N55  1  0.51936000  0.78043000  0.69546000  1.0
  N  N56  1  0.28161000  0.39357000  0.19717000  1.0
  N  N57  1  0.10643000  0.21840000  0.30284000  1.0
  N  N58  1  0.71839000  0.60644000  0.80283000  1.0
  N  N59  1  0.89356000  0.78161000  0.69716000  1.0
