# generated using pymatgen
data_MnH14(C3O)4
_symmetry_space_group_name_H-M   'P 1'
_cell_length_a   7.01137000
_cell_length_b   7.75309000
_cell_length_c   10.79072191
_cell_angle_alpha   68.98302897
_cell_angle_beta   89.60474489
_cell_angle_gamma   88.98060000
_symmetry_Int_Tables_number   1
_chemical_formula_structural   MnH14(C3O)4
_chemical_formula_sum   'Mn2 H28 C24 O8'
_cell_volume   547.47178185
_cell_formula_units_Z   2
loop_
 _symmetry_equiv_pos_site_id
 _symmetry_equiv_pos_as_xyz
  1  'x, y, z'
loop_
 _atom_site_type_symbol
 _atom_site_label
 _atom_site_symmetry_multiplicity
 _atom_site_fract_x
 _atom_site_fract_y
 _atom_site_fract_z
 _atom_site_occupancy
  Mn  Mn0  1  0.91552000  0.88659000  0.07105000  1.0
  Mn  Mn1  1  0.41560000  0.95778000  0.92893000  1.0
  H  H2  1  0.56033000  0.42051000  0.11980000  1.0
  H  H3  1  0.06033000  0.54007000  0.88007000  1.0
  H  H4  1  0.36578000  0.33562000  0.05602000  1.0
  H  H5  1  0.86575000  0.39140000  0.94398000  1.0
  H  H6  1  0.04105000  0.29683000  0.17175000  1.0
  H  H7  1  0.54135000  0.46764000  0.82859000  1.0
  H  H8  1  0.01404000  0.35442000  0.31594000  1.0
  H  H9  1  0.51391000  0.66923000  0.68447000  1.0
  H  H10  1  0.04005000  0.01348000  0.37165000  1.0
  H  H11  1  0.54010000  0.38403000  0.62867000  1.0
  H  H12  1  0.24057000  0.01475000  0.18076000  1.0
  H  H13  1  0.74065000  0.19495000  0.81943000  1.0
  H  H14  1  0.34703000  0.87192000  0.33227000  1.0
  H  H15  1  0.84717000  0.20334000  0.66787000  1.0
  H  H16  1  0.62766000  0.99205000  0.42443000  1.0
  H  H17  1  0.12769000  0.41550000  0.57544000  1.0
  H  H18  1  0.71555000  0.21593000  0.33909000  1.0
  H  H19  1  0.21562000  0.55433000  0.66060000  1.0
  H  H20  1  0.51422000  0.21140000  0.53172000  1.0
  H  H21  1  0.01425000  0.74198000  0.46807000  1.0
  H  H22  1  0.51985000  0.49824000  0.32782000  1.0
  H  H23  1  0.01967000  0.82555000  0.67182000  1.0
  H  H24  1  0.29390000  0.47495000  0.40669000  1.0
  H  H25  1  0.79366000  0.88048000  0.59319000  1.0
  H  H26  1  0.30543000  0.95243000  0.53997000  1.0
  H  H27  1  0.80548000  0.49091000  0.46017000  1.0
  H  H28  1  0.16696000  0.14807000  0.53433000  1.0
  H  H29  1  0.66710000  0.68101000  0.46573000  1.0
  C  C30  1  0.49008000  0.13453000  0.23534000  1.0
  C  C31  1  0.99017000  0.36936000  0.76462000  1.0
  C  C32  1  0.43258000  0.33461000  0.14810000  1.0
  C  C33  1  0.93258000  0.48239000  0.85186000  1.0
  C  C34  1  0.29330000  0.41520000  0.22463000  1.0
  C  C35  1  0.79326000  0.63924000  0.77534000  1.0
  C  C36  1  0.11379000  0.29507000  0.26233000  1.0
  C  C37  1  0.61381000  0.55647000  0.73787000  1.0
  C  C38  1  0.16979000  0.09641000  0.34866000  1.0
  C  C39  1  0.66987000  0.44406000  0.65151000  1.0
  C  C40  1  0.30802000  0.01587000  0.27200000  1.0
  C  C41  1  0.80815000  0.28716000  0.72813000  1.0
  C  C42  1  0.58475000  0.13399000  0.36346000  1.0
  C  C43  1  0.08481000  0.49663000  0.63639000  1.0
  C  C44  1  0.44520000  0.21322000  0.44016000  1.0
  C  C45  1  0.94525000  0.65232000  0.55970000  1.0
  C  C46  1  0.39137000  0.41281000  0.35365000  1.0
  C  C47  1  0.89129000  0.76558000  0.64619000  1.0
  C  C48  1  0.26578000  0.09476000  0.47630000  1.0
  C  C49  1  0.76585000  0.56980000  0.52376000  1.0
  C  C50  1  0.62043000  0.05168000  0.15816000  1.0
  C  C51  1  0.12066000  0.20964000  0.84178000  1.0
  C  C52  1  0.23771000  0.61483000  0.14479000  1.0
  C  C53  1  0.73751000  0.75922000  0.85514000  1.0
  O  O54  1  0.57334000  0.06470000  0.04005000  1.0
  O  O55  1  0.07334000  0.10448000  0.95980000  1.0
  O  O56  1  0.77482000  0.96875000  0.21015000  1.0
  O  O57  1  0.27543000  0.17902000  0.78991000  1.0
  O  O58  1  0.09773000  0.68558000  0.18688000  1.0
  O  O59  1  0.59743000  0.87180000  0.81311000  1.0
  O  O60  1  0.33669000  0.70204000  0.04235000  1.0
  O  O61  1  0.83636000  0.74429000  0.95759000  1.0
