# generated using pymatgen
data_PrH6C6(NO4)2
_symmetry_space_group_name_H-M   'P 1'
_cell_length_a   7.65331000
_cell_length_b   8.11592000
_cell_length_c   17.28380000
_cell_angle_alpha   90.00010000
_cell_angle_beta   90.00020000
_cell_angle_gamma   71.57500000
_symmetry_Int_Tables_number   1
_chemical_formula_structural   PrH6C6(NO4)2
_chemical_formula_sum   'Pr4 H24 C24 N8 O32'
_cell_volume   1018.52731155
_cell_formula_units_Z   4
loop_
 _symmetry_equiv_pos_site_id
 _symmetry_equiv_pos_as_xyz
  1  'x, y, z'
loop_
 _atom_site_type_symbol
 _atom_site_label
 _atom_site_symmetry_multiplicity
 _atom_site_fract_x
 _atom_site_fract_y
 _atom_site_fract_z
 _atom_site_occupancy
  Pr  Pr0  1  0.68501000  0.76712000  0.41724000  1.0
  Pr  Pr1  1  0.31498000  0.73288000  0.91724000  1.0
  Pr  Pr2  1  0.31499000  0.23288000  0.58276000  1.0
  Pr  Pr3  1  0.68501000  0.26712000  0.08276000  1.0
  H  H4  1  0.83271000  0.03313000  0.39885000  1.0
  H  H5  1  0.16729000  0.46687000  0.89884000  1.0
  H  H6  1  0.16730000  0.96687000  0.60116000  1.0
  H  H7  1  0.83271000  0.53313000  0.10116000  1.0
  H  H8  1  0.75541000  0.09546000  0.48097000  1.0
  H  H9  1  0.24459000  0.40454000  0.98097000  1.0
  H  H10  1  0.24460000  0.90454000  0.51903000  1.0
  H  H11  1  0.75541000  0.59546000  0.01903000  1.0
  H  H12  1  0.17313000  0.88366000  0.35500000  1.0
  H  H13  1  0.82687000  0.61634000  0.85500000  1.0
  H  H14  1  0.82688000  0.11633000  0.64499000  1.0
  H  H15  1  0.17313000  0.38366000  0.14499000  1.0
  H  H16  1  0.04808000  0.89676000  0.21781000  1.0
  H  H17  1  0.95191000  0.60324000  0.71781000  1.0
  H  H18  1  0.95192000  0.10325000  0.78219000  1.0
  H  H19  1  0.04809000  0.39675000  0.28219000  1.0
  H  H20  1  0.09299000  0.50618000  0.41822000  1.0
  H  H21  1  0.90701000  0.99382000  0.91822000  1.0
  H  H22  1  0.90702000  0.49382000  0.58178000  1.0
  H  H23  1  0.09298000  0.00619000  0.08178000  1.0
  H  H24  1  0.07491000  0.65915000  0.47463000  1.0
  H  H25  1  0.92509000  0.84084000  0.97463000  1.0
  H  H26  1  0.92509000  0.34085000  0.52536000  1.0
  H  H27  1  0.07491000  0.15916000  0.02536000  1.0
  C  C28  1  0.18915000  0.82565000  0.23462000  1.0
  C  C29  1  0.81085000  0.67435000  0.73462000  1.0
  C  C30  1  0.81085000  0.17434000  0.76538000  1.0
  C  C31  1  0.18915000  0.32565000  0.26538000  1.0
  C  C32  1  0.33858000  0.71930000  0.19271000  1.0
  C  C33  1  0.66141000  0.78069000  0.69271000  1.0
  C  C34  1  0.66142000  0.28069000  0.80729000  1.0
  C  C35  1  0.33859000  0.21930000  0.30729000  1.0
  C  C36  1  0.33277000  0.68302000  0.10882000  1.0
  C  C37  1  0.66722000  0.81697000  0.60882000  1.0
  C  C38  1  0.66723000  0.31697000  0.89118000  1.0
  C  C39  1  0.33277000  0.18303000  0.39118000  1.0
  C  C40  1  0.48497000  0.66529000  0.24778000  1.0
  C  C41  1  0.51503000  0.83471000  0.74778000  1.0
  C  C42  1  0.51503000  0.33471000  0.75222000  1.0
  C  C43  1  0.48497000  0.16529000  0.25222000  1.0
  C  C44  1  0.68409000  0.55733000  0.24550000  1.0
  C  C45  1  0.31590000  0.94268000  0.74550000  1.0
  C  C46  1  0.31591000  0.44268000  0.75450000  1.0
  C  C47  1  0.68410000  0.05733000  0.25450000  1.0
  C  C48  1  0.58703000  0.42270000  0.49009000  1.0
  C  C49  1  0.41297000  0.07730000  0.99009000  1.0
  C  C50  1  0.41297000  0.57730000  0.50991000  1.0
  C  C51  1  0.58703000  0.92271000  0.00991000  1.0
  N  N52  1  0.24866000  0.82942000  0.30776000  1.0
  N  N53  1  0.75134000  0.67058000  0.80776000  1.0
  N  N54  1  0.75134000  0.17057000  0.69224000  1.0
  N  N55  1  0.24866000  0.32942000  0.19224000  1.0
  N  N56  1  0.42681000  0.73718000  0.31703000  1.0
  N  N57  1  0.57318000  0.76282000  0.81703000  1.0
  N  N58  1  0.57318000  0.26282000  0.68296000  1.0
  N  N59  1  0.42682000  0.23718000  0.18296000  1.0
  O  O60  1  0.78281000  0.57751000  0.30156000  1.0
  O  O61  1  0.21719000  0.92249000  0.80156000  1.0
  O  O62  1  0.21719000  0.42249000  0.69844000  1.0
  O  O63  1  0.78282000  0.07751000  0.19844000  1.0
  O  O64  1  0.74554000  0.45218000  0.19013000  1.0
  O  O65  1  0.25445000  0.04784000  0.69013000  1.0
  O  O66  1  0.25445000  0.54782000  0.80987000  1.0
  O  O67  1  0.74556000  0.95219000  0.30988000  1.0
  O  O68  1  0.43441000  0.54041000  0.08098000  1.0
  O  O69  1  0.56559000  0.95959000  0.58098000  1.0
  O  O70  1  0.56559000  0.45959000  0.91902000  1.0
  O  O71  1  0.43441000  0.04041000  0.41902000  1.0
  O  O72  1  0.22286000  0.79799000  0.06560000  1.0
  O  O73  1  0.77713000  0.70200000  0.56560000  1.0
  O  O74  1  0.77713000  0.20201000  0.93440000  1.0
  O  O75  1  0.22288000  0.29800000  0.43440000  1.0
  O  O76  1  0.83793000  0.99300000  0.45261000  1.0
  O  O77  1  0.16208000  0.50700000  0.95260000  1.0
  O  O78  1  0.16207000  0.00700000  0.54740000  1.0
  O  O79  1  0.83793000  0.49300000  0.04740000  1.0
  O  O80  1  0.71427000  0.45354000  0.45237000  1.0
  O  O81  1  0.28573000  0.04646000  0.95238000  1.0
  O  O82  1  0.28574000  0.54647000  0.54763000  1.0
  O  O83  1  0.71425000  0.95354000  0.04763000  1.0
  O  O84  1  0.58890000  0.27431000  0.51429000  1.0
  O  O85  1  0.41111000  0.22569000  0.01429000  1.0
  O  O86  1  0.41111000  0.72569000  0.48571000  1.0
  O  O87  1  0.58888000  0.77431000  0.98571000  1.0
  O  O88  1  0.02728000  0.63334000  0.42491000  1.0
  O  O89  1  0.97272000  0.86666000  0.92492000  1.0
  O  O90  1  0.97273000  0.36666000  0.57508000  1.0
  O  O91  1  0.02727000  0.13334000  0.07508000  1.0
