# generated using pymatgen
data_CdH15C16S(NO)5
_symmetry_space_group_name_H-M   'P 1'
_cell_length_a   8.61206000
_cell_length_b   11.22160000
_cell_length_c   11.32340000
_cell_angle_alpha   67.50080000
_cell_angle_beta   71.15600000
_cell_angle_gamma   67.54310000
_symmetry_Int_Tables_number   1
_chemical_formula_structural   CdH15C16S(NO)5
_chemical_formula_sum   'Cd2 H30 C32 S2 N10 O10'
_cell_volume   914.09009297
_cell_formula_units_Z   2
loop_
 _symmetry_equiv_pos_site_id
 _symmetry_equiv_pos_as_xyz
  1  'x, y, z'
loop_
 _atom_site_type_symbol
 _atom_site_label
 _atom_site_symmetry_multiplicity
 _atom_site_fract_x
 _atom_site_fract_y
 _atom_site_fract_z
 _atom_site_occupancy
  Cd  Cd0  1  0.00000000  0.50000000  0.50000000  1.0
  Cd  Cd1  1  0.00000000  0.00000000  0.50000000  1.0
  H  H2  1  0.76554000  0.91009000  0.40008000  1.0
  H  H3  1  0.23446000  0.08990000  0.59993000  1.0
  H  H4  1  0.69995000  0.06397000  0.39850000  1.0
  H  H5  1  0.30006000  0.93603000  0.60149000  1.0
  H  H6  1  0.77995000  0.46077000  0.26417000  1.0
  H  H7  1  0.22005000  0.53923000  0.73582000  1.0
  H  H8  1  0.61703000  0.44917000  0.40657000  1.0
  H  H9  1  0.38298000  0.55082000  0.59343000  1.0
  H  H10  1  0.93739000  0.86611000  0.19169000  1.0
  H  H11  1  0.06261000  0.13388000  0.80831000  1.0
  H  H12  1  0.16583000  0.77269000  0.84047000  1.0
  H  H13  1  0.83417000  0.22730000  0.15953000  1.0
  H  H14  1  0.96928000  0.63405000  0.89705000  1.0
  H  H15  1  0.03071000  0.36595000  0.10296000  1.0
  H  H16  1  0.88447000  0.63236000  0.73434000  1.0
  H  H17  1  0.11552000  0.36765000  0.26566000  1.0
  H  H18  1  0.68791000  0.62878000  0.95034000  1.0
  H  H19  1  0.31208000  0.37122000  0.04966000  1.0
  H  H20  1  0.46710000  0.38055000  0.87722000  1.0
  H  H21  1  0.53290000  0.61945000  0.12278000  1.0
  H  H22  1  0.67614000  0.39088000  0.67038000  1.0
  H  H23  1  0.32386000  0.60911000  0.32962000  1.0
  H  H24  1  0.90645000  0.10206000  0.73691000  1.0
  H  H25  1  0.09356000  0.89793000  0.26310000  1.0
  H  H26  1  0.71906000  0.10320000  0.95280000  1.0
  H  H27  1  0.28094000  0.89680000  0.04720000  1.0
  H  H28  1  0.44645000  0.89238000  0.87815000  1.0
  H  H29  1  0.55355000  0.10762000  0.12184000  1.0
  H  H30  1  0.65642000  0.89392000  0.66827000  1.0
  H  H31  1  0.34358000  0.10609000  0.33172000  1.0
  C  C32  1  0.86093000  0.31100000  0.43464000  1.0
  C  C33  1  0.13907000  0.68900000  0.56536000  1.0
  C  C34  1  0.75183000  0.45080000  0.36930000  1.0
  C  C35  1  0.24817000  0.54920000  0.63069000  1.0
  C  C36  1  0.83595000  0.73628000  0.15638000  1.0
  C  C37  1  0.16405000  0.26372000  0.84362000  1.0
  C  C38  1  0.94707000  0.81334000  0.12528000  1.0
  C  C39  1  0.05293000  0.18666000  0.87472000  1.0
  C  C40  1  0.07229000  0.76218000  0.93295000  1.0
  C  C41  1  0.92771000  0.23782000  0.06705000  1.0
  C  C42  1  0.96087000  0.68628000  0.96379000  1.0
  C  C43  1  0.03913000  0.31372000  0.03621000  1.0
  C  C44  1  0.79105000  0.57616000  0.77167000  1.0
  C  C45  1  0.20895000  0.42384000  0.22834000  1.0
  C  C46  1  0.67931000  0.57507000  0.89156000  1.0
  C  C47  1  0.32069000  0.42493000  0.10844000  1.0
  C  C48  1  0.55921000  0.50287000  0.93577000  1.0
  C  C49  1  0.44079000  0.49713000  0.06424000  1.0
  C  C50  1  0.55740000  0.43690000  0.85320000  1.0
  C  C51  1  0.44260000  0.56310000  0.14681000  1.0
  C  C52  1  0.67472000  0.44290000  0.73471000  1.0
  C  C53  1  0.32528000  0.55710000  0.26529000  1.0
  C  C54  1  0.80453000  0.05428000  0.77426000  1.0
  C  C55  1  0.19547000  0.94572000  0.22574000  1.0
  C  C56  1  0.69564000  0.05588000  0.89491000  1.0
  C  C57  1  0.30436000  0.94412000  0.10509000  1.0
  C  C58  1  0.56133000  0.99823000  0.93704000  1.0
  C  C59  1  0.43867000  0.00177000  0.06296000  1.0
  C  C60  1  0.54768000  0.93874000  0.85322000  1.0
  C  C61  1  0.45232000  0.06126000  0.14677000  1.0
  C  C62  1  0.66413000  0.93968000  0.73486000  1.0
  C  C63  1  0.33587000  0.06033000  0.26513000  1.0
  S  S64  1  0.69238000  0.70583000  0.31501000  1.0
  S  S65  1  0.30762000  0.29417000  0.68499000  1.0
  N  N66  1  0.78050000  0.55852000  0.39350000  1.0
  N  N67  1  0.21950000  0.44148000  0.60649000  1.0
  N  N68  1  0.84167000  0.67303000  0.07488000  1.0
  N  N69  1  0.15832000  0.32697000  0.92512000  1.0
  N  N70  1  0.06575000  0.82616000  0.01401000  1.0
  N  N71  1  0.93425000  0.17383000  0.98599000  1.0
  N  N72  1  0.79087000  0.51029000  0.69469000  1.0
  N  N73  1  0.20913000  0.48971000  0.30532000  1.0
  N  N74  1  0.79110000  0.99665000  0.69520000  1.0
  N  N75  1  0.20890000  0.00336000  0.30480000  1.0
  O  O76  1  0.95278000  0.29541000  0.51022000  1.0
  O  O77  1  0.04722000  0.70459000  0.48978000  1.0
  O  O78  1  0.85057000  0.21591000  0.40473000  1.0
  O  O79  1  0.14943000  0.78409000  0.59526000  1.0
  O  O80  1  0.69618000  0.80010000  0.37333000  1.0
  O  O81  1  0.30382000  0.19990000  0.62667000  1.0
  O  O82  1  0.52870000  0.72203000  0.29064000  1.0
  O  O83  1  0.47129000  0.27797000  0.70936000  1.0
  O  O84  1  0.79983000  0.98479000  0.40014000  1.0
  O  O85  1  0.20018000  0.01520000  0.59987000  1.0
