# generated using pymatgen
data_ZnH8C12(NO2)2
_symmetry_space_group_name_H-M   'P 1'
_cell_length_a   5.71071000
_cell_length_b   15.96058478
_cell_length_c   15.97500000
_cell_angle_alpha   60.03647579
_cell_angle_beta   89.99910000
_cell_angle_gamma   89.99969979
_symmetry_Int_Tables_number   1
_chemical_formula_structural   ZnH8C12(NO2)2
_chemical_formula_sum   'Zn3 H24 C36 N6 O12'
_cell_volume   1261.44963011
_cell_formula_units_Z   3
loop_
 _symmetry_equiv_pos_site_id
 _symmetry_equiv_pos_as_xyz
  1  'x, y, z'
loop_
 _atom_site_type_symbol
 _atom_site_label
 _atom_site_symmetry_multiplicity
 _atom_site_fract_x
 _atom_site_fract_y
 _atom_site_fract_z
 _atom_site_occupancy
  Zn  Zn0  1  0.14875000  0.50000000  0.50000000  1.0
  Zn  Zn1  1  0.81729000  0.00000000  0.50000000  1.0
  Zn  Zn2  1  0.48225000  0.50000000  0.00001000  1.0
  H  H3  1  0.82127000  0.25326000  0.62457000  1.0
  H  H4  1  0.58993000  0.39664000  0.60444000  1.0
  H  H5  1  0.08755000  0.35733000  0.43939000  1.0
  H  H6  1  0.29335000  0.21026000  0.45724000  1.0
  H  H7  1  0.48859000  0.12243000  0.25283000  1.0
  H  H8  1  0.25869000  0.99918000  0.39651000  1.0
  H  H9  1  0.75484000  0.20309000  0.35749000  1.0
  H  H10  1  0.95921000  0.33219000  0.21014000  1.0
  H  H11  1  0.15376000  0.62442000  0.12284000  1.0
  H  H12  1  0.92342000  0.60425000  0.99948000  1.0
  H  H13  1  0.41989000  0.43925000  0.20306000  1.0
  H  H14  1  0.62465000  0.45717000  0.33233000  1.0
  H  H15  1  0.82129000  0.74673000  0.37544000  1.0
  H  H16  1  0.58995000  0.60335000  0.39557000  1.0
  H  H17  1  0.08755000  0.64267000  0.56061000  1.0
  H  H18  1  0.29335000  0.78973000  0.54277000  1.0
  H  H19  1  0.48858000  0.87757000  0.74717000  1.0
  H  H20  1  0.25869000  0.00081000  0.60350000  1.0
  H  H21  1  0.75485000  0.79692000  0.64251000  1.0
  H  H22  1  0.95920000  0.66782000  0.78985000  1.0
  H  H23  1  0.15375000  0.37559000  0.87715000  1.0
  H  H24  1  0.92344000  0.39577000  0.00051000  1.0
  H  H25  1  0.41986000  0.56074000  0.79695000  1.0
  H  H26  1  0.62458000  0.54281000  0.66768000  1.0
  C  C27  1  0.71241000  0.13780000  0.54855000  1.0
  C  C28  1  0.57492000  0.22180000  0.54143000  1.0
  C  C29  1  0.65845000  0.27454000  0.58356000  1.0
  C  C30  1  0.53225000  0.35405000  0.57219000  1.0
  C  C31  1  0.25104000  0.33182000  0.47950000  1.0
  C  C32  1  0.36586000  0.25098000  0.48904000  1.0
  C  C33  1  0.37833000  0.31366000  0.13750000  1.0
  C  C34  1  0.24153000  0.23677000  0.22154000  1.0
  C  C35  1  0.32578000  0.14205000  0.27425000  1.0
  C  C36  1  0.20030000  0.07390000  0.35388000  1.0
  C  C37  1  0.91835000  0.18852000  0.33186000  1.0
  C  C38  1  0.03239000  0.25982000  0.25089000  1.0
  C  C39  1  0.04381000  0.54842000  0.31394000  1.0
  C  C40  1  0.90675000  0.54133000  0.23702000  1.0
  C  C41  1  0.99091000  0.58343000  0.14235000  1.0
  C  C42  1  0.86528000  0.57199000  0.07418000  1.0
  C  C43  1  0.58343000  0.47936000  0.18864000  1.0
  C  C44  1  0.69760000  0.48895000  0.25998000  1.0
  C  C45  1  0.71238000  0.86220000  0.45144000  1.0
  C  C46  1  0.57490000  0.77820000  0.45857000  1.0
  C  C47  1  0.65845000  0.72546000  0.41644000  1.0
  C  C48  1  0.53225000  0.64594000  0.42782000  1.0
  C  C49  1  0.25102000  0.66818000  0.52050000  1.0
  C  C50  1  0.36587000  0.74902000  0.51096000  1.0
  C  C51  1  0.37831000  0.68633000  0.86251000  1.0
  C  C52  1  0.24147000  0.76324000  0.77845000  1.0
  C  C53  1  0.32579000  0.85797000  0.72573000  1.0
  C  C54  1  0.20029000  0.92610000  0.64611000  1.0
  C  C55  1  0.91833000  0.81148000  0.66814000  1.0
  C  C56  1  0.03235000  0.74019000  0.74909000  1.0
  C  C57  1  0.04375000  0.45158000  0.68605000  1.0
  C  C58  1  0.90670000  0.45867000  0.76298000  1.0
  C  C59  1  0.99088000  0.41657000  0.85765000  1.0
  C  C60  1  0.86529000  0.42802000  0.92581000  1.0
  C  C61  1  0.58340000  0.52063000  0.81138000  1.0
  C  C62  1  0.69753000  0.51104000  0.74004000  1.0
  N  N63  1  0.33256000  0.38268000  0.52004000  1.0
  N  N64  1  0.00055000  0.09723000  0.38270000  1.0
  N  N65  1  0.66562000  0.51986000  0.09741000  1.0
  N  N66  1  0.33256000  0.61731000  0.47996000  1.0
  N  N67  1  0.00058000  0.90276000  0.61732000  1.0
  N  N68  1  0.66559000  0.48015000  0.90258000  1.0
  O  O69  1  0.60016000  0.08614000  0.51922000  1.0
  O  O70  1  0.91936000  0.12510000  0.57690000  1.0
  O  O71  1  0.26555000  0.39448000  0.08591000  1.0
  O  O72  1  0.58540000  0.29822000  0.12473000  1.0
  O  O73  1  0.93144000  0.51891000  0.39484000  1.0
  O  O74  1  0.25070000  0.57690000  0.29840000  1.0
  O  O75  1  0.60013000  0.91387000  0.48076000  1.0
  O  O76  1  0.91933000  0.87490000  0.42311000  1.0
  O  O77  1  0.26550000  0.60551000  0.91410000  1.0
  O  O78  1  0.58539000  0.70180000  0.87526000  1.0
  O  O79  1  0.93138000  0.48110000  0.60514000  1.0
  O  O80  1  0.25063000  0.42310000  0.70158000  1.0
