# generated using pymatgen
data_CuH2(CO2)2
_symmetry_space_group_name_H-M   'P 1'
_cell_length_a   6.23806000
_cell_length_b   8.97953000
_cell_length_c   14.32260000
_cell_angle_alpha   90.00000000
_cell_angle_beta   90.00000000
_cell_angle_gamma   89.99990000
_symmetry_Int_Tables_number   1
_chemical_formula_structural   CuH2(CO2)2
_chemical_formula_sum   'Cu8 H16 C16 O32'
_cell_volume   802.27824638
_cell_formula_units_Z   8
loop_
 _symmetry_equiv_pos_site_id
 _symmetry_equiv_pos_as_xyz
  1  'x, y, z'
loop_
 _atom_site_type_symbol
 _atom_site_label
 _atom_site_symmetry_multiplicity
 _atom_site_fract_x
 _atom_site_fract_y
 _atom_site_fract_z
 _atom_site_occupancy
  Cu  Cu0  1  0.00192000  0.94254000  0.88328000  1.0
  Cu  Cu1  1  0.50192000  0.05746000  0.61672000  1.0
  Cu  Cu2  1  0.99808000  0.55746000  0.38328000  1.0
  Cu  Cu3  1  0.49808000  0.44254000  0.11672000  1.0
  Cu  Cu4  1  0.99808000  0.05746000  0.11672000  1.0
  Cu  Cu5  1  0.49808000  0.94254000  0.38328000  1.0
  Cu  Cu6  1  0.00192000  0.44254000  0.61672000  1.0
  Cu  Cu7  1  0.50192000  0.55746000  0.88328000  1.0
  H  H8  1  0.96598000  0.68723000  0.03553000  1.0
  H  H9  1  0.46598000  0.31277000  0.46447000  1.0
  H  H10  1  0.03402000  0.81277000  0.53553000  1.0
  H  H11  1  0.53402000  0.18723000  0.96447000  1.0
  H  H12  1  0.03402000  0.31277000  0.96447000  1.0
  H  H13  1  0.53402000  0.68723000  0.53553000  1.0
  H  H14  1  0.96598000  0.18723000  0.46447000  1.0
  H  H15  1  0.46598000  0.81277000  0.03553000  1.0
  H  H16  1  0.82911000  0.75269000  0.73892000  1.0
  H  H17  1  0.32911000  0.24731000  0.76108000  1.0
  H  H18  1  0.17089000  0.74731000  0.23892000  1.0
  H  H19  1  0.67089000  0.25269000  0.26108000  1.0
  H  H20  1  0.17089000  0.24731000  0.26108000  1.0
  H  H21  1  0.67089000  0.75269000  0.23892000  1.0
  H  H22  1  0.82911000  0.25269000  0.76108000  1.0
  H  H23  1  0.32911000  0.74732000  0.73892000  1.0
  C  C24  1  0.84600000  0.67384000  0.97984000  1.0
  C  C25  1  0.34600000  0.32616000  0.52016000  1.0
  C  C26  1  0.15400000  0.82616000  0.47984000  1.0
  C  C27  1  0.65400000  0.17384000  0.02016000  1.0
  C  C28  1  0.15401000  0.32616000  0.02016000  1.0
  C  C29  1  0.65400000  0.67384000  0.47984000  1.0
  C  C30  1  0.84600000  0.17384000  0.52016000  1.0
  C  C31  1  0.34600000  0.82616000  0.97984000  1.0
  C  C32  1  0.76492000  0.86404000  0.72260000  1.0
  C  C33  1  0.26492000  0.13596000  0.77740000  1.0
  C  C34  1  0.23509000  0.63596000  0.22260000  1.0
  C  C35  1  0.73508000  0.36405000  0.27740000  1.0
  C  C36  1  0.23507000  0.13596000  0.27740000  1.0
  C  C37  1  0.73508000  0.86405000  0.22260000  1.0
  C  C38  1  0.76492000  0.36405000  0.77740000  1.0
  C  C39  1  0.26492000  0.63596000  0.72260000  1.0
  O  O40  1  0.84746000  0.75657000  0.90820000  1.0
  O  O41  1  0.34746000  0.24343000  0.59180000  1.0
  O  O42  1  0.15254000  0.74343000  0.40820000  1.0
  O  O43  1  0.65254000  0.25657000  0.09180000  1.0
  O  O44  1  0.15254000  0.24343000  0.09180000  1.0
  O  O45  1  0.65254000  0.75657000  0.40820000  1.0
  O  O46  1  0.84746000  0.25657000  0.59180000  1.0
  O  O47  1  0.34746000  0.74343000  0.90820000  1.0
  O  O48  1  0.80943000  0.97397000  0.77489000  1.0
  O  O49  1  0.30943000  0.02603000  0.72510000  1.0
  O  O50  1  0.19057000  0.52603000  0.27489000  1.0
  O  O51  1  0.69057000  0.47397000  0.22511000  1.0
  O  O52  1  0.19056000  0.02603000  0.22511000  1.0
  O  O53  1  0.69057000  0.97397000  0.27489000  1.0
  O  O54  1  0.80943000  0.47397000  0.72511000  1.0
  O  O55  1  0.30943000  0.52603000  0.77489000  1.0
  O  O56  1  0.70468000  0.57263000  0.99105000  1.0
  O  O57  1  0.20469000  0.42737000  0.50896000  1.0
  O  O58  1  0.29531000  0.92737000  0.49105000  1.0
  O  O59  1  0.79532000  0.07263000  0.00895000  1.0
  O  O60  1  0.29532000  0.42737000  0.00895000  1.0
  O  O61  1  0.79532000  0.57263000  0.49105000  1.0
  O  O62  1  0.70469000  0.07263000  0.50896000  1.0
  O  O63  1  0.20468000  0.92737000  0.99104000  1.0
  O  O64  1  0.64688000  0.87153000  0.65035000  1.0
  O  O65  1  0.14688000  0.12847000  0.84965000  1.0
  O  O66  1  0.35312000  0.62847000  0.15035000  1.0
  O  O67  1  0.85312000  0.37153000  0.34965000  1.0
  O  O68  1  0.35311000  0.12847000  0.34966000  1.0
  O  O69  1  0.85312000  0.87153000  0.15035000  1.0
  O  O70  1  0.64688000  0.37153000  0.84965000  1.0
  O  O71  1  0.14689000  0.62847000  0.65035000  1.0
