# generated using pymatgen
data_AgH5(CN3)2
_symmetry_space_group_name_H-M   'P 1'
_cell_length_a   6.35982000
_cell_length_b   6.90554634
_cell_length_c   14.39450000
_cell_angle_alpha   89.99767120
_cell_angle_beta   89.99890000
_cell_angle_gamma   116.52711377
_symmetry_Int_Tables_number   1
_chemical_formula_structural   AgH5(CN3)2
_chemical_formula_sum   'Ag4 H20 C8 N24'
_cell_volume   565.62436138
_cell_formula_units_Z   4
loop_
 _symmetry_equiv_pos_site_id
 _symmetry_equiv_pos_as_xyz
  1  'x, y, z'
loop_
 _atom_site_type_symbol
 _atom_site_label
 _atom_site_symmetry_multiplicity
 _atom_site_fract_x
 _atom_site_fract_y
 _atom_site_fract_z
 _atom_site_occupancy
  Ag  Ag0  1  0.60063000  0.56742000  0.72634000  1.0
  Ag  Ag1  1  0.89938000  0.43255000  0.22633000  1.0
  Ag  Ag2  1  0.39941000  0.43261000  0.27367000  1.0
  Ag  Ag3  1  0.10062000  0.56746000  0.77366000  1.0
  H  H4  1  0.65290000  0.85272000  0.54841000  1.0
  H  H5  1  0.84712000  0.14738000  0.04838000  1.0
  H  H6  1  0.34708000  0.14730000  0.45161000  1.0
  H  H7  1  0.15289000  0.85262000  0.95162000  1.0
  H  H8  1  0.91346000  0.85976000  0.57163000  1.0
  H  H9  1  0.58659000  0.14033000  0.07161000  1.0
  H  H10  1  0.08650000  0.14024000  0.42837000  1.0
  H  H11  1  0.41343000  0.85969000  0.92837000  1.0
  H  H12  1  0.90071000  0.38827000  0.62590000  1.0
  H  H13  1  0.59931000  0.61174000  0.12587000  1.0
  H  H14  1  0.09925000  0.61172000  0.37410000  1.0
  H  H15  1  0.40067000  0.38822000  0.87412000  1.0
  H  H16  1  0.85278000  0.23026000  0.52379000  1.0
  H  H17  1  0.64714000  0.76971000  0.02377000  1.0
  H  H18  1  0.14720000  0.76972000  0.47623000  1.0
  H  H19  1  0.35282000  0.23022000  0.97621000  1.0
  H  H20  1  0.13155000  0.33029000  0.58317000  1.0
  H  H21  1  0.36843000  0.66972000  0.08318000  1.0
  H  H22  1  0.86846000  0.66967000  0.41683000  1.0
  H  H23  1  0.63153000  0.33027000  0.91681000  1.0
  C  C24  1  0.84694000  0.06162000  0.73999000  1.0
  C  C25  1  0.65305000  0.93837000  0.24002000  1.0
  C  C26  1  0.15304000  0.93835000  0.25997000  1.0
  C  C27  1  0.34697000  0.06166000  0.76001000  1.0
  C  C28  1  0.93985000  0.26569000  0.59179000  1.0
  C  C29  1  0.56016000  0.73439000  0.09180000  1.0
  C  C30  1  0.06019000  0.73437000  0.40820000  1.0
  C  C31  1  0.43985000  0.26561000  0.90820000  1.0
  N  N32  1  0.75927000  0.87720000  0.79030000  1.0
  N  N33  1  0.74073000  0.12275000  0.29030000  1.0
  N  N34  1  0.24072000  0.12279000  0.20971000  1.0
  N  N35  1  0.25929000  0.87727000  0.70972000  1.0
  N  N36  1  0.78893000  0.93780000  0.88087000  1.0
  N  N37  1  0.71109000  0.06214000  0.38089000  1.0
  N  N38  1  0.21109000  0.06219000  0.11914000  1.0
  N  N39  1  0.28888000  0.93783000  0.61913000  1.0
  N  N40  1  0.89064000  0.14779000  0.88636000  1.0
  N  N41  1  0.60936000  0.85214000  0.38637000  1.0
  N  N42  1  0.10937000  0.85220000  0.11363000  1.0
  N  N43  1  0.39062000  0.14784000  0.61364000  1.0
  N  N44  1  0.93221000  0.23302000  0.79864000  1.0
  N  N45  1  0.56780000  0.76695000  0.29867000  1.0
  N  N46  1  0.06775000  0.76694000  0.20135000  1.0
  N  N47  1  0.43221000  0.23306000  0.70133000  1.0
  N  N48  1  0.84095000  0.06683000  0.64587000  1.0
  N  N49  1  0.65906000  0.93325000  0.14588000  1.0
  N  N50  1  0.15907000  0.93320000  0.35412000  1.0
  N  N51  1  0.34099000  0.06677000  0.85413000  1.0
  N  N52  1  0.76903000  0.86626000  0.60038000  1.0
  N  N53  1  0.73101000  0.13383000  0.10038000  1.0
  N  N54  1  0.23097000  0.13377000  0.39962000  1.0
  N  N55  1  0.26899000  0.86617000  0.89963000  1.0
