# generated using pymatgen
data_ZnH13C15NO7
_symmetry_space_group_name_H-M   'P 1'
_cell_length_a   7.94282000
_cell_length_b   9.72023000
_cell_length_c   10.35710000
_cell_angle_alpha   105.53200000
_cell_angle_beta   100.75250000
_cell_angle_gamma   90.97960000
_symmetry_Int_Tables_number   1
_chemical_formula_structural   ZnH13C15NO7
_chemical_formula_sum   'Zn2 H26 C30 N2 O14'
_cell_volume   755.00041015
_cell_formula_units_Z   2
loop_
 _symmetry_equiv_pos_site_id
 _symmetry_equiv_pos_as_xyz
  1  'x, y, z'
loop_
 _atom_site_type_symbol
 _atom_site_label
 _atom_site_symmetry_multiplicity
 _atom_site_fract_x
 _atom_site_fract_y
 _atom_site_fract_z
 _atom_site_occupancy
  Zn  Zn0  1  0.25523000  0.61047000  0.47381000  1.0
  Zn  Zn1  1  0.74477000  0.38953000  0.52619000  1.0
  H  H2  1  0.64409000  0.74173000  0.85688000  1.0
  H  H3  1  0.35592000  0.25826000  0.14310000  1.0
  H  H4  1  0.62187000  0.74101000  0.26832000  1.0
  H  H5  1  0.37813000  0.25899000  0.73168000  1.0
  H  H6  1  0.19093000  0.56124000  0.94056000  1.0
  H  H7  1  0.80908000  0.43876000  0.05944000  1.0
  H  H8  1  0.08834000  0.89669000  0.02069000  1.0
  H  H9  1  0.91167000  0.10330000  0.97932000  1.0
  H  H10  1  0.39449000  0.97248000  0.05988000  1.0
  H  H11  1  0.60552000  0.02750000  0.94014000  1.0
  H  H12  1  0.56207000  0.07345000  0.29615000  1.0
  H  H13  1  0.43794000  0.92654000  0.70388000  1.0
  H  H14  1  0.41570000  0.11142000  0.49459000  1.0
  H  H15  1  0.58430000  0.88859000  0.50542000  1.0
  H  H16  1  0.10750000  0.03235000  0.45671000  1.0
  H  H17  1  0.89249000  0.96766000  0.54329000  1.0
  H  H18  1  0.97002000  0.68387000  0.54473000  1.0
  H  H19  1  0.02997000  0.31612000  0.45526000  1.0
  H  H20  1  0.93520000  0.58958000  0.39297000  1.0
  H  H21  1  0.06480000  0.41041000  0.60702000  1.0
  H  H22  1  0.32564000  0.35102000  0.36342000  1.0
  H  H23  1  0.67436000  0.64898000  0.63658000  1.0
  H  H24  1  0.18056000  0.42030000  0.27710000  1.0
  H  H25  1  0.81944000  0.57971000  0.72290000  1.0
  H  H26  1  0.90233000  0.76415000  0.03836000  1.0
  H  H27  1  0.09768000  0.23585000  0.96165000  1.0
  C  C28  1  0.32561000  0.61231000  0.73624000  1.0
  C  C29  1  0.67439000  0.38768000  0.26375000  1.0
  C  C30  1  0.40876000  0.64869000  0.88315000  1.0
  C  C31  1  0.59125000  0.35132000  0.11685000  1.0
  C  C32  1  0.57511000  0.71416000  0.92877000  1.0
  C  C33  1  0.42489000  0.28584000  0.07123000  1.0
  C  C34  1  0.65340000  0.74588000  0.06679000  1.0
  C  C35  1  0.34660000  0.25412000  0.93321000  1.0
  C  C36  1  0.56279000  0.71571000  0.16056000  1.0
  C  C37  1  0.43721000  0.28429000  0.83944000  1.0
  C  C38  1  0.39631000  0.64920000  0.11463000  1.0
  C  C39  1  0.60369000  0.35080000  0.88537000  1.0
  C  C40  1  0.31934000  0.61475000  0.97630000  1.0
  C  C41  1  0.68066000  0.38526000  0.02370000  1.0
  C  C42  1  0.89329000  0.90992000  0.22197000  1.0
  C  C43  1  0.10670000  0.09009000  0.77802000  1.0
  C  C44  1  0.07720000  0.95700000  0.23710000  1.0
  C  C45  1  0.92279000  0.04301000  0.76290000  1.0
  C  C46  1  0.15866000  0.94192000  0.12539000  1.0
  C  C47  1  0.84134000  0.05809000  0.87462000  1.0
  C  C48  1  0.33155000  0.98663000  0.14702000  1.0
  C  C49  1  0.66844000  0.01337000  0.85298000  1.0
  C  C50  1  0.42505000  0.04578000  0.27962000  1.0
  C  C51  1  0.57495000  0.95422000  0.72039000  1.0
  C  C52  1  0.34342000  0.06440000  0.39091000  1.0
  C  C53  1  0.65657000  0.93561000  0.60910000  1.0
  C  C54  1  0.17026000  0.02053000  0.36987000  1.0
  C  C55  1  0.82974000  0.97948000  0.63013000  1.0
  C  C56  1  0.30437000  0.60820000  0.21377000  1.0
  C  C57  1  0.69563000  0.39180000  0.78623000  1.0
  N  N58  1  0.82518000  0.80328000  0.10563000  1.0
  N  N59  1  0.17482000  0.19673000  0.89438000  1.0
  O  O60  1  0.41368000  0.64013000  0.65046000  1.0
  O  O61  1  0.58632000  0.35988000  0.34953000  1.0
  O  O62  1  0.17292000  0.55901000  0.69812000  1.0
  O  O63  1  0.82709000  0.44097000  0.30186000  1.0
  O  O64  1  0.36523000  0.67030000  0.34179000  1.0
  O  O65  1  0.63475000  0.32971000  0.65822000  1.0
  O  O66  1  0.17937000  0.51435000  0.16989000  1.0
  O  O67  1  0.82063000  0.48565000  0.83010000  1.0
  O  O68  1  0.80780000  0.96395000  0.30905000  1.0
  O  O69  1  0.19219000  0.03606000  0.69094000  1.0
  O  O70  1  0.01309000  0.67066000  0.45939000  1.0
  O  O71  1  0.98691000  0.32933000  0.54062000  1.0
  O  O72  1  0.21272000  0.39101000  0.36598000  1.0
  O  O73  1  0.78729000  0.60899000  0.63402000  1.0
