# generated using pymatgen
data_SrH14C4(N4O3)3
_symmetry_space_group_name_H-M   'P 1'
_cell_length_a   6.51566000
_cell_length_b   10.18010000
_cell_length_c   13.00970000
_cell_angle_alpha   90.00000000
_cell_angle_beta   89.99980000
_cell_angle_gamma   106.25000000
_symmetry_Int_Tables_number   1
_chemical_formula_structural   SrH14C4(N4O3)3
_chemical_formula_sum   'Sr2 H28 C8 N24 O18'
_cell_volume   828.45996484
_cell_formula_units_Z   2
loop_
 _symmetry_equiv_pos_site_id
 _symmetry_equiv_pos_as_xyz
  1  'x, y, z'
loop_
 _atom_site_type_symbol
 _atom_site_label
 _atom_site_symmetry_multiplicity
 _atom_site_fract_x
 _atom_site_fract_y
 _atom_site_fract_z
 _atom_site_occupancy
  Sr  Sr0  1  0.05983000  0.64395000  0.75000000  1.0
  Sr  Sr1  1  0.94017000  0.35604000  0.25000000  1.0
  H  H2  1  0.74752000  0.34624000  0.68913000  1.0
  H  H3  1  0.25247000  0.65376000  0.18913000  1.0
  H  H4  1  0.25247000  0.65376000  0.31087000  1.0
  H  H5  1  0.74752000  0.34623000  0.81087000  1.0
  H  H6  1  0.40210000  0.92743000  0.69131000  1.0
  H  H7  1  0.59789000  0.07257000  0.19131000  1.0
  H  H8  1  0.59790000  0.07257000  0.30869000  1.0
  H  H9  1  0.40210000  0.92743000  0.80869000  1.0
  H  H10  1  0.55881000  0.78389000  0.09055000  1.0
  H  H11  1  0.44119000  0.21611000  0.59055000  1.0
  H  H12  1  0.44119000  0.21611000  0.90945000  1.0
  H  H13  1  0.55881000  0.78389000  0.40945000  1.0
  H  H14  1  0.50210000  0.62511000  0.83843000  1.0
  H  H15  1  0.49790000  0.37489000  0.33843000  1.0
  H  H16  1  0.49790000  0.37488000  0.16157000  1.0
  H  H17  1  0.50210000  0.62512000  0.66157000  1.0
  H  H18  1  0.37149000  0.69370000  0.00779000  1.0
  H  H19  1  0.62851000  0.30631000  0.50779000  1.0
  H  H20  1  0.62850000  0.30631000  0.99221000  1.0
  H  H21  1  0.37150000  0.69370000  0.49221000  1.0
  H  H22  1  0.75818000  0.81970000  0.68917000  1.0
  H  H23  1  0.24181000  0.18030000  0.18917000  1.0
  H  H24  1  0.24182000  0.18031000  0.31082000  1.0
  H  H25  1  0.75818000  0.81969000  0.81083000  1.0
  H  H26  1  0.33399000  0.50093000  0.89204000  1.0
  H  H27  1  0.66602000  0.49907000  0.39204000  1.0
  H  H28  1  0.66600000  0.49906000  0.10796000  1.0
  H  H29  1  0.33400000  0.50093000  0.60796000  1.0
  C  C30  1  0.31580000  0.86620000  0.06373000  1.0
  C  C31  1  0.68420000  0.13380000  0.56373000  1.0
  C  C32  1  0.68419000  0.13379000  0.93627000  1.0
  C  C33  1  0.31581000  0.86620000  0.43627000  1.0
  C  C34  1  0.08878000  0.98251000  0.02334000  1.0
  C  C35  1  0.91121000  0.01750000  0.52334000  1.0
  C  C36  1  0.91120000  0.01749000  0.97667000  1.0
  C  C37  1  0.08879000  0.98251000  0.47666000  1.0
  N  N38  1  0.37845000  0.98662000  0.11074000  1.0
  N  N39  1  0.62154000  0.01339000  0.61073000  1.0
  N  N40  1  0.62154000  0.01338000  0.88927000  1.0
  N  N41  1  0.37846000  0.98662000  0.38926000  1.0
  N  N42  1  0.23499000  0.05909000  0.08588000  1.0
  N  N43  1  0.76501000  0.94091000  0.58588000  1.0
  N  N44  1  0.76500000  0.94091000  0.91413000  1.0
  N  N45  1  0.23499000  0.05909000  0.41412000  1.0
  N  N46  1  0.13366000  0.85888000  0.00830000  1.0
  N  N47  1  0.86634000  0.14112000  0.50830000  1.0
  N  N48  1  0.86632000  0.14112000  0.99170000  1.0
  N  N49  1  0.13367000  0.85889000  0.49170000  1.0
  N  N50  1  0.40130000  0.75877000  0.07040000  1.0
  N  N51  1  0.59870000  0.24124000  0.57040000  1.0
  N  N52  1  0.59868000  0.24124000  0.92960000  1.0
  N  N53  1  0.40130000  0.75877000  0.42960000  1.0
  N  N54  1  0.04200000  0.75446000  0.94076000  1.0
  N  N55  1  0.95801000  0.24554000  0.44075000  1.0
  N  N56  1  0.95800000  0.24554000  0.05924000  1.0
  N  N57  1  0.04200000  0.75446000  0.55924000  1.0
  N  N58  1  0.87898000  0.66093000  0.98336000  1.0
  N  N59  1  0.12104000  0.33907000  0.48335000  1.0
  N  N60  1  0.12102000  0.33907000  0.01664000  1.0
  N  N61  1  0.87899000  0.66093000  0.51664000  1.0
  O  O62  1  0.80737000  0.67198000  0.07252000  1.0
  O  O63  1  0.19263000  0.32802000  0.57252000  1.0
  O  O64  1  0.19262000  0.32801000  0.92747000  1.0
  O  O65  1  0.80738000  0.67198000  0.42748000  1.0
  O  O66  1  0.79878000  0.55900000  0.92602000  1.0
  O  O67  1  0.20127000  0.44099000  0.42602000  1.0
  O  O68  1  0.20124000  0.44100000  0.07397000  1.0
  O  O69  1  0.79881000  0.55899000  0.57397000  1.0
  O  O70  1  0.30783000  0.88600000  0.75000000  1.0
  O  O71  1  0.69216000  0.11400000  0.25000000  1.0
  O  O72  1  0.74577000  0.75777000  0.75000000  1.0
  O  O73  1  0.25423000  0.24223000  0.25000000  1.0
  O  O74  1  0.36011000  0.59745000  0.87006000  1.0
  O  O75  1  0.63989000  0.40254000  0.37006000  1.0
  O  O76  1  0.63988000  0.40254000  0.12993000  1.0
  O  O77  1  0.36011000  0.59746000  0.62993000  1.0
  O  O78  1  0.82292000  0.39409000  0.75000000  1.0
  O  O79  1  0.17707000  0.60591000  0.25000000  1.0
