# generated using pymatgen
data_K2CuH10C14(NO5)2
_symmetry_space_group_name_H-M   'P 1'
_cell_length_a   7.33672000
_cell_length_b   7.84052000
_cell_length_c   15.49490000
_cell_angle_alpha   99.09270000
_cell_angle_beta   90.00000000
_cell_angle_gamma   89.99990000
_symmetry_Int_Tables_number   1
_chemical_formula_structural   K2CuH10C14(NO5)2
_chemical_formula_sum   'K4 Cu2 H20 C28 N4 O20'
_cell_volume   880.12355538
_cell_formula_units_Z   2
loop_
 _symmetry_equiv_pos_site_id
 _symmetry_equiv_pos_as_xyz
  1  'x, y, z'
loop_
 _atom_site_type_symbol
 _atom_site_label
 _atom_site_symmetry_multiplicity
 _atom_site_fract_x
 _atom_site_fract_y
 _atom_site_fract_z
 _atom_site_occupancy
  K  K0  1  0.94687000  0.53760000  0.74179000  1.0
  K  K1  1  0.44687000  0.46238000  0.75821000  1.0
  K  K2  1  0.05312000  0.46238000  0.25820000  1.0
  K  K3  1  0.55313000  0.53761000  0.24179000  1.0
  Cu  Cu4  1  0.00000000  0.00000000  0.00000000  1.0
  Cu  Cu5  1  0.50000000  0.00000000  0.50000000  1.0
  H  H6  1  0.77742000  0.08616000  0.17349000  1.0
  H  H7  1  0.27742000  0.91385000  0.32651000  1.0
  H  H8  1  0.22258000  0.91384000  0.82651000  1.0
  H  H9  1  0.72258000  0.08616000  0.67349000  1.0
  H  H10  1  0.47931000  0.97927000  0.22022000  1.0
  H  H11  1  0.97931000  0.02074000  0.27978000  1.0
  H  H12  1  0.52069000  0.02073000  0.77978000  1.0
  H  H13  1  0.02069000  0.97926000  0.72022000  1.0
  H  H14  1  0.42812000  0.67563000  0.96275000  1.0
  H  H15  1  0.92813000  0.32437000  0.53725000  1.0
  H  H16  1  0.57187000  0.32437000  0.03725000  1.0
  H  H17  1  0.07188000  0.67563000  0.46275000  1.0
  H  H18  1  0.56452000  0.59624000  0.59407000  1.0
  H  H19  1  0.06452000  0.40376000  0.90593000  1.0
  H  H20  1  0.43548000  0.40376000  0.40593000  1.0
  H  H21  1  0.93548000  0.59624000  0.09407000  1.0
  H  H22  1  0.65010000  0.42064000  0.55453000  1.0
  H  H23  1  0.15010000  0.57936000  0.94548000  1.0
  H  H24  1  0.34991000  0.57936000  0.44547000  1.0
  H  H25  1  0.84990000  0.42064000  0.05452000  1.0
  C  C26  1  0.75543000  0.78136000  0.90307000  1.0
  C  C27  1  0.25544000  0.21864000  0.59693000  1.0
  C  C28  1  0.24456000  0.21864000  0.09693000  1.0
  C  C29  1  0.74457000  0.78136000  0.40307000  1.0
  C  C30  1  0.66978000  0.82704000  0.99165000  1.0
  C  C31  1  0.16978000  0.17296000  0.50835000  1.0
  C  C32  1  0.33022000  0.17297000  0.00835000  1.0
  C  C33  1  0.83022000  0.82704000  0.49165000  1.0
  C  C34  1  0.69780000  0.99257000  0.12939000  1.0
  C  C35  1  0.19780000  0.00742000  0.37061000  1.0
  C  C36  1  0.30219000  0.00742000  0.87061000  1.0
  C  C37  1  0.80220000  0.99258000  0.62939000  1.0
  C  C38  1  0.42774000  0.81791000  0.09510000  1.0
  C  C39  1  0.92775000  0.18209000  0.40490000  1.0
  C  C40  1  0.57225000  0.18209000  0.90490000  1.0
  C  C41  1  0.07226000  0.81791000  0.59510000  1.0
  C  C42  1  0.24575000  0.74812000  0.12046000  1.0
  C  C43  1  0.74576000  0.25188000  0.37954000  1.0
  C  C44  1  0.75424000  0.25188000  0.87954000  1.0
  C  C45  1  0.25425000  0.74812000  0.62046000  1.0
  C  C46  1  0.52977000  0.93332000  0.15457000  1.0
  C  C47  1  0.02978000  0.06668000  0.34543000  1.0
  C  C48  1  0.47022000  0.06668000  0.84543000  1.0
  C  C49  1  0.97023000  0.93332000  0.65457000  1.0
  C  C50  1  0.50085000  0.76464000  0.01189000  1.0
  C  C51  1  0.00085000  0.23536000  0.48811000  1.0
  C  C52  1  0.49915000  0.23537000  0.98811000  1.0
  C  C53  1  0.99915000  0.76464000  0.51189000  1.0
  N  N54  1  0.76606000  0.93898000  0.04935000  1.0
  N  N55  1  0.26606000  0.06102000  0.45065000  1.0
  N  N56  1  0.23394000  0.06102000  0.95065000  1.0
  N  N57  1  0.73394000  0.93898000  0.54935000  1.0
  O  O58  1  0.91138000  0.85255000  0.89271000  1.0
  O  O59  1  0.41138000  0.14745000  0.60729000  1.0
  O  O60  1  0.08861000  0.14745000  0.10729000  1.0
  O  O61  1  0.58862000  0.85255000  0.39271000  1.0
  O  O62  1  0.67441000  0.68198000  0.84463000  1.0
  O  O63  1  0.17442000  0.31803000  0.65537000  1.0
  O  O64  1  0.32559000  0.31803000  0.15536000  1.0
  O  O65  1  0.82560000  0.68198000  0.34463000  1.0
  O  O66  1  0.65700000  0.51040000  0.60671000  1.0
  O  O67  1  0.15701000  0.48959000  0.89330000  1.0
  O  O68  1  0.34300000  0.48960000  0.39329000  1.0
  O  O69  1  0.84300000  0.51040000  0.10670000  1.0
  O  O70  1  0.22991000  0.72547000  0.19896000  1.0
  O  O71  1  0.72992000  0.27454000  0.30104000  1.0
  O  O72  1  0.77009000  0.27453000  0.80104000  1.0
  O  O73  1  0.27009000  0.72546000  0.69896000  1.0
  O  O74  1  0.12610000  0.71526000  0.06025000  1.0
  O  O75  1  0.62610000  0.28475000  0.43976000  1.0
  O  O76  1  0.87390000  0.28474000  0.93975000  1.0
  O  O77  1  0.37391000  0.71526000  0.56025000  1.0
