# generated using pymatgen
data_CdH4C5N2O5
_symmetry_space_group_name_H-M   'P 1'
_cell_length_a   6.45414000
_cell_length_b   10.06800000
_cell_length_c   10.59600000
_cell_angle_alpha   89.99990000
_cell_angle_beta   104.87100000
_cell_angle_gamma   89.99970000
_symmetry_Int_Tables_number   1
_chemical_formula_structural   CdH4C5N2O5
_chemical_formula_sum   'Cd4 H16 C20 N8 O20'
_cell_volume   665.46947387
_cell_formula_units_Z   4
loop_
 _symmetry_equiv_pos_site_id
 _symmetry_equiv_pos_as_xyz
  1  'x, y, z'
loop_
 _atom_site_type_symbol
 _atom_site_label
 _atom_site_symmetry_multiplicity
 _atom_site_fract_x
 _atom_site_fract_y
 _atom_site_fract_z
 _atom_site_occupancy
  Cd  Cd0  1  0.12516000  0.57079000  0.16812000  1.0
  Cd  Cd1  1  0.37485000  0.07079000  0.33188000  1.0
  Cd  Cd2  1  0.87484000  0.42920000  0.83188000  1.0
  Cd  Cd3  1  0.62515000  0.92921000  0.66812000  1.0
  H  H4  1  0.35640000  0.62895000  0.96890000  1.0
  H  H5  1  0.14360000  0.12895000  0.53110000  1.0
  H  H6  1  0.64360000  0.37104000  0.03110000  1.0
  H  H7  1  0.85640000  0.87104000  0.46890000  1.0
  H  H8  1  0.54135000  0.62735000  0.10631000  1.0
  H  H9  1  0.95865000  0.12736000  0.39368000  1.0
  H  H10  1  0.45865000  0.37264000  0.89368000  1.0
  H  H11  1  0.04135000  0.87265000  0.60632000  1.0
  H  H12  1  0.23810000  0.42630000  0.66714000  1.0
  H  H13  1  0.26191000  0.92629000  0.83287000  1.0
  H  H14  1  0.76190000  0.57370000  0.33286000  1.0
  H  H15  1  0.73810000  0.07370000  0.16714000  1.0
  H  H16  1  0.19361000  0.33938000  0.43588000  1.0
  H  H17  1  0.30640000  0.83938000  0.06413000  1.0
  H  H18  1  0.80640000  0.66063000  0.56412000  1.0
  H  H19  1  0.69361000  0.16063000  0.93588000  1.0
  C  C20  1  0.22482000  0.44245000  0.46530000  1.0
  C  C21  1  0.27518000  0.94245000  0.03471000  1.0
  C  C22  1  0.77518000  0.55755000  0.53470000  1.0
  C  C23  1  0.72482000  0.05755000  0.96530000  1.0
  C  C24  1  0.27766000  0.65700000  0.46313000  1.0
  C  C25  1  0.22233000  0.15699000  0.03687000  1.0
  C  C26  1  0.72233000  0.34301000  0.53687000  1.0
  C  C27  1  0.77767000  0.84301000  0.96313000  1.0
  C  C28  1  0.28293000  0.62174000  0.59160000  1.0
  C  C29  1  0.21707000  0.12173000  0.90840000  1.0
  C  C30  1  0.71707000  0.37827000  0.40839000  1.0
  C  C31  1  0.78293000  0.87826000  0.09161000  1.0
  C  C32  1  0.30902000  0.78207000  0.39632000  1.0
  C  C33  1  0.19097000  0.28207000  0.10367000  1.0
  C  C34  1  0.69098000  0.21793000  0.60367000  1.0
  C  C35  1  0.80902000  0.71794000  0.89632000  1.0
  C  C36  1  0.29350000  0.69397000  0.71561000  1.0
  C  C37  1  0.20651000  0.19397000  0.78439000  1.0
  C  C38  1  0.70649000  0.30603000  0.28439000  1.0
  C  C39  1  0.79350000  0.80602000  0.21561000  1.0
  N  N40  1  0.23870000  0.54367000  0.38695000  1.0
  N  N41  1  0.26129000  0.04367000  0.11305000  1.0
  N  N42  1  0.76130000  0.45633000  0.61306000  1.0
  N  N43  1  0.73871000  0.95633000  0.88695000  1.0
  N  N44  1  0.25086000  0.48620000  0.58842000  1.0
  N  N45  1  0.24914000  0.98620000  0.91159000  1.0
  N  N46  1  0.74913000  0.51379000  0.41158000  1.0
  N  N47  1  0.75087000  0.01380000  0.08842000  1.0
  O  O48  1  0.25450000  0.78356000  0.27328000  1.0
  O  O49  1  0.24549000  0.28356000  0.22672000  1.0
  O  O50  1  0.74549000  0.21645000  0.72672000  1.0
  O  O51  1  0.75450000  0.71645000  0.77328000  1.0
  O  O52  1  0.38617000  0.63519000  0.06634000  1.0
  O  O53  1  0.11383000  0.13520000  0.43366000  1.0
  O  O54  1  0.61383000  0.36481000  0.93366000  1.0
  O  O55  1  0.88617000  0.86481000  0.56634000  1.0
  O  O56  1  0.39239000  0.88420000  0.46356000  1.0
  O  O57  1  0.10761000  0.38419000  0.03643000  1.0
  O  O58  1  0.60762000  0.11580000  0.53643000  1.0
  O  O59  1  0.89239000  0.61580000  0.96357000  1.0
  O  O60  1  0.30431000  0.82186000  0.71493000  1.0
  O  O61  1  0.19570000  0.32186000  0.78507000  1.0
  O  O62  1  0.69569000  0.17815000  0.28507000  1.0
  O  O63  1  0.80430000  0.67814000  0.21493000  1.0
  O  O64  1  0.28086000  0.62248000  0.81081000  1.0
  O  O65  1  0.21916000  0.12248000  0.68919000  1.0
  O  O66  1  0.71912000  0.37752000  0.18919000  1.0
  O  O67  1  0.78085000  0.87751000  0.31081000  1.0
