# generated using pymatgen
data_ZnH14C27I2NO4
_symmetry_space_group_name_H-M   'P 1'
_cell_length_a   15.28860000
_cell_length_b   18.31640000
_cell_length_c   19.71800000
_cell_angle_alpha   90.00100000
_cell_angle_beta   90.40780000
_cell_angle_gamma   89.99910000
_symmetry_Int_Tables_number   1
_chemical_formula_structural   ZnH14C27I2NO4
_chemical_formula_sum   'Zn2 H28 C54 I4 N2 O8'
_cell_volume   5521.53334517
_cell_formula_units_Z   2
loop_
 _symmetry_equiv_pos_site_id
 _symmetry_equiv_pos_as_xyz
  1  'x, y, z'
loop_
 _atom_site_type_symbol
 _atom_site_label
 _atom_site_symmetry_multiplicity
 _atom_site_fract_x
 _atom_site_fract_y
 _atom_site_fract_z
 _atom_site_occupancy
  Zn  Zn0  1  0.50000000  0.42294000  0.50000000  1.0
  Zn  Zn1  1  0.50000000  0.57706000  0.50000000  1.0
  H  H2  1  0.77779000  0.61702000  0.50022000  1.0
  H  H3  1  0.22221000  0.38298000  0.49977000  1.0
  H  H4  1  0.36010000  0.06732000  0.48554000  1.0
  H  H5  1  0.63990000  0.93268000  0.51445000  1.0
  H  H6  1  0.63990000  0.06732000  0.51446000  1.0
  H  H7  1  0.36010000  0.93268000  0.48554000  1.0
  H  H8  1  0.77778000  0.38298000  0.50007000  1.0
  H  H9  1  0.22221000  0.61702000  0.49993000  1.0
  H  H10  1  0.91900000  0.31412000  0.49987000  1.0
  H  H11  1  0.08100000  0.68588000  0.50013000  1.0
  H  H12  1  0.08100000  0.31413000  0.49987000  1.0
  H  H13  1  0.91899000  0.68587000  0.50013000  1.0
  H  H14  1  0.50035000  0.61699000  0.71682000  1.0
  H  H15  1  0.49966000  0.38301000  0.28318000  1.0
  H  H16  1  0.49965000  0.61699000  0.28318000  1.0
  H  H17  1  0.50035000  0.38301000  0.71682000  1.0
  H  H18  1  0.64103000  0.50003000  0.93799000  1.0
  H  H19  1  0.35897000  0.49997000  0.06201000  1.0
  H  H20  1  0.64058000  0.50002000  0.06424000  1.0
  H  H21  1  0.35942000  0.49998000  0.93576000  1.0
  H  H22  1  0.59582000  0.30629000  0.57450000  1.0
  H  H23  1  0.40418000  0.69371000  0.42550000  1.0
  H  H24  1  0.40418000  0.30629000  0.42550000  1.0
  H  H25  1  0.59582000  0.69371000  0.57450000  1.0
  H  H26  1  0.59947000  0.16973000  0.57848000  1.0
  H  H27  1  0.40053000  0.83027000  0.42152000  1.0
  H  H28  1  0.40053000  0.16973000  0.42152000  1.0
  H  H29  1  0.59947000  0.83027000  0.57848000  1.0
  C  C30  1  0.49895000  0.50000000  0.36659000  1.0
  C  C31  1  0.50105000  0.50000000  0.63341000  1.0
  C  C32  1  0.04466000  0.36545000  0.49989000  1.0
  C  C33  1  0.95534000  0.63455000  0.50011000  1.0
  C  C34  1  0.50063000  0.56608000  0.74523000  1.0
  C  C35  1  0.49937000  0.43392000  0.25477000  1.0
  C  C36  1  0.49936000  0.56608000  0.25477000  1.0
  C  C37  1  0.50063000  0.43392000  0.74523000  1.0
  C  C38  1  0.50053000  0.56544000  0.81587000  1.0
  C  C39  1  0.49947000  0.43456000  0.18413000  1.0
  C  C40  1  0.49947000  0.56543000  0.18413000  1.0
  C  C41  1  0.50053000  0.43456000  0.81587000  1.0
  C  C42  1  0.50049000  0.50000000  0.85349000  1.0
  C  C43  1  0.49951000  0.50000000  0.14650000  1.0
  C  C44  1  0.50081000  0.50000000  0.70975000  1.0
  C  C45  1  0.49919000  0.50000000  0.29025000  1.0
  C  C46  1  0.57923000  0.50001000  0.96531000  1.0
  C  C47  1  0.42077000  0.49999000  0.03469000  1.0
  C  C48  1  0.57898000  0.50002000  0.03596000  1.0
  C  C49  1  0.42102000  0.49998000  0.96404000  1.0
  C  C50  1  0.49974000  0.50000000  0.07117000  1.0
  C  C51  1  0.50026000  0.50000000  0.92882000  1.0
  C  C52  1  0.55394000  0.27335000  0.54157000  1.0
  C  C53  1  0.44606000  0.72665000  0.45843000  1.0
  C  C54  1  0.44606000  0.27335000  0.45843000  1.0
  C  C55  1  0.55394000  0.72665000  0.54158000  1.0
  C  C56  1  0.55593000  0.19758000  0.54298000  1.0
  C  C57  1  0.44407000  0.80242000  0.45702000  1.0
  C  C58  1  0.44407000  0.19758000  0.45702000  1.0
  C  C59  1  0.55594000  0.80242000  0.54298000  1.0
  C  C60  1  0.50000000  0.15772000  0.50000000  1.0
  C  C61  1  0.50000000  0.84228000  0.50000000  1.0
  C  C62  1  0.32895000  0.50000000  0.49908000  1.0
  C  C63  1  0.67105000  0.50000000  0.50092000  1.0
  C  C64  1  0.42183000  0.03795000  0.49084000  1.0
  C  C65  1  0.57817000  0.96205000  0.50916000  1.0
  C  C66  1  0.57817000  0.03795000  0.50916000  1.0
  C  C67  1  0.42183000  0.96205000  0.49084000  1.0
  C  C68  1  0.50000000  0.92277000  0.50000000  1.0
  C  C69  1  0.50000000  0.07723000  0.50000000  1.0
  C  C70  1  0.81491000  0.56620000  0.50038000  1.0
  C  C71  1  0.18509000  0.43380000  0.49962000  1.0
  C  C72  1  0.76923000  0.50000000  0.50058000  1.0
  C  C73  1  0.23077000  0.50000000  0.49942000  1.0
  C  C74  1  0.81491000  0.43380000  0.50028000  1.0
  C  C75  1  0.18509000  0.56620000  0.49972000  1.0
  C  C76  1  0.90662000  0.43242000  0.50008000  1.0
  C  C77  1  0.09338000  0.56758000  0.49993000  1.0
  C  C78  1  0.95351000  0.50000000  0.50008000  1.0
  C  C79  1  0.04649000  0.50000000  0.49992000  1.0
  C  C80  1  0.90662000  0.56758000  0.50018000  1.0
  C  C81  1  0.09338000  0.43242000  0.49982000  1.0
  C  C82  1  0.95533000  0.36545000  0.49993000  1.0
  C  C83  1  0.04466000  0.63455000  0.50007000  1.0
  I  I84  1  0.50064000  0.66710000  0.86663000  1.0
  I  I85  1  0.49936000  0.33289000  0.13337000  1.0
  I  I86  1  0.49933000  0.66710000  0.13337000  1.0
  I  I87  1  0.50065000  0.33290000  0.86662000  1.0
  N  N88  1  0.50000000  0.31068000  0.50000000  1.0
  N  N89  1  0.50000000  0.68932000  0.50000000  1.0
  O  O90  1  0.49887000  0.43800000  0.39566000  1.0
  O  O91  1  0.50113000  0.56200000  0.60434000  1.0
  O  O92  1  0.50113000  0.43800000  0.60434000  1.0
  O  O93  1  0.49887000  0.56200000  0.39566000  1.0
  O  O94  1  0.36693000  0.43806000  0.49897000  1.0
  O  O95  1  0.63307000  0.56195000  0.50103000  1.0
  O  O96  1  0.63307000  0.43806000  0.50102000  1.0
  O  O97  1  0.36693000  0.56195000  0.49898000  1.0
