# generated using pymatgen
data_CuH6C7N4O5
_symmetry_space_group_name_H-M   'P 1'
_cell_length_a   6.51339000
_cell_length_b   6.96185000
_cell_length_c   11.67260000
_cell_angle_alpha   78.54080000
_cell_angle_beta   75.43260000
_cell_angle_gamma   79.32130000
_symmetry_Int_Tables_number   1
_chemical_formula_structural   CuH6C7N4O5
_chemical_formula_sum   'Cu2 H12 C14 N8 O10'
_cell_volume   496.93359656
_cell_formula_units_Z   2
loop_
 _symmetry_equiv_pos_site_id
 _symmetry_equiv_pos_as_xyz
  1  'x, y, z'
loop_
 _atom_site_type_symbol
 _atom_site_label
 _atom_site_symmetry_multiplicity
 _atom_site_fract_x
 _atom_site_fract_y
 _atom_site_fract_z
 _atom_site_occupancy
  Cu  Cu0  1  0.00001000  0.00001000  0.00000000  1.0
  Cu  Cu1  1  0.50001000  0.00000000  0.00000000  1.0
  H  H2  1  0.47231000  0.73895000  0.34740000  1.0
  H  H3  1  0.52770000  0.26104000  0.65260000  1.0
  H  H4  1  0.40959000  0.61183000  0.56977000  1.0
  H  H5  1  0.59041000  0.38816000  0.43024000  1.0
  H  H6  1  0.72891000  0.75281000  0.59997000  1.0
  H  H7  1  0.27108000  0.24719000  0.40002000  1.0
  H  H8  1  0.79174000  0.87864000  0.37761000  1.0
  H  H9  1  0.20828000  0.12136000  0.62237000  1.0
  H  H10  1  0.80805000  0.62958000  0.08494000  1.0
  H  H11  1  0.19194000  0.37041000  0.91506000  1.0
  H  H12  1  0.82264000  0.63665000  0.94635000  1.0
  H  H13  1  0.17735000  0.36334000  0.05365000  1.0
  C  C14  1  0.17688000  0.87971000  0.21665000  1.0
  C  C15  1  0.82313000  0.12029000  0.78334000  1.0
  C  C16  1  0.13554000  0.80977000  0.34990000  1.0
  C  C17  1  0.86448000  0.19022000  0.65010000  1.0
  C  C18  1  0.31110000  0.73882000  0.40342000  1.0
  C  C19  1  0.68890000  0.26116000  0.59659000  1.0
  C  C20  1  0.27781000  0.66741000  0.52531000  1.0
  C  C21  1  0.72219000  0.33259000  0.47469000  1.0
  C  C22  1  0.06760000  0.66950000  0.59264000  1.0
  C  C23  1  0.93239000  0.33050000  0.40736000  1.0
  C  C24  1  0.88987000  0.74770000  0.54298000  1.0
  C  C25  1  0.11013000  0.25230000  0.45701000  1.0
  C  C26  1  0.92569000  0.81683000  0.42017000  1.0
  C  C27  1  0.07432000  0.18317000  0.57983000  1.0
  N  N28  1  0.30446000  0.86237000  0.94029000  1.0
  N  N29  1  0.69554000  0.13763000  0.05971000  1.0
  N  N30  1  0.35688000  0.84907000  0.83431000  1.0
  N  N31  1  0.64313000  0.15094000  0.16568000  1.0
  N  N32  1  0.40725000  0.83454000  0.73349000  1.0
  N  N33  1  0.59274000  0.16549000  0.26652000  1.0
  N  N34  1  0.03520000  0.58495000  0.71941000  1.0
  N  N35  1  0.96479000  0.41506000  0.28059000  1.0
  O  O36  1  0.36918000  0.90377000  0.16613000  1.0
  O  O37  1  0.63083000  0.09622000  0.83387000  1.0
  O  O38  1  0.01644000  0.90836000  0.16879000  1.0
  O  O39  1  0.98357000  0.09165000  0.83120000  1.0
  O  O40  1  0.19397000  0.49109000  0.75689000  1.0
  O  O41  1  0.80601000  0.50891000  0.24312000  1.0
  O  O42  1  0.85109000  0.60942000  0.78365000  1.0
  O  O43  1  0.14889000  0.39059000  0.21635000  1.0
  O  O44  1  0.80533000  0.71842000  0.00845000  1.0
  O  O45  1  0.19468000  0.28156000  0.99155000  1.0
