# generated using pymatgen
data_HgH6C7(IN)2
_symmetry_space_group_name_H-M   'P 1'
_cell_length_a   4.42001000
_cell_length_b   13.14780000
_cell_length_c   18.44660000
_cell_angle_alpha   90.00000000
_cell_angle_beta   96.71980000
_cell_angle_gamma   89.99960000
_symmetry_Int_Tables_number   1
_chemical_formula_structural   HgH6C7(IN)2
_chemical_formula_sum   'Hg4 H24 C28 I8 N8'
_cell_volume   1064.63046949
_cell_formula_units_Z   4
loop_
 _symmetry_equiv_pos_site_id
 _symmetry_equiv_pos_as_xyz
  1  'x, y, z'
loop_
 _atom_site_type_symbol
 _atom_site_label
 _atom_site_symmetry_multiplicity
 _atom_site_fract_x
 _atom_site_fract_y
 _atom_site_fract_z
 _atom_site_occupancy
  Hg  Hg0  1  0.31447000  0.31304000  0.37059000  1.0
  Hg  Hg1  1  0.18554000  0.81305000  0.12941000  1.0
  Hg  Hg2  1  0.68553000  0.68695000  0.62940000  1.0
  Hg  Hg3  1  0.81446000  0.18695000  0.87060000  1.0
  H  H4  1  0.73037000  0.33986000  0.65905000  1.0
  H  H5  1  0.76963000  0.83986000  0.84095000  1.0
  H  H6  1  0.26964000  0.66014000  0.34094000  1.0
  H  H7  1  0.23037000  0.16014000  0.15906000  1.0
  H  H8  1  0.74622000  0.40949000  0.52974000  1.0
  H  H9  1  0.75378000  0.90949000  0.97026000  1.0
  H  H10  1  0.25379000  0.59051000  0.47026000  1.0
  H  H11  1  0.24620000  0.09051000  0.02974000  1.0
  H  H12  1  0.94536000  0.14368000  0.46038000  1.0
  H  H13  1  0.55464000  0.64368000  0.03962000  1.0
  H  H14  1  0.05465000  0.85631000  0.53962000  1.0
  H  H15  1  0.44534000  0.35632000  0.96038000  1.0
  H  H16  1  0.77844000  0.03191000  0.55783000  1.0
  H  H17  1  0.72156000  0.53191000  0.94217000  1.0
  H  H18  1  0.22157000  0.96809000  0.44217000  1.0
  H  H19  1  0.27842000  0.46809000  0.05784000  1.0
  H  H20  1  0.99541000  0.05050000  0.68619000  1.0
  H  H21  1  0.50459000  0.55050000  0.81381000  1.0
  H  H22  1  0.00459000  0.94950000  0.31380000  1.0
  H  H23  1  0.49541000  0.44950000  0.18620000  1.0
  H  H24  1  0.38739000  0.18293000  0.72409000  1.0
  H  H25  1  0.11262000  0.68293000  0.77591000  1.0
  H  H26  1  0.61262000  0.81707000  0.27591000  1.0
  H  H27  1  0.88739000  0.31708000  0.22409000  1.0
  C  C28  1  0.59806000  0.34881000  0.54436000  1.0
  C  C29  1  0.90194000  0.84881000  0.95564000  1.0
  C  C30  1  0.40195000  0.65118000  0.45564000  1.0
  C  C31  1  0.09805000  0.15119000  0.04436000  1.0
  C  C32  1  0.04173000  0.15226000  0.51726000  1.0
  C  C33  1  0.45827000  0.65226000  0.98274000  1.0
  C  C34  1  0.95827000  0.84774000  0.48274000  1.0
  C  C35  1  0.54172000  0.34774000  0.01726000  1.0
  C  C36  1  0.95050000  0.09024000  0.57188000  1.0
  C  C37  1  0.54951000  0.59024000  0.92812000  1.0
  C  C38  1  0.04952000  0.90976000  0.42812000  1.0
  C  C39  1  0.45048000  0.40977000  0.07188000  1.0
  C  C40  1  0.07425000  0.10109000  0.64549000  1.0
  C  C41  1  0.42575000  0.60109000  0.85450000  1.0
  C  C42  1  0.92576000  0.89891000  0.35450000  1.0
  C  C43  1  0.57424000  0.39891000  0.14550000  1.0
  C  C44  1  0.29284000  0.17446000  0.66729000  1.0
  C  C45  1  0.20717000  0.67446000  0.83271000  1.0
  C  C46  1  0.70717000  0.82554000  0.33271000  1.0
  C  C47  1  0.79283000  0.32554000  0.16729000  1.0
  C  C48  1  0.38500000  0.23646000  0.61255000  1.0
  C  C49  1  0.11500000  0.73646000  0.88745000  1.0
  C  C50  1  0.61500000  0.76354000  0.38745000  1.0
  C  C51  1  0.88500000  0.26354000  0.11255000  1.0
  C  C52  1  0.26211000  0.22632000  0.53849000  1.0
  C  C53  1  0.23789000  0.72632000  0.96151000  1.0
  C  C54  1  0.73790000  0.77368000  0.46151000  1.0
  C  C55  1  0.76210000  0.27368000  0.03849000  1.0
  I  I56  1  0.44507000  0.13917000  0.30361000  1.0
  I  I57  1  0.05494000  0.63917000  0.19639000  1.0
  I  I58  1  0.55494000  0.86083000  0.69639000  1.0
  I  I59  1  0.94506000  0.36083000  0.80361000  1.0
  I  I60  1  0.84373000  0.45714000  0.35956000  1.0
  I  I61  1  0.65627000  0.95714000  0.14044000  1.0
  I  I62  1  0.15627000  0.54286000  0.64044000  1.0
  I  I63  1  0.34372000  0.04286000  0.85956000  1.0
  N  N64  1  0.59605000  0.31451000  0.61364000  1.0
  N  N65  1  0.90395000  0.81451000  0.88636000  1.0
  N  N66  1  0.40396000  0.68549000  0.38635000  1.0
  N  N67  1  0.09604000  0.18549000  0.11365000  1.0
  N  N68  1  0.39985000  0.29844000  0.49786000  1.0
  N  N69  1  0.10016000  0.79844000  0.00214000  1.0
  N  N70  1  0.60016000  0.70156000  0.50214000  1.0
  N  N71  1  0.89983000  0.20156000  0.99786000  1.0
