# generated using pymatgen
data_ZnH19C24N6O5
_symmetry_space_group_name_H-M   'P 1'
_cell_length_a   9.50303000
_cell_length_b   12.19080000
_cell_length_c   12.21880000
_cell_angle_alpha   110.18500000
_cell_angle_beta   102.81800000
_cell_angle_gamma   99.62980000
_symmetry_Int_Tables_number   1
_chemical_formula_structural   ZnH19C24N6O5
_chemical_formula_sum   'Zn2 H38 C48 N12 O10'
_cell_volume   1248.66943600
_cell_formula_units_Z   2
loop_
 _symmetry_equiv_pos_site_id
 _symmetry_equiv_pos_as_xyz
  1  'x, y, z'
loop_
 _atom_site_type_symbol
 _atom_site_label
 _atom_site_symmetry_multiplicity
 _atom_site_fract_x
 _atom_site_fract_y
 _atom_site_fract_z
 _atom_site_occupancy
  Zn  Zn0  1  0.65892000  0.19752000  0.80560000  1.0
  Zn  Zn1  1  0.34108000  0.80248000  0.19441000  1.0
  H  H2  1  0.31373000  0.15786000  0.49529000  1.0
  H  H3  1  0.68626000  0.84214000  0.50471000  1.0
  H  H4  1  0.83425000  0.09790000  0.41650000  1.0
  H  H5  1  0.16575000  0.90211000  0.58350000  1.0
  H  H6  1  0.11511000  0.23202000  0.78811000  1.0
  H  H7  1  0.88489000  0.76797000  0.21189000  1.0
  H  H8  1  0.88069000  0.13881000  0.24910000  1.0
  H  H9  1  0.11932000  0.86119000  0.75090000  1.0
  H  H10  1  0.85373000  0.98362000  0.23092000  1.0
  H  H11  1  0.14627000  0.01637000  0.76908000  1.0
  H  H12  1  0.05520000  0.21541000  0.14112000  1.0
  H  H13  1  0.94479000  0.78459000  0.85888000  1.0
  H  H14  1  0.88001000  0.83727000  0.05491000  1.0
  H  H15  1  0.11999000  0.16273000  0.94508000  1.0
  H  H16  1  0.54460000  0.79112000  0.84286000  1.0
  H  H17  1  0.45539000  0.20888000  0.15714000  1.0
  H  H18  1  0.48311000  0.94331000  0.57751000  1.0
  H  H19  1  0.51690000  0.05669000  0.42249000  1.0
  H  H20  1  0.35101000  0.73810000  0.50008000  1.0
  H  H21  1  0.64899000  0.26190000  0.49992000  1.0
  H  H22  1  0.28710000  0.69143000  0.60599000  1.0
  H  H23  1  0.71290000  0.30858000  0.39401000  1.0
  H  H24  1  0.46556000  0.62028000  0.37225000  1.0
  H  H25  1  0.53443000  0.37971000  0.62774000  1.0
  H  H26  1  0.45151000  0.56538000  0.70109000  1.0
  H  H27  1  0.54848000  0.43461000  0.29891000  1.0
  H  H28  1  0.75141000  0.38200000  0.26783000  1.0
  H  H29  1  0.24859000  0.61801000  0.73217000  1.0
  H  H30  1  0.97128000  0.38462000  0.00407000  1.0
  H  H31  1  0.02873000  0.61538000  0.99593000  1.0
  H  H32  1  0.04965000  0.58786000  0.26509000  1.0
  H  H33  1  0.95036000  0.41214000  0.73491000  1.0
  H  H34  1  0.13776000  0.46807000  0.25394000  1.0
  H  H35  1  0.86224000  0.53192000  0.74607000  1.0
  H  H36  1  0.88586000  0.62840000  0.40669000  1.0
  H  H37  1  0.11413000  0.37159000  0.59330000  1.0
  H  H38  1  0.15282000  0.37379000  0.40060000  1.0
  H  H39  1  0.84718000  0.62620000  0.59940000  1.0
  C  C40  1  0.37678000  0.21441000  0.74113000  1.0
  C  C41  1  0.62322000  0.78559000  0.25887000  1.0
  C  C42  1  0.23062000  0.19846000  0.65136000  1.0
  C  C43  1  0.76938000  0.80154000  0.34864000  1.0
  C  C44  1  0.21615000  0.16393000  0.52731000  1.0
  C  C45  1  0.78386000  0.83608000  0.47270000  1.0
  C  C46  1  0.07413000  0.12938000  0.44161000  1.0
  C  C47  1  0.92587000  0.87062000  0.55839000  1.0
  C  C48  1  0.94656000  0.12991000  0.48065000  1.0
  C  C49  1  0.05344000  0.87009000  0.51935000  1.0
  C  C50  1  0.96287000  0.17053000  0.60642000  1.0
  C  C51  1  0.03713000  0.82947000  0.39358000  1.0
  C  C52  1  0.82661000  0.17132000  0.64871000  1.0
  C  C53  1  0.17339000  0.82868000  0.35129000  1.0
  C  C54  1  0.10379000  0.20487000  0.69131000  1.0
  C  C55  1  0.89622000  0.79514000  0.30869000  1.0
  C  C56  1  0.93071000  0.06128000  0.22987000  1.0
  C  C57  1  0.06930000  0.93872000  0.77013000  1.0
  C  C58  1  0.96350000  0.02952000  0.11002000  1.0
  C  C59  1  0.03650000  0.97048000  0.88998000  1.0
  C  C60  1  0.03038000  0.12070000  0.07846000  1.0
  C  C61  1  0.96962000  0.87929000  0.92153000  1.0
  C  C62  1  0.93328000  0.90822000  0.03056000  1.0
  C  C63  1  0.06672000  0.09177000  0.96944000  1.0
  C  C64  1  0.55308000  0.85502000  0.79944000  1.0
  C  C65  1  0.44691000  0.14498000  0.20056000  1.0
  C  C66  1  0.52239000  0.93346000  0.66325000  1.0
  C  C67  1  0.47761000  0.06655000  0.33675000  1.0
  C  C68  1  0.38714000  0.71416000  0.57858000  1.0
  C  C69  1  0.61286000  0.28584000  0.42142000  1.0
  C  C70  1  0.45116000  0.60611000  0.54153000  1.0
  C  C71  1  0.54883000  0.39389000  0.45846000  1.0
  C  C72  1  0.47878000  0.56693000  0.42801000  1.0
  C  C73  1  0.52121000  0.43307000  0.57199000  1.0
  C  C74  1  0.47319000  0.53804000  0.61276000  1.0
  C  C75  1  0.52680000  0.46196000  0.38724000  1.0
  C  C76  1  0.77170000  0.36325000  0.18037000  1.0
  C  C77  1  0.22830000  0.63676000  0.81963000  1.0
  C  C78  1  0.88649000  0.36748000  0.04701000  1.0
  C  C79  1  0.11352000  0.63252000  0.95299000  1.0
  C  C80  1  0.03887000  0.49846000  0.26985000  1.0
  C  C81  1  0.96114000  0.50154000  0.73016000  1.0
  C  C82  1  0.02266000  0.50185000  0.39081000  1.0
  C  C83  1  0.97734000  0.49815000  0.60919000  1.0
  C  C84  1  0.93669000  0.57249000  0.44775000  1.0
  C  C85  1  0.06330000  0.42750000  0.55225000  1.0
  C  C86  1  0.08568000  0.42932000  0.44383000  1.0
  C  C87  1  0.91432000  0.57066000  0.55616000  1.0
  N  N88  1  0.60267000  0.01979000  0.77064000  1.0
  N  N89  1  0.39733000  0.98021000  0.22936000  1.0
  N  N90  1  0.62301000  0.97117000  0.85753000  1.0
  N  N91  1  0.37698000  0.02884000  0.14247000  1.0
  N  N92  1  0.48833000  0.82712000  0.67703000  1.0
  N  N93  1  0.51167000  0.17288000  0.32297000  1.0
  N  N94  1  0.74842000  0.29636000  0.98867000  1.0
  N  N95  1  0.25158000  0.70365000  0.01133000  1.0
  N  N96  1  0.67489000  0.29320000  0.07279000  1.0
  N  N97  1  0.32510000  0.70681000  0.92721000  1.0
  N  N98  1  0.90575000  0.41222000  0.16925000  1.0
  N  N99  1  0.09425000  0.58778000  0.83075000  1.0
  O  O100  1  0.49752000  0.24192000  0.71112000  1.0
  O  O101  1  0.50248000  0.75809000  0.28889000  1.0
  O  O102  1  0.37578000  0.19426000  0.83445000  1.0
  O  O103  1  0.62422000  0.80573000  0.16555000  1.0
  O  O104  1  0.84874000  0.23871000  0.76335000  1.0
  O  O105  1  0.15127000  0.76129000  0.23665000  1.0
  O  O106  1  0.70034000  0.10947000  0.57503000  1.0
  O  O107  1  0.29966000  0.89053000  0.42497000  1.0
  O  O108  1  0.07346000  0.09591000  0.32282000  1.0
  O  O109  1  0.92654000  0.90409000  0.67718000  1.0
