# generated using pymatgen
data_Er2Cu3H38C42(N3O17)2
_symmetry_space_group_name_H-M   'P 1'
_cell_length_a   11.56730000
_cell_length_b   13.06050000
_cell_length_c   18.89500000
_cell_angle_alpha   89.99880000
_cell_angle_beta   86.89700000
_cell_angle_gamma   89.99950000
_symmetry_Int_Tables_number   1
_chemical_formula_structural   Er2Cu3H38C42(N3O17)2
_chemical_formula_sum   'Er4 Cu6 H76 C84 N12 O68'
_cell_volume   2850.37162035
_cell_formula_units_Z   2
loop_
 _symmetry_equiv_pos_site_id
 _symmetry_equiv_pos_as_xyz
  1  'x, y, z'
loop_
 _atom_site_type_symbol
 _atom_site_label
 _atom_site_symmetry_multiplicity
 _atom_site_fract_x
 _atom_site_fract_y
 _atom_site_fract_z
 _atom_site_occupancy
  Er  Er0  1  0.86520000  0.05986000  0.85514000  1.0
  Er  Er1  1  0.63480000  0.55982000  0.64484000  1.0
  Er  Er2  1  0.13483000  0.94022000  0.14484000  1.0
  Er  Er3  1  0.36520000  0.44019000  0.35515000  1.0
  Cu  Cu4  1  0.16069000  0.40937000  0.67723000  1.0
  Cu  Cu5  1  0.33932000  0.90937000  0.82278000  1.0
  Cu  Cu6  1  0.83931000  0.59063000  0.32274000  1.0
  Cu  Cu7  1  0.66071000  0.09065000  0.17726000  1.0
  Cu  Cu8  1  0.49999000  0.50000000  0.00001000  1.0
  Cu  Cu9  1  0.00000000  0.00000000  0.49998000  1.0
  H  H10  1  0.93880000  0.85729000  0.80697000  1.0
  H  H11  1  0.56118000  0.35729000  0.69308000  1.0
  H  H12  1  0.06118000  0.14264000  0.19320000  1.0
  H  H13  1  0.43880000  0.64276000  0.30695000  1.0
  H  H14  1  0.04325000  0.90532000  0.84463000  1.0
  H  H15  1  0.45674000  0.40530000  0.65539000  1.0
  H  H16  1  0.95679000  0.09473000  0.15543000  1.0
  H  H17  1  0.54326000  0.59470000  0.34459000  1.0
  H  H18  1  0.81277000  0.03034000  0.00308000  1.0
  H  H19  1  0.68725000  0.53025000  0.49688000  1.0
  H  H20  1  0.18728000  0.96983000  0.99686000  1.0
  H  H21  1  0.31276000  0.46974000  0.50311000  1.0
  H  H22  1  0.92220000  0.95102000  0.99011000  1.0
  H  H23  1  0.57710000  0.45156000  0.50966000  1.0
  H  H24  1  0.07658000  0.04803000  0.00949000  1.0
  H  H25  1  0.42273000  0.54858000  0.49028000  1.0
  H  H26  1  0.19752000  0.97010000  0.65603000  1.0
  H  H27  1  0.30247000  0.47010000  0.84396000  1.0
  H  H28  1  0.80249000  0.02990000  0.34398000  1.0
  H  H29  1  0.69752000  0.52990000  0.15603000  1.0
  H  H30  1  0.98148000  0.25115000  0.89977000  1.0
  H  H31  1  0.51855000  0.75119000  0.60027000  1.0
  H  H32  1  0.01859000  0.74882000  0.10030000  1.0
  H  H33  1  0.48145000  0.24883000  0.39974000  1.0
  H  H34  1  0.84963000  0.25773000  0.93226000  1.0
  H  H35  1  0.65039000  0.75774000  0.56776000  1.0
  H  H36  1  0.15041000  0.74228000  0.06779000  1.0
  H  H37  1  0.34961000  0.24227000  0.43225000  1.0
  H  H38  1  0.37524000  0.07153000  0.63557000  1.0
  H  H39  1  0.12475000  0.57153000  0.86441000  1.0
  H  H40  1  0.62476000  0.92847000  0.36444000  1.0
  H  H41  1  0.87526000  0.42848000  0.13558000  1.0
  H  H42  1  0.80342000  0.18969000  0.73829000  1.0
  H  H43  1  0.69660000  0.68963000  0.76171000  1.0
  H  H44  1  0.19663000  0.81040000  0.26170000  1.0
  H  H45  1  0.30341000  0.31038000  0.23828000  1.0
  H  H46  1  0.76495000  0.23656000  0.81247000  1.0
  H  H47  1  0.73491000  0.73654000  0.68753000  1.0
  H  H48  1  0.23492000  0.76349000  0.18752000  1.0
  H  H49  1  0.26504000  0.26348000  0.31246000  1.0
  H  H50  1  0.36013000  0.26474000  0.63934000  1.0
  H  H51  1  0.13988000  0.76474000  0.86065000  1.0
  H  H52  1  0.63987000  0.73526000  0.36065000  1.0
  H  H53  1  0.86015000  0.23527000  0.13935000  1.0
  H  H54  1  0.64272000  0.94240000  0.84482000  1.0
  H  H55  1  0.85728000  0.44242000  0.65521000  1.0
  H  H56  1  0.35734000  0.05768000  0.15530000  1.0
  H  H57  1  0.14272000  0.55756000  0.34480000  1.0
  H  H58  1  0.72726000  0.85470000  0.84080000  1.0
  H  H59  1  0.77276000  0.35470000  0.65922000  1.0
  H  H60  1  0.27270000  0.14531000  0.15921000  1.0
  H  H61  1  0.22720000  0.64531000  0.34076000  1.0
  H  H62  1  0.42534000  0.06279000  0.98394000  1.0
  H  H63  1  0.07469000  0.56281000  0.51609000  1.0
  H  H64  1  0.57471000  0.93718000  0.01610000  1.0
  H  H65  1  0.92531000  0.43720000  0.48390000  1.0
  H  H66  1  0.25239000  0.17720000  0.99603000  1.0
  H  H67  1  0.24763000  0.67724000  0.50400000  1.0
  H  H68  1  0.74764000  0.82273000  0.00403000  1.0
  H  H69  1  0.75236000  0.32278000  0.49600000  1.0
  H  H70  1  0.28201000  0.36701000  0.00530000  1.0
  H  H71  1  0.21799000  0.86704000  0.49471000  1.0
  H  H72  1  0.71799000  0.63294000  0.99473000  1.0
  H  H73  1  0.78200000  0.13297000  0.50528000  1.0
  H  H74  1  0.11116000  0.85160000  0.68548000  1.0
  H  H75  1  0.38882000  0.35160000  0.81449000  1.0
  H  H76  1  0.88883000  0.14839000  0.31451000  1.0
  H  H77  1  0.61120000  0.64841000  0.18550000  1.0
  H  H78  1  0.93578000  0.74218000  0.70774000  1.0
  H  H79  1  0.56420000  0.24219000  0.79222000  1.0
  H  H80  1  0.06421000  0.25781000  0.29224000  1.0
  H  H81  1  0.43581000  0.75782000  0.20775000  1.0
  H  H82  1  0.95942000  0.55265000  0.71083000  1.0
  H  H83  1  0.54058000  0.05265000  0.78916000  1.0
  H  H84  1  0.04058000  0.44734000  0.28915000  1.0
  H  H85  1  0.45943000  0.94735000  0.21083000  1.0
  C  C86  1  0.08293000  0.20835000  0.66888000  1.0
  C  C87  1  0.41707000  0.70834000  0.83112000  1.0
  C  C88  1  0.91707000  0.79164000  0.33112000  1.0
  C  C89  1  0.58296000  0.29166000  0.16888000  1.0
  C  C90  1  0.08401000  0.10120000  0.67007000  1.0
  C  C91  1  0.41599000  0.60119000  0.82992000  1.0
  C  C92  1  0.91599000  0.89879000  0.32994000  1.0
  C  C93  1  0.58403000  0.39881000  0.17007000  1.0
  C  C94  1  0.19185000  0.05300000  0.65768000  1.0
  C  C95  1  0.30815000  0.55300000  0.84231000  1.0
  C  C96  1  0.80815000  0.94699000  0.34233000  1.0
  C  C97  1  0.69187000  0.44701000  0.15768000  1.0
  C  C98  1  0.29253000  0.10956000  0.64652000  1.0
  C  C99  1  0.20746000  0.60956000  0.85347000  1.0
  C  C100  1  0.70747000  0.89044000  0.35349000  1.0
  C  C101  1  0.79255000  0.39045000  0.14653000  1.0
  C  C102  1  0.28470000  0.21588000  0.64840000  1.0
  C  C103  1  0.21531000  0.71588000  0.85159000  1.0
  C  C104  1  0.71530000  0.78412000  0.35159000  1.0
  C  C105  1  0.78472000  0.28413000  0.14841000  1.0
  C  C106  1  0.97680000  0.27530000  0.67095000  1.0
  C  C107  1  0.52321000  0.77529000  0.82905000  1.0
  C  C108  1  0.02320000  0.72470000  0.32904000  1.0
  C  C109  1  0.47681000  0.22471000  0.17095000  1.0
  C  C110  1  0.97949000  0.03154000  0.68222000  1.0
  C  C111  1  0.52050000  0.53154000  0.81777000  1.0
  C  C112  1  0.02051000  0.96845000  0.31779000  1.0
  C  C113  1  0.47950000  0.46846000  0.18222000  1.0
  C  C114  1  0.55590000  0.29465000  0.99425000  1.0
  C  C115  1  0.94411000  0.79465000  0.50574000  1.0
  C  C116  1  0.44412000  0.70535000  0.00574000  1.0
  C  C117  1  0.05588000  0.20536000  0.49426000  1.0
  C  C118  1  0.54765000  0.18835000  0.98856000  1.0
  C  C119  1  0.95237000  0.68835000  0.51143000  1.0
  C  C120  1  0.45238000  0.81165000  0.01143000  1.0
  C  C121  1  0.04763000  0.31166000  0.48857000  1.0
  C  C122  1  0.43668000  0.14509000  0.98971000  1.0
  C  C123  1  0.06333000  0.64510000  0.51030000  1.0
  C  C124  1  0.56335000  0.85489000  0.01031000  1.0
  C  C125  1  0.93666000  0.35491000  0.48970000  1.0
  C  C126  1  0.33967000  0.20803000  0.99626000  1.0
  C  C127  1  0.16034000  0.70805000  0.50375000  1.0
  C  C128  1  0.66034000  0.79192000  0.00377000  1.0
  C  C129  1  0.83965000  0.29195000  0.49625000  1.0
  C  C130  1  0.35445000  0.31367000  0.00136000  1.0
  C  C131  1  0.14555000  0.81369000  0.49863000  1.0
  C  C132  1  0.64555000  0.68630000  0.99865000  1.0
  C  C133  1  0.85444000  0.18632000  0.50136000  1.0
  C  C134  1  0.66902000  0.35236000  0.99472000  1.0
  C  C135  1  0.83098000  0.85235000  0.50527000  1.0
  C  C136  1  0.33098000  0.64766000  0.00526000  1.0
  C  C137  1  0.16902000  0.14766000  0.49474000  1.0
  C  C138  1  0.65381000  0.12164000  0.97810000  1.0
  C  C139  1  0.84622000  0.62163000  0.52187000  1.0
  C  C140  1  0.34624000  0.87840000  0.02185000  1.0
  C  C141  1  0.15378000  0.37837000  0.47811000  1.0
  C  C142  1  0.23242000  0.61593000  0.67223000  1.0
  C  C143  1  0.26758000  0.11593000  0.82777000  1.0
  C  C144  1  0.76758000  0.38407000  0.32776000  1.0
  C  C145  1  0.73244000  0.88408000  0.17223000  1.0
  C  C146  1  0.22837000  0.72334000  0.67141000  1.0
  C  C147  1  0.27163000  0.22334000  0.82858000  1.0
  C  C148  1  0.77163000  0.27666000  0.32859000  1.0
  C  C149  1  0.72839000  0.77667000  0.17142000  1.0
  C  C150  1  0.11946000  0.76869000  0.68582000  1.0
  C  C151  1  0.38053000  0.26869000  0.81416000  1.0
  C  C152  1  0.88054000  0.23130000  0.31417000  1.0
  C  C153  1  0.61949000  0.73131000  0.18583000  1.0
  C  C154  1  0.02159000  0.70903000  0.69894000  1.0
  C  C155  1  0.47839000  0.20903000  0.80103000  1.0
  C  C156  1  0.97840000  0.29096000  0.30103000  1.0
  C  C157  1  0.52162000  0.79098000  0.19896000  1.0
  C  C158  1  0.03307000  0.60280000  0.69945000  1.0
  C  C159  1  0.46692000  0.10280000  0.80054000  1.0
  C  C160  1  0.96692000  0.39719000  0.30053000  1.0
  C  C161  1  0.53309000  0.89720000  0.19946000  1.0
  C  C162  1  0.33947000  0.55205000  0.66087000  1.0
  C  C163  1  0.16053000  0.05205000  0.83913000  1.0
  C  C164  1  0.66052000  0.44795000  0.33911000  1.0
  C  C165  1  0.83949000  0.94797000  0.16088000  1.0
  C  C166  1  0.33119000  0.79408000  0.65364000  1.0
  C  C167  1  0.16879000  0.29407000  0.84635000  1.0
  C  C168  1  0.66880000  0.20593000  0.34637000  1.0
  C  C169  1  0.83123000  0.70595000  0.15364000  1.0
  N  N170  1  0.18269000  0.26248000  0.65979000  1.0
  N  N171  1  0.31731000  0.76248000  0.84021000  1.0
  N  N172  1  0.81731000  0.73751000  0.34021000  1.0
  N  N173  1  0.68271000  0.23752000  0.15979000  1.0
  N  N174  1  0.46063000  0.35429000  0.00044000  1.0
  N  N175  1  0.03937000  0.85430000  0.49956000  1.0
  N  N176  1  0.53936000  0.64569000  0.99956000  1.0
  N  N177  1  0.96063000  0.14570000  0.50044000  1.0
  N  N178  1  0.13600000  0.55846000  0.68613000  1.0
  N  N179  1  0.36400000  0.05846000  0.81387000  1.0
  N  N180  1  0.86400000  0.44154000  0.31385000  1.0
  N  N181  1  0.63601000  0.94155000  0.18614000  1.0
  O  O182  1  0.99609000  0.37286000  0.67135000  1.0
  O  O183  1  0.50393000  0.87285000  0.82865000  1.0
  O  O184  1  0.00391000  0.62714000  0.32863000  1.0
  O  O185  1  0.49609000  0.12716000  0.17136000  1.0
  O  O186  1  0.95844000  0.88897000  0.85139000  1.0
  O  O187  1  0.54156000  0.38895000  0.64865000  1.0
  O  O188  1  0.04160000  0.11107000  0.14872000  1.0
  O  O189  1  0.45845000  0.61105000  0.35137000  1.0
  O  O190  1  0.87689000  0.23801000  0.66840000  1.0
  O  O191  1  0.62311000  0.73799000  0.83161000  1.0
  O  O192  1  0.12311000  0.76199000  0.33161000  1.0
  O  O193  1  0.37692000  0.26203000  0.16838000  1.0
  O  O194  1  0.88732000  0.01381000  0.97351000  1.0
  O  O195  1  0.61282000  0.51380000  0.52655000  1.0
  O  O196  1  0.11294000  0.98624000  0.02660000  1.0
  O  O197  1  0.38721000  0.48621000  0.47347000  1.0
  O  O198  1  0.96217000  0.96709000  0.63528000  1.0
  O  O199  1  0.53782000  0.46707000  0.86472000  1.0
  O  O200  1  0.03781000  0.03291000  0.36474000  1.0
  O  O201  1  0.46219000  0.53291000  0.13526000  1.0
  O  O202  1  0.90072000  0.22421000  0.89467000  1.0
  O  O203  1  0.59931000  0.72425000  0.60537000  1.0
  O  O204  1  0.09936000  0.77572000  0.10543000  1.0
  O  O205  1  0.40069000  0.27577000  0.39463000  1.0
  O  O206  1  0.92296000  0.03816000  0.74233000  1.0
  O  O207  1  0.57704000  0.53816000  0.75767000  1.0
  O  O208  1  0.07704000  0.96183000  0.25769000  1.0
  O  O209  1  0.42298000  0.46186000  0.24233000  1.0
  O  O210  1  0.75786000  0.17506000  0.78355000  1.0
  O  O211  1  0.74215000  0.67505000  0.71644000  1.0
  O  O212  1  0.24220000  0.82497000  0.21645000  1.0
  O  O213  1  0.25786000  0.32497000  0.28355000  1.0
  O  O214  1  0.66099000  0.45019000  0.99958000  1.0
  O  O215  1  0.83900000  0.95019000  0.50040000  1.0
  O  O216  1  0.33900000  0.54982000  0.00041000  1.0
  O  O217  1  0.16099000  0.04981000  0.49959000  1.0
  O  O218  1  0.72682000  0.93008000  0.84405000  1.0
  O  O219  1  0.77318000  0.43008000  0.65601000  1.0
  O  O220  1  0.27322000  0.06992000  0.15609000  1.0
  O  O221  1  0.22682000  0.56992000  0.34399000  1.0
  O  O222  1  0.76200000  0.30312000  0.99329000  1.0
  O  O223  1  0.73801000  0.80311000  0.50670000  1.0
  O  O224  1  0.23801000  0.69691000  0.00669000  1.0
  O  O225  1  0.26199000  0.19690000  0.49331000  1.0
  O  O226  1  0.69048000  0.07404000  0.03091000  1.0
  O  O227  1  0.80959000  0.57404000  0.46905000  1.0
  O  O228  1  0.30965000  0.92599000  0.96902000  1.0
  O  O229  1  0.19042000  0.42597000  0.53094000  1.0
  O  O230  1  0.69428000  0.11355000  0.91437000  1.0
  O  O231  1  0.80572000  0.61351000  0.58559000  1.0
  O  O232  1  0.30572000  0.88652000  0.08557000  1.0
  O  O233  1  0.19427000  0.38649000  0.41440000  1.0
  O  O234  1  0.32531000  0.45380000  0.66638000  1.0
  O  O235  1  0.17469000  0.95380000  0.83363000  1.0
  O  O236  1  0.67469000  0.54619000  0.33358000  1.0
  O  O237  1  0.82532000  0.04621000  0.16640000  1.0
  O  O238  1  0.43625000  0.59227000  0.64755000  1.0
  O  O239  1  0.06375000  0.09227000  0.85244000  1.0
  O  O240  1  0.56376000  0.40774000  0.35245000  1.0
  O  O241  1  0.93627000  0.90775000  0.14755000  1.0
  O  O242  1  0.38104000  0.78309000  0.59295000  1.0
  O  O243  1  0.11896000  0.28307000  0.90705000  1.0
  O  O244  1  0.61897000  0.21693000  0.40705000  1.0
  O  O245  1  0.88107000  0.71696000  0.09295000  1.0
  O  O246  1  0.35231000  0.86046000  0.69992000  1.0
  O  O247  1  0.14766000  0.36045000  0.80007000  1.0
  O  O248  1  0.64767000  0.13954000  0.30009000  1.0
  O  O249  1  0.85236000  0.63955000  0.19991000  1.0
