# generated using pymatgen
data_Zn4H7C24S4BrO13
_symmetry_space_group_name_H-M   'P 1'
_cell_length_a   19.67600000
_cell_length_b   19.68470000
_cell_length_c   33.39480000
_cell_angle_alpha   79.13110000
_cell_angle_beta   79.15720000
_cell_angle_gamma   63.92980000
_symmetry_Int_Tables_number   1
_chemical_formula_structural   Zn4H7C24S4BrO13
_chemical_formula_sum   'Zn16 H28 C96 S16 Br4 O52'
_cell_volume   11328.43919727
_cell_formula_units_Z   4
loop_
 _symmetry_equiv_pos_site_id
 _symmetry_equiv_pos_as_xyz
  1  'x, y, z'
loop_
 _atom_site_type_symbol
 _atom_site_label
 _atom_site_symmetry_multiplicity
 _atom_site_fract_x
 _atom_site_fract_y
 _atom_site_fract_z
 _atom_site_occupancy
  Zn  Zn0  1  0.05469000  0.40019000  0.47794000  1.0
  Zn  Zn1  1  0.98426000  0.48329000  0.56093000  1.0
  Zn  Zn2  1  0.05984000  0.55923000  0.48210000  1.0
  Zn  Zn3  1  0.90153000  0.55622000  0.47939000  1.0
  Zn  Zn4  1  0.69419000  0.34912000  0.27196000  1.0
  Zn  Zn5  1  0.68938000  0.18921000  0.26630000  1.0
  Zn  Zn6  1  0.76793000  0.26799000  0.19062000  1.0
  Zn  Zn7  1  0.84882000  0.19481000  0.27214000  1.0
  Zn  Zn8  1  0.26705000  0.76636000  0.68966000  1.0
  Zn  Zn9  1  0.34932000  0.69533000  0.77221000  1.0
  Zn  Zn10  1  0.19339000  0.84790000  0.77088000  1.0
  Zn  Zn11  1  0.18981000  0.68900000  0.76671000  1.0
  Zn  Zn12  1  0.56020000  0.06034000  0.98319000  1.0
  Zn  Zn13  1  0.40123000  0.05511000  0.97828000  1.0
  Zn  Zn14  1  0.55512000  0.90121000  0.97820000  1.0
  Zn  Zn15  1  0.48330000  0.98354000  0.06039000  1.0
  H  H16  1  0.95448000  0.24895000  0.35167000  1.0
  H  H17  1  0.74707000  0.45342000  0.35007000  1.0
  H  H18  1  0.99916000  0.30043000  0.39978000  1.0
  H  H19  1  0.09695000  0.59675000  0.69970000  1.0
  H  H20  1  0.20143000  0.70149000  0.59826000  1.0
  H  H21  1  0.05059000  0.55054000  0.64983000  1.0
  H  H22  1  0.28576000  0.51024000  0.40930000  1.0
  H  H23  1  0.46415000  0.23913000  0.34070000  1.0
  H  H24  1  0.77163000  0.54690000  0.64869000  1.0
  H  H25  1  0.47857000  0.70278000  0.60158000  1.0
  H  H26  1  0.04725000  0.27119000  0.64851000  1.0
  H  H27  1  0.20314000  0.97834000  0.60146000  1.0
  H  H28  1  0.80082000  0.77912000  0.40233000  1.0
  H  H29  1  0.94914000  0.97092000  0.34778000  1.0
  H  H30  1  0.55034000  0.05044000  0.15314000  1.0
  H  H31  1  0.65177000  0.15188000  0.04855000  1.0
  H  H32  1  0.60026000  0.10015000  0.19944000  1.0
  H  H33  1  0.70284000  0.47865000  0.10178000  1.0
  H  H34  1  0.54694000  0.77193000  0.14827000  1.0
  H  H35  1  0.08701000  0.10836000  0.21011000  1.0
  H  H36  1  0.16334000  0.14118000  0.04008000  1.0
  H  H37  1  0.50120000  0.79540000  0.89839000  1.0
  H  H38  1  0.29680000  0.00292000  0.89978000  1.0
  H  H39  1  0.44972000  0.75081000  0.85028000  1.0
  H  H40  1  0.44897000  0.47095000  0.84769000  1.0
  H  H41  1  0.30090000  0.27892000  0.90232000  1.0
  H  H42  1  0.96359000  0.73893000  0.84080000  1.0
  H  H43  1  0.78612000  0.01040000  0.90925000  1.0
  C  C44  1  0.06137000  0.31585000  0.56176000  1.0
  C  C45  1  0.06875000  0.56909000  0.56938000  1.0
  C  C46  1  0.18396000  0.43857000  0.43829000  1.0
  C  C47  1  0.93807000  0.68421000  0.43850000  1.0
  C  C48  1  0.93154000  0.43020000  0.43086000  1.0
  C  C49  1  0.81622000  0.56157000  0.56198000  1.0
  C  C50  1  0.56564000  0.31116000  0.31131000  1.0
  C  C51  1  0.68076000  0.18070000  0.18114000  1.0
  C  C52  1  0.68900000  0.43452000  0.18859000  1.0
  C  C53  1  0.93472000  0.18883000  0.18902000  1.0
  C  C54  1  0.81955000  0.31947000  0.31939000  1.0
  C  C55  1  0.81192000  0.06585000  0.31145000  1.0
  C  C56  1  0.43395000  0.68893000  0.68834000  1.0
  C  C57  1  0.31976000  0.81842000  0.81914000  1.0
  C  C58  1  0.18864000  0.93356000  0.68815000  1.0
  C  C59  1  0.06530000  0.81067000  0.81116000  1.0
  C  C60  1  0.18045000  0.68052000  0.68060000  1.0
  C  C61  1  0.31162000  0.56574000  0.81141000  1.0
  C  C62  1  0.43816000  0.18409000  0.93860000  1.0
  C  C63  1  0.43074000  0.93042000  0.93061000  1.0
  C  C64  1  0.68400000  0.93900000  0.93859000  1.0
  C  C65  1  0.56123000  0.81622000  0.06152000  1.0
  C  C66  1  0.56936000  0.06946000  0.06948000  1.0
  C  C67  1  0.31569000  0.06170000  0.06125000  1.0
  C  C68  1  0.89915000  0.40523000  0.40213000  1.0
  C  C69  1  0.84801000  0.34844000  0.34803000  1.0
  C  C70  1  0.82730000  0.44845000  0.38778000  1.0
  C  C71  1  0.91942000  0.30468000  0.36194000  1.0
  C  C72  1  0.80245000  0.41997000  0.36102000  1.0
  C  C73  1  0.94393000  0.33324000  0.38851000  1.0
  C  C74  1  0.09929000  0.59957000  0.59627000  1.0
  C  C75  1  0.15194000  0.65198000  0.65178000  1.0
  C  C76  1  0.14240000  0.64266000  0.58185000  1.0
  C  C77  1  0.10933000  0.60928000  0.66666667  1.0
  C  C78  1  0.16822000  0.66835000  0.60949000  1.0
  C  C79  1  0.08379000  0.58384000  0.63908000  1.0
  C  C80  1  0.30343000  0.45342000  0.40121000  1.0
  C  C81  1  0.44657000  0.29592000  0.34880000  1.0
  C  C82  1  0.25895000  0.41308000  0.41357000  1.0
  C  C83  1  0.49098000  0.33628000  0.33637000  1.0
  C  C84  1  0.37835000  0.33839000  0.37246000  1.0
  C  C85  1  0.37177000  0.41084000  0.37767000  1.0
  C  C86  1  0.72645000  0.57595000  0.62898000  1.0
  C  C87  1  0.52374000  0.67371000  0.62129000  1.0
  C  C88  1  0.74118000  0.58628000  0.58662000  1.0
  C  C89  1  0.50901000  0.66353000  0.66367000  1.0
  C  C90  1  0.60283000  0.64187000  0.60860000  1.0
  C  C91  1  0.64736000  0.60772000  0.64166000  1.0
  C  C92  1  0.07633000  0.22603000  0.62882000  1.0
  C  C93  1  0.17413000  0.02345000  0.62118000  1.0
  C  C94  1  0.08655000  0.24078000  0.58645000  1.0
  C  C95  1  0.16379000  0.00864000  0.66354000  1.0
  C  C96  1  0.14232000  0.10251000  0.60850000  1.0
  C  C97  1  0.10813000  0.14697000  0.64155000  1.0
  C  C98  1  0.84487000  0.79998000  0.39760000  1.0
  C  C99  1  0.90508000  0.95010000  0.35246000  1.0
  C  C100  1  0.91364000  0.75900000  0.41359000  1.0
  C  C101  1  0.83636000  0.99106000  0.33641000  1.0
  C  C102  1  0.90836000  0.88049000  0.37468000  1.0
  C  C103  1  0.84173000  0.86947000  0.37528000  1.0
  C  C104  1  0.65390000  0.15378000  0.15060000  1.0
  C  C105  1  0.59821000  0.09833000  0.09800000  1.0
  C  C106  1  0.66828000  0.16820000  0.10748000  1.0
  C  C107  1  0.58336000  0.08343000  0.14068000  1.0
  C  C108  1  0.64054000  0.14061000  0.08172000  1.0
  C  C109  1  0.61103000  0.11097000  0.16619000  1.0
  C  C110  1  0.67375000  0.52394000  0.12139000  1.0
  C  C111  1  0.57597000  0.72669000  0.12864000  1.0
  C  C112  1  0.66354000  0.50947000  0.16378000  1.0
  C  C113  1  0.58623000  0.74123000  0.08626000  1.0
  C  C114  1  0.60768000  0.64767000  0.14149000  1.0
  C  C115  1  0.64182000  0.60297000  0.10853000  1.0
  C  C116  1  0.08009000  0.12462000  0.17766000  1.0
  C  C117  1  0.17023000  0.12484000  0.07253000  1.0
  C  C118  1  0.00922000  0.16354000  0.16380000  1.0
  C  C119  1  0.24112000  0.08618000  0.08642000  1.0
  C  C120  1  0.11153000  0.13884000  0.10568000  1.0
  C  C121  1  0.13873000  0.11044000  0.14450000  1.0
  C  C122  1  0.34491000  0.85079000  0.84783000  1.0
  C  C123  1  0.40182000  0.90201000  0.90191000  1.0
  C  C124  1  0.30175000  0.92266000  0.86212000  1.0
  C  C125  1  0.44549000  0.83056000  0.88808000  1.0
  C  C126  1  0.33027000  0.94754000  0.88885000  1.0
  C  C127  1  0.41690000  0.80604000  0.86150000  1.0
  C  C128  1  0.40496000  0.45005000  0.85241000  1.0
  C  C129  1  0.34494000  0.29979000  0.89761000  1.0
  C  C130  1  0.33625000  0.49090000  0.83635000  1.0
  C  C131  1  0.41367000  0.25889000  0.91367000  1.0
  C  C132  1  0.34172000  0.36931000  0.87529000  1.0
  C  C133  1  0.40828000  0.38044000  0.87469000  1.0
  C  C134  1  0.94614000  0.79575000  0.84883000  1.0
  C  C135  1  0.80353000  0.95359000  0.90122000  1.0
  C  C136  1  0.99073000  0.83592000  0.83631000  1.0
  C  C137  1  0.75884000  0.91351000  0.91370000  1.0
  C  C138  1  0.87171000  0.91083000  0.87762000  1.0
  C  C139  1  0.87801000  0.83843000  0.87249000  1.0
  S  S140  1  0.29979000  0.32350000  0.39681000  1.0
  S  S141  1  0.45030000  0.42576000  0.35326000  1.0
  S  S142  1  0.65938000  0.63437000  0.56200000  1.0
  S  S143  1  0.59084000  0.61536000  0.68826000  1.0
  S  S144  1  0.13474000  0.15903000  0.56188000  1.0
  S  S145  1  0.11563000  0.09039000  0.68815000  1.0
  S  S146  1  0.97461000  0.80445000  0.40171000  1.0
  S  S147  1  0.77554000  0.94544000  0.34820000  1.0
  S  S148  1  0.61523000  0.59141000  0.18820000  1.0
  S  S149  1  0.63432000  0.65926000  0.06183000  1.0
  S  S150  1  0.01335000  0.18296000  0.11058000  1.0
  S  S151  1  0.23691000  0.06660000  0.13962000  1.0
  S  S152  1  0.27549000  0.44521000  0.84818000  1.0
  S  S153  1  0.47449000  0.30452000  0.90180000  1.0
  S  S154  1  0.95034000  0.92545000  0.85311000  1.0
  S  S155  1  0.79930000  0.82390000  0.89694000  1.0
  Br  Br156  1  0.75704000  0.54670000  0.40205000  1.0
  Br  Br157  1  0.17045000  0.67075000  0.52556000  1.0
  Br  Br158  1  0.72472000  0.22432000  0.07936000  1.0
  Br  Br159  1  0.20342000  0.99287000  0.84786000  1.0
  O  O160  1  0.00056000  0.49832000  0.50059000  1.0
  O  O161  1  0.07707000  0.31570000  0.52277000  1.0
  O  O162  1  0.03096000  0.53083000  0.58751000  1.0
  O  O163  1  0.15655000  0.50529000  0.44924000  1.0
  O  O164  1  0.02631000  0.37399000  0.58135000  1.0
  O  O165  1  0.15292000  0.39164000  0.44650000  1.0
  O  O166  1  0.08255000  0.58344000  0.53083000  1.0
  O  O167  1  0.00512000  0.65612000  0.44935000  1.0
  O  O168  1  0.89120000  0.49505000  0.44308000  1.0
  O  O169  1  0.89061000  0.65399000  0.44712000  1.0
  O  O170  1  0.99759000  0.38399000  0.44086000  1.0
  O  O171  1  0.87462000  0.52598000  0.58136000  1.0
  O  O172  1  0.81582000  0.57837000  0.52303000  1.0
  O  O173  1  0.74973000  0.24981000  0.25078000  1.0
  O  O174  1  0.59646000  0.35834000  0.30350000  1.0
  O  O175  1  0.66265000  0.16264000  0.21917000  1.0
  O  O176  1  0.72513000  0.37633000  0.16909000  1.0
  O  O177  1  0.59290000  0.24508000  0.29961000  1.0
  O  O178  1  0.67267000  0.43444000  0.22757000  1.0
  O  O179  1  0.71932000  0.21928000  0.16706000  1.0
  O  O180  1  0.87636000  0.22497000  0.16947000  1.0
  O  O181  1  0.86350000  0.25374000  0.30857000  1.0
  O  O182  1  0.93469000  0.17276000  0.22792000  1.0
  O  O183  1  0.75395000  0.36291000  0.30825000  1.0
  O  O184  1  0.74566000  0.09313000  0.29970000  1.0
  O  O185  1  0.85889000  0.09670000  0.30375000  1.0
  O  O186  1  0.25074000  0.74858000  0.74988000  1.0
  O  O187  1  0.37581000  0.72419000  0.66870000  1.0
  O  O188  1  0.36595000  0.75241000  0.80914000  1.0
  O  O189  1  0.17204000  0.93353000  0.72711000  1.0
  O  O190  1  0.43388000  0.67333000  0.72735000  1.0
  O  O191  1  0.22429000  0.87532000  0.66865000  1.0
  O  O192  1  0.25480000  0.85868000  0.80697000  1.0
  O  O193  1  0.09599000  0.85792000  0.80301000  1.0
  O  O194  1  0.16384000  0.66407000  0.71890000  1.0
  O  O195  1  0.09275000  0.74437000  0.79969000  1.0
  O  O196  1  0.21884000  0.71889000  0.66440000  1.0
  O  O197  1  0.35820000  0.59696000  0.80366000  1.0
  O  O198  1  0.24526000  0.59265000  0.79977000  1.0
  O  O199  1  0.49997000  0.99996000  0.00007000  1.0
  O  O200  1  0.50456000  0.15683000  0.95021000  1.0
  O  O201  1  0.38723000  0.99605000  0.94170000  1.0
  O  O202  1  0.65278000  0.89220000  0.94639000  1.0
  O  O203  1  0.39129000  0.15314000  0.94644000  1.0
  O  O204  1  0.65693000  0.00519000  0.95016000  1.0
  O  O205  1  0.49645000  0.88661000  0.94151000  1.0
  O  O206  1  0.57679000  0.81610000  0.02252000  1.0
  O  O207  1  0.53108000  0.03114000  0.08603000  1.0
  O  O208  1  0.52638000  0.87449000  0.08103000  1.0
  O  O209  1  0.58550000  0.08556000  0.03108000  1.0
  O  O210  1  0.31547000  0.07750000  0.02235000  1.0
  O  O211  1  0.37418000  0.02667000  0.08077000  1.0
