# generated using pymatgen
data_CuH3C4BrN2
_symmetry_space_group_name_H-M   'P 1'
_cell_length_a   5.15953000
_cell_length_b   6.84605000
_cell_length_c   15.30830000
_cell_angle_alpha   90.00020000
_cell_angle_beta   90.00090000
_cell_angle_gamma   100.97800000
_symmetry_Int_Tables_number   1
_chemical_formula_structural   CuH3C4BrN2
_chemical_formula_sum   'Cu4 H12 C16 Br4 N8'
_cell_volume   530.83082088
_cell_formula_units_Z   4
loop_
 _symmetry_equiv_pos_site_id
 _symmetry_equiv_pos_as_xyz
  1  'x, y, z'
loop_
 _atom_site_type_symbol
 _atom_site_label
 _atom_site_symmetry_multiplicity
 _atom_site_fract_x
 _atom_site_fract_y
 _atom_site_fract_z
 _atom_site_occupancy
  Cu  Cu0  1  0.94395000  0.79008000  0.24682000  1.0
  Cu  Cu1  1  0.05607000  0.70992000  0.74682000  1.0
  Cu  Cu2  1  0.05607000  0.20991000  0.75318000  1.0
  Cu  Cu3  1  0.94392000  0.29008000  0.25318000  1.0
  H  H4  1  0.35298000  0.27478000  0.38196000  1.0
  H  H5  1  0.64704000  0.22522000  0.88196000  1.0
  H  H6  1  0.64706000  0.72524000  0.61803000  1.0
  H  H7  1  0.35301000  0.77478000  0.11805000  1.0
  H  H8  1  0.35732000  0.80278000  0.54058000  1.0
  H  H9  1  0.64265000  0.69721000  0.04058000  1.0
  H  H10  1  0.64267000  0.19721000  0.45942000  1.0
  H  H11  1  0.35730000  0.30278000  0.95941000  1.0
  H  H12  1  0.06914000  0.90161000  0.42466000  1.0
  H  H13  1  0.93083000  0.59837000  0.92466000  1.0
  H  H14  1  0.93087000  0.09840000  0.57535000  1.0
  H  H15  1  0.06911000  0.40159000  0.07534000  1.0
  C  C16  1  0.30135000  0.41826000  0.39722000  1.0
  C  C17  1  0.69866000  0.08176000  0.89722000  1.0
  C  C18  1  0.69868000  0.58176000  0.60277000  1.0
  C  C19  1  0.30135000  0.91827000  0.10277000  1.0
  C  C20  1  0.40361000  0.53168000  0.47063000  1.0
  C  C21  1  0.59638000  0.96833000  0.97063000  1.0
  C  C22  1  0.59641000  0.46833000  0.52937000  1.0
  C  C23  1  0.40358000  0.03167000  0.02937000  1.0
  C  C24  1  0.30676000  0.70688000  0.48384000  1.0
  C  C25  1  0.69322000  0.79312000  0.98384000  1.0
  C  C26  1  0.69325000  0.29313000  0.51617000  1.0
  C  C27  1  0.30674000  0.20687000  0.01617000  1.0
  C  C28  1  0.14351000  0.76305000  0.42060000  1.0
  C  C29  1  0.85650000  0.73695000  0.92059000  1.0
  C  C30  1  0.85650000  0.23696000  0.57940000  1.0
  C  C31  1  0.14348000  0.26303000  0.07939000  1.0
  Br  Br32  1  0.66011000  0.00592000  0.32191000  1.0
  Br  Br33  1  0.33987000  0.49408000  0.82192000  1.0
  Br  Br34  1  0.33988000  0.99407000  0.67810000  1.0
  Br  Br35  1  0.66010000  0.50592000  0.17810000  1.0
  N  N36  1  0.06836000  0.65682000  0.34824000  1.0
  N  N37  1  0.93165000  0.84316000  0.84824000  1.0
  N  N38  1  0.93165000  0.34319000  0.65176000  1.0
  N  N39  1  0.06835000  0.15682000  0.15174000  1.0
  N  N40  1  0.13493000  0.47576000  0.33945000  1.0
  N  N41  1  0.86510000  0.02423000  0.83945000  1.0
  N  N42  1  0.86508000  0.52426000  0.66055000  1.0
  N  N43  1  0.13493000  0.97575000  0.16055000  1.0
