# generated using pymatgen
data_ZnH28C32(NO2)4
_symmetry_space_group_name_H-M   'P 1'
_cell_length_a   6.42675000
_cell_length_b   8.39461000
_cell_length_c   13.30650000
_cell_angle_alpha   83.95510000
_cell_angle_beta   87.81600000
_cell_angle_gamma   84.19400000
_symmetry_Int_Tables_number   1
_chemical_formula_structural   ZnH28C32(NO2)4
_chemical_formula_sum   'Zn1 H28 C32 N4 O8'
_cell_volume   709.95904852
_cell_formula_units_Z   1
loop_
 _symmetry_equiv_pos_site_id
 _symmetry_equiv_pos_as_xyz
  1  'x, y, z'
loop_
 _atom_site_type_symbol
 _atom_site_label
 _atom_site_symmetry_multiplicity
 _atom_site_fract_x
 _atom_site_fract_y
 _atom_site_fract_z
 _atom_site_occupancy
  Zn  Zn0  1  0.00000000  0.50000000  0.50000000  1.0
  H  H1  1  0.45166000  0.80703000  0.23882000  1.0
  H  H2  1  0.54834000  0.19297000  0.76118000  1.0
  H  H3  1  0.77603000  0.70024000  0.12429000  1.0
  H  H4  1  0.22397000  0.29977000  0.87571000  1.0
  H  H5  1  0.51055000  0.35744000  0.19432000  1.0
  H  H6  1  0.48945000  0.64256000  0.80568000  1.0
  H  H7  1  0.71633000  0.22620000  0.35936000  1.0
  H  H8  1  0.28367000  0.77380000  0.64064000  1.0
  H  H9  1  0.02007000  0.04256000  0.61682000  1.0
  H  H10  1  0.97992000  0.95745000  0.38318000  1.0
  H  H11  1  0.90271000  0.85898000  0.61570000  1.0
  H  H12  1  0.09729000  0.14102000  0.38430000  1.0
  H  H13  1  0.05732000  0.86837000  0.78325000  1.0
  H  H14  1  0.94266000  0.13160000  0.21675000  1.0
  H  H15  1  0.78201000  0.87639000  0.79848000  1.0
  H  H16  1  0.21796000  0.12360000  0.20151000  1.0
  H  H17  1  0.91180000  0.05611000  0.79908000  1.0
  H  H18  1  0.08819000  0.94387000  0.20092000  1.0
  H  H19  1  0.23350000  0.61324000  0.95303000  1.0
  H  H20  1  0.76651000  0.38677000  0.04697000  1.0
  H  H21  1  0.05403000  0.78882000  0.95718000  1.0
  H  H22  1  0.94597000  0.21119000  0.04282000  1.0
  H  H23  1  0.39457000  0.87839000  0.89128000  1.0
  H  H24  1  0.60543000  0.12162000  0.10872000  1.0
  H  H25  1  0.52879000  0.76357000  0.99288000  1.0
  H  H26  1  0.47121000  0.23644000  0.00712000  1.0
  H  H27  1  0.35136000  0.93540000  0.01570000  1.0
  H  H28  1  0.64864000  0.06461000  0.98430000  1.0
  C  C29  1  0.64909000  0.69093000  0.36916000  1.0
  C  C30  1  0.35091000  0.30907000  0.63085000  1.0
  C  C31  1  0.59586000  0.73998000  0.26455000  1.0
  C  C32  1  0.40414000  0.26002000  0.73545000  1.0
  C  C33  1  0.76140000  0.68552000  0.20612000  1.0
  C  C34  1  0.23860000  0.31449000  0.79388000  1.0
  C  C35  1  0.91605000  0.60121000  0.27433000  1.0
  C  C36  1  0.08395000  0.39879000  0.72567000  1.0
  C  C37  1  0.10921000  0.52304000  0.24436000  1.0
  C  C38  1  0.89080000  0.47696000  0.75564000  1.0
  C  C39  1  0.25966000  0.43394000  0.30727000  1.0
  C  C40  1  0.74034000  0.56606000  0.69273000  1.0
  C  C41  1  0.45826000  0.35830000  0.27257000  1.0
  C  C42  1  0.54174000  0.64170000  0.72743000  1.0
  C  C43  1  0.56231000  0.29140000  0.35632000  1.0
  C  C44  1  0.43768000  0.70860000  0.64368000  1.0
  C  C45  1  0.42888000  0.32665000  0.44332000  1.0
  C  C46  1  0.57112000  0.67336000  0.55668000  1.0
  C  C47  1  0.47871000  0.27832000  0.54505000  1.0
  C  C48  1  0.52129000  0.72169000  0.45495000  1.0
  C  C49  1  0.69260000  0.19299000  0.56073000  1.0
  C  C50  1  0.30740000  0.80701000  0.43927000  1.0
  C  C51  1  0.89682000  0.97151000  0.65113000  1.0
  C  C52  1  0.10318000  0.02849000  0.34887000  1.0
  C  C53  1  0.91038000  0.94275000  0.76490000  1.0
  C  C54  1  0.08961000  0.05724000  0.23510000  1.0
  C  C55  1  0.16333000  0.53581000  0.13334000  1.0
  C  C56  1  0.83668000  0.46419000  0.86666000  1.0
  C  C57  1  0.20128000  0.72726000  0.98665000  1.0
  C  C58  1  0.79872000  0.27275000  0.01335000  1.0
  C  C59  1  0.37989000  0.83205000  0.97136000  1.0
  C  C60  1  0.62011000  0.16796000  0.02864000  1.0
  N  N61  1  0.84252000  0.60466000  0.37229000  1.0
  N  N62  1  0.15748000  0.39534000  0.62771000  1.0
  N  N63  1  0.24535000  0.41155000  0.41100000  1.0
  N  N64  1  0.75465000  0.58845000  0.58900000  1.0
  O  O65  1  0.85209000  0.23939000  0.51759000  1.0
  O  O66  1  0.14790000  0.76061000  0.48241000  1.0
  O  O67  1  0.69349000  0.05877000  0.62539000  1.0
  O  O68  1  0.30650000  0.94123000  0.37461000  1.0
  O  O69  1  0.20548000  0.42081000  0.08403000  1.0
  O  O70  1  0.79452000  0.57920000  0.91598000  1.0
  O  O71  1  0.16240000  0.69157000  0.09515000  1.0
  O  O72  1  0.83760000  0.30844000  0.90485000  1.0
