# generated using pymatgen
data_GdH14C14N3O9F4
_symmetry_space_group_name_H-M   'P 1'
_cell_length_a   11.37480000
_cell_length_b   12.35950554
_cell_length_c   20.22850000
_cell_angle_alpha   91.36304259
_cell_angle_beta   106.32420000
_cell_angle_gamma   117.39091636
_symmetry_Int_Tables_number   1
_chemical_formula_structural   GdH14C14N3O9F4
_chemical_formula_sum   'Gd4 H56 C56 N12 O36 F16'
_cell_volume   2383.80540634
_cell_formula_units_Z   4
loop_
 _symmetry_equiv_pos_site_id
 _symmetry_equiv_pos_as_xyz
  1  'x, y, z'
loop_
 _atom_site_type_symbol
 _atom_site_label
 _atom_site_symmetry_multiplicity
 _atom_site_fract_x
 _atom_site_fract_y
 _atom_site_fract_z
 _atom_site_occupancy
  Gd  Gd0  1  0.75761000  0.89251000  0.69638000  1.0
  Gd  Gd1  1  0.66871000  0.60743000  0.80360000  1.0
  Gd  Gd2  1  0.24239000  0.10749000  0.30362000  1.0
  Gd  Gd3  1  0.33129000  0.39257000  0.19640000  1.0
  H  H4  1  0.02027000  0.97730000  0.61580000  1.0
  H  H5  1  0.92714000  0.52261000  0.88422000  1.0
  H  H6  1  0.97973000  0.02270000  0.38420000  1.0
  H  H7  1  0.07286000  0.47739000  0.11578000  1.0
  H  H8  1  0.02531000  0.26306000  0.66053000  1.0
  H  H9  1  0.60167000  0.23688000  0.83937000  1.0
  H  H10  1  0.97469000  0.73694000  0.33947000  1.0
  H  H11  1  0.39833000  0.76312000  0.16063000  1.0
  H  H12  1  0.03940000  0.30308000  0.57749000  1.0
  H  H13  1  0.65869000  0.19682000  0.92241000  1.0
  H  H14  1  0.96060000  0.69692000  0.42251000  1.0
  H  H15  1  0.34130000  0.80318000  0.07759000  1.0
  H  H16  1  0.19435000  0.34843000  0.65000000  1.0
  H  H17  1  0.69583000  0.15145000  0.84991000  1.0
  H  H18  1  0.80565000  0.65157000  0.35000000  1.0
  H  H19  1  0.30417000  0.84855000  0.15009000  1.0
  H  H20  1  0.13994000  0.06390000  0.54623000  1.0
  H  H21  1  0.02967000  0.43590000  0.95373000  1.0
  H  H22  1  0.86006000  0.93610000  0.45377000  1.0
  H  H23  1  0.97033000  0.56410000  0.04628000  1.0
  H  H24  1  0.25897000  0.22576000  0.57354000  1.0
  H  H25  1  0.95950000  0.27404000  0.92640000  1.0
  H  H26  1  0.74103000  0.77424000  0.42646000  1.0
  H  H27  1  0.04050000  0.72596000  0.07360000  1.0
  H  H28  1  0.09738000  0.17371000  0.50530000  1.0
  H  H29  1  0.91820000  0.32611000  0.99465000  1.0
  H  H30  1  0.90262000  0.82629000  0.49470000  1.0
  H  H31  1  0.08180000  0.67389000  0.00535000  1.0
  H  H32  1  0.51789000  0.99373000  0.68737000  1.0
  H  H33  1  0.33671000  0.50626000  0.81260000  1.0
  H  H34  1  0.48211000  0.00627000  0.31263000  1.0
  H  H35  1  0.66329000  0.49374000  0.18740000  1.0
  H  H36  1  0.40401000  0.09230000  0.68899000  1.0
  H  H37  1  0.12257000  0.40758000  0.81095000  1.0
  H  H38  1  0.59599000  0.90770000  0.31101000  1.0
  H  H39  1  0.87743000  0.59242000  0.18905000  1.0
  H  H40  1  0.43294000  0.20652000  0.63340000  1.0
  H  H41  1  0.09296000  0.29338000  0.86654000  1.0
  H  H42  1  0.56707000  0.79349000  0.36660000  1.0
  H  H43  1  0.90704000  0.70662000  0.13346000  1.0
  H  H44  1  0.51000000  0.25461000  0.72576000  1.0
  H  H45  1  0.02962000  0.24526000  0.77418000  1.0
  H  H46  1  0.49000000  0.74539000  0.27424000  1.0
  H  H47  1  0.97038000  0.75474000  0.22582000  1.0
  H  H48  1  0.80149000  0.27228000  0.66833000  1.0
  H  H49  1  0.36095000  0.22778000  0.83165000  1.0
  H  H50  1  0.19851000  0.72772000  0.33167000  1.0
  H  H51  1  0.63905000  0.77222000  0.16835000  1.0
  H  H52  1  0.75395000  0.36496000  0.71354000  1.0
  H  H53  1  0.17554000  0.13502000  0.78645000  1.0
  H  H54  1  0.24606000  0.63505000  0.28646000  1.0
  H  H55  1  0.82445000  0.86497000  0.21355000  1.0
  H  H56  1  0.67780000  0.31782000  0.62074000  1.0
  H  H57  1  0.23933000  0.18224000  0.87925000  1.0
  H  H58  1  0.32220000  0.68218000  0.37926000  1.0
  H  H59  1  0.76067000  0.81776000  0.12075000  1.0
  C  C60  1  0.47380000  0.74989000  0.74996000  1.0
  C  C61  1  0.52620000  0.25011000  0.25004000  1.0
  C  C62  1  0.34104000  0.74990000  0.74996000  1.0
  C  C63  1  0.65896000  0.25010000  0.25004000  1.0
  C  C64  1  0.34338000  0.85505000  0.77866000  1.0
  C  C65  1  0.20955000  0.64476000  0.72126000  1.0
  C  C66  1  0.65662000  0.14495000  0.22134000  1.0
  C  C67  1  0.79046000  0.35524000  0.27874000  1.0
  C  C68  1  0.22089000  0.85537000  0.77818000  1.0
  C  C69  1  0.08722000  0.64445000  0.72174000  1.0
  C  C70  1  0.77911000  0.14463000  0.22182000  1.0
  C  C71  1  0.91278000  0.35555000  0.27826000  1.0
  C  C72  1  0.08969000  0.74993000  0.74995000  1.0
  C  C73  1  0.91031000  0.25007000  0.25005000  1.0
  C  C74  1  0.95650000  0.74994000  0.74993000  1.0
  C  C75  1  0.04349000  0.25005000  0.25007000  1.0
  C  C76  1  0.57753000  0.56026000  0.65176000  1.0
  C  C77  1  0.86553000  0.93973000  0.84824000  1.0
  C  C78  1  0.42247000  0.43974000  0.34824000  1.0
  C  C79  1  0.13447000  0.06027000  0.15176000  1.0
  C  C80  1  0.53752000  0.53026000  0.57346000  1.0
  C  C81  1  0.93387000  0.96977000  0.92655000  1.0
  C  C82  1  0.46248000  0.46974000  0.42654000  1.0
  C  C83  1  0.06613000  0.03023000  0.07345000  1.0
  C  C84  1  0.63699000  0.54294000  0.54234000  1.0
  C  C85  1  0.05184000  0.95719000  0.95766000  1.0
  C  C86  1  0.36302000  0.45706000  0.45765000  1.0
  C  C87  1  0.94816000  0.04281000  0.04235000  1.0
  C  C88  1  0.40018000  0.48729000  0.52992000  1.0
  C  C89  1  0.88290000  0.01260000  0.97009000  1.0
  C  C90  1  0.59983000  0.51272000  0.47008000  1.0
  C  C91  1  0.11710000  0.98740000  0.02991000  1.0
  C  C92  1  0.01752000  0.06059000  0.63430000  1.0
  C  C93  1  0.82263000  0.43933000  0.86566000  1.0
  C  C94  1  0.98248000  0.93941000  0.36570000  1.0
  C  C95  1  0.17737000  0.56067000  0.13434000  1.0
  C  C96  1  0.08535000  0.27552000  0.62493000  1.0
  C  C97  1  0.68481000  0.22439000  0.87498000  1.0
  C  C98  1  0.91465000  0.72448000  0.37507000  1.0
  C  C99  1  0.31519000  0.77561000  0.12502000  1.0
  C  C100  1  0.14783000  0.15513000  0.55519000  1.0
  C  C101  1  0.93737000  0.34468000  0.94476000  1.0
  C  C102  1  0.85216000  0.84487000  0.44481000  1.0
  C  C103  1  0.06264000  0.65533000  0.05524000  1.0
  C  C104  1  0.61085000  0.07335000  0.68199000  1.0
  C  C105  1  0.35545000  0.42664000  0.81799000  1.0
  C  C106  1  0.38915000  0.92665000  0.31801000  1.0
  C  C107  1  0.64455000  0.57336000  0.18201000  1.0
  C  C108  1  0.47996000  0.18268000  0.68194000  1.0
  C  C109  1  0.11528000  0.31723000  0.81800000  1.0
  C  C110  1  0.52004000  0.81732000  0.31806000  1.0
  C  C111  1  0.88472000  0.68277000  0.18200000  1.0
  C  C112  1  0.71669000  0.29033000  0.66986000  1.0
  C  C113  1  0.25658000  0.20970000  0.83012000  1.0
  C  C114  1  0.28331000  0.70967000  0.33014000  1.0
  C  C115  1  0.74343000  0.79031000  0.16988000  1.0
  N  N116  1  0.08137000  0.15912000  0.60630000  1.0
  N  N117  1  0.81585000  0.34075000  0.89363000  1.0
  N  N118  1  0.91863000  0.84088000  0.39370000  1.0
  N  N119  1  0.18415000  0.65925000  0.10637000  1.0
  N  N120  1  0.60334000  0.17744000  0.67834000  1.0
  N  N121  1  0.24753000  0.32254000  0.82161000  1.0
  N  N122  1  0.39666000  0.82256000  0.32166000  1.0
  N  N123  1  0.75247000  0.67746000  0.17839000  1.0
  N  N124  1  0.61117000  0.81148000  0.54600000  1.0
  N  N125  1  0.75408000  0.68854000  0.95401000  1.0
  N  N126  1  0.38883000  0.18852000  0.45400000  1.0
  N  N127  1  0.24592000  0.31146000  0.04599000  1.0
  O  O128  1  0.55882000  0.84138000  0.73059000  1.0
  O  O129  1  0.48676000  0.65843000  0.76935000  1.0
  O  O130  1  0.44118000  0.15862000  0.26941000  1.0
  O  O131  1  0.51324000  0.34157000  0.23065000  1.0
  O  O132  1  0.93682000  0.83382000  0.72263000  1.0
  O  O133  1  0.88020000  0.66608000  0.77721000  1.0
  O  O134  1  0.06318000  0.16618000  0.27737000  1.0
  O  O135  1  0.11980000  0.33392000  0.22279000  1.0
  O  O136  1  0.64689000  0.67386000  0.68125000  1.0
  O  O137  1  0.79184000  0.82612000  0.81874000  1.0
  O  O138  1  0.35311000  0.32614000  0.31875000  1.0
  O  O139  1  0.20816000  0.17388000  0.18126000  1.0
  O  O140  1  0.54377000  0.47323000  0.68587000  1.0
  O  O141  1  0.88464000  0.02674000  0.81412000  1.0
  O  O142  1  0.45623000  0.52677000  0.31413000  1.0
  O  O143  1  0.11535000  0.97326000  0.18588000  1.0
  O  O144  1  0.95840000  0.06005000  0.67822000  1.0
  O  O145  1  0.72019000  0.43991000  0.82172000  1.0
  O  O146  1  0.04160000  0.93995000  0.32178000  1.0
  O  O147  1  0.27980000  0.56008000  0.17828000  1.0
  O  O148  1  0.71543000  0.06327000  0.68054000  1.0
  O  O149  1  0.47158000  0.43675000  0.81947000  1.0
  O  O150  1  0.28457000  0.93673000  0.31946000  1.0
  O  O151  1  0.52842000  0.56325000  0.18053000  1.0
  O  O152  1  0.54825000  0.81748000  0.58818000  1.0
  O  O153  1  0.64292000  0.68254000  0.91191000  1.0
  O  O154  1  0.45175000  0.18252000  0.41182000  1.0
  O  O155  1  0.35708000  0.31746000  0.08809000  1.0
  O  O156  1  0.55117000  0.77623000  0.48219000  1.0
  O  O157  1  0.79334000  0.72384000  0.01783000  1.0
  O  O158  1  0.44883000  0.22377000  0.51781000  1.0
  O  O159  1  0.20666000  0.27616000  0.98217000  1.0
  O  O160  1  0.74264000  0.84395000  0.57418000  1.0
  O  O161  1  0.82475000  0.65600000  0.92574000  1.0
  O  O162  1  0.25736000  0.15605000  0.42582000  1.0
  O  O163  1  0.17525000  0.34400000  0.07426000  1.0
  F  F164  1  0.46700000  0.95995000  0.80950000  1.0
  F  F165  1  0.19741000  0.53984000  0.69044000  1.0
  F  F166  1  0.53300000  0.04005000  0.19050000  1.0
  F  F167  1  0.80259000  0.46016000  0.30956000  1.0
  F  F168  1  0.23257000  0.96088000  0.80751000  1.0
  F  F169  1  0.96407000  0.53896000  0.69239000  1.0
  F  F170  1  0.76743000  0.03912000  0.19249000  1.0
  F  F171  1  0.03592000  0.46103000  0.30761000  1.0
  F  F172  1  0.77154000  0.58340000  0.58272000  1.0
  F  F173  1  0.10562000  0.91676000  0.91728000  1.0
  F  F174  1  0.22846000  0.41660000  0.41728000  1.0
  F  F175  1  0.89438000  0.08324000  0.08272000  1.0
  F  F176  1  0.30069000  0.47565000  0.55799000  1.0
  F  F177  1  0.76693000  0.02415000  0.94201000  1.0
  F  F178  1  0.69931000  0.52435000  0.44201000  1.0
  F  F179  1  0.23306000  0.97585000  0.05799000  1.0
