# generated using pymatgen
data_CdH10C12(NO4)2
_symmetry_space_group_name_H-M   'P 1'
_cell_length_a   7.44440000
_cell_length_b   8.30260000
_cell_length_c   10.67170000
_cell_angle_alpha   93.82310000
_cell_angle_beta   89.99960000
_cell_angle_gamma   89.99990000
_symmetry_Int_Tables_number   1
_chemical_formula_structural   CdH10C12(NO4)2
_chemical_formula_sum   'Cd2 H20 C24 N4 O16'
_cell_volume   658.12728588
_cell_formula_units_Z   2
loop_
 _symmetry_equiv_pos_site_id
 _symmetry_equiv_pos_as_xyz
  1  'x, y, z'
loop_
 _atom_site_type_symbol
 _atom_site_label
 _atom_site_symmetry_multiplicity
 _atom_site_fract_x
 _atom_site_fract_y
 _atom_site_fract_z
 _atom_site_occupancy
  Cd  Cd0  1  0.08428000  0.50000000  0.25000000  1.0
  Cd  Cd1  1  0.91572000  0.50000000  0.75000000  1.0
  H  H2  1  0.56307000  0.69936000  0.97285000  1.0
  H  H3  1  0.56308000  0.30064000  0.52715000  1.0
  H  H4  1  0.43693000  0.30064000  0.02715000  1.0
  H  H5  1  0.43693000  0.69936000  0.47285000  1.0
  H  H6  1  0.70912000  0.87716000  0.82423000  1.0
  H  H7  1  0.70913000  0.12284000  0.67577000  1.0
  H  H8  1  0.29087000  0.12284000  0.17577000  1.0
  H  H9  1  0.29087000  0.87716000  0.32423000  1.0
  H  H10  1  0.86183000  0.13366000  0.90975000  1.0
  H  H11  1  0.86183000  0.86634000  0.59024000  1.0
  H  H12  1  0.13817000  0.86635000  0.09025000  1.0
  H  H13  1  0.13817000  0.13366000  0.40976000  1.0
  H  H14  1  0.23900000  0.58594000  0.03128000  1.0
  H  H15  1  0.23900000  0.41406000  0.46873000  1.0
  H  H16  1  0.76100000  0.41406000  0.96872000  1.0
  H  H17  1  0.76100000  0.58594000  0.53127000  1.0
  H  H18  1  0.39236000  0.62538000  0.13795000  1.0
  H  H19  1  0.39236000  0.37462000  0.36205000  1.0
  H  H20  1  0.60764000  0.37462000  0.86205000  1.0
  H  H21  1  0.60764000  0.62538000  0.63795000  1.0
  C  C22  1  0.88640000  0.24020000  0.15368000  1.0
  C  C23  1  0.88640000  0.75979000  0.34631000  1.0
  C  C24  1  0.11360000  0.75980000  0.84632000  1.0
  C  C25  1  0.11360000  0.24021000  0.65369000  1.0
  C  C26  1  0.79084000  0.09166000  0.10121000  1.0
  C  C27  1  0.79084000  0.90834000  0.39878000  1.0
  C  C28  1  0.20916000  0.90834000  0.89878000  1.0
  C  C29  1  0.20916000  0.09166000  0.60122000  1.0
  C  C30  1  0.70748000  0.98723000  0.18087000  1.0
  C  C31  1  0.70748000  0.01277000  0.31912000  1.0
  C  C32  1  0.29252000  0.01277000  0.81913000  1.0
  C  C33  1  0.29252000  0.98723000  0.68088000  1.0
  C  C34  1  0.62630000  0.81305000  0.00394000  1.0
  C  C35  1  0.62630000  0.18695000  0.49606000  1.0
  C  C36  1  0.37370000  0.18695000  0.99606000  1.0
  C  C37  1  0.37370000  0.81305000  0.50394000  1.0
  C  C38  1  0.71086000  0.91280000  0.92411000  1.0
  C  C39  1  0.71087000  0.08720000  0.57588000  1.0
  C  C40  1  0.28913000  0.08720000  0.07589000  1.0
  C  C41  1  0.28914000  0.91280000  0.42412000  1.0
  C  C42  1  0.79268000  0.05488000  0.97161000  1.0
  C  C43  1  0.79268000  0.94512000  0.52838000  1.0
  C  C44  1  0.20732000  0.94512000  0.02839000  1.0
  C  C45  1  0.20732000  0.05488000  0.47162000  1.0
  N  N46  1  0.62199000  0.85101000  0.13028000  1.0
  N  N47  1  0.62199000  0.14900000  0.36971000  1.0
  N  N48  1  0.37801000  0.14900000  0.86972000  1.0
  N  N49  1  0.37801000  0.85100000  0.63028000  1.0
  O  O50  1  0.88796000  0.36459000  0.08968000  1.0
  O  O51  1  0.88795000  0.63541000  0.41031000  1.0
  O  O52  1  0.11204000  0.63541000  0.91032000  1.0
  O  O53  1  0.11205000  0.36459000  0.58969000  1.0
  O  O54  1  0.96991000  0.23605000  0.25746000  1.0
  O  O55  1  0.96992000  0.76395000  0.24254000  1.0
  O  O56  1  0.03009000  0.76395000  0.74254000  1.0
  O  O57  1  0.03008000  0.23605000  0.75746000  1.0
  O  O58  1  0.30039000  0.54361000  0.10588000  1.0
  O  O59  1  0.30038000  0.45639000  0.39412000  1.0
  O  O60  1  0.69962000  0.45639000  0.89412000  1.0
  O  O61  1  0.69962000  0.54361000  0.60588000  1.0
  O  O62  1  0.53653000  0.75706000  0.20415000  1.0
  O  O63  1  0.53653000  0.24294000  0.29585000  1.0
  O  O64  1  0.46347000  0.24294000  0.79585000  1.0
  O  O65  1  0.46347000  0.75706000  0.70415000  1.0
