# generated using pymatgen
data_Zn4H8C24S4Br4N4O13
_symmetry_space_group_name_H-M   'P 1'
_cell_length_a   19.54370000
_cell_length_b   19.55570000
_cell_length_c   33.11910000
_cell_angle_alpha   79.57600000
_cell_angle_beta   79.62060000
_cell_angle_gamma   64.20100000
_symmetry_Int_Tables_number   1
_chemical_formula_structural   Zn4H8C24S4Br4N4O13
_chemical_formula_sum   'Zn16 H32 C96 S16 Br16 N16 O52'
_cell_volume   11134.31346893
_cell_formula_units_Z   4
loop_
 _symmetry_equiv_pos_site_id
 _symmetry_equiv_pos_as_xyz
  1  'x, y, z'
loop_
 _atom_site_type_symbol
 _atom_site_label
 _atom_site_symmetry_multiplicity
 _atom_site_fract_x
 _atom_site_fract_y
 _atom_site_fract_z
 _atom_site_occupancy
  Zn  Zn0  1  0.60262000  0.94711000  0.51886000  1.0
  Zn  Zn1  1  0.52381000  0.01039000  0.44049000  1.0
  Zn  Zn2  1  0.43354000  0.94663000  0.51730000  1.0
  Zn  Zn3  1  0.44154000  0.09559000  0.52487000  1.0
  Zn  Zn4  1  0.65342000  0.30905000  0.72525000  1.0
  Zn  Zn5  1  0.80390000  0.31607000  0.73305000  1.0
  Zn  Zn6  1  0.73918000  0.22641000  0.81011000  1.0
  Zn  Zn7  1  0.80159000  0.14883000  0.73187000  1.0
  Zn  Zn8  1  0.23948000  0.72641000  0.30974000  1.0
  Zn  Zn9  1  0.30241000  0.64803000  0.23174000  1.0
  Zn  Zn10  1  0.15377000  0.80880000  0.22514000  1.0
  Zn  Zn11  1  0.30400000  0.81606000  0.23296000  1.0
  Zn  Zn12  1  0.93330000  0.44647000  0.01703000  1.0
  Zn  Zn13  1  0.94146000  0.59474000  0.02458000  1.0
  Zn  Zn14  1  0.10234000  0.44711000  0.01872000  1.0
  Zn  Zn15  1  0.02307000  0.51075000  0.93988000  1.0
  H  H16  1  0.45114000  0.68071000  0.59223000  1.0
  H  H17  1  0.44919000  0.76854000  0.56788000  1.0
  H  H18  1  0.79745000  0.57840000  0.65263000  1.0
  H  H19  1  0.80047000  0.48926000  0.67532000  1.0
  H  H20  1  0.45294000  0.22740000  0.31637000  1.0
  H  H21  1  0.47441000  0.15836000  0.35919000  1.0
  H  H22  1  0.29606000  0.51191000  0.43793000  1.0
  H  H23  1  0.27204000  0.58041000  0.39480000  1.0
  H  H24  1  0.73835000  0.95411000  0.31205000  1.0
  H  H25  1  0.66956000  0.97810000  0.35506000  1.0
  H  H26  1  0.02247000  0.79818000  0.43401000  1.0
  H  H27  1  0.09170000  0.77624000  0.39133000  1.0
  H  H28  1  0.19014000  0.25924000  0.61618000  1.0
  H  H29  1  0.26844000  0.20663000  0.58269000  1.0
  H  H30  1  0.04582000  0.99731000  0.63485000  1.0
  H  H31  1  0.96612000  0.05068000  0.66696000  1.0
  H  H32  1  0.52235000  0.29457000  0.93416000  1.0
  H  H33  1  0.59169000  0.27311000  0.89140000  1.0
  H  H34  1  0.23811000  0.45644000  0.81205000  1.0
  H  H35  1  0.16911000  0.48001000  0.85502000  1.0
  H  H36  1  0.91613000  0.84946000  0.77495000  1.0
  H  H37  1  0.88473000  0.94828000  0.76224000  1.0
  H  H38  1  0.84248000  0.88919000  0.97799000  1.0
  H  H39  1  0.87625000  0.79056000  0.99123000  1.0
  H  H40  1  0.54669000  0.49693000  0.13541000  1.0
  H  H41  1  0.46670000  0.55031000  0.16755000  1.0
  H  H42  1  0.69167000  0.75826000  0.11722000  1.0
  H  H43  1  0.76955000  0.70588000  0.08354000  1.0
  H  H44  1  0.29750000  0.07844000  0.15234000  1.0
  H  H45  1  0.30051000  0.98925000  0.17516000  1.0
  H  H46  1  0.95188000  0.17998000  0.09135000  1.0
  H  H47  1  0.94926000  0.26823000  0.06763000  1.0
  C  C48  1  0.69034000  0.93751000  0.43624000  1.0
  C  C49  1  0.43211000  0.93269000  0.43184000  1.0
  C  C50  1  0.55885000  0.82180000  0.56031000  1.0
  C  C51  1  0.30914000  0.06385000  0.56327000  1.0
  C  C52  1  0.56745000  0.06878000  0.56794000  1.0
  C  C53  1  0.44186000  0.17858000  0.44053000  1.0
  C  C54  1  0.68744000  0.43991000  0.68620000  1.0
  C  C55  1  0.81768000  0.31789000  0.81807000  1.0
  C  C56  1  0.57118000  0.30772000  0.80979000  1.0
  C  C57  1  0.81404000  0.05916000  0.81328000  1.0
  C  C58  1  0.68324000  0.18111000  0.68179000  1.0
  C  C59  1  0.92938000  0.18917000  0.69128000  1.0
  C  C60  1  0.31346000  0.55956000  0.31386000  1.0
  C  C61  1  0.18301000  0.68108000  0.18197000  1.0
  C  C62  1  0.07162000  0.80749000  0.30986000  1.0
  C  C63  1  0.18739000  0.94001000  0.18629000  1.0
  C  C64  1  0.31728000  0.81777000  0.31845000  1.0
  C  C65  1  0.42980000  0.68948000  0.19149000  1.0
  C  C66  1  0.80906000  0.56415000  0.06323000  1.0
  C  C67  1  0.06668000  0.56969000  0.06778000  1.0
  C  C68  1  0.05828000  0.32221000  0.06060000  1.0
  C  C69  1  0.19000000  0.43766000  0.93634000  1.0
  C  C70  1  0.93203000  0.43190000  0.93200000  1.0
  C  C71  1  0.93839000  0.67866000  0.94041000  1.0
  C  C72  1  0.59734000  0.09770000  0.59723000  1.0
  C  C73  1  0.65348000  0.15218000  0.65243000  1.0
  C  C74  1  0.55509000  0.17141000  0.60980000  1.0
  C  C75  1  0.69821000  0.08088000  0.63733000  1.0
  C  C76  1  0.58011000  0.19590000  0.63944000  1.0
  C  C77  1  0.66827000  0.05157000  0.61258000  1.0
  C  C78  1  0.40254000  0.90302000  0.40266000  1.0
  C  C79  1  0.34699000  0.84716000  0.34770000  1.0
  C  C80  1  0.36031000  0.85884000  0.41797000  1.0
  C  C81  1  0.39395000  0.88638000  0.33243000  1.0
  C  C82  1  0.32843000  0.83617000  0.39084000  1.0
  C  C83  1  0.41644000  0.91867000  0.35941000  1.0
  C  C84  1  0.54267000  0.70253000  0.59739000  1.0
  C  C85  1  0.70410000  0.55854000  0.64864000  1.0
  C  C86  1  0.58341000  0.74848000  0.58520000  1.0
  C  C87  1  0.66275000  0.51324000  0.66136000  1.0
  C  C88  1  0.65888000  0.62844000  0.62587000  1.0
  C  C89  1  0.58696000  0.63375000  0.62128000  1.0
  C  C90  1  0.42699000  0.26721000  0.37277000  1.0
  C  C91  1  0.32709000  0.47102000  0.38147000  1.0
  C  C92  1  0.41800000  0.25240000  0.41610000  1.0
  C  C93  1  0.33741000  0.48571000  0.33815000  1.0
  C  C94  1  0.36156000  0.39075000  0.39383000  1.0
  C  C95  1  0.39487000  0.34756000  0.36051000  1.0
  C  C96  1  0.77898000  0.92316000  0.36864000  1.0
  C  C97  1  0.98285000  0.82326000  0.37758000  1.0
  C  C98  1  0.76423000  0.91331000  0.41199000  1.0
  C  C99  1  0.99773000  0.83162000  0.33423000  1.0
  C  C100  1  0.90246000  0.85559000  0.38976000  1.0
  C  C101  1  0.85931000  0.88851000  0.35637000  1.0
  C  C102  1  0.19373000  0.15834000  0.60399000  1.0
  C  C103  1  0.04439000  0.09501000  0.64991000  1.0
  C  C104  1  0.23521000  0.08821000  0.58748000  1.0
  C  C105  1  0.00343000  0.16452000  0.66704000  1.0
  C  C106  1  0.11475000  0.09276000  0.62763000  1.0
  C  C107  1  0.12463000  0.15944000  0.62754000  1.0
  C  C108  1  0.84717000  0.34715000  0.84745000  1.0
  C  C109  1  0.90250000  0.40257000  0.90267000  1.0
  C  C110  1  0.82977000  0.33448000  0.89064000  1.0
  C  C111  1  0.91518000  0.41993000  0.85948000  1.0
  C  C112  1  0.86164000  0.35708000  0.91781000  1.0
  C  C113  1  0.89286000  0.38778000  0.83235000  1.0
  C  C114  1  0.48253000  0.32277000  0.87753000  1.0
  C  C115  1  0.27860000  0.42397000  0.86872000  1.0
  C  C116  1  0.49733000  0.33190000  0.83417000  1.0
  C  C117  1  0.26386000  0.41350000  0.91206000  1.0
  C  C118  1  0.35893000  0.38920000  0.85642000  1.0
  C  C119  1  0.40211000  0.35550000  0.88976000  1.0
  C  C120  1  0.87805000  0.91351000  0.82365000  1.0
  C  C121  1  0.87589000  0.82452000  0.92996000  1.0
  C  C122  1  0.83911000  0.98576000  0.83803000  1.0
  C  C123  1  0.91339000  0.75217000  0.91566000  1.0
  C  C124  1  0.86186000  0.88310000  0.89591000  1.0
  C  C125  1  0.88983000  0.85479000  0.85761000  1.0
  C  C126  1  0.15298000  0.65207000  0.15274000  1.0
  C  C127  1  0.09656000  0.59828000  0.09727000  1.0
  C  C128  1  0.07987000  0.69637000  0.13946000  1.0
  C  C129  1  0.16692000  0.55154000  0.11308000  1.0
  C  C130  1  0.05487000  0.67209000  0.10974000  1.0
  C  C131  1  0.19716000  0.58037000  0.13796000  1.0
  C  C132  1  0.54448000  0.59549000  0.14998000  1.0
  C  C133  1  0.69408000  0.65848000  0.10422000  1.0
  C  C134  1  0.50376000  0.66489000  0.16728000  1.0
  C  C135  1  0.73521000  0.58856000  0.08750000  1.0
  C  C136  1  0.62494000  0.65972000  0.12773000  1.0
  C  C137  1  0.61480000  0.59327000  0.12764000  1.0
  C  C138  1  0.20390000  0.05865000  0.14865000  1.0
  C  C139  1  0.04244000  0.20254000  0.09737000  1.0
  C  C140  1  0.16269000  0.01319000  0.16133000  1.0
  C  C141  1  0.08295000  0.24873000  0.08541000  1.0
  C  C142  1  0.08681000  0.13370000  0.12120000  1.0
  C  C143  1  0.15862000  0.12856000  0.12591000  1.0
  S  S144  1  0.67393000  0.70769000  0.60249000  1.0
  S  S145  1  0.57128000  0.55516000  0.64527000  1.0
  S  S146  1  0.37057000  0.33523000  0.44098000  1.0
  S  S147  1  0.38719000  0.40298000  0.31335000  1.0
  S  S148  1  0.84697000  0.86375000  0.43688000  1.0
  S  S149  1  0.91488000  0.87881000  0.30926000  1.0
  S  S150  1  0.18985000  0.02600000  0.60016000  1.0
  S  S151  1  0.05009000  0.22560000  0.65563000  1.0
  S  S152  1  0.41442000  0.38003000  0.80927000  1.0
  S  S153  1  0.34664000  0.36317000  0.93688000  1.0
  S  S154  1  0.81865000  0.98147000  0.89183000  1.0
  S  S155  1  0.93156000  0.75635000  0.86178000  1.0
  S  S156  1  0.55067000  0.72580000  0.15599000  1.0
  S  S157  1  0.68958000  0.52661000  0.09998000  1.0
  S  S158  1  0.07128000  0.05497000  0.14511000  1.0
  S  S159  1  0.17339000  0.20807000  0.10276000  1.0
  Br  Br160  1  0.46645000  0.24187000  0.58487000  1.0
  Br  Br161  1  0.80224000  0.02427000  0.64732000  1.0
  Br  Br162  1  0.51122000  0.28596000  0.66335000  1.0
  Br  Br163  1  0.72252000  0.94770000  0.60259000  1.0
  Br  Br164  1  0.34881000  0.82465000  0.47519000  1.0
  Br  Br165  1  0.43261000  0.89163000  0.27564000  1.0
  Br  Br166  1  0.25578000  0.79512000  0.41363000  1.0
  Br  Br167  1  0.46110000  0.98811000  0.33584000  1.0
  Br  Br168  1  0.75942000  0.29072000  0.91352000  1.0
  Br  Br169  1  0.95743000  0.49147000  0.83672000  1.0
  Br  Br170  1  0.85236000  0.32088000  0.97487000  1.0
  Br  Br171  1  0.93058000  0.39522000  0.77546000  1.0
  Br  Br172  1  0.01122000  0.78673000  0.16322000  1.0
  Br  Br173  1  0.21986000  0.44735000  0.10358000  1.0
  Br  Br174  1  0.96638000  0.74331000  0.08473000  1.0
  Br  Br175  1  0.30038000  0.52215000  0.14885000  1.0
  N  N176  1  0.47056000  0.72184000  0.58883000  1.0
  N  N177  1  0.77721000  0.53790000  0.65588000  1.0
  N  N178  1  0.46328000  0.21291000  0.34628000  1.0
  N  N179  1  0.28798000  0.52520000  0.40771000  1.0
  N  N180  1  0.72486000  0.96200000  0.34230000  1.0
  N  N181  1  0.03712000  0.78735000  0.40418000  1.0
  N  N182  1  0.21513000  0.21727000  0.59749000  1.0
  N  N183  1  0.02154000  0.03704000  0.65493000  1.0
  N  N184  1  0.53672000  0.28591000  0.90402000  1.0
  N  N185  1  0.22455000  0.46327000  0.84242000  1.0
  N  N186  1  0.90293000  0.90131000  0.78339000  1.0
  N  N187  1  0.85384000  0.83718000  0.97037000  1.0
  N  N188  1  0.52157000  0.53772000  0.15483000  1.0
  N  N189  1  0.71584000  0.71722000  0.09794000  1.0
  N  N190  1  0.27689000  0.03816000  0.15599000  1.0
  N  N191  1  0.97038000  0.22167000  0.08871000  1.0
  O  O192  1  0.50031000  0.99988000  0.50029000  1.0
  O  O193  1  0.68852000  0.91730000  0.47536000  1.0
  O  O194  1  0.49676000  0.93517000  0.42054000  1.0
  O  O195  1  0.49481000  0.84572000  0.54482000  1.0
  O  O196  1  0.63094000  0.97774000  0.41664000  1.0
  O  O197  1  0.60257000  0.85703000  0.55548000  1.0
  O  O198  1  0.39014000  0.95289000  0.46540000  1.0
  O  O199  1  0.34064000  0.99481000  0.55410000  1.0
  O  O200  1  0.49596000  0.08644000  0.57264000  1.0
  O  O201  1  0.33863000  0.11321000  0.55264000  1.0
  O  O202  1  0.61594000  0.02908000  0.54080000  1.0
  O  O203  1  0.47028000  0.11919000  0.42050000  1.0
  O  O204  1  0.43265000  0.17798000  0.47998000  1.0
  O  O205  1  0.74945000  0.25031000  0.75004000  1.0
  O  O206  1  0.63880000  0.41035000  0.69731000  1.0
  O  O207  1  0.79744000  0.36025000  0.78455000  1.0
  O  O208  1  0.63055000  0.27939000  0.82989000  1.0
  O  O209  1  0.75692000  0.40935000  0.69565000  1.0
  O  O210  1  0.57184000  0.31650000  0.77031000  1.0
  O  O211  1  0.81532000  0.25319000  0.82912000  1.0
  O  O212  1  0.77309000  0.11860000  0.83200000  1.0
  O  O213  1  0.72345000  0.13173000  0.70858000  1.0
  O  O214  1  0.83446000  0.05975000  0.77383000  1.0
  O  O215  1  0.66608000  0.25235000  0.67755000  1.0
  O  O216  1  0.90458000  0.25285000  0.70650000  1.0
  O  O217  1  0.89417000  0.14496000  0.69548000  1.0
  O  O218  1  0.24984000  0.75001000  0.24991000  1.0
  O  O219  1  0.27296000  0.61896000  0.33333333  1.0
  O  O220  1  0.22335000  0.63194000  0.20876000  1.0
  O  O221  1  0.07240000  0.81589000  0.27042000  1.0
  O  O222  1  0.33412000  0.56138000  0.27478000  1.0
  O  O223  1  0.13096000  0.77955000  0.33000000  1.0
  O  O224  1  0.16583000  0.75238000  0.17756000  1.0
  O  O225  1  0.13883000  0.91035000  0.19750000  1.0
  O  O226  1  0.29710000  0.85988000  0.28490000  1.0
  O  O227  1  0.25687000  0.90957000  0.19579000  1.0
  O  O228  1  0.31474000  0.75320000  0.32980000  1.0
  O  O229  1  0.39450000  0.64541000  0.19550000  1.0
  O  O230  1  0.40506000  0.75303000  0.20690000  1.0
  O  O231  1  0.00024000  0.49965000  0.00001000  1.0
  O  O232  1  0.84046000  0.49528000  0.05391000  1.0
  O  O233  1  0.99500000  0.58837000  0.07215000  1.0
  O  O234  1  0.10180000  0.35762000  0.05592000  1.0
  O  O235  1  0.83861000  0.61350000  0.05273000  1.0
  O  O236  1  0.99433000  0.34599000  0.04508000  1.0
  O  O237  1  0.11521000  0.52942000  0.04089000  1.0
  O  O238  1  0.18831000  0.41703000  0.97546000  1.0
  O  O239  1  0.99689000  0.43401000  0.92095000  1.0
  O  O240  1  0.13057000  0.47823000  0.91683000  1.0
  O  O241  1  0.88978000  0.45214000  0.96551000  1.0
  O  O242  1  0.92970000  0.67909000  0.98012000  1.0
  O  O243  1  0.96729000  0.61913000  0.92105000  1.0
