# generated using pymatgen
data_MnH9C13NO5
_symmetry_space_group_name_H-M   'P 1'
_cell_length_a   7.24945000
_cell_length_b   9.30089000
_cell_length_c   11.43004443
_cell_angle_alpha   113.99541462
_cell_angle_beta   108.45769896
_cell_angle_gamma   90.02300000
_symmetry_Int_Tables_number   1
_chemical_formula_structural   MnH9C13NO5
_chemical_formula_sum   'Mn2 H18 C26 N2 O10'
_cell_volume   660.40322611
_cell_formula_units_Z   2
loop_
 _symmetry_equiv_pos_site_id
 _symmetry_equiv_pos_as_xyz
  1  'x, y, z'
loop_
 _atom_site_type_symbol
 _atom_site_label
 _atom_site_symmetry_multiplicity
 _atom_site_fract_x
 _atom_site_fract_y
 _atom_site_fract_z
 _atom_site_occupancy
  Mn  Mn0  1  0.50000000  0.00000000  0.00000000  1.0
  Mn  Mn1  1  0.00000000  0.00000000  0.00000000  1.0
  H  H2  1  0.85607000  0.60561000  0.62122000  1.0
  H  H3  1  0.64419000  0.98451000  0.37869000  1.0
  H  H4  1  0.76512000  0.01542000  0.62128000  1.0
  H  H5  1  0.73451000  0.39404000  0.37861000  1.0
  H  H6  1  0.14392000  0.39439000  0.37877000  1.0
  H  H7  1  0.35581000  0.01548000  0.62131000  1.0
  H  H8  1  0.23488000  0.98457000  0.37872000  1.0
  H  H9  1  0.26547000  0.60596000  0.62138000  1.0
  H  H10  1  0.14525000  0.62816000  0.78989000  1.0
  H  H11  1  0.35520000  0.83820000  0.21002000  1.0
  H  H12  1  0.64481000  0.16180000  0.78998000  1.0
  H  H13  1  0.85475000  0.37184000  0.21011000  1.0
  H  H14  1  0.13997000  0.35005000  0.77919000  1.0
  H  H15  1  0.36083000  0.57086000  0.22079000  1.0
  H  H16  1  0.63917000  0.42914000  0.77921000  1.0
  H  H17  1  0.86003000  0.64995000  0.22081000  1.0
  H  H18  1  0.25018000  0.32188000  0.00002000  1.0
  H  H19  1  0.74982000  0.67811000  0.99998000  1.0
  C  C20  1  0.70045000  0.55778000  0.56712000  1.0
  C  C21  1  0.79967000  0.99063000  0.43283000  1.0
  C  C22  1  0.86663000  0.00926000  0.56718000  1.0
  C  C23  1  0.63323000  0.44208000  0.43282000  1.0
  C  C24  1  0.29954000  0.44223000  0.43287000  1.0
  C  C25  1  0.20033000  0.00937000  0.56717000  1.0
  C  C26  1  0.13337000  0.99074000  0.43282000  1.0
  C  C27  1  0.36675000  0.55793000  0.56717000  1.0
  C  C28  1  0.56810000  0.61656000  0.63601000  1.0
  C  C29  1  0.93213000  0.98050000  0.36395000  1.0
  C  C30  1  0.06786000  0.01950000  0.63605000  1.0
  C  C31  1  0.43190000  0.38345000  0.36399000  1.0
  C  C32  1  0.64130000  0.73759000  0.78262000  1.0
  C  C33  1  0.85873000  0.95510000  0.21736000  1.0
  C  C34  1  0.14127000  0.04490000  0.78264000  1.0
  C  C35  1  0.35870000  0.26241000  0.21738000  1.0
  C  C36  1  0.18952000  0.60351000  0.87888000  1.0
  C  C37  1  0.31050000  0.72456000  0.12104000  1.0
  C  C38  1  0.68950000  0.27544000  0.87896000  1.0
  C  C39  1  0.81048000  0.39649000  0.12112000  1.0
  C  C40  1  0.18884000  0.45410000  0.87737000  1.0
  C  C41  1  0.31148000  0.57673000  0.12260000  1.0
  C  C42  1  0.68852000  0.42327000  0.87740000  1.0
  C  C43  1  0.81116000  0.54590000  0.12263000  1.0
  C  C44  1  0.25013000  0.43875000  1.00000000  1.0
  C  C45  1  0.74986000  0.56125000  0.00000000  1.0
  N  N46  1  0.24984000  0.73518000  0.99995000  1.0
  N  N47  1  0.75016000  0.26481000  0.00005000  1.0
  O  O48  1  0.51391000  0.78239000  0.84027000  1.0
  O  O49  1  0.98621000  0.94307000  0.15992000  1.0
  O  O50  1  0.32620000  0.05740000  0.84012000  1.0
  O  O51  1  0.17387000  0.21694000  0.16006000  1.0
  O  O52  1  0.48608000  0.21761000  0.15973000  1.0
  O  O53  1  0.01379000  0.05693000  0.84008000  1.0
  O  O54  1  0.67380000  0.94260000  0.15988000  1.0
  O  O55  1  0.82613000  0.78306000  0.83994000  1.0
  O  O56  1  0.24982000  0.87878000  0.99997000  1.0
  O  O57  1  0.75019000  0.12122000  0.00003000  1.0
