# generated using pymatgen
data_Co2H36C50N4O11
_symmetry_space_group_name_H-M   'P 1'
_cell_length_a   10.88320000
_cell_length_b   10.88320000
_cell_length_c   19.34190000
_cell_angle_alpha   92.51970000
_cell_angle_beta   92.51960000
_cell_angle_gamma   95.19890000
_symmetry_Int_Tables_number   1
_chemical_formula_structural   Co2H36C50N4O11
_chemical_formula_sum   'Co4 H72 C100 N8 O22'
_cell_volume   2276.65433890
_cell_formula_units_Z   2
loop_
 _symmetry_equiv_pos_site_id
 _symmetry_equiv_pos_as_xyz
  1  'x, y, z'
loop_
 _atom_site_type_symbol
 _atom_site_label
 _atom_site_symmetry_multiplicity
 _atom_site_fract_x
 _atom_site_fract_y
 _atom_site_fract_z
 _atom_site_occupancy
  Co  Co0  1  0.73049000  0.39203000  0.66964000  1.0
  Co  Co1  1  0.60797000  0.26951000  0.83037000  1.0
  Co  Co2  1  0.26951000  0.60797000  0.33036000  1.0
  Co  Co3  1  0.39203000  0.73048000  0.16963000  1.0
  H  H4  1  0.50412000  0.38665000  0.73795000  1.0
  H  H5  1  0.61334000  0.49588000  0.76206000  1.0
  H  H6  1  0.49588000  0.61334000  0.26206000  1.0
  H  H7  1  0.38666000  0.50412000  0.23794000  1.0
  H  H8  1  0.01168000  0.41661000  0.66158000  1.0
  H  H9  1  0.58339000  0.98832000  0.83842000  1.0
  H  H10  1  0.98832000  0.58340000  0.33842000  1.0
  H  H11  1  0.41661000  0.01167000  0.16158000  1.0
  H  H12  1  0.16390000  0.37094000  0.57225000  1.0
  H  H13  1  0.62906000  0.83609000  0.92776000  1.0
  H  H14  1  0.83610000  0.62907000  0.42775000  1.0
  H  H15  1  0.37094000  0.16390000  0.07225000  1.0
  H  H16  1  0.08153000  0.30374000  0.45062000  1.0
  H  H17  1  0.69626000  0.91847000  0.04938000  1.0
  H  H18  1  0.91848000  0.69626000  0.54938000  1.0
  H  H19  1  0.30374000  0.08153000  0.95062000  1.0
  H  H20  1  0.85483000  0.28665000  0.42503000  1.0
  H  H21  1  0.71336000  0.14517000  0.07497000  1.0
  H  H22  1  0.14518000  0.71335000  0.57497000  1.0
  H  H23  1  0.28665000  0.85482000  0.92503000  1.0
  H  H24  1  0.66287000  0.29719000  0.40969000  1.0
  H  H25  1  0.70281000  0.33713000  0.09031000  1.0
  H  H26  1  0.33713000  0.70281000  0.59030000  1.0
  H  H27  1  0.29719000  0.66287000  0.90969000  1.0
  H  H28  1  0.43327000  0.29764000  0.40325000  1.0
  H  H29  1  0.70236000  0.56673000  0.09675000  1.0
  H  H30  1  0.56673000  0.70236000  0.59674000  1.0
  H  H31  1  0.29764000  0.43327000  0.90325000  1.0
  H  H32  1  0.32520000  0.34088000  0.51189000  1.0
  H  H33  1  0.65913000  0.67481000  0.98811000  1.0
  H  H34  1  0.67481000  0.65912000  0.48811000  1.0
  H  H35  1  0.34087000  0.32519000  0.01189000  1.0
  H  H36  1  0.45072000  0.38300000  0.62347000  1.0
  H  H37  1  0.61700000  0.54928000  0.87653000  1.0
  H  H38  1  0.54928000  0.61700000  0.37653000  1.0
  H  H39  1  0.38300000  0.45072000  0.12347000  1.0
  H  H40  1  0.61040000  0.87533000  0.73893000  1.0
  H  H41  1  0.12467000  0.38959000  0.76106000  1.0
  H  H42  1  0.38959000  0.12467000  0.26107000  1.0
  H  H43  1  0.87533000  0.61040000  0.23894000  1.0
  H  H44  1  0.93724000  0.72362000  0.66773000  1.0
  H  H45  1  0.27638000  0.06277000  0.83228000  1.0
  H  H46  1  0.06276000  0.27638000  0.33227000  1.0
  H  H47  1  0.72363000  0.93723000  0.16772000  1.0
  H  H48  1  0.90256000  0.11565000  0.66176000  1.0
  H  H49  1  0.88435000  0.09744000  0.83824000  1.0
  H  H50  1  0.09744000  0.88435000  0.33824000  1.0
  H  H51  1  0.11566000  0.90255000  0.16176000  1.0
  H  H52  1  0.11816000  0.11188000  0.66938000  1.0
  H  H53  1  0.88813000  0.88185000  0.83062000  1.0
  H  H54  1  0.88184000  0.88813000  0.33062000  1.0
  H  H55  1  0.11188000  0.11816000  0.16937000  1.0
  H  H56  1  0.03641000  0.09397000  0.58668000  1.0
  H  H57  1  0.90601000  0.96359000  0.91332000  1.0
  H  H58  1  0.96359000  0.90603000  0.41332000  1.0
  H  H59  1  0.09398000  0.03641000  0.08667000  1.0
  H  H60  1  0.13009000  0.99770000  0.48518000  1.0
  H  H61  1  0.00230000  0.86991000  0.01482000  1.0
  H  H62  1  0.86991000  0.00230000  0.51482000  1.0
  H  H63  1  0.99770000  0.13009000  0.98518000  1.0
  H  H64  1  0.31913000  0.96715000  0.42641000  1.0
  H  H65  1  0.03285000  0.68086000  0.07358000  1.0
  H  H66  1  0.68086000  0.03285000  0.57358000  1.0
  H  H67  1  0.96715000  0.31914000  0.92641000  1.0
  H  H68  1  0.53046000  0.05474000  0.61927000  1.0
  H  H69  1  0.94526000  0.46954000  0.88073000  1.0
  H  H70  1  0.46954000  0.94526000  0.38072000  1.0
  H  H71  1  0.05474000  0.53046000  0.11927000  1.0
  H  H72  1  0.34079000  0.08183000  0.67794000  1.0
  H  H73  1  0.91816000  0.65921000  0.82206000  1.0
  H  H74  1  0.65920000  0.91817000  0.32205000  1.0
  H  H75  1  0.08183000  0.34079000  0.17794000  1.0
  C  C76  1  0.98246000  0.38981000  0.60800000  1.0
  C  C77  1  0.61020000  0.01754000  0.89200000  1.0
  C  C78  1  0.01754000  0.61020000  0.39200000  1.0
  C  C79  1  0.38980000  0.98246000  0.10800000  1.0
  C  C80  1  0.06550000  0.36338000  0.55798000  1.0
  C  C81  1  0.63662000  0.93450000  0.94202000  1.0
  C  C82  1  0.93451000  0.63663000  0.44202000  1.0
  C  C83  1  0.36338000  0.06549000  0.05798000  1.0
  C  C84  1  0.01937000  0.32611000  0.49109000  1.0
  C  C85  1  0.67389000  0.98063000  0.00891000  1.0
  C  C86  1  0.98064000  0.67389000  0.50891000  1.0
  C  C87  1  0.32611000  0.01936000  0.99109000  1.0
  C  C88  1  0.89226000  0.31778000  0.47659000  1.0
  C  C89  1  0.68222000  0.10774000  0.02341000  1.0
  C  C90  1  0.10775000  0.68223000  0.52341000  1.0
  C  C91  1  0.31778000  0.89226000  0.97659000  1.0
  C  C92  1  0.81388000  0.34710000  0.52928000  1.0
  C  C93  1  0.65290000  0.18612000  0.97072000  1.0
  C  C94  1  0.18612000  0.65291000  0.47072000  1.0
  C  C95  1  0.34710000  0.81388000  0.02928000  1.0
  C  C96  1  0.67829000  0.34310000  0.52004000  1.0
  C  C97  1  0.65690000  0.32171000  0.97996000  1.0
  C  C98  1  0.32172000  0.65690000  0.47996000  1.0
  C  C99  1  0.34310000  0.67829000  0.02004000  1.0
  C  C100  1  0.61376000  0.31727000  0.45610000  1.0
  C  C101  1  0.68273000  0.38624000  0.04390000  1.0
  C  C102  1  0.38624000  0.68273000  0.54389000  1.0
  C  C103  1  0.31727000  0.61376000  0.95610000  1.0
  C  C104  1  0.48571000  0.31683000  0.45238000  1.0
  C  C105  1  0.68317000  0.51429000  0.04762000  1.0
  C  C106  1  0.51430000  0.68317000  0.54762000  1.0
  C  C107  1  0.31683000  0.48571000  0.95238000  1.0
  C  C108  1  0.42525000  0.34145000  0.51280000  1.0
  C  C109  1  0.65855000  0.57475000  0.98720000  1.0
  C  C110  1  0.57475000  0.65855000  0.48719000  1.0
  C  C111  1  0.34144000  0.42525000  0.01280000  1.0
  C  C112  1  0.49480000  0.36569000  0.57484000  1.0
  C  C113  1  0.63431000  0.50520000  0.92516000  1.0
  C  C114  1  0.50520000  0.63431000  0.42516000  1.0
  C  C115  1  0.36569000  0.49480000  0.07484000  1.0
  C  C116  1  0.68276000  0.11941000  0.71051000  1.0
  C  C117  1  0.88058000  0.31723000  0.78950000  1.0
  C  C118  1  0.31724000  0.88058000  0.28949000  1.0
  C  C119  1  0.11942000  0.68276000  0.21051000  1.0
  C  C120  1  0.75093000  0.00624000  0.70118000  1.0
  C  C121  1  0.99375000  0.24907000  0.79882000  1.0
  C  C122  1  0.24907000  0.99376000  0.29882000  1.0
  C  C123  1  0.00625000  0.75093000  0.20117000  1.0
  C  C124  1  0.70164000  0.88903000  0.71803000  1.0
  C  C125  1  0.11097000  0.29836000  0.78197000  1.0
  C  C126  1  0.29836000  0.11097000  0.28197000  1.0
  C  C127  1  0.88903000  0.70164000  0.21803000  1.0
  C  C128  1  0.76877000  0.78734000  0.70438000  1.0
  C  C129  1  0.21266000  0.23123000  0.79562000  1.0
  C  C130  1  0.23123000  0.21266000  0.29562000  1.0
  C  C131  1  0.78735000  0.76877000  0.20438000  1.0
  C  C132  1  0.88597000  0.80354000  0.67761000  1.0
  C  C133  1  0.19646000  0.11403000  0.82240000  1.0
  C  C134  1  0.11403000  0.19646000  0.32239000  1.0
  C  C135  1  0.80355000  0.88597000  0.17760000  1.0
  C  C136  1  0.93710000  0.92199000  0.66339000  1.0
  C  C137  1  0.07801000  0.06290000  0.83662000  1.0
  C  C138  1  0.06290000  0.07802000  0.33662000  1.0
  C  C139  1  0.92199000  0.93709000  0.16338000  1.0
  C  C140  1  0.86825000  0.02269000  0.67392000  1.0
  C  C141  1  0.97731000  0.13175000  0.82608000  1.0
  C  C142  1  0.13175000  0.97731000  0.32608000  1.0
  C  C143  1  0.02270000  0.86825000  0.17392000  1.0
  C  C144  1  0.71429000  0.65838000  0.71506000  1.0
  C  C145  1  0.34162000  0.28569000  0.78494000  1.0
  C  C146  1  0.28570000  0.34162000  0.28494000  1.0
  C  C147  1  0.65838000  0.71430000  0.21506000  1.0
  C  C148  1  0.10326000  0.05333000  0.62130000  1.0
  C  C149  1  0.94666000  0.89674000  0.87870000  1.0
  C  C150  1  0.89674000  0.94667000  0.37870000  1.0
  C  C151  1  0.05333000  0.10326000  0.12130000  1.0
  C  C152  1  0.22102000  0.04059000  0.58597000  1.0
  C  C153  1  0.95941000  0.77898000  0.91403000  1.0
  C  C154  1  0.77897000  0.95941000  0.41403000  1.0
  C  C155  1  0.04059000  0.22102000  0.08597000  1.0
  C  C156  1  0.21839000  0.00949000  0.51487000  1.0
  C  C157  1  0.99051000  0.78161000  0.98513000  1.0
  C  C158  1  0.78161000  0.99051000  0.48513000  1.0
  C  C159  1  0.00949000  0.21839000  0.01487000  1.0
  C  C160  1  0.32645000  0.99292000  0.48143000  1.0
  C  C161  1  0.00708000  0.67355000  0.01857000  1.0
  C  C162  1  0.67355000  0.00708000  0.51857000  1.0
  C  C163  1  0.99292000  0.32645000  0.98143000  1.0
  C  C164  1  0.44215000  0.00817000  0.51776000  1.0
  C  C165  1  0.99183000  0.55785000  0.98224000  1.0
  C  C166  1  0.55785000  0.99183000  0.48223000  1.0
  C  C167  1  0.00817000  0.44215000  0.01776000  1.0
  C  C168  1  0.44365000  0.04028000  0.58900000  1.0
  C  C169  1  0.95972000  0.55635000  0.91099000  1.0
  C  C170  1  0.55635000  0.95973000  0.41099000  1.0
  C  C171  1  0.04028000  0.44365000  0.08900000  1.0
  C  C172  1  0.33542000  0.05608000  0.62267000  1.0
  C  C173  1  0.94392000  0.66458000  0.87733000  1.0
  C  C174  1  0.66458000  0.94393000  0.37733000  1.0
  C  C175  1  0.05608000  0.33542000  0.12267000  1.0
  N  N176  1  0.85996000  0.38148000  0.59416000  1.0
  N  N177  1  0.61852000  0.14003000  0.90584000  1.0
  N  N178  1  0.14004000  0.61852000  0.40584000  1.0
  N  N179  1  0.38148000  0.85997000  0.09416000  1.0
  N  N180  1  0.61845000  0.36719000  0.57862000  1.0
  N  N181  1  0.63280000  0.38156000  0.92138000  1.0
  N  N182  1  0.38156000  0.63281000  0.42138000  1.0
  N  N183  1  0.36720000  0.61844000  0.07862000  1.0
  O  O184  1  0.71947000  0.20822000  0.67322000  1.0
  O  O185  1  0.79177000  0.28052000  0.82678000  1.0
  O  O186  1  0.28052000  0.79177000  0.32678000  1.0
  O  O187  1  0.20823000  0.71948000  0.17322000  1.0
  O  O188  1  0.59733000  0.40267000  0.75000000  1.0
  O  O189  1  0.40268000  0.59733000  0.25000000  1.0
  O  O190  1  0.59665000  0.12030000  0.75269000  1.0
  O  O191  1  0.87968000  0.40333000  0.74731000  1.0
  O  O192  1  0.40334000  0.87969000  0.24731000  1.0
  O  O193  1  0.12031000  0.59666000  0.25269000  1.0
  O  O194  1  0.64738000  0.63816000  0.76609000  1.0
  O  O195  1  0.36185000  0.35261000  0.73391000  1.0
  O  O196  1  0.35261000  0.36185000  0.23391000  1.0
  O  O197  1  0.63816000  0.64739000  0.26609000  1.0
  O  O198  1  0.73984000  0.57793000  0.66861000  1.0
  O  O199  1  0.42207000  0.26015000  0.83139000  1.0
  O  O200  1  0.26016000  0.42207000  0.33139000  1.0
  O  O201  1  0.57793000  0.73984000  0.16861000  1.0
  O  O202  1  0.05249000  0.93056000  0.63779000  1.0
  O  O203  1  0.06945000  0.94752000  0.86223000  1.0
  O  O204  1  0.94751000  0.06945000  0.36221000  1.0
  O  O205  1  0.93056000  0.05248000  0.13778000  1.0
