# generated using pymatgen
data_MnH24C54(Br2N5)2
_symmetry_space_group_name_H-M   'P 1'
_cell_length_a   10.66330000
_cell_length_b   10.69720000
_cell_length_c   14.67640000
_cell_angle_alpha   79.48640000
_cell_angle_beta   77.89910000
_cell_angle_gamma   61.81740000
_symmetry_Int_Tables_number   1
_chemical_formula_structural   MnH24C54(Br2N5)2
_chemical_formula_sum   'Mn1 H24 C54 Br4 N10'
_cell_volume   1436.05996000
_cell_formula_units_Z   1
loop_
 _symmetry_equiv_pos_site_id
 _symmetry_equiv_pos_as_xyz
  1  'x, y, z'
loop_
 _atom_site_type_symbol
 _atom_site_label
 _atom_site_symmetry_multiplicity
 _atom_site_fract_x
 _atom_site_fract_y
 _atom_site_fract_z
 _atom_site_occupancy
  Mn  Mn0  1  0.00000000  0.00000000  0.00000000  1.0
  H  H1  1  0.08082000  0.61248000  0.28828000  1.0
  H  H2  1  0.91919000  0.38752000  0.71172000  1.0
  H  H3  1  0.92674000  0.86499000  0.36310000  1.0
  H  H4  1  0.07326000  0.13501000  0.63691000  1.0
  H  H5  1  0.71845000  0.40635000  0.22543000  1.0
  H  H6  1  0.28155000  0.59365000  0.77457000  1.0
  H  H7  1  0.71957000  0.54152000  0.05056000  1.0
  H  H8  1  0.28043000  0.45848000  0.94944000  1.0
  H  H9  1  0.39368000  0.45910000  0.15489000  1.0
  H  H10  1  0.60632000  0.54090000  0.84512000  1.0
  H  H11  1  0.46484000  0.20710000  0.22321000  1.0
  H  H12  1  0.53515000  0.79290000  0.77680000  1.0
  H  H13  1  0.06168000  0.24459000  0.17670000  1.0
  H  H14  1  0.93831000  0.75541000  0.82330000  1.0
  H  H15  1  0.99252000  0.49414000  0.10803000  1.0
  H  H16  1  0.00749000  0.50586000  0.89196000  1.0
  H  H17  1  0.02510000  0.07336000  0.35583000  1.0
  H  H18  1  0.97490000  0.92663000  0.64417000  1.0
  H  H19  1  0.93862000  0.15944000  0.51370000  1.0
  H  H20  1  0.06138000  0.84055000  0.48630000  1.0
  H  H21  1  0.49984000  0.32437000  0.46607000  1.0
  H  H22  1  0.50016000  0.67563000  0.53393000  1.0
  H  H23  1  0.58689000  0.23825000  0.30837000  1.0
  H  H24  1  0.41311000  0.76175000  0.69163000  1.0
  C  C25  1  0.67107000  0.01510000  0.98639000  1.0
  C  C26  1  0.32893000  0.98491000  0.01361000  1.0
  C  C27  1  0.52923000  0.04672000  0.97668000  1.0
  C  C28  1  0.47077000  0.95329000  0.02331000  1.0
  C  C29  1  0.46177000  0.17159000  0.91594000  1.0
  C  C30  1  0.53822000  0.82843000  0.08406000  1.0
  C  C31  1  0.32783000  0.21901000  0.88595000  1.0
  C  C32  1  0.67218000  0.78101000  0.11405000  1.0
  C  C33  1  0.53210000  0.25625000  0.87555000  1.0
  C  C34  1  0.46791000  0.74377000  0.12445000  1.0
  C  C35  1  0.06746000  0.75027000  0.15286000  1.0
  C  C36  1  0.93254000  0.24972000  0.84714000  1.0
  C  C37  1  0.04384000  0.71907000  0.25245000  1.0
  C  C38  1  0.95616000  0.28092000  0.74755000  1.0
  C  C39  1  0.96676000  0.84639000  0.29010000  1.0
  C  C40  1  0.03324000  0.15361000  0.70991000  1.0
  C  C41  1  0.94308000  0.95692000  0.21384000  1.0
  C  C42  1  0.05692000  0.04308000  0.78616000  1.0
  C  C43  1  0.86510000  0.10266000  0.22465000  1.0
  C  C44  1  0.13490000  0.89734000  0.77535000  1.0
  C  C45  1  0.83769000  0.20901000  0.14945000  1.0
  C  C46  1  0.16231000  0.79099000  0.85055000  1.0
  C  C47  1  0.76369000  0.35936000  0.15947000  1.0
  C  C48  1  0.23631000  0.64064000  0.84053000  1.0
  C  C49  1  0.76415000  0.42820000  0.07138000  1.0
  C  C50  1  0.23585000  0.57180000  0.92862000  1.0
  C  C51  1  0.16172000  0.67829000  0.99319000  1.0
  C  C52  1  0.83828000  0.32171000  0.00681000  1.0
  C  C53  1  0.13923000  0.64656000  0.08991000  1.0
  C  C54  1  0.86078000  0.35343000  0.91009000  1.0
  C  C55  1  0.18794000  0.49362000  0.12748000  1.0
  C  C56  1  0.81206000  0.50638000  0.87252000  1.0
  C  C57  1  0.32174000  0.41157000  0.15907000  1.0
  C  C58  1  0.67826000  0.58843000  0.84093000  1.0
  C  C59  1  0.36133000  0.27104000  0.19807000  1.0
  C  C60  1  0.63867000  0.72896000  0.80194000  1.0
  C  C61  1  0.26589000  0.21341000  0.20595000  1.0
  C  C62  1  0.73411000  0.78659000  0.79405000  1.0
  C  C63  1  0.13463000  0.29111000  0.17174000  1.0
  C  C64  1  0.86537000  0.70889000  0.82826000  1.0
  C  C65  1  0.09653000  0.43116000  0.13260000  1.0
  C  C66  1  0.90348000  0.56883000  0.86739000  1.0
  C  C67  1  0.81210000  0.14900000  0.32095000  1.0
  C  C68  1  0.18789000  0.85099000  0.67905000  1.0
  C  C69  1  0.90990000  0.12700000  0.38009000  1.0
  C  C70  1  0.09010000  0.87300000  0.61990000  1.0
  C  C71  1  0.86178000  0.17599000  0.46875000  1.0
  C  C72  1  0.13823000  0.82401000  0.53125000  1.0
  C  C73  1  0.71437000  0.24687000  0.49895000  1.0
  C  C74  1  0.28563000  0.75313000  0.50106000  1.0
  C  C75  1  0.61473000  0.26894000  0.44199000  1.0
  C  C76  1  0.38527000  0.73106000  0.55801000  1.0
  C  C77  1  0.66451000  0.22011000  0.35328000  1.0
  C  C78  1  0.33549000  0.77989000  0.64672000  1.0
  Br  Br79  1  0.31259000  0.02680000  0.26823000  1.0
  Br  Br80  1  0.68741000  0.97321000  0.73177000  1.0
  Br  Br81  1  0.64951000  0.31338000  0.62019000  1.0
  Br  Br82  1  0.35049000  0.68662000  0.37982000  1.0
  N  N83  1  0.78783000  0.99477000  0.98877000  1.0
  N  N84  1  0.21217000  0.00522000  0.01123000  1.0
  N  N85  1  0.21881000  0.26671000  0.85620000  1.0
  N  N86  1  0.78118000  0.73330000  0.14380000  1.0
  N  N87  1  0.58478000  0.33084000  0.84006000  1.0
  N  N88  1  0.41522000  0.66917000  0.15994000  1.0
  N  N89  1  0.00561000  0.89643000  0.12992000  1.0
  N  N90  1  0.99439000  0.10357000  0.87008000  1.0
  N  N91  1  0.88250000  0.18745000  0.05541000  1.0
  N  N92  1  0.11750000  0.81254000  0.94459000  1.0
