# generated using pymatgen
data_Zn2H13C17N7O6
_symmetry_space_group_name_H-M   'P 1'
_cell_length_a   7.25017000
_cell_length_b   10.08740000
_cell_length_c   14.56490000
_cell_angle_alpha   85.46320000
_cell_angle_beta   80.80130000
_cell_angle_gamma   89.41670000
_symmetry_Int_Tables_number   1
_chemical_formula_structural   Zn2H13C17N7O6
_chemical_formula_sum   'Zn4 H26 C34 N14 O12'
_cell_volume   1048.21262169
_cell_formula_units_Z   2
loop_
 _symmetry_equiv_pos_site_id
 _symmetry_equiv_pos_as_xyz
  1  'x, y, z'
loop_
 _atom_site_type_symbol
 _atom_site_label
 _atom_site_symmetry_multiplicity
 _atom_site_fract_x
 _atom_site_fract_y
 _atom_site_fract_z
 _atom_site_occupancy
  Zn  Zn0  1  0.56378000  0.35621000  0.74832000  1.0
  Zn  Zn1  1  0.43623000  0.64379000  0.25168000  1.0
  Zn  Zn2  1  0.31735000  0.66856000  0.74273000  1.0
  Zn  Zn3  1  0.68265000  0.33145000  0.25727000  1.0
  H  H4  1  0.44044000  0.42154000  0.92693000  1.0
  H  H5  1  0.55956000  0.57846000  0.07307000  1.0
  H  H6  1  0.61984000  0.34124000  0.94812000  1.0
  H  H7  1  0.38016000  0.65877000  0.05188000  1.0
  H  H8  1  0.45761000  0.44284000  0.57735000  1.0
  H  H9  1  0.54240000  0.55716000  0.42265000  1.0
  H  H10  1  0.65831000  0.37633000  0.54433000  1.0
  H  H11  1  0.34169000  0.62366000  0.45567000  1.0
  H  H12  1  0.18244000  0.17440000  0.75919000  1.0
  H  H13  1  0.81756000  0.82560000  0.24081000  1.0
  H  H14  1  0.48767000  0.14559000  0.63010000  1.0
  H  H15  1  0.51232000  0.85441000  0.36990000  1.0
  H  H16  1  0.53492000  0.90025000  0.62602000  1.0
  H  H17  1  0.46508000  0.09975000  0.37399000  1.0
  H  H18  1  0.83166000  0.91547000  0.85993000  1.0
  H  H19  1  0.16835000  0.08453000  0.14007000  1.0
  H  H20  1  0.76235000  0.15859000  0.85770000  1.0
  H  H21  1  0.23766000  0.84142000  0.14229000  1.0
  H  H22  1  0.89917000  0.76701000  0.05059000  1.0
  H  H23  1  0.10082000  0.23299000  0.94941000  1.0
  H  H24  1  0.70749000  0.95707000  0.11262000  1.0
  H  H25  1  0.29249000  0.04294000  0.88738000  1.0
  H  H26  1  0.99288000  0.78872000  0.42266000  1.0
  H  H27  1  0.00712000  0.21127000  0.57733000  1.0
  H  H28  1  0.16224000  0.00440000  0.63748000  1.0
  H  H29  1  0.83776000  0.99559000  0.36252000  1.0
  C  C30  1  0.86601000  0.56215000  0.75254000  1.0
  C  C31  1  0.13399000  0.43784000  0.24746000  1.0
  C  C32  1  0.72538000  0.74507000  0.74450000  1.0
  C  C33  1  0.27463000  0.25493000  0.25550000  1.0
  C  C34  1  0.15070000  0.27983000  0.75819000  1.0
  C  C35  1  0.84930000  0.72017000  0.24181000  1.0
  C  C36  1  0.00987000  0.46310000  0.75628000  1.0
  C  C37  1  0.99013000  0.53690000  0.24371000  1.0
  C  C38  1  0.55889000  0.08929000  0.68097000  1.0
  C  C39  1  0.44111000  0.91071000  0.31903000  1.0
  C  C40  1  0.58845000  0.95350000  0.67830000  1.0
  C  C41  1  0.41155000  0.04650000  0.32170000  1.0
  C  C42  1  0.68667000  0.88777000  0.74355000  1.0
  C  C43  1  0.31333000  0.11223000  0.25645000  1.0
  C  C44  1  0.75281000  0.96250000  0.80869000  1.0
  C  C45  1  0.24719000  0.03750000  0.19131000  1.0
  C  C46  1  0.71463000  0.09743000  0.80796000  1.0
  C  C47  1  0.28537000  0.90257000  0.19204000  1.0
  C  C48  1  0.21510000  0.77906000  0.92200000  1.0
  C  C49  1  0.78490000  0.22094000  0.07801000  1.0
  C  C50  1  0.10893000  0.89309000  0.96584000  1.0
  C  C51  1  0.89105000  0.10691000  0.03417000  1.0
  C  C52  1  0.94380000  0.86922000  0.02939000  1.0
  C  C53  1  0.05618000  0.13078000  0.97061000  1.0
  C  C54  1  0.83604000  0.97533000  0.06322000  1.0
  C  C55  1  0.16394000  0.02468000  0.93678000  1.0
  C  C56  1  0.18370000  0.76364000  0.56863000  1.0
  C  C57  1  0.81630000  0.23636000  0.43137000  1.0
  C  C58  1  0.08729000  0.88538000  0.53329000  1.0
  C  C59  1  0.91271000  0.11461000  0.46670000  1.0
  C  C60  1  0.99459000  0.88161000  0.45612000  1.0
  C  C61  1  0.00541000  0.11839000  0.54388000  1.0
  C  C62  1  0.09144000  0.00437000  0.57690000  1.0
  C  C63  1  0.90856000  0.99562000  0.42309000  1.0
  N  N64  1  0.59979000  0.65071000  0.73493000  1.0
  N  N65  1  0.40021000  0.34929000  0.26507000  1.0
  N  N66  1  0.69099000  0.53254000  0.74081000  1.0
  N  N67  1  0.30901000  0.46746000  0.25919000  1.0
  N  N68  1  0.89254000  0.69308000  0.75649000  1.0
  N  N69  1  0.10746000  0.30692000  0.24351000  1.0
  N  N70  1  0.18988000  0.49224000  0.75859000  1.0
  N  N71  1  0.81013000  0.50776000  0.24141000  1.0
  N  N72  1  0.28061000  0.37281000  0.76024000  1.0
  N  N73  1  0.71939000  0.62719000  0.23976000  1.0
  N  N74  1  0.97976000  0.33153000  0.75588000  1.0
  N  N75  1  0.02024000  0.66847000  0.24412000  1.0
  N  N76  1  0.61948000  0.16048000  0.74503000  1.0
  N  N77  1  0.38053000  0.83952000  0.25497000  1.0
  O  O78  1  0.26154000  0.80194000  0.83331000  1.0
  O  O79  1  0.73844000  0.19806000  0.16670000  1.0
  O  O80  1  0.24586000  0.67336000  0.96931000  1.0
  O  O81  1  0.75414000  0.32664000  0.03069000  1.0
  O  O82  1  0.28124000  0.78357000  0.63280000  1.0
  O  O83  1  0.71878000  0.21644000  0.36720000  1.0
  O  O84  1  0.16902000  0.65387000  0.53449000  1.0
  O  O85  1  0.83098000  0.34613000  0.46552000  1.0
  O  O86  1  0.52221000  0.34888000  0.90608000  1.0
  O  O87  1  0.47779000  0.65111000  0.09392000  1.0
  O  O88  1  0.54604000  0.37640000  0.59529000  1.0
  O  O89  1  0.45396000  0.62360000  0.40471000  1.0
