# generated using pymatgen
data_MnH20C20N5O2
_symmetry_space_group_name_H-M   'P 1'
_cell_length_a   7.38717000
_cell_length_b   11.30540000
_cell_length_c   11.71160000
_cell_angle_alpha   90.00150000
_cell_angle_beta   90.00090000
_cell_angle_gamma   92.43130000
_symmetry_Int_Tables_number   1
_chemical_formula_structural   MnH20C20N5O2
_chemical_formula_sum   'Mn2 H40 C40 N10 O4'
_cell_volume   977.21276481
_cell_formula_units_Z   2
loop_
 _symmetry_equiv_pos_site_id
 _symmetry_equiv_pos_as_xyz
  1  'x, y, z'
loop_
 _atom_site_type_symbol
 _atom_site_label
 _atom_site_symmetry_multiplicity
 _atom_site_fract_x
 _atom_site_fract_y
 _atom_site_fract_z
 _atom_site_occupancy
  Mn  Mn0  1  0.04900000  0.98264000  0.30342000  1.0
  Mn  Mn1  1  0.95099000  0.01736000  0.80345000  1.0
  H  H2  1  0.07010000  0.36479000  0.20502000  1.0
  H  H3  1  0.92985000  0.63517000  0.70512000  1.0
  H  H4  1  0.83099000  0.51111000  0.22231000  1.0
  H  H5  1  0.16900000  0.48887000  0.72233000  1.0
  H  H6  1  0.52282000  0.44860000  0.29290000  1.0
  H  H7  1  0.47721000  0.55142000  0.79287000  1.0
  H  H8  1  0.45727000  0.23698000  0.34467000  1.0
  H  H9  1  0.54274000  0.76303000  0.84466000  1.0
  H  H10  1  0.53925000  0.04628000  0.36817000  1.0
  H  H11  1  0.46074000  0.95372000  0.86818000  1.0
  H  H12  1  0.67997000  0.81235000  0.31064000  1.0
  H  H13  1  0.32004000  0.18763000  0.81065000  1.0
  H  H14  1  0.92658000  0.84210000  0.51770000  1.0
  H  H15  1  0.07343000  0.15793000  0.01771000  1.0
  H  H16  1  0.94767000  0.62386000  0.50488000  1.0
  H  H17  1  0.05236000  0.37617000  0.00486000  1.0
  H  H18  1  0.79065000  0.61882000  0.39034000  1.0
  H  H19  1  0.20940000  0.38118000  0.89034000  1.0
  H  H20  1  0.63527000  0.57343000  0.57406000  1.0
  H  H21  1  0.36476000  0.42659000  0.07408000  1.0
  H  H22  1  0.71615000  0.71035000  0.63218000  1.0
  H  H23  1  0.28387000  0.28967000  0.13220000  1.0
  H  H24  1  0.45955000  0.68182000  0.42818000  1.0
  H  H25  1  0.54047000  0.31817000  0.92820000  1.0
  H  H26  1  0.40031000  0.72728000  0.56743000  1.0
  H  H27  1  0.59971000  0.27272000  0.06745000  1.0
  H  H28  1  0.44663000  0.90023000  0.43836000  1.0
  H  H29  1  0.55336000  0.09976000  0.93841000  1.0
  H  H30  1  0.60745000  0.90544000  0.55151000  1.0
  H  H31  1  0.39253000  0.09458000  0.05153000  1.0
  H  H32  1  0.09198000  0.64151000  0.34521000  1.0
  H  H33  1  0.90805000  0.35851000  0.84521000  1.0
  H  H34  1  0.29162000  0.55676000  0.22159000  1.0
  H  H35  1  0.70838000  0.44325000  0.72159000  1.0
  H  H36  1  0.55453000  0.56855000  0.08746000  1.0
  H  H37  1  0.44547000  0.43145000  0.58745000  1.0
  H  H38  1  0.68351000  0.76606000  0.02872000  1.0
  H  H39  1  0.31648000  0.23393000  0.52873000  1.0
  H  H40  1  0.55536000  0.94968000  0.10320000  1.0
  H  H41  1  0.44462000  0.05032000  0.60323000  1.0
  C  C42  1  0.90199000  0.21662000  0.26390000  1.0
  C  C43  1  0.09796000  0.78336000  0.76397000  1.0
  C  C44  1  0.93559000  0.33756000  0.23539000  1.0
  C  C45  1  0.06437000  0.66242000  0.73546000  1.0
  C  C46  1  0.80130000  0.41889000  0.24595000  1.0
  C  C47  1  0.19868000  0.58110000  0.74599000  1.0
  C  C48  1  0.62729000  0.38397000  0.28550000  1.0
  C  C49  1  0.37271000  0.61603000  0.78550000  1.0
  C  C50  1  0.59147000  0.26685000  0.31491000  1.0
  C  C51  1  0.40853000  0.73316000  0.81491000  1.0
  C  C52  1  0.72637000  0.18208000  0.30746000  1.0
  C  C53  1  0.27361000  0.81791000  0.80749000  1.0
  C  C54  1  0.68110000  0.06424000  0.34483000  1.0
  C  C55  1  0.31888000  0.93575000  0.84485000  1.0
  C  C56  1  0.72214000  0.85972000  0.38936000  1.0
  C  C57  1  0.27786000  0.14028000  0.88938000  1.0
  C  C58  1  0.88385000  0.79603000  0.43833000  1.0
  C  C59  1  0.11617000  0.20399000  0.93834000  1.0
  C  C60  1  0.83143000  0.66805000  0.46796000  1.0
  C  C61  1  0.16860000  0.33197000  0.96796000  1.0
  C  C62  1  0.67313000  0.66560000  0.55258000  1.0
  C  C63  1  0.32689000  0.33441000  0.05259000  1.0
  C  C64  1  0.51115000  0.72869000  0.50478000  1.0
  C  C65  1  0.48887000  0.27131000  0.00479000  1.0
  C  C66  1  0.56455000  0.85702000  0.47373000  1.0
  C  C67  1  0.43545000  0.14298000  0.97376000  1.0
  C  C68  1  0.12510000  0.73181000  0.31573000  1.0
  C  C69  1  0.87492000  0.26819000  0.81573000  1.0
  C  C70  1  0.27203000  0.74563000  0.23663000  1.0
  C  C71  1  0.72798000  0.25437000  0.73664000  1.0
  C  C72  1  0.35054000  0.64250000  0.19444000  1.0
  C  C73  1  0.64948000  0.35750000  0.69444000  1.0
  C  C74  1  0.49613000  0.64866000  0.12018000  1.0
  C  C75  1  0.50388000  0.35134000  0.62018000  1.0
  C  C76  1  0.56877000  0.76038000  0.08710000  1.0
  C  C77  1  0.43123000  0.23961000  0.58711000  1.0
  C  C78  1  0.49725000  0.86340000  0.12786000  1.0
  C  C79  1  0.50274000  0.13660000  0.62787000  1.0
  C  C80  1  0.34682000  0.85966000  0.20293000  1.0
  C  C81  1  0.65319000  0.14035000  0.70294000  1.0
  N  N82  1  0.79369000  0.97824000  0.35243000  1.0
  N  N83  1  0.20629000  0.02176000  0.85245000  1.0
  N  N84  1  0.03051000  0.81762000  0.35500000  1.0
  N  N85  1  0.96950000  0.18240000  0.85501000  1.0
  N  N86  1  0.96105000  0.89212000  0.12245000  1.0
  N  N87  1  0.03893000  0.10783000  0.62246000  1.0
  N  N88  1  0.91455000  0.93261000  0.03548000  1.0
  N  N89  1  0.08544000  0.06737000  0.53546000  1.0
  N  N90  1  0.84797000  0.96410000  0.94794000  1.0
  N  N91  1  0.15201000  0.03594000  0.44791000  1.0
  O  O92  1  0.02939000  0.14012000  0.24701000  1.0
  O  O93  1  0.97055000  0.85985000  0.74708000  1.0
  O  O94  1  0.28455000  0.95973000  0.24113000  1.0
  O  O95  1  0.71544000  0.04028000  0.74115000  1.0
