# generated using pymatgen
data_MoH15C20NO4
_symmetry_space_group_name_H-M   'P 1'
_cell_length_a   8.16730000
_cell_length_b   10.27150000
_cell_length_c   11.98340000
_cell_angle_alpha   113.01300000
_cell_angle_beta   90.84470000
_cell_angle_gamma   108.64100000
_symmetry_Int_Tables_number   1
_chemical_formula_structural   MoH15C20NO4
_chemical_formula_sum   'Mo2 H30 C40 N2 O8'
_cell_volume   865.42555328
_cell_formula_units_Z   2
loop_
 _symmetry_equiv_pos_site_id
 _symmetry_equiv_pos_as_xyz
  1  'x, y, z'
loop_
 _atom_site_type_symbol
 _atom_site_label
 _atom_site_symmetry_multiplicity
 _atom_site_fract_x
 _atom_site_fract_y
 _atom_site_fract_z
 _atom_site_occupancy
  Mo  Mo0  1  0.05765000  0.92317000  0.94085000  1.0
  Mo  Mo1  1  0.94235000  0.07684000  0.05915000  1.0
  H  H2  1  0.37969000  0.77612000  0.00543000  1.0
  H  H3  1  0.62030000  0.22388000  0.99456000  1.0
  H  H4  1  0.09766000  0.56186000  0.94555000  1.0
  H  H5  1  0.90233000  0.43815000  0.05444000  1.0
  H  H6  1  0.08810000  0.29830000  0.82591000  1.0
  H  H7  1  0.91191000  0.70170000  0.17409000  1.0
  H  H8  1  0.36209000  0.25078000  0.76704000  1.0
  H  H9  1  0.63792000  0.74923000  0.23299000  1.0
  H  H10  1  0.64361000  0.46861000  0.82372000  1.0
  H  H11  1  0.35639000  0.53140000  0.17629000  1.0
  H  H12  1  0.27301000  0.75534000  0.18350000  1.0
  H  H13  1  0.72698000  0.24465000  0.81649000  1.0
  H  H14  1  0.36721000  0.70993000  0.36011000  1.0
  H  H15  1  0.63277000  0.29005000  0.63988000  1.0
  H  H16  1  0.33551000  0.86581000  0.57144000  1.0
  H  H17  1  0.66449000  0.13418000  0.42855000  1.0
  H  H18  1  0.20889000  0.06628000  0.60756000  1.0
  H  H19  1  0.79113000  0.93373000  0.39245000  1.0
  H  H20  1  0.11429000  0.11133000  0.43183000  1.0
  H  H21  1  0.88573000  0.88867000  0.56817000  1.0
  H  H22  1  0.96121000  0.59888000  0.70272000  1.0
  H  H23  1  0.03878000  0.40112000  0.29729000  1.0
  H  H24  1  0.08356000  0.41946000  0.55445000  1.0
  H  H25  1  0.91644000  0.58053000  0.44556000  1.0
  H  H26  1  0.59025000  0.77923000  0.68611000  1.0
  H  H27  1  0.40975000  0.22076000  0.31389000  1.0
  H  H28  1  0.44595000  0.94173000  0.82808000  1.0
  H  H29  1  0.55405000  0.05826000  0.17192000  1.0
  H  H30  1  0.32333000  0.36757000  0.46065000  1.0
  H  H31  1  0.67666000  0.63242000  0.53934000  1.0
  C  C32  1  0.52853000  0.63488000  0.91677000  1.0
  C  C33  1  0.47147000  0.36513000  0.08323000  1.0
  C  C34  1  0.37490000  0.66098000  0.95266000  1.0
  C  C35  1  0.62510000  0.33903000  0.04733000  1.0
  C  C36  1  0.21698000  0.54017000  0.91924000  1.0
  C  C37  1  0.78302000  0.45984000  0.08075000  1.0
  C  C38  1  0.21161000  0.39246000  0.85151000  1.0
  C  C39  1  0.78839000  0.60755000  0.14849000  1.0
  C  C40  1  0.36474000  0.36600000  0.81700000  1.0
  C  C41  1  0.63526000  0.63400000  0.18300000  1.0
  C  C42  1  0.52242000  0.48662000  0.84855000  1.0
  C  C43  1  0.47758000  0.51338000  0.15145000  1.0
  C  C44  1  0.69537000  0.76196000  0.94969000  1.0
  C  C45  1  0.30463000  0.23805000  0.05032000  1.0
  C  C46  1  0.18914000  0.93729000  0.29683000  1.0
  C  C47  1  0.81087000  0.06271000  0.70316000  1.0
  C  C48  1  0.26051000  0.82350000  0.27677000  1.0
  C  C49  1  0.73948000  0.17649000  0.72322000  1.0
  C  C50  1  0.31158000  0.79774000  0.37533000  1.0
  C  C51  1  0.68842000  0.20225000  0.62468000  1.0
  C  C52  1  0.29354000  0.88511000  0.49449000  1.0
  C  C53  1  0.70646000  0.11488000  0.50551000  1.0
  C  C54  1  0.22424000  0.99885000  0.51495000  1.0
  C  C55  1  0.77577000  0.00116000  0.48505000  1.0
  C  C56  1  0.17204000  0.02502000  0.41700000  1.0
  C  C57  1  0.82798000  0.97498000  0.58300000  1.0
  C  C58  1  0.12614000  0.96105000  0.19299000  1.0
  C  C59  1  0.87386000  0.03895000  0.80701000  1.0
  C  C60  1  0.10018000  0.63441000  0.69496000  1.0
  C  C61  1  0.89982000  0.36559000  0.30505000  1.0
  C  C62  1  0.16897000  0.53498000  0.61251000  1.0
  C  C63  1  0.83103000  0.46501000  0.38749000  1.0
  C  C64  1  0.34817000  0.58442000  0.60386000  1.0
  C  C65  1  0.65183000  0.41557000  0.39614000  1.0
  C  C66  1  0.44991000  0.73381000  0.68496000  1.0
  C  C67  1  0.55009000  0.26619000  0.31503000  1.0
  C  C68  1  0.37037000  0.82513000  0.76496000  1.0
  C  C69  1  0.62963000  0.17486000  0.23503000  1.0
  C  C70  1  0.41737000  0.48207000  0.51272000  1.0
  C  C71  1  0.58263000  0.51792000  0.48728000  1.0
  N  N72  1  0.19766000  0.77804000  0.76960000  1.0
  N  N73  1  0.80234000  0.22196000  0.23040000  1.0
  O  O74  1  0.82962000  0.73753000  0.90175000  1.0
  O  O75  1  0.17038000  0.26248000  0.09826000  1.0
  O  O76  1  0.70610000  0.89626000  0.02427000  1.0
  O  O77  1  0.29389000  0.10374000  0.97574000  1.0
  O  O78  1  0.15520000  0.88826000  0.08408000  1.0
  O  O79  1  0.84480000  0.11175000  0.91592000  1.0
  O  O80  1  0.04005000  0.05100000  0.21129000  1.0
  O  O81  1  0.95996000  0.94900000  0.78871000  1.0
