# generated using pymatgen
data_Zn2H17C40N4O12F5
_symmetry_space_group_name_H-M   'P 1'
_cell_length_a   14.05430000
_cell_length_b   21.70480000
_cell_length_c   21.79390000
_cell_angle_alpha   90.20430000
_cell_angle_beta   90.16130000
_cell_angle_gamma   89.98080000
_symmetry_Int_Tables_number   1
_chemical_formula_structural   Zn2H17C40N4O12F5
_chemical_formula_sum   'Zn4 H34 C80 N8 O24 F10'
_cell_volume   6648.06806191
_cell_formula_units_Z   2
loop_
 _symmetry_equiv_pos_site_id
 _symmetry_equiv_pos_as_xyz
  1  'x, y, z'
loop_
 _atom_site_type_symbol
 _atom_site_label
 _atom_site_symmetry_multiplicity
 _atom_site_fract_x
 _atom_site_fract_y
 _atom_site_fract_z
 _atom_site_occupancy
  Zn  Zn0  1  0.60643000  0.99620000  0.50036000  1.0
  Zn  Zn1  1  0.40685000  0.00287000  0.50000000  1.0
  Zn  Zn2  1  0.39362000  0.50069000  0.00452000  1.0
  Zn  Zn3  1  0.59313000  0.50048000  0.99811000  1.0
  H  H4  1  0.94034000  0.89625000  0.49181000  1.0
  H  H5  1  0.07062000  0.10016000  0.50026000  1.0
  H  H6  1  0.25875000  0.90952000  0.49736000  1.0
  H  H7  1  0.08282000  0.89989000  0.49486000  1.0
  H  H8  1  0.75423000  0.08775000  0.50176000  1.0
  H  H9  1  0.92998000  0.09661000  0.50151000  1.0
  H  H10  1  0.34307000  0.86187000  0.35869000  1.0
  H  H11  1  0.64614000  0.86096000  0.36623000  1.0
  H  H12  1  0.65740000  0.64242000  0.13863000  1.0
  H  H13  1  0.35450000  0.63348000  0.14079000  1.0
  H  H14  1  0.65940000  0.22637000  0.72238000  1.0
  H  H15  1  0.34054000  0.27800000  0.77533000  1.0
  H  H16  1  0.63145000  0.36761000  0.86701000  1.0
  H  H17  1  0.64813000  0.28788000  0.78724000  1.0
  H  H18  1  0.36898000  0.13315000  0.63374000  1.0
  H  H19  1  0.35189000  0.21291000  0.71350000  1.0
  H  H20  1  0.66722000  0.22224000  0.28370000  1.0
  H  H21  1  0.35553000  0.28214000  0.22246000  1.0
  H  H22  1  0.65572000  0.36133000  0.13544000  1.0
  H  H23  1  0.66381000  0.28115000  0.21483000  1.0
  H  H24  1  0.36535000  0.13517000  0.36058000  1.0
  H  H25  1  0.35890000  0.21470000  0.28067000  1.0
  H  H26  1  0.64413000  0.77899000  0.72007000  1.0
  H  H27  1  0.33254000  0.71797000  0.77910000  1.0
  H  H28  1  0.63437000  0.64055000  0.86681000  1.0
  H  H29  1  0.64086000  0.72035000  0.78720000  1.0
  H  H30  1  0.34370000  0.86512000  0.63900000  1.0
  H  H31  1  0.33579000  0.78614000  0.71955000  1.0
  H  H32  1  0.06011000  0.50846000  0.10399000  1.0
  H  H33  1  0.92854000  0.50076000  0.90092000  1.0
  H  H34  1  0.74188000  0.50276000  0.09105000  1.0
  H  H35  1  0.91788000  0.50553000  0.10040000  1.0
  H  H36  1  0.24522000  0.49888000  0.91321000  1.0
  H  H37  1  0.06943000  0.49928000  0.90443000  1.0
  C  C38  1  0.52367000  0.08474000  0.58446000  1.0
  C  C39  1  0.51433000  0.08366000  0.41525000  1.0
  C  C40  1  0.49405000  0.91398000  0.41503000  1.0
  C  C41  1  0.49438000  0.91509000  0.58454000  1.0
  C  C42  1  0.47731000  0.41690000  0.91571000  1.0
  C  C43  1  0.48517000  0.58651000  0.91828000  1.0
  C  C44  1  0.50670000  0.58518000  0.08738000  1.0
  C  C45  1  0.50471000  0.41561000  0.08482000  1.0
  C  C46  1  0.80605000  0.94172000  0.49511000  1.0
  C  C47  1  0.90483000  0.94067000  0.49440000  1.0
  C  C48  1  0.20541000  0.05520000  0.50089000  1.0
  C  C49  1  0.10669000  0.05588000  0.49960000  1.0
  C  C50  1  0.21285000  0.94998000  0.49795000  1.0
  C  C51  1  0.11458000  0.94552000  0.49664000  1.0
  C  C52  1  0.79962000  0.04711000  0.49967000  1.0
  C  C53  1  0.89789000  0.05109000  0.49948000  1.0
  C  C54  1  0.95323000  0.99703000  0.49695000  1.0
  C  C55  1  0.05863000  0.99938000  0.49753000  1.0
  C  C56  1  0.40946000  0.84253000  0.34165000  1.0
  C  C57  1  0.41034000  0.79695000  0.29586000  1.0
  C  C58  1  0.32508000  0.77116000  0.27021000  1.0
  C  C59  1  0.58184000  0.84228000  0.34540000  1.0
  C  C60  1  0.58567000  0.79653000  0.29998000  1.0
  C  C61  1  0.67350000  0.77270000  0.27630000  1.0
  C  C62  1  0.59106000  0.65920000  0.15823000  1.0
  C  C63  1  0.59018000  0.70499000  0.20381000  1.0
  C  C64  1  0.67546000  0.73070000  0.22952000  1.0
  C  C65  1  0.41873000  0.65476000  0.15905000  1.0
  C  C66  1  0.41484000  0.70048000  0.20449000  1.0
  C  C67  1  0.32704000  0.72426000  0.22829000  1.0
  C  C68  1  0.49461000  0.86486000  0.36596000  1.0
  C  C69  1  0.49916000  0.77298000  0.27412000  1.0
  C  C70  1  0.50598000  0.63445000  0.13630000  1.0
  C  C71  1  0.50135000  0.72658000  0.22784000  1.0
  C  C72  1  0.52058000  0.13397000  0.63279000  1.0
  C  C73  1  0.47985000  0.36840000  0.86666000  1.0
  C  C74  1  0.60042000  0.16211000  0.65949000  1.0
  C  C75  1  0.59327000  0.20731000  0.70448000  1.0
  C  C76  1  0.39984000  0.34144000  0.83898000  1.0
  C  C77  1  0.40676000  0.29627000  0.79391000  1.0
  C  C78  1  0.56859000  0.34715000  0.84592000  1.0
  C  C79  1  0.57707000  0.30224000  0.80092000  1.0
  C  C80  1  0.43173000  0.15443000  0.65414000  1.0
  C  C81  1  0.42300000  0.19947000  0.69902000  1.0
  C  C82  1  0.50397000  0.22722000  0.72554000  1.0
  C  C83  1  0.49598000  0.27542000  0.77361000  1.0
  C  C84  1  0.51675000  0.13282000  0.36724000  1.0
  C  C85  1  0.50419000  0.36693000  0.13328000  1.0
  C  C86  1  0.60003000  0.15924000  0.34367000  1.0
  C  C87  1  0.59879000  0.20450000  0.29881000  1.0
  C  C88  1  0.42132000  0.34252000  0.15946000  1.0
  C  C89  1  0.42365000  0.29773000  0.20470000  1.0
  C  C90  1  0.59061000  0.34303000  0.15533000  1.0
  C  C91  1  0.59438000  0.29795000  0.20025000  1.0
  C  C92  1  0.43081000  0.15504000  0.34278000  1.0
  C  C93  1  0.42805000  0.20004000  0.29782000  1.0
  C  C94  1  0.51238000  0.22605000  0.27449000  1.0
  C  C95  1  0.51045000  0.27408000  0.22632000  1.0
  C  C96  1  0.49522000  0.86710000  0.63370000  1.0
  C  C97  1  0.48291000  0.63439000  0.86903000  1.0
  C  C98  1  0.57816000  0.84118000  0.65868000  1.0
  C  C99  1  0.57593000  0.79639000  0.70393000  1.0
  C  C100  1  0.39967000  0.65805000  0.84241000  1.0
  C  C101  1  0.40094000  0.70279000  0.79706000  1.0
  C  C102  1  0.56890000  0.65853000  0.84689000  1.0
  C  C103  1  0.57169000  0.70342000  0.80183000  1.0
  C  C104  1  0.40886000  0.84528000  0.65757000  1.0
  C  C105  1  0.40520000  0.80066000  0.70294000  1.0
  C  C106  1  0.48920000  0.77480000  0.72732000  1.0
  C  C107  1  0.48736000  0.72688000  0.77560000  1.0
  C  C108  1  0.19414000  0.50508000  0.05868000  1.0
  C  C109  1  0.09536000  0.50594000  0.05971000  1.0
  C  C110  1  0.79408000  0.49973000  0.94587000  1.0
  C  C111  1  0.89278000  0.50126000  0.94506000  1.0
  C  C112  1  0.78747000  0.50239000  0.05069000  1.0
  C  C113  1  0.88576000  0.50383000  0.05500000  1.0
  C  C114  1  0.20003000  0.50098000  0.95370000  1.0
  C  C115  1  0.10173000  0.50120000  0.94976000  1.0
  C  C116  1  0.04664000  0.50363000  0.00359000  1.0
  C  C117  1  0.94125000  0.50313000  0.00129000  1.0
  N  N118  1  0.75370000  0.99250000  0.49769000  1.0
  N  N119  1  0.25851000  0.00474000  0.50014000  1.0
  N  N120  1  0.24626000  0.50274000  0.00809000  1.0
  N  N121  1  0.74140000  0.50022000  0.99620000  1.0
  N  N122  1  0.23636000  0.69810000  0.20557000  1.0
  N  N123  1  0.23266000  0.79492000  0.29244000  1.0
  N  N124  1  0.76789000  0.70841000  0.20582000  1.0
  N  N125  1  0.76411000  0.79544000  0.30254000  1.0
  O  O126  1  0.60404000  0.06566000  0.56598000  1.0
  O  O127  1  0.44267000  0.06563000  0.56567000  1.0
  O  O128  1  0.43207000  0.06480000  0.43118000  1.0
  O  O129  1  0.59327000  0.06436000  0.43627000  1.0
  O  O130  1  0.41349000  0.93197000  0.43450000  1.0
  O  O131  1  0.57523000  0.93286000  0.43236000  1.0
  O  O132  1  0.57464000  0.93410000  0.56573000  1.0
  O  O133  1  0.41330000  0.93315000  0.56523000  1.0
  O  O134  1  0.39755000  0.43963000  0.93104000  1.0
  O  O135  1  0.55806000  0.43163000  0.93842000  1.0
  O  O136  1  0.56727000  0.56644000  0.93339000  1.0
  O  O137  1  0.40647000  0.56980000  0.94142000  1.0
  O  O138  1  0.58710000  0.56916000  0.06604000  1.0
  O  O139  1  0.42578000  0.56422000  0.07207000  1.0
  O  O140  1  0.42484000  0.43070000  0.06192000  1.0
  O  O141  1  0.58532000  0.43813000  0.07014000  1.0
  O  O142  1  0.22528000  0.64195000  0.21170000  1.0
  O  O143  1  0.17936000  0.73427000  0.18175000  1.0
  O  O144  1  0.21518000  0.84964000  0.28203000  1.0
  O  O145  1  0.18171000  0.75848000  0.32088000  1.0
  O  O146  1  0.78492000  0.71882000  0.15130000  1.0
  O  O147  1  0.81926000  0.67993000  0.24211000  1.0
  O  O148  1  0.77527000  0.78917000  0.35847000  1.0
  O  O149  1  0.82093000  0.81946000  0.26666000  1.0
  F  F150  1  0.75857000  0.88827000  0.49319000  1.0
  F  F151  1  0.25229000  0.10909000  0.50322000  1.0
  F  F152  1  0.69016000  0.14635000  0.64218000  1.0
  F  F153  1  0.31019000  0.35830000  0.85551000  1.0
  F  F154  1  0.68753000  0.14171000  0.36405000  1.0
  F  F155  1  0.33349000  0.36209000  0.14217000  1.0
  F  F156  1  0.66596000  0.85858000  0.63955000  1.0
  F  F157  1  0.31221000  0.63756000  0.85954000  1.0
  F  F158  1  0.24176000  0.50667000  0.11195000  1.0
  F  F159  1  0.74683000  0.49736000  0.89226000  1.0
