# generated using pymatgen
data_H6PbC8O5
_symmetry_space_group_name_H-M   'P 1'
_cell_length_a   7.52766000
_cell_length_b   10.74900000
_cell_length_c   11.05630000
_cell_angle_alpha   70.81300000
_cell_angle_beta   89.99960000
_cell_angle_gamma   89.99800000
_symmetry_Int_Tables_number   1
_chemical_formula_structural   H6PbC8O5
_chemical_formula_sum   'H24 Pb4 C32 O20'
_cell_volume   844.92329892
_cell_formula_units_Z   4
loop_
 _symmetry_equiv_pos_site_id
 _symmetry_equiv_pos_as_xyz
  1  'x, y, z'
loop_
 _atom_site_type_symbol
 _atom_site_label
 _atom_site_symmetry_multiplicity
 _atom_site_fract_x
 _atom_site_fract_y
 _atom_site_fract_z
 _atom_site_occupancy
  H  H0  1  0.37038000  0.92303000  0.98054000  1.0
  H  H1  1  0.87039000  0.07698000  0.51945000  1.0
  H  H2  1  0.62961000  0.07697000  0.01947000  1.0
  H  H3  1  0.12963000  0.92303000  0.48053000  1.0
  H  H4  1  0.40939000  0.07820000  0.90945000  1.0
  H  H5  1  0.90941000  0.92180000  0.59054000  1.0
  H  H6  1  0.59061000  0.92181000  0.09057000  1.0
  H  H7  1  0.09060000  0.07820000  0.40946000  1.0
  H  H8  1  0.00149000  0.55951000  0.64950000  1.0
  H  H9  1  0.50150000  0.44050000  0.85050000  1.0
  H  H10  1  0.99848000  0.44050000  0.35051000  1.0
  H  H11  1  0.49850000  0.55949000  0.14951000  1.0
  H  H12  1  0.99942000  0.32415000  0.78738000  1.0
  H  H13  1  0.49940000  0.67586000  0.71261000  1.0
  H  H14  1  0.00058000  0.67586000  0.21261000  1.0
  H  H15  1  0.50059000  0.32414000  0.28740000  1.0
  H  H16  1  0.27805000  0.42480000  0.08129000  1.0
  H  H17  1  0.77804000  0.57520000  0.41871000  1.0
  H  H18  1  0.72196000  0.57520000  0.91871000  1.0
  H  H19  1  0.22194000  0.42480000  0.58129000  1.0
  H  H20  1  0.27993000  0.66182000  0.94311000  1.0
  H  H21  1  0.77992000  0.33817000  0.55689000  1.0
  H  H22  1  0.72006000  0.33817000  0.05689000  1.0
  H  H23  1  0.22005000  0.66182000  0.44311000  1.0
  Pb  Pb24  1  0.03415000  0.03827000  0.79861000  1.0
  Pb  Pb25  1  0.53416000  0.96172000  0.70139000  1.0
  Pb  Pb26  1  0.96588000  0.96175000  0.20137000  1.0
  Pb  Pb27  1  0.46587000  0.03827000  0.29863000  1.0
  C  C28  1  0.13236000  0.76630000  0.70450000  1.0
  C  C29  1  0.63234000  0.23370000  0.79549000  1.0
  C  C30  1  0.86762000  0.23371000  0.29551000  1.0
  C  C31  1  0.36765000  0.76630000  0.20451000  1.0
  C  C32  1  0.14143000  0.62482000  0.78713000  1.0
  C  C33  1  0.64142000  0.37519000  0.71287000  1.0
  C  C34  1  0.85856000  0.37519000  0.21288000  1.0
  C  C35  1  0.35856000  0.62481000  0.28713000  1.0
  C  C36  1  0.06438000  0.52900000  0.74330000  1.0
  C  C37  1  0.56437000  0.47100000  0.75670000  1.0
  C  C38  1  0.93560000  0.47101000  0.25670000  1.0
  C  C39  1  0.43562000  0.52899000  0.24330000  1.0
  C  C40  1  0.06404000  0.39775000  0.82025000  1.0
  C  C41  1  0.56402000  0.60226000  0.67974000  1.0
  C  C42  1  0.93597000  0.60226000  0.17974000  1.0
  C  C43  1  0.43597000  0.39774000  0.32026000  1.0
  C  C44  1  0.14051000  0.35972000  0.94245000  1.0
  C  C45  1  0.64049000  0.64028000  0.55755000  1.0
  C  C46  1  0.85951000  0.64028000  0.05754000  1.0
  C  C47  1  0.35950000  0.35971000  0.44246000  1.0
  C  C48  1  0.22119000  0.45507000  0.98548000  1.0
  C  C49  1  0.72117000  0.54493000  0.51452000  1.0
  C  C50  1  0.77882000  0.54493000  0.01452000  1.0
  C  C51  1  0.27881000  0.45507000  0.48548000  1.0
  C  C52  1  0.22125000  0.58694000  0.90867000  1.0
  C  C53  1  0.72124000  0.41305000  0.59132000  1.0
  C  C54  1  0.77875000  0.41305000  0.09133000  1.0
  C  C55  1  0.27874000  0.58695000  0.40867000  1.0
  C  C56  1  0.12286000  0.22083000  0.02999000  1.0
  C  C57  1  0.62285000  0.77918000  0.47000000  1.0
  C  C58  1  0.87717000  0.77917000  0.96999000  1.0
  C  C59  1  0.37715000  0.22082000  0.53002000  1.0
  O  O60  1  0.20470000  0.85221000  0.74669000  1.0
  O  O61  1  0.70469000  0.14779000  0.75329000  1.0
  O  O62  1  0.79531000  0.14779000  0.25331000  1.0
  O  O63  1  0.29532000  0.85221000  0.24671000  1.0
  O  O64  1  0.05209000  0.79453000  0.59730000  1.0
  O  O65  1  0.55207000  0.20547000  0.90270000  1.0
  O  O66  1  0.94790000  0.20548000  0.40271000  1.0
  O  O67  1  0.44791000  0.79453000  0.09731000  1.0
  O  O68  1  0.19554000  0.18530000  0.13939000  1.0
  O  O69  1  0.69555000  0.81469000  0.36061000  1.0
  O  O70  1  0.80450000  0.81468000  0.86059000  1.0
  O  O71  1  0.30448000  0.18531000  0.63941000  1.0
  O  O72  1  0.02298000  0.14226000  0.99296000  1.0
  O  O73  1  0.52297000  0.85775000  0.50702000  1.0
  O  O74  1  0.97704000  0.85774000  0.00701000  1.0
  O  O75  1  0.47703000  0.14225000  0.49299000  1.0
  O  O76  1  0.34651000  0.99986000  0.90078000  1.0
  O  O77  1  0.84652000  0.00013000  0.59921000  1.0
  O  O78  1  0.65349000  0.00014000  0.09923000  1.0
  O  O79  1  0.15349000  0.99987000  0.40078000  1.0
