# generated using pymatgen
data_CdH12C12Br2(NO)2
_symmetry_space_group_name_H-M   'P 1'
_cell_length_a   4.06914000
_cell_length_b   8.12133000
_cell_length_c   9.96910000
_cell_angle_alpha   84.46690000
_cell_angle_beta   82.78710000
_cell_angle_gamma   84.89480000
_symmetry_Int_Tables_number   1
_chemical_formula_structural   CdH12C12Br2(NO)2
_chemical_formula_sum   'Cd1 H12 C12 Br2 N2 O2'
_cell_volume   324.32976573
_cell_formula_units_Z   1
loop_
 _symmetry_equiv_pos_site_id
 _symmetry_equiv_pos_as_xyz
  1  'x, y, z'
loop_
 _atom_site_type_symbol
 _atom_site_label
 _atom_site_symmetry_multiplicity
 _atom_site_fract_x
 _atom_site_fract_y
 _atom_site_fract_z
 _atom_site_occupancy
  Cd  Cd0  1  0.50000000  0.00000000  0.00000000  1.0
  H  H1  1  0.87558000  0.61732000  0.13833000  1.0
  H  H2  1  0.12442000  0.38269000  0.86167000  1.0
  H  H3  1  0.51550000  0.60416000  0.05986000  1.0
  H  H4  1  0.48450000  0.39584000  0.94014000  1.0
  H  H5  1  0.30456000  0.41377000  0.24377000  1.0
  H  H6  1  0.69544000  0.58623000  0.75623000  1.0
  H  H7  1  0.66983000  0.42551000  0.32424000  1.0
  H  H8  1  0.33018000  0.57450000  0.67576000  1.0
  H  H9  1  0.43118000  0.08861000  0.31303000  1.0
  H  H10  1  0.56882000  0.91138000  0.68697000  1.0
  H  H11  1  0.83947000  0.71022000  0.52636000  1.0
  H  H12  1  0.16053000  0.28978000  0.47364000  1.0
  C  C13  1  0.60371000  0.62196000  0.15677000  1.0
  C  C14  1  0.39629000  0.37804000  0.84322000  1.0
  C  C15  1  0.47396000  0.49808000  0.27336000  1.0
  C  C16  1  0.52605000  0.50192000  0.72664000  1.0
  C  C17  1  0.30848000  0.76379000  0.31835000  1.0
  C  C18  1  0.69152000  0.23621000  0.68165000  1.0
  C  C19  1  0.14722000  0.88721000  0.40836000  1.0
  C  C20  1  0.85278000  0.11279000  0.59164000  1.0
  C  C21  1  0.23765000  0.05107000  0.39303000  1.0
  C  C22  1  0.76235000  0.94893000  0.60697000  1.0
  C  C23  1  0.90991000  0.83737000  0.51606000  1.0
  C  C24  1  0.09009000  0.16262000  0.48394000  1.0
  Br  Br25  1  0.92233000  0.18374000  0.10674000  1.0
  Br  Br26  1  0.07767000  0.81626000  0.89326000  1.0
  N  N27  1  0.47302000  0.78679000  0.19927000  1.0
  N  N28  1  0.52698000  0.21321000  0.80073000  1.0
  O  O29  1  0.28604000  0.60359000  0.37198000  1.0
  O  O30  1  0.71396000  0.39641000  0.62802000  1.0
