# generated using pymatgen
data_CdH10C4(BrN)2
_symmetry_space_group_name_H-M   'P 1'
_cell_length_a   6.89422000
_cell_length_b   8.30809000
_cell_length_c   8.30809000
_cell_angle_alpha   113.90600000
_cell_angle_beta   89.81630000
_cell_angle_gamma   89.81600000
_symmetry_Int_Tables_number   1
_chemical_formula_structural   CdH10C4(BrN)2
_chemical_formula_sum   'Cd2 H20 C8 Br4 N4'
_cell_volume   435.03750143
_cell_formula_units_Z   2
loop_
 _symmetry_equiv_pos_site_id
 _symmetry_equiv_pos_as_xyz
  1  'x, y, z'
loop_
 _atom_site_type_symbol
 _atom_site_label
 _atom_site_symmetry_multiplicity
 _atom_site_fract_x
 _atom_site_fract_y
 _atom_site_fract_z
 _atom_site_occupancy
  Cd  Cd0  1  0.74999000  0.92998000  0.07002000  1.0
  Cd  Cd1  1  0.25000000  0.07002000  0.92998000  1.0
  H  H2  1  0.06688000  0.71655000  0.98577000  1.0
  H  H3  1  0.43312000  0.01423000  0.28346000  1.0
  H  H4  1  0.93311000  0.28346000  0.01423000  1.0
  H  H5  1  0.56689000  0.98577000  0.71654000  1.0
  H  H6  1  0.85471000  0.54903000  0.75443000  1.0
  H  H7  1  0.64530000  0.24556000  0.45098000  1.0
  H  H8  1  0.14529000  0.45098000  0.24557000  1.0
  H  H9  1  0.35471000  0.75443000  0.54903000  1.0
  H  H10  1  0.73401000  0.47675000  0.90278000  1.0
  H  H11  1  0.76599000  0.09721000  0.52325000  1.0
  H  H12  1  0.26598000  0.52325000  0.09722000  1.0
  H  H13  1  0.23401000  0.90278000  0.47675000  1.0
  H  H14  1  0.83945000  0.59363000  0.21373000  1.0
  H  H15  1  0.66055000  0.78627000  0.40637000  1.0
  H  H16  1  0.16055000  0.40637000  0.78628000  1.0
  H  H17  1  0.33946000  0.21373000  0.59362000  1.0
  H  H18  1  0.02729000  0.75365000  0.28255000  1.0
  H  H19  1  0.47271000  0.71745000  0.24635000  1.0
  H  H20  1  0.97271000  0.24635000  0.71746000  1.0
  H  H21  1  0.52729000  0.28255000  0.75365000  1.0
  C  C22  1  0.87538000  0.51539000  0.86823000  1.0
  C  C23  1  0.62462000  0.13176000  0.48461000  1.0
  C  C24  1  0.12461000  0.48462000  0.13177000  1.0
  C  C25  1  0.37538000  0.86823000  0.51539000  1.0
  C  C26  1  0.97707000  0.63353000  0.17390000  1.0
  C  C27  1  0.52292000  0.82610000  0.36647000  1.0
  C  C28  1  0.02292000  0.36648000  0.82610000  1.0
  C  C29  1  0.47709000  0.17390000  0.63352000  1.0
  Br  Br30  1  0.41799000  0.74194000  0.89168000  1.0
  Br  Br31  1  0.08200000  0.10832000  0.25806000  1.0
  Br  Br32  1  0.58200000  0.25806000  0.10832000  1.0
  Br  Br33  1  0.91800000  0.89168000  0.74194000  1.0
  N  N34  1  0.93825000  0.67504000  0.01985000  1.0
  N  N35  1  0.56175000  0.98015000  0.32496000  1.0
  N  N36  1  0.06174000  0.32497000  0.98016000  1.0
  N  N37  1  0.43826000  0.01984000  0.67504000  1.0
