# generated using pymatgen
data_H36Ru2C24ClO8
_symmetry_space_group_name_H-M   'P 1'
_cell_length_a   7.37595000
_cell_length_b   9.52356000
_cell_length_c   9.93855000
_cell_angle_alpha   92.20620000
_cell_angle_beta   97.06970000
_cell_angle_gamma   99.27280000
_symmetry_Int_Tables_number   1
_chemical_formula_structural   H36Ru2C24ClO8
_chemical_formula_sum   'H36 Ru2 C24 Cl1 O8'
_cell_volume   682.56137044
_cell_formula_units_Z   1
loop_
 _symmetry_equiv_pos_site_id
 _symmetry_equiv_pos_as_xyz
  1  'x, y, z'
loop_
 _atom_site_type_symbol
 _atom_site_label
 _atom_site_symmetry_multiplicity
 _atom_site_fract_x
 _atom_site_fract_y
 _atom_site_fract_z
 _atom_site_occupancy
  H  H0  1  0.62939000  0.57981000  0.06989000  1.0
  H  H1  1  0.37061000  0.42020000  0.93012000  1.0
  H  H2  1  0.60253000  0.31074000  0.05723000  1.0
  H  H3  1  0.39746000  0.68926000  0.94278000  1.0
  H  H4  1  0.78845000  0.32098000  0.18719000  1.0
  H  H5  1  0.21155000  0.67902000  0.81283000  1.0
  H  H6  1  0.47664000  0.25384000  0.26701000  1.0
  H  H7  1  0.52337000  0.74616000  0.73300000  1.0
  H  H8  1  0.41540000  0.41881000  0.21947000  1.0
  H  H9  1  0.58459000  0.58119000  0.78056000  1.0
  H  H10  1  0.59818000  0.41626000  0.35319000  1.0
  H  H11  1  0.40182000  0.58374000  0.64682000  1.0
  H  H12  1  0.20525000  0.60244000  0.19232000  1.0
  H  H13  1  0.79476000  0.39755000  0.80768000  1.0
  H  H14  1  0.08090000  0.42696000  0.15438000  1.0
  H  H15  1  0.91909000  0.57304000  0.84561000  1.0
  H  H16  1  0.06636000  0.51871000  0.30967000  1.0
  H  H17  1  0.93365000  0.48129000  0.69033000  1.0
  H  H18  1  0.35970000  0.10892000  0.42111000  1.0
  H  H19  1  0.64029000  0.89108000  0.57888000  1.0
  H  H20  1  0.20322000  0.15507000  0.67771000  1.0
  H  H21  1  0.79679000  0.84492000  0.32229000  1.0
  H  H22  1  0.30527000  0.31921000  0.62778000  1.0
  H  H23  1  0.69472000  0.68078000  0.37221000  1.0
  H  H24  1  0.53255000  0.21477000  0.78503000  1.0
  H  H25  1  0.46747000  0.78524000  0.21496000  1.0
  H  H26  1  0.60918000  0.22469000  0.62191000  1.0
  H  H27  1  0.39082000  0.77532000  0.37807000  1.0
  H  H28  1  0.50271000  0.05984000  0.67780000  1.0
  H  H29  1  0.49731000  0.94016000  0.32218000  1.0
  H  H30  1  0.81126000  0.20177000  0.38684000  1.0
  H  H31  1  0.18874000  0.79824000  0.61316000  1.0
  H  H32  1  0.97938000  0.32885000  0.49075000  1.0
  H  H33  1  0.02063000  0.67115000  0.50924000  1.0
  H  H34  1  0.90527000  0.15953000  0.55074000  1.0
  H  H35  1  0.09473000  0.84049000  0.44926000  1.0
  Ru  Ru36  1  0.15646000  0.99518000  0.00365000  1.0
  Ru  Ru37  1  0.84355000  0.00482000  0.99635000  1.0
  C  C38  1  0.94501000  0.73895000  0.08811000  1.0
  C  C39  1  0.05498000  0.26104000  0.91189000  1.0
  C  C40  1  0.91184000  0.59326000  0.13609000  1.0
  C  C41  1  0.08816000  0.40674000  0.86391000  1.0
  C  C42  1  0.73574000  0.52228000  0.11617000  1.0
  C  C43  1  0.26425000  0.47771000  0.88384000  1.0
  C  C44  1  0.67176000  0.37358000  0.15036000  1.0
  C  C45  1  0.32823000  0.62642000  0.84966000  1.0
  C  C46  1  0.53287000  0.36546000  0.25393000  1.0
  C  C47  1  0.46713000  0.63454000  0.74608000  1.0
  C  C48  1  0.07503000  0.53207000  0.20099000  1.0
  C  C49  1  0.92497000  0.46792000  0.79900000  1.0
  C  C50  1  0.05963000  0.10345000  0.25618000  1.0
  C  C51  1  0.94036000  0.89655000  0.74382000  1.0
  C  C52  1  0.09105000  0.15813000  0.39936000  1.0
  C  C53  1  0.90894000  0.84188000  0.60064000  1.0
  C  C54  1  0.25711000  0.15354000  0.47223000  1.0
  C  C55  1  0.74287000  0.84646000  0.52777000  1.0
  C  C56  1  0.31015000  0.20396000  0.61763000  1.0
  C  C57  1  0.68985000  0.79603000  0.38235000  1.0
  C  C58  1  0.49929000  0.17471000  0.67852000  1.0
  C  C59  1  0.50072000  0.82530000  0.32146000  1.0
  C  C60  1  0.93787000  0.21481000  0.45938000  1.0
  C  C61  1  0.06214000  0.78520000  0.54063000  1.0
  Cl  Cl62  1  0.50000000  0.00000000  0.00000000  1.0
  O  O63  1  0.11158000  0.79550000  0.07235000  1.0
  O  O64  1  0.88842000  0.20450000  0.92765000  1.0
  O  O65  1  0.19398000  0.19545000  0.93851000  1.0
  O  O66  1  0.80601000  0.80454000  0.06149000  1.0
  O  O67  1  0.19764000  0.07330000  0.19914000  1.0
  O  O68  1  0.80235000  0.92670000  0.80084000  1.0
  O  O69  1  0.10628000  0.91345000  0.80792000  1.0
  O  O70  1  0.89372000  0.08655000  0.19209000  1.0
