# generated using pymatgen
data_CuH6C4(N2Cl)2
_symmetry_space_group_name_H-M   'P 1'
_cell_length_a   6.77631000
_cell_length_b   8.99597000
_cell_length_c   14.12620000
_cell_angle_alpha   90.00060000
_cell_angle_beta   90.00050000
_cell_angle_gamma   68.84100000
_symmetry_Int_Tables_number   1
_chemical_formula_structural   CuH6C4(N2Cl)2
_chemical_formula_sum   'Cu4 H24 C16 N16 Cl8'
_cell_volume   803.07073508
_cell_formula_units_Z   4
loop_
 _symmetry_equiv_pos_site_id
 _symmetry_equiv_pos_as_xyz
  1  'x, y, z'
loop_
 _atom_site_type_symbol
 _atom_site_label
 _atom_site_symmetry_multiplicity
 _atom_site_fract_x
 _atom_site_fract_y
 _atom_site_fract_z
 _atom_site_occupancy
  Cu  Cu0  1  0.69693000  0.74111000  0.74493000  1.0
  Cu  Cu1  1  0.80307000  0.25889000  0.24493000  1.0
  Cu  Cu2  1  0.30308000  0.25889000  0.25507000  1.0
  Cu  Cu3  1  0.19693000  0.74111000  0.75507000  1.0
  H  H4  1  0.30828000  0.61279000  0.37862000  1.0
  H  H5  1  0.19172000  0.38722000  0.87863000  1.0
  H  H6  1  0.69173000  0.38721000  0.62137000  1.0
  H  H7  1  0.80828000  0.61278000  0.12137000  1.0
  H  H8  1  0.56740000  0.61928000  0.35765000  1.0
  H  H9  1  0.93259000  0.38073000  0.85765000  1.0
  H  H10  1  0.43260000  0.38072000  0.64235000  1.0
  H  H11  1  0.06740000  0.61927000  0.14235000  1.0
  H  H12  1  0.33550000  0.79666000  0.34681000  1.0
  H  H13  1  0.16450000  0.20334000  0.84681000  1.0
  H  H14  1  0.66450000  0.20333000  0.65319000  1.0
  H  H15  1  0.83550000  0.79666000  0.15319000  1.0
  H  H16  1  0.89930000  0.74334000  0.54040000  1.0
  H  H17  1  0.60069000  0.25667000  0.04041000  1.0
  H  H18  1  0.10069000  0.25666000  0.45959000  1.0
  H  H19  1  0.39930000  0.74334000  0.95961000  1.0
  H  H20  1  0.62896000  0.87574000  0.35995000  1.0
  H  H21  1  0.87103000  0.12427000  0.85996000  1.0
  H  H22  1  0.37104000  0.12426000  0.64003000  1.0
  H  H23  1  0.12896000  0.87575000  0.14005000  1.0
  H  H24  1  0.90345000  0.86034000  0.38337000  1.0
  H  H25  1  0.59654000  0.13967000  0.88337000  1.0
  H  H26  1  0.09655000  0.13966000  0.61663000  1.0
  H  H27  1  0.40344000  0.86034000  0.11664000  1.0
  C  C28  1  0.58253000  0.74627000  0.53273000  1.0
  C  C29  1  0.91746000  0.25373000  0.03273000  1.0
  C  C30  1  0.41746000  0.25373000  0.46727000  1.0
  C  C31  1  0.08253000  0.74627000  0.96728000  1.0
  C  C32  1  0.40861000  0.68426000  0.38546000  1.0
  C  C33  1  0.09139000  0.31574000  0.88546000  1.0
  C  C34  1  0.59139000  0.31573000  0.61454000  1.0
  C  C35  1  0.90861000  0.68426000  0.11453000  1.0
  C  C36  1  0.76283000  0.77413000  0.49350000  1.0
  C  C37  1  0.73717000  0.22588000  0.99350000  1.0
  C  C38  1  0.23717000  0.22587000  0.50650000  1.0
  C  C39  1  0.26282000  0.77413000  0.00651000  1.0
  C  C40  1  0.76415000  0.83810000  0.40783000  1.0
  C  C41  1  0.73584000  0.16192000  0.90784000  1.0
  C  C42  1  0.23585000  0.16190000  0.59216000  1.0
  C  C43  1  0.26415000  0.83811000  0.09218000  1.0
  N  N44  1  0.42596000  0.71589000  0.48572000  1.0
  N  N45  1  0.07404000  0.28411000  0.98573000  1.0
  N  N46  1  0.57404000  0.28410000  0.51427000  1.0
  N  N47  1  0.92595000  0.71589000  0.01427000  1.0
  N  N48  1  0.28218000  0.70353000  0.54785000  1.0
  N  N49  1  0.21782000  0.29646000  0.04786000  1.0
  N  N50  1  0.71782000  0.29646000  0.45215000  1.0
  N  N51  1  0.78218000  0.70353000  0.95214000  1.0
  N  N52  1  0.35009000  0.72452000  0.63080000  1.0
  N  N53  1  0.14992000  0.27548000  0.13080000  1.0
  N  N54  1  0.64992000  0.27547000  0.36920000  1.0
  N  N55  1  0.85010000  0.72452000  0.86920000  1.0
  N  N56  1  0.53418000  0.74809000  0.62518000  1.0
  N  N57  1  0.96583000  0.25191000  0.12518000  1.0
  N  N58  1  0.46583000  0.25191000  0.37482000  1.0
  N  N59  1  0.03418000  0.74810000  0.87482000  1.0
  Cl  Cl60  1  0.40582000  0.93874000  0.80690000  1.0
  Cl  Cl61  1  0.09418000  0.06125000  0.30690000  1.0
  Cl  Cl62  1  0.59418000  0.06126000  0.19310000  1.0
  Cl  Cl63  1  0.90583000  0.93874000  0.69310000  1.0
  Cl  Cl64  1  0.47326000  0.52924000  0.81374000  1.0
  Cl  Cl65  1  0.02674000  0.47075000  0.31374000  1.0
  Cl  Cl66  1  0.52674000  0.47075000  0.18626000  1.0
  Cl  Cl67  1  0.97326000  0.52924000  0.68626000  1.0
