# generated using pymatgen
data_CuH12C14(NO)4
_symmetry_space_group_name_H-M   'P 1'
_cell_length_a   8.01550000
_cell_length_b   8.54075000
_cell_length_c   10.49710000
_cell_angle_alpha   90.00050000
_cell_angle_beta   90.00030000
_cell_angle_gamma   72.10700000
_symmetry_Int_Tables_number   1
_chemical_formula_structural   CuH12C14(NO)4
_chemical_formula_sum   'Cu2 H24 C28 N8 O8'
_cell_volume   683.85649492
_cell_formula_units_Z   2
loop_
 _symmetry_equiv_pos_site_id
 _symmetry_equiv_pos_as_xyz
  1  'x, y, z'
loop_
 _atom_site_type_symbol
 _atom_site_label
 _atom_site_symmetry_multiplicity
 _atom_site_fract_x
 _atom_site_fract_y
 _atom_site_fract_z
 _atom_site_occupancy
  Cu  Cu0  1  0.50000000  0.00000000  0.50000000  1.0
  Cu  Cu1  1  0.50000000  0.50000000  0.00000000  1.0
  H  H2  1  0.47344000  0.84137000  0.83085000  1.0
  H  H3  1  0.52655000  0.65863000  0.33083000  1.0
  H  H4  1  0.52656000  0.15862000  0.16914000  1.0
  H  H5  1  0.47345000  0.34138000  0.66917000  1.0
  H  H6  1  0.95343000  0.89379000  0.29264000  1.0
  H  H7  1  0.04655000  0.60620000  0.79265000  1.0
  H  H8  1  0.04657000  0.10621000  0.70736000  1.0
  H  H9  1  0.95345000  0.39380000  0.20735000  1.0
  H  H10  1  0.17285000  0.09160000  0.30621000  1.0
  H  H11  1  0.82714000  0.40840000  0.80621000  1.0
  H  H12  1  0.82715000  0.90840000  0.69379000  1.0
  H  H13  1  0.17286000  0.59160000  0.19379000  1.0
  H  H14  1  0.79410000  0.77141000  0.43511000  1.0
  H  H15  1  0.20590000  0.72859000  0.93511000  1.0
  H  H16  1  0.20590000  0.22859000  0.56489000  1.0
  H  H17  1  0.79410000  0.27141000  0.06489000  1.0
  H  H18  1  0.33935000  0.71024000  0.57856000  1.0
  H  H19  1  0.66065000  0.78976000  0.07856000  1.0
  H  H20  1  0.66065000  0.28976000  0.42144000  1.0
  H  H21  1  0.33935000  0.21024000  0.92144000  1.0
  H  H22  1  0.32080000  0.45515000  0.50079000  1.0
  H  H23  1  0.67920000  0.04485000  0.00079000  1.0
  H  H24  1  0.67920000  0.54484000  0.49921000  1.0
  H  H25  1  0.32080000  0.95516000  0.99920000  1.0
  C  C26  1  0.45474000  0.92128000  0.74518000  1.0
  C  C27  1  0.54526000  0.57874000  0.24520000  1.0
  C  C28  1  0.54526000  0.07872000  0.25482000  1.0
  C  C29  1  0.45474000  0.42127000  0.75480000  1.0
  C  C30  1  0.06425000  0.62791000  0.46767000  1.0
  C  C31  1  0.93575000  0.87208000  0.96768000  1.0
  C  C32  1  0.93576000  0.37209000  0.53232000  1.0
  C  C33  1  0.06425000  0.12792000  0.03232000  1.0
  C  C34  1  0.06763000  0.88525000  0.35118000  1.0
  C  C35  1  0.93236000  0.61474000  0.85119000  1.0
  C  C36  1  0.93237000  0.11474000  0.64882000  1.0
  C  C37  1  0.06764000  0.38526000  0.14882000  1.0
  C  C38  1  0.17559000  0.98215000  0.35921000  1.0
  C  C39  1  0.82441000  0.51784000  0.85921000  1.0
  C  C40  1  0.82442000  0.01784000  0.64079000  1.0
  C  C41  1  0.17559000  0.48216000  0.14080000  1.0
  C  C42  1  0.88389000  0.65268000  0.46363000  1.0
  C  C43  1  0.11610000  0.84732000  0.96363000  1.0
  C  C44  1  0.11612000  0.34731000  0.53637000  1.0
  C  C45  1  0.88389000  0.15269000  0.03637000  1.0
  C  C46  1  0.27211000  0.78509000  0.49916000  1.0
  C  C47  1  0.72789000  0.71493000  0.99917000  1.0
  C  C48  1  0.72789000  0.21491000  0.50084000  1.0
  C  C49  1  0.27211000  0.28508000  0.00084000  1.0
  C  C50  1  0.18015000  0.47540000  0.50287000  1.0
  C  C51  1  0.81985000  0.02460000  0.00287000  1.0
  C  C52  1  0.81985000  0.52460000  0.49713000  1.0
  C  C53  1  0.18015000  0.97540000  0.99713000  1.0
  N  N54  1  0.13164000  0.75988000  0.43949000  1.0
  N  N55  1  0.86835000  0.74011000  0.93949000  1.0
  N  N56  1  0.86836000  0.24011000  0.56051000  1.0
  N  N57  1  0.13165000  0.25989000  0.06051000  1.0
  N  N58  1  0.30171000  0.91890000  0.45163000  1.0
  N  N59  1  0.69829000  0.58109000  0.95163000  1.0
  N  N60  1  0.69829000  0.08110000  0.54837000  1.0
  N  N61  1  0.30170000  0.41891000  0.04838000  1.0
  O  O62  1  0.34988000  0.06385000  0.74722000  1.0
  O  O63  1  0.65014000  0.43615000  0.24722000  1.0
  O  O64  1  0.65012000  0.93615000  0.25279000  1.0
  O  O65  1  0.34987000  0.56386000  0.75278000  1.0
  O  O66  1  0.54931000  0.85033000  0.64989000  1.0
  O  O67  1  0.45069000  0.64967000  0.14988000  1.0
  O  O68  1  0.45069000  0.14967000  0.35011000  1.0
  O  O69  1  0.54931000  0.35033000  0.85012000  1.0
