# generated using pymatgen
data_NiH6(CO3)2
_symmetry_space_group_name_H-M   'P 1'
_cell_length_a   6.95419000
_cell_length_b   8.60366000
_cell_length_c   9.28489000
_cell_angle_alpha   98.05840000
_cell_angle_beta   89.99980000
_cell_angle_gamma   90.00000000
_symmetry_Int_Tables_number   1
_chemical_formula_structural   NiH6(CO3)2
_chemical_formula_sum   'Ni4 H24 C8 O24'
_cell_volume   550.04331092
_cell_formula_units_Z   4
loop_
 _symmetry_equiv_pos_site_id
 _symmetry_equiv_pos_as_xyz
  1  'x, y, z'
loop_
 _atom_site_type_symbol
 _atom_site_label
 _atom_site_symmetry_multiplicity
 _atom_site_fract_x
 _atom_site_fract_y
 _atom_site_fract_z
 _atom_site_occupancy
  Ni  Ni0  1  0.00000000  0.50000000  0.50000000  1.0
  Ni  Ni1  1  0.50000000  0.50000000  0.00000000  1.0
  Ni  Ni2  1  0.50000000  0.00000000  0.50000000  1.0
  Ni  Ni3  1  0.00000000  0.00000000  0.00000000  1.0
  H  H4  1  0.39609000  0.19973000  0.72908000  1.0
  H  H5  1  0.89610000  0.80028000  0.77091000  1.0
  H  H6  1  0.60391000  0.80027000  0.27091000  1.0
  H  H7  1  0.10390000  0.19972000  0.22909000  1.0
  H  H8  1  0.33737000  0.03077000  0.76729000  1.0
  H  H9  1  0.83738000  0.96923000  0.73271000  1.0
  H  H10  1  0.66263000  0.96923000  0.23271000  1.0
  H  H11  1  0.16262000  0.03077000  0.26729000  1.0
  H  H12  1  0.61211000  0.25902000  0.44828000  1.0
  H  H13  1  0.11211000  0.74098000  0.05170000  1.0
  H  H14  1  0.38789000  0.74098000  0.55171000  1.0
  H  H15  1  0.88789000  0.25902000  0.94830000  1.0
  H  H16  1  0.38859000  0.28357000  0.48253000  1.0
  H  H17  1  0.88859000  0.71643000  0.01746000  1.0
  H  H18  1  0.61142000  0.71643000  0.51746000  1.0
  H  H19  1  0.11140000  0.28357000  0.98254000  1.0
  H  H20  1  0.03587000  0.17229000  0.61893000  1.0
  H  H21  1  0.53589000  0.82771000  0.88108000  1.0
  H  H22  1  0.96413000  0.82770000  0.38108000  1.0
  H  H23  1  0.46411000  0.17228000  0.11892000  1.0
  H  H24  1  0.72298000  0.41965000  0.73133000  1.0
  H  H25  1  0.22300000  0.58034000  0.76866000  1.0
  H  H26  1  0.27702000  0.58035000  0.26867000  1.0
  H  H27  1  0.77700000  0.41965000  0.23133000  1.0
  C  C28  1  0.88978000  0.17406000  0.57232000  1.0
  C  C29  1  0.38979000  0.82595000  0.92768000  1.0
  C  C30  1  0.11022000  0.82594000  0.42768000  1.0
  C  C31  1  0.61021000  0.17406000  0.07232000  1.0
  C  C32  1  0.78801000  0.53104000  0.78048000  1.0
  C  C33  1  0.28802000  0.46895000  0.71952000  1.0
  C  C34  1  0.21199000  0.46896000  0.21952000  1.0
  C  C35  1  0.71198000  0.53105000  0.28048000  1.0
  O  O36  1  0.90670000  0.59914000  0.70625000  1.0
  O  O37  1  0.40670000  0.40085000  0.79375000  1.0
  O  O38  1  0.09330000  0.40086000  0.29375000  1.0
  O  O39  1  0.59331000  0.59915000  0.20625000  1.0
  O  O40  1  0.73936000  0.58698000  0.90952000  1.0
  O  O41  1  0.23936000  0.41301000  0.59048000  1.0
  O  O42  1  0.26064000  0.41303000  0.09048000  1.0
  O  O43  1  0.76064000  0.58698000  0.40952000  1.0
  O  O44  1  0.84345000  0.28693000  0.50303000  1.0
  O  O45  1  0.34346000  0.71308000  0.99696000  1.0
  O  O46  1  0.15656000  0.71307000  0.49697000  1.0
  O  O47  1  0.65654000  0.28692000  0.00304000  1.0
  O  O48  1  0.77715000  0.06279000  0.59242000  1.0
  O  O49  1  0.27717000  0.93722000  0.90759000  1.0
  O  O50  1  0.22284000  0.93721000  0.40758000  1.0
  O  O51  1  0.72283000  0.06278000  0.09241000  1.0
  O  O52  1  0.35920000  0.09230000  0.68517000  1.0
  O  O53  1  0.85921000  0.90770000  0.81483000  1.0
  O  O54  1  0.64081000  0.90770000  0.31483000  1.0
  O  O55  1  0.14079000  0.09230000  0.18517000  1.0
  O  O56  1  0.48158000  0.21480000  0.42208000  1.0
  O  O57  1  0.98158000  0.78519000  0.07792000  1.0
  O  O58  1  0.51842000  0.78520000  0.57791000  1.0
  O  O59  1  0.01842000  0.21481000  0.92208000  1.0
