# generated using pymatgen
data_SnH21C13NF2
_symmetry_space_group_name_H-M   'P 1'
_cell_length_a   5.16545000
_cell_length_b   8.42225000
_cell_length_c   9.13275000
_cell_angle_alpha   87.01290000
_cell_angle_beta   76.96290000
_cell_angle_gamma   74.91430000
_symmetry_Int_Tables_number   1
_chemical_formula_structural   SnH21C13NF2
_chemical_formula_sum   'Sn1 H21 C13 N1 F2'
_cell_volume   373.72769592
_cell_formula_units_Z   1
loop_
 _symmetry_equiv_pos_site_id
 _symmetry_equiv_pos_as_xyz
  1  'x, y, z'
loop_
 _atom_site_type_symbol
 _atom_site_label
 _atom_site_symmetry_multiplicity
 _atom_site_fract_x
 _atom_site_fract_y
 _atom_site_fract_z
 _atom_site_occupancy
  Sn  Sn0  1  0.00900000  0.06102000  0.41028000  1.0
  H  H1  1  0.74736000  0.01599000  0.75210000  1.0
  H  H2  1  0.55486000  0.19469000  0.97971000  1.0
  H  H3  1  0.72197000  0.59048000  0.43955000  1.0
  H  H4  1  0.06893000  0.48494000  0.42359000  1.0
  H  H5  1  0.20062000  0.73776000  0.17137000  1.0
  H  H6  1  0.83868000  0.80150000  0.22304000  1.0
  H  H7  1  0.66517000  0.61690000  0.70754000  1.0
  H  H8  1  0.86946000  0.09409000  0.14486000  1.0
  H  H9  1  0.23085000  0.02582000  0.12357000  1.0
  H  H10  1  0.00303000  0.68643000  0.96029000  1.0
  H  H11  1  0.80386000  0.89091000  0.96774000  1.0
  H  H12  1  0.52195000  0.49668000  0.95784000  1.0
  H  H13  1  0.23157000  0.83247000  0.75350000  1.0
  H  H14  1  0.43709000  0.79534000  0.89047000  1.0
  H  H15  1  0.22117000  0.99355000  0.87305000  1.0
  H  H16  1  0.45898000  0.50540000  0.29499000  1.0
  H  H17  1  0.46213000  0.33583000  0.42310000  1.0
  H  H18  1  0.55449000  0.29663000  0.22758000  1.0
  H  H19  1  0.19639000  0.41868000  0.16647000  1.0
  H  H20  1  0.87262000  0.54145000  0.14091000  1.0
  H  H21  1  0.98656000  0.33232000  0.08080000  1.0
  C  C22  1  0.78627000  0.38577000  0.58991000  1.0
  C  C23  1  0.72918000  0.14774000  0.74340000  1.0
  C  C24  1  0.62284000  0.24829000  0.87102000  1.0
  C  C25  1  0.81305000  0.21585000  0.60338000  1.0
  C  C26  1  0.86214000  0.46622000  0.43990000  1.0
  C  C27  1  0.01961000  0.82938000  0.14756000  1.0
  C  C28  1  0.68374000  0.48508000  0.71884000  1.0
  C  C29  1  0.03425000  0.00128000  0.18142000  1.0
  C  C30  1  0.00377000  0.81345000  0.98306000  1.0
  C  C31  1  0.60340000  0.41689000  0.85878000  1.0
  C  C32  1  0.23573000  0.86138000  0.86863000  1.0
  C  C33  1  0.56564000  0.37688000  0.31528000  1.0
  C  C34  1  0.98501000  0.41720000  0.16827000  1.0
  N  N35  1  0.85317000  0.36517000  0.31547000  1.0
  F  F36  1  0.40683000  0.05859000  0.39333000  1.0
  F  F37  1  0.03157000  0.84074000  0.50997000  1.0
