# generated using pymatgen
data_CuH3C2O3
_symmetry_space_group_name_H-M   'P 1'
_cell_length_a   9.62472000
_cell_length_b   10.41240000
_cell_length_c   12.31420000
_cell_angle_alpha   111.49800000
_cell_angle_beta   106.39400000
_cell_angle_gamma   93.15010000
_symmetry_Int_Tables_number   1
_chemical_formula_structural   CuH3C2O3
_chemical_formula_sum   'Cu8 H24 C16 O24'
_cell_volume   1084.06735964
_cell_formula_units_Z   8
loop_
 _symmetry_equiv_pos_site_id
 _symmetry_equiv_pos_as_xyz
  1  'x, y, z'
loop_
 _atom_site_type_symbol
 _atom_site_label
 _atom_site_symmetry_multiplicity
 _atom_site_fract_x
 _atom_site_fract_y
 _atom_site_fract_z
 _atom_site_occupancy
  Cu  Cu0  1  0.64307000  0.99257000  0.60172000  1.0
  Cu  Cu1  1  0.93389000  0.11250000  0.59072000  1.0
  Cu  Cu2  1  0.76140000  0.79539000  0.41639000  1.0
  Cu  Cu3  1  0.33765000  0.89763000  0.60682000  1.0
  Cu  Cu4  1  0.35694000  0.00744000  0.39828000  1.0
  Cu  Cu5  1  0.06611000  0.88751000  0.40928000  1.0
  Cu  Cu6  1  0.23861000  0.20462000  0.58363000  1.0
  Cu  Cu7  1  0.66234000  0.10236000  0.39317000  1.0
  H  H8  1  0.66128000  0.48051000  0.04347000  1.0
  H  H9  1  0.60253000  0.60908000  0.98741000  1.0
  H  H10  1  0.12768000  0.42112000  0.48268000  1.0
  H  H11  1  0.96557000  0.41301000  0.36109000  1.0
  H  H12  1  0.35537000  0.01358000  0.03164000  1.0
  H  H13  1  0.47606000  0.15368000  0.04306000  1.0
  H  H14  1  0.37425000  0.58476000  0.51496000  1.0
  H  H15  1  0.51890000  0.58745000  0.63749000  1.0
  H  H16  1  0.89027000  0.90823000  0.65932000  1.0
  H  H17  1  0.17279000  0.06952000  0.70400000  1.0
  H  H18  1  0.72541000  0.25079000  0.63196000  1.0
  H  H19  1  0.48435000  0.14514000  0.69777000  1.0
  H  H20  1  0.33873000  0.51950000  0.95652000  1.0
  H  H21  1  0.39748000  0.39094000  0.01259000  1.0
  H  H22  1  0.87234000  0.57887000  0.51731000  1.0
  H  H23  1  0.03443000  0.58697000  0.63890000  1.0
  H  H24  1  0.64460000  0.98637000  0.96832000  1.0
  H  H25  1  0.52391000  0.84628000  0.95693000  1.0
  H  H26  1  0.62575000  0.41526000  0.48506000  1.0
  H  H27  1  0.48109000  0.41257000  0.36253000  1.0
  H  H28  1  0.10974000  0.09178000  0.34069000  1.0
  H  H29  1  0.82721000  0.93047000  0.29599000  1.0
  H  H30  1  0.27460000  0.74922000  0.36803000  1.0
  H  H31  1  0.51565000  0.85486000  0.30223000  1.0
  C  C32  1  0.58714000  0.64964000  0.16410000  1.0
  C  C33  1  0.57615000  0.54543000  0.03590000  1.0
  C  C34  1  0.92767000  0.31289000  0.47622000  1.0
  C  C35  1  0.01019000  0.42775000  0.45816000  1.0
  C  C36  1  0.35518000  0.01616000  0.85920000  1.0
  C  C37  1  0.43627000  0.03996000  0.99217000  1.0
  C  C38  1  0.57842000  0.69228000  0.53326000  1.0
  C  C39  1  0.49028000  0.57197000  0.54004000  1.0
  C  C40  1  0.41288000  0.35037000  0.83591000  1.0
  C  C41  1  0.42387000  0.45460000  0.96412000  1.0
  C  C42  1  0.07233000  0.68710000  0.52376000  1.0
  C  C43  1  0.98981000  0.57225000  0.54184000  1.0
  C  C44  1  0.64481000  0.98382000  0.14079000  1.0
  C  C45  1  0.56370000  0.96000000  0.00781000  1.0
  C  C46  1  0.42159000  0.30775000  0.46675000  1.0
  C  C47  1  0.50972000  0.42804000  0.45998000  1.0
  O  O48  1  0.70795000  0.66011000  0.24824000  1.0
  O  O49  1  0.48548000  0.71828000  0.17999000  1.0
  O  O50  1  0.00057000  0.27446000  0.56032000  1.0
  O  O51  1  0.79410000  0.26627000  0.40939000  1.0
  O  O52  1  0.23873000  0.06496000  0.83433000  1.0
  O  O53  1  0.41654000  0.94666000  0.78105000  1.0
  O  O54  1  0.65260000  0.66453000  0.45969000  1.0
  O  O55  1  0.56800000  0.81498000  0.60402000  1.0
  O  O56  1  0.83773000  0.94037000  0.59681000  1.0
  O  O57  1  0.12921000  0.06667000  0.61641000  1.0
  O  O58  1  0.73262000  0.15668000  0.57997000  1.0
  O  O59  1  0.46279000  0.05919000  0.61638000  1.0
  O  O60  1  0.29203000  0.33989000  0.75176000  1.0
  O  O61  1  0.51453000  0.28173000  0.82003000  1.0
  O  O62  1  0.99944000  0.72553000  0.43968000  1.0
  O  O63  1  0.20590000  0.73373000  0.59060000  1.0
  O  O64  1  0.76127000  0.93503000  0.16566000  1.0
  O  O65  1  0.58345000  0.05333000  0.21894000  1.0
  O  O66  1  0.34741000  0.33547000  0.54032000  1.0
  O  O67  1  0.43199000  0.18504000  0.39599000  1.0
  O  O68  1  0.16227000  0.05963000  0.40320000  1.0
  O  O69  1  0.87079000  0.93334000  0.38359000  1.0
  O  O70  1  0.26739000  0.84332000  0.42003000  1.0
  O  O71  1  0.53721000  0.94081000  0.38362000  1.0
