# generated using pymatgen
data_CoH4C16S2N3O5F12
_symmetry_space_group_name_H-M   'P 1'
_cell_length_a   8.42911000
_cell_length_b   12.10089085
_cell_length_c   12.24480000
_cell_angle_alpha   72.47683182
_cell_angle_beta   89.41370000
_cell_angle_gamma   71.03739256
_symmetry_Int_Tables_number   1
_chemical_formula_structural   CoH4C16S2N3O5F12
_chemical_formula_sum   'Co2 H8 C32 S4 N6 O10 F24'
_cell_volume   1121.04627422
_cell_formula_units_Z   2
loop_
 _symmetry_equiv_pos_site_id
 _symmetry_equiv_pos_as_xyz
  1  'x, y, z'
loop_
 _atom_site_type_symbol
 _atom_site_label
 _atom_site_symmetry_multiplicity
 _atom_site_fract_x
 _atom_site_fract_y
 _atom_site_fract_z
 _atom_site_occupancy
  Co  Co0  1  0.00000000  0.50000000  0.00000000  1.0
  Co  Co1  1  0.00000000  0.00000000  0.50000000  1.0
  H  H2  1  0.46501000  0.21638000  0.50605000  1.0
  H  H3  1  0.53498000  0.78363000  0.49395000  1.0
  H  H4  1  0.57649000  0.39376000  0.36812000  1.0
  H  H5  1  0.42351000  0.60624000  0.63188000  1.0
  H  H6  1  0.24548000  0.22138000  0.84437000  1.0
  H  H7  1  0.75452000  0.77862000  0.15563000  1.0
  H  H8  1  0.90889000  0.85772000  0.23353000  1.0
  H  H9  1  0.09111000  0.14228000  0.76647000  1.0
  C  C10  1  0.37139000  0.50974000  0.13772000  1.0
  C  C11  1  0.62861000  0.49026000  0.86228000  1.0
  C  C12  1  0.37371000  0.41417000  0.24374000  1.0
  C  C13  1  0.62629000  0.58583000  0.75626000  1.0
  C  C14  1  0.28222000  0.27308000  0.35515000  1.0
  C  C15  1  0.71777000  0.72692000  0.64485000  1.0
  C  C16  1  0.41489000  0.27501000  0.41913000  1.0
  C  C17  1  0.58511000  0.72498000  0.58087000  1.0
  C  C18  1  0.47351000  0.36635000  0.34717000  1.0
  C  C19  1  0.52649000  0.63365000  0.65283000  1.0
  C  C20  1  0.17275000  0.20495000  0.37869000  1.0
  C  C21  1  0.82726000  0.79505000  0.62131000  1.0
  C  C22  1  0.13673000  0.41582000  0.81788000  1.0
  C  C23  1  0.86326000  0.58419000  0.18212000  1.0
  C  C24  1  0.18376000  0.29161000  0.88350000  1.0
  C  C25  1  0.81624000  0.70839000  0.11650000  1.0
  C  C26  1  0.14994000  0.25698000  0.99845000  1.0
  C  C27  1  0.85006000  0.74302000  0.00155000  1.0
  C  C28  1  0.15309000  0.44853000  0.68782000  1.0
  C  C29  1  0.84691000  0.55148000  0.31218000  1.0
  C  C30  1  0.18075000  0.12007000  0.06124000  1.0
  C  C31  1  0.81924000  0.87993000  0.93875000  1.0
  C  C32  1  0.80027000  0.98410000  0.32729000  1.0
  C  C33  1  0.19974000  0.01590000  0.67271000  1.0
  C  C34  1  0.93258000  0.89582000  0.29868000  1.0
  C  C35  1  0.06743000  0.10418000  0.70132000  1.0
  C  C36  1  0.09676000  0.85610000  0.35121000  1.0
  C  C37  1  0.90324000  0.14390000  0.64879000  1.0
  C  C38  1  0.62084000  0.01855000  0.27291000  1.0
  C  C39  1  0.37917000  0.98145000  0.72709000  1.0
  C  C40  1  0.23783000  0.76232000  0.31221000  1.0
  C  C41  1  0.76217000  0.23768000  0.68779000  1.0
  S  S42  1  0.28078000  0.64390000  0.93093000  1.0
  S  S43  1  0.71922000  0.35610000  0.06907000  1.0
  S  S44  1  0.47795000  0.67186000  0.01413000  1.0
  S  S45  1  0.52205000  0.32814000  0.98588000  1.0
  N  N46  1  0.26287000  0.53615000  0.04543000  1.0
  N  N47  1  0.73714000  0.46385000  0.95457000  1.0
  N  N48  1  0.48725000  0.56446000  0.13397000  1.0
  N  N49  1  0.51276000  0.43553000  0.86604000  1.0
  N  N50  1  0.08088000  0.14856000  0.39856000  1.0
  N  N51  1  0.91912000  0.85143000  0.60144000  1.0
  O  O52  1  0.25743000  0.35740000  0.24730000  1.0
  O  O53  1  0.74257000  0.64259000  0.75270000  1.0
  O  O54  1  0.06797000  0.50889000  0.85148000  1.0
  O  O55  1  0.93203000  0.49111000  0.14852000  1.0
  O  O56  1  0.08459000  0.32731000  0.05822000  1.0
  O  O57  1  0.91540000  0.67269000  0.94177000  1.0
  O  O58  1  0.80525000  0.04152000  0.39834000  1.0
  O  O59  1  0.19475000  0.95848000  0.60166000  1.0
  O  O60  1  0.14832000  0.88752000  0.43065000  1.0
  O  O61  1  0.85168000  0.11248000  0.56935000  1.0
  F  F62  1  0.27803000  0.35982000  0.66041000  1.0
  F  F63  1  0.72196000  0.64019000  0.33958000  1.0
  F  F64  1  0.00523000  0.46065000  0.63211000  1.0
  F  F65  1  0.99476000  0.53937000  0.36789000  1.0
  F  F66  1  0.18148000  0.55662000  0.64428000  1.0
  F  F67  1  0.81853000  0.44338000  0.35572000  1.0
  F  F68  1  0.04104000  0.09249000  0.03998000  1.0
  F  F69  1  0.95895000  0.90751000  0.96002000  1.0
  F  F70  1  0.31317000  0.04508000  0.02463000  1.0
  F  F71  1  0.68683000  0.95491000  0.97536000  1.0
  F  F72  1  0.20890000  0.09165000  0.17644000  1.0
  F  F73  1  0.79110000  0.90834000  0.82356000  1.0
  F  F74  1  0.61144000  0.95773000  0.19779000  1.0
  F  F75  1  0.38858000  0.04227000  0.80221000  1.0
  F  F76  1  0.51753000  0.99326000  0.35586000  1.0
  F  F77  1  0.48246000  0.00675000  0.64413000  1.0
  F  F78  1  0.55520000  0.14193000  0.21414000  1.0
  F  F79  1  0.44481000  0.85807000  0.78585000  1.0
  F  F80  1  0.31820000  0.66086000  0.40304000  1.0
  F  F81  1  0.68180000  0.33914000  0.59696000  1.0
  F  F82  1  0.17840000  0.72350000  0.23272000  1.0
  F  F83  1  0.82159000  0.27650000  0.76729000  1.0
  F  F84  1  0.35565000  0.81195000  0.26442000  1.0
  F  F85  1  0.64436000  0.18804000  0.73559000  1.0
