# generated using pymatgen
data_Zn2H13C30N2Cl5O14
_symmetry_space_group_name_H-M   'P 1'
_cell_length_a   9.83614000
_cell_length_b   10.85100000
_cell_length_c   10.85310000
_cell_angle_alpha   94.98880000
_cell_angle_beta   92.09660000
_cell_angle_gamma   90.05460000
_symmetry_Int_Tables_number   1
_chemical_formula_structural   Zn2H13C30N2Cl5O14
_chemical_formula_sum   'Zn2 H13 C30 N2 Cl5 O14'
_cell_volume   1153.20187786
_cell_formula_units_Z   1
loop_
 _symmetry_equiv_pos_site_id
 _symmetry_equiv_pos_as_xyz
  1  'x, y, z'
loop_
 _atom_site_type_symbol
 _atom_site_label
 _atom_site_symmetry_multiplicity
 _atom_site_fract_x
 _atom_site_fract_y
 _atom_site_fract_z
 _atom_site_occupancy
  Zn  Zn0  1  0.35459000  0.50328000  0.50084000  1.0
  Zn  Zn1  1  0.64585000  0.52443000  0.51074000  1.0
  H  H2  1  0.14802000  0.89261000  0.18256000  1.0
  H  H3  1  0.25474000  0.33496000  0.31354000  1.0
  H  H4  1  0.29243000  0.65296000  0.19093000  1.0
  H  H5  1  0.70155000  0.09492000  0.71550000  1.0
  H  H6  1  0.21088000  0.02210000  0.03585000  1.0
  H  H7  1  0.09521000  0.49766000  0.07579000  1.0
  H  H8  1  0.14514000  0.44422000  0.67542000  1.0
  H  H9  1  0.43469000  0.29470000  0.06832000  1.0
  H  H10  1  0.25783000  0.42909000  0.92036000  1.0
  H  H11  1  0.70685000  0.57102000  0.08744000  1.0
  H  H12  1  0.42898000  0.19505000  0.25177000  1.0
  H  H13  1  0.72755000  0.31103000  0.97583000  1.0
  H  H14  1  0.76566000  0.73905000  0.25847000  1.0
  C  C15  1  0.52341000  0.27650000  0.47276000  1.0
  C  C16  1  0.42868000  0.06475000  0.39247000  1.0
  C  C17  1  0.51722000  0.13914000  0.47691000  1.0
  C  C18  1  0.49561000  0.51663000  0.26856000  1.0
  C  C19  1  0.58411000  0.08492000  0.57351000  1.0
  C  C20  1  0.56141000  0.95691000  0.58626000  1.0
  C  C21  1  0.46339000  0.88673000  0.51718000  1.0
  C  C22  1  0.88886000  0.61440000  0.30651000  1.0
  C  C23  1  0.95445000  0.59968000  0.19389000  1.0
  C  C24  1  0.05422000  0.50952000  0.16764000  1.0
  C  C25  1  0.11100000  0.44617000  0.26240000  1.0
  C  C26  1  0.50735000  0.61626000  0.97146000  1.0
  C  C27  1  0.06231000  0.47561000  0.38324000  1.0
  C  C28  1  0.93582000  0.54010000  0.40039000  1.0
  C  C29  1  0.94004000  0.48518000  0.60150000  1.0
  C  C30  1  0.46682000  0.74755000  0.52791000  1.0
  C  C31  1  0.08115000  0.45817000  0.59377000  1.0
  C  C32  1  0.47716000  0.49850000  0.74046000  1.0
  C  C33  1  0.45604000  0.38668000  0.03991000  1.0
  C  C34  1  0.57778000  0.42335000  0.96029000  1.0
  C  C35  1  0.47689000  0.49791000  0.87807000  1.0
  C  C36  1  0.35688000  0.46194000  0.95909000  1.0
  C  C37  1  0.60678000  0.54104000  0.05067000  1.0
  C  C38  1  0.38496000  0.58030000  0.05157000  1.0
  C  C39  1  0.48683000  0.50657000  0.13114000  1.0
  C  C40  1  0.38676000  0.10916000  0.27841000  1.0
  C  C41  1  0.29623000  0.04270000  0.19835000  1.0
  C  C42  1  0.23250000  0.93727000  0.23705000  1.0
  C  C43  1  0.27458000  0.89089000  0.34655000  1.0
  C  C44  1  0.38638000  0.94350000  0.42211000  1.0
  N  N45  1  0.86970000  0.53146000  0.50969000  1.0
  N  N46  1  0.13857000  0.45028000  0.48538000  1.0
  Cl  Cl47  1  0.17070000  0.77469000  0.39114000  1.0
  Cl  Cl48  1  0.66568000  0.89405000  0.69690000  1.0
  Cl  Cl49  1  0.86413000  0.45480000  0.73366000  1.0
  Cl  Cl50  1  0.91430000  0.70194000  0.08458000  1.0
  Cl  Cl51  1  0.53668000  0.76559000  0.93235000  1.0
  O  O52  1  0.41254000  0.32852000  0.43770000  1.0
  O  O53  1  0.79256000  0.69975000  0.33333333  1.0
  O  O54  1  0.20928000  0.36191000  0.23784000  1.0
  O  O55  1  0.29140000  0.66281000  0.10144000  1.0
  O  O56  1  0.66883000  0.15112000  0.65461000  1.0
  O  O57  1  0.26566000  0.08445000  0.08508000  1.0
  O  O58  1  0.63170000  0.33418000  0.50929000  1.0
  O  O59  1  0.38818000  0.55469000  0.32423000  1.0
  O  O60  1  0.60785000  0.48929000  0.31999000  1.0
  O  O61  1  0.36570000  0.69009000  0.56412000  1.0
  O  O62  1  0.57983000  0.70051000  0.49599000  1.0
  O  O63  1  0.36966000  0.45940000  0.67923000  1.0
  O  O64  1  0.58353000  0.53915000  0.69505000  1.0
  O  O65  1  0.67542000  0.34443000  0.90823000  1.0
