# generated using pymatgen
data_ZnH15C19N3O4
_symmetry_space_group_name_H-M   'P 1'
_cell_length_a   7.88033000
_cell_length_b   10.35760000
_cell_length_c   11.24350000
_cell_angle_alpha   70.62710000
_cell_angle_beta   84.09420000
_cell_angle_gamma   73.75480000
_symmetry_Int_Tables_number   1
_chemical_formula_structural   ZnH15C19N3O4
_chemical_formula_sum   'Zn2 H30 C38 N6 O8'
_cell_volume   831.13003166
_cell_formula_units_Z   2
loop_
 _symmetry_equiv_pos_site_id
 _symmetry_equiv_pos_as_xyz
  1  'x, y, z'
loop_
 _atom_site_type_symbol
 _atom_site_label
 _atom_site_symmetry_multiplicity
 _atom_site_fract_x
 _atom_site_fract_y
 _atom_site_fract_z
 _atom_site_occupancy
  Zn  Zn0  1  0.15313000  0.34273000  0.21635000  1.0
  Zn  Zn1  1  0.84686000  0.65727000  0.78365000  1.0
  H  H2  1  0.93341000  0.35878000  0.57789000  1.0
  H  H3  1  0.06660000  0.64122000  0.42211000  1.0
  H  H4  1  0.83346000  0.46740000  0.09036000  1.0
  H  H5  1  0.16653000  0.53260000  0.90964000  1.0
  H  H6  1  0.54874000  0.63637000  0.11345000  1.0
  H  H7  1  0.45124000  0.36363000  0.88657000  1.0
  H  H8  1  0.46629000  0.66711000  0.32779000  1.0
  H  H9  1  0.53371000  0.33288000  0.67222000  1.0
  H  H10  1  0.67320000  0.52634000  0.50749000  1.0
  H  H11  1  0.32681000  0.47366000  0.49252000  1.0
  H  H12  1  0.05737000  0.15671000  0.43535000  1.0
  H  H13  1  0.94263000  0.84329000  0.56465000  1.0
  H  H14  1  0.08271000  0.12736000  0.59774000  1.0
  H  H15  1  0.91729000  0.87264000  0.40226000  1.0
  H  H16  1  0.36994000  0.10836000  0.66890000  1.0
  H  H17  1  0.63007000  0.89164000  0.33110000  1.0
  H  H18  1  0.69212000  0.08631000  0.61234000  1.0
  H  H19  1  0.30788000  0.91370000  0.38765000  1.0
  H  H20  1  0.77581000  0.17606000  0.38256000  1.0
  H  H21  1  0.22419000  0.82394000  0.61743000  1.0
  H  H22  1  0.53324000  0.29353000  0.22430000  1.0
  H  H23  1  0.46674000  0.70647000  0.77569000  1.0
  H  H24  1  0.29151000  0.70984000  0.92832000  1.0
  H  H25  1  0.70848000  0.29016000  0.07168000  1.0
  H  H26  1  0.34484000  0.94643000  0.81493000  1.0
  H  H27  1  0.65517000  0.05357000  0.18507000  1.0
  H  H28  1  0.28010000  0.13202000  0.92364000  1.0
  H  H29  1  0.71991000  0.86798000  0.07637000  1.0
  H  H30  1  0.12153000  0.83832000  0.25590000  1.0
  H  H31  1  0.87847000  0.16168000  0.74410000  1.0
  C  C32  1  0.79163000  0.48263000  0.18153000  1.0
  C  C33  1  0.20837000  0.51737000  0.81847000  1.0
  C  C34  1  0.63357000  0.57677000  0.19448000  1.0
  C  C35  1  0.36642000  0.42323000  0.80552000  1.0
  C  C36  1  0.59048000  0.59416000  0.31364000  1.0
  C  C37  1  0.40952000  0.40584000  0.68636000  1.0
  C  C38  1  0.70356000  0.51689000  0.41350000  1.0
  C  C39  1  0.29645000  0.48312000  0.58651000  1.0
  C  C40  1  0.86203000  0.41873000  0.39502000  1.0
  C  C41  1  0.13797000  0.58127000  0.60498000  1.0
  C  C42  1  0.09419000  0.20087000  0.50266000  1.0
  C  C43  1  0.90581000  0.79913000  0.49734000  1.0
  C  C44  1  0.28628000  0.20155000  0.47648000  1.0
  C  C45  1  0.71372000  0.79845000  0.52352000  1.0
  C  C46  1  0.41264000  0.14511000  0.57113000  1.0
  C  C47  1  0.58737000  0.85488000  0.42887000  1.0
  C  C48  1  0.59072000  0.13481000  0.53977000  1.0
  C  C49  1  0.40928000  0.86519000  0.46022000  1.0
  C  C50  1  0.63843000  0.18509000  0.41308000  1.0
  C  C51  1  0.36156000  0.81491000  0.58691000  1.0
  C  C52  1  0.50541000  0.24703000  0.32391000  1.0
  C  C53  1  0.49458000  0.75297000  0.67608000  1.0
  C  C54  1  0.18324000  0.61345000  0.17174000  1.0
  C  C55  1  0.81675000  0.38655000  0.82826000  1.0
  C  C56  1  0.20475000  0.75842000  0.09926000  1.0
  C  C57  1  0.79526000  0.24157000  0.90074000  1.0
  C  C58  1  0.26567000  0.79111000  0.97412000  1.0
  C  C59  1  0.73433000  0.20889000  0.02589000  1.0
  C  C60  1  0.29417000  0.92411000  0.91140000  1.0
  C  C61  1  0.70583000  0.07589000  0.08860000  1.0
  C  C62  1  0.25894000  0.02732000  0.97138000  1.0
  C  C63  1  0.74107000  0.97268000  0.02862000  1.0
  C  C64  1  0.19428000  0.99677000  0.09580000  1.0
  C  C65  1  0.80572000  0.00323000  0.90420000  1.0
  C  C66  1  0.16926000  0.86217000  0.15876000  1.0
  C  C67  1  0.83074000  0.13784000  0.84124000  1.0
  C  C68  1  0.15280000  0.10407000  0.16466000  1.0
  C  C69  1  0.84721000  0.89592000  0.83535000  1.0
  N  N70  1  0.90489000  0.40586000  0.27846000  1.0
  N  N71  1  0.09511000  0.59414000  0.72154000  1.0
  N  N72  1  0.96960000  0.33703000  0.49438000  1.0
  N  N73  1  0.03040000  0.66296000  0.50562000  1.0
  N  N74  1  0.33452000  0.25299000  0.35485000  1.0
  N  N75  1  0.66547000  0.74701000  0.64515000  1.0
  O  O76  1  0.20853000  0.52404000  0.10951000  1.0
  O  O77  1  0.79146000  0.47596000  0.89048000  1.0
  O  O78  1  0.14560000  0.58336000  0.28740000  1.0
  O  O79  1  0.85441000  0.41663000  0.71260000  1.0
  O  O80  1  0.08929000  0.07273000  0.27473000  1.0
  O  O81  1  0.91073000  0.92726000  0.72528000  1.0
  O  O82  1  0.18910000  0.22426000  0.10541000  1.0
  O  O83  1  0.81089000  0.77574000  0.89459000  1.0
