# generated using pymatgen
data_ZnH11(C5O2)3
_symmetry_space_group_name_H-M   'P 1'
_cell_length_a   9.17260000
_cell_length_b   14.36940000
_cell_length_c   27.15860000
_cell_angle_alpha   90.00030000
_cell_angle_beta   90.00020000
_cell_angle_gamma   89.05340000
_symmetry_Int_Tables_number   1
_chemical_formula_structural   ZnH11(C5O2)3
_chemical_formula_sum   'Zn8 H88 C120 O48'
_cell_volume   3579.14418802
_cell_formula_units_Z   8
loop_
 _symmetry_equiv_pos_site_id
 _symmetry_equiv_pos_as_xyz
  1  'x, y, z'
loop_
 _atom_site_type_symbol
 _atom_site_label
 _atom_site_symmetry_multiplicity
 _atom_site_fract_x
 _atom_site_fract_y
 _atom_site_fract_z
 _atom_site_occupancy
  Zn  Zn0  1  0.36743000  0.11918000  0.67720000  1.0
  Zn  Zn1  1  0.63258000  0.38082000  0.17720000  1.0
  Zn  Zn2  1  0.63258000  0.88082000  0.32280000  1.0
  Zn  Zn3  1  0.36742000  0.61919000  0.82280000  1.0
  Zn  Zn4  1  0.04322000  0.11228000  0.61576000  1.0
  Zn  Zn5  1  0.95679000  0.38772000  0.11576000  1.0
  Zn  Zn6  1  0.95678000  0.88772000  0.38423000  1.0
  Zn  Zn7  1  0.04322000  0.61228000  0.88423000  1.0
  H  H8  1  0.88684000  0.32657000  0.63813000  1.0
  H  H9  1  0.11317000  0.17342000  0.13813000  1.0
  H  H10  1  0.11315000  0.67343000  0.36187000  1.0
  H  H11  1  0.88683000  0.82657000  0.86187000  1.0
  H  H12  1  0.82290000  0.54670000  0.74551000  1.0
  H  H13  1  0.17710000  0.95330000  0.24552000  1.0
  H  H14  1  0.17710000  0.45330000  0.25449000  1.0
  H  H15  1  0.82290000  0.04670000  0.75449000  1.0
  H  H16  1  0.22110000  0.38436000  0.74431000  1.0
  H  H17  1  0.77891000  0.11565000  0.24431000  1.0
  H  H18  1  0.77890000  0.61566000  0.25568000  1.0
  H  H19  1  0.22109000  0.88435000  0.75568000  1.0
  H  H20  1  0.66383000  0.35571000  0.62273000  1.0
  H  H21  1  0.33616000  0.14429000  0.12273000  1.0
  H  H22  1  0.33615000  0.64429000  0.37727000  1.0
  H  H23  1  0.66384000  0.85571000  0.87728000  1.0
  H  H24  1  0.75833000  0.45159000  0.59764000  1.0
  H  H25  1  0.24166000  0.04839000  0.09764000  1.0
  H  H26  1  0.24165000  0.54840000  0.40236000  1.0
  H  H27  1  0.75835000  0.95161000  0.90236000  1.0
  H  H28  1  0.38876000  0.39902000  0.65494000  1.0
  H  H29  1  0.61124000  0.10097000  0.15494000  1.0
  H  H30  1  0.61123000  0.60098000  0.34506000  1.0
  H  H31  1  0.38877000  0.89902000  0.84507000  1.0
  H  H32  1  0.16019000  0.46661000  0.62253000  1.0
  H  H33  1  0.83980000  0.03339000  0.12254000  1.0
  H  H34  1  0.83980000  0.53339000  0.37747000  1.0
  H  H35  1  0.16021000  0.96661000  0.87747000  1.0
  H  H36  1  0.40327000  0.62932000  0.51870000  1.0
  H  H37  1  0.59674000  0.87069000  0.01870000  1.0
  H  H38  1  0.59672000  0.37069000  0.48130000  1.0
  H  H39  1  0.40327000  0.12931000  0.98130000  1.0
  H  H40  1  0.63268000  0.55840000  0.54999000  1.0
  H  H41  1  0.36733000  0.94161000  0.04998000  1.0
  H  H42  1  0.36730000  0.44160000  0.45001000  1.0
  H  H43  1  0.63269000  0.05841000  0.95001000  1.0
  H  H44  1  0.01155000  0.59247000  0.61766000  1.0
  H  H45  1  0.98845000  0.90753000  0.11765000  1.0
  H  H46  1  0.98844000  0.40754000  0.38234000  1.0
  H  H47  1  0.01156000  0.09245000  0.88235000  1.0
  H  H48  1  0.78666000  0.66461000  0.58400000  1.0
  H  H49  1  0.21334000  0.83539000  0.08399000  1.0
  H  H50  1  0.21333000  0.33540000  0.41601000  1.0
  H  H51  1  0.78668000  0.16460000  0.91600000  1.0
  H  H52  1  0.98462000  0.67967000  0.44078000  1.0
  H  H53  1  0.01536000  0.82033000  0.94078000  1.0
  H  H54  1  0.01536000  0.32034000  0.55922000  1.0
  H  H55  1  0.98461000  0.17965000  0.05922000  1.0
  H  H56  1  0.21055000  0.60751000  0.47427000  1.0
  H  H57  1  0.78944000  0.89249000  0.97427000  1.0
  H  H58  1  0.78943000  0.39250000  0.52573000  1.0
  H  H59  1  0.21054000  0.10748000  0.02574000  1.0
  H  H60  1  0.75101000  0.74821000  0.45267000  1.0
  H  H61  1  0.24897000  0.75178000  0.95267000  1.0
  H  H62  1  0.24899000  0.25180000  0.54734000  1.0
  H  H63  1  0.75100000  0.24820000  0.04733000  1.0
  H  H64  1  0.64457000  0.66772000  0.48659000  1.0
  H  H65  1  0.35541000  0.83227000  0.98658000  1.0
  H  H66  1  0.35541000  0.33230000  0.51341000  1.0
  H  H67  1  0.64458000  0.16772000  0.01340000  1.0
  H  H68  1  0.59237000  0.91496000  0.58228000  1.0
  H  H69  1  0.40765000  0.58505000  0.08228000  1.0
  H  H70  1  0.40765000  0.08505000  0.41772000  1.0
  H  H71  1  0.59238000  0.41495000  0.91772000  1.0
  H  H72  1  0.18313000  0.96530000  0.50803000  1.0
  H  H73  1  0.81688000  0.53470000  0.00802000  1.0
  H  H74  1  0.81687000  0.03469000  0.49198000  1.0
  H  H75  1  0.18314000  0.46529000  0.99197000  1.0
  H  H76  1  0.49239000  0.76856000  0.44757000  1.0
  H  H77  1  0.50761000  0.73145000  0.94756000  1.0
  H  H78  1  0.50761000  0.23144000  0.55244000  1.0
  H  H79  1  0.49240000  0.26856000  0.05243000  1.0
  H  H80  1  0.52423000  0.26985000  0.67590000  1.0
  H  H81  1  0.47579000  0.23014000  0.17590000  1.0
  H  H82  1  0.47578000  0.73015000  0.32410000  1.0
  H  H83  1  0.52423000  0.76986000  0.82410000  1.0
  H  H84  1  0.62494000  0.20257000  0.64264000  1.0
  H  H85  1  0.37506000  0.29743000  0.14264000  1.0
  H  H86  1  0.37506000  0.79743000  0.35736000  1.0
  H  H87  1  0.62494000  0.70257000  0.85737000  1.0
  H  H88  1  0.58310000  0.11893000  0.74026000  1.0
  H  H89  1  0.41691000  0.38107000  0.24025000  1.0
  H  H90  1  0.41689000  0.88108000  0.25975000  1.0
  H  H91  1  0.58313000  0.61892000  0.75975000  1.0
  H  H92  1  0.49504000  0.03803000  0.76546000  1.0
  H  H93  1  0.50499000  0.46197000  0.26545000  1.0
  H  H94  1  0.50493000  0.96198000  0.23454000  1.0
  H  H95  1  0.49507000  0.53802000  0.73455000  1.0
  C  C96  1  0.06172000  0.34854000  0.68923000  1.0
  C  C97  1  0.93829000  0.15146000  0.18922000  1.0
  C  C98  1  0.93829000  0.65147000  0.31077000  1.0
  C  C99  1  0.06170000  0.84854000  0.81077000  1.0
  C  C100  1  0.92440000  0.36911000  0.66860000  1.0
  C  C101  1  0.07562000  0.13089000  0.16860000  1.0
  C  C102  1  0.07560000  0.63089000  0.33140000  1.0
  C  C103  1  0.92438000  0.86911000  0.83140000  1.0
  C  C104  1  0.83802000  0.44066000  0.68888000  1.0
  C  C105  1  0.16199000  0.05933000  0.18888000  1.0
  C  C106  1  0.16197000  0.55934000  0.31112000  1.0
  C  C107  1  0.83801000  0.94066000  0.81111000  1.0
  C  C108  1  0.88919000  0.49106000  0.72934000  1.0
  C  C109  1  0.11082000  0.00894000  0.22934000  1.0
  C  C110  1  0.11080000  0.50895000  0.27066000  1.0
  C  C111  1  0.88919000  0.99106000  0.77066000  1.0
  C  C112  1  0.02739000  0.47145000  0.74852000  1.0
  C  C113  1  0.97261000  0.02856000  0.24853000  1.0
  C  C114  1  0.97261000  0.52856000  0.25147000  1.0
  C  C115  1  0.02739000  0.97144000  0.75147000  1.0
  C  C116  1  0.11422000  0.39990000  0.72871000  1.0
  C  C117  1  0.88579000  0.10010000  0.22870000  1.0
  C  C118  1  0.88578000  0.60010000  0.27129000  1.0
  C  C119  1  0.11421000  0.89990000  0.77129000  1.0
  C  C120  1  0.15077000  0.27028000  0.66835000  1.0
  C  C121  1  0.84925000  0.22973000  0.16835000  1.0
  C  C122  1  0.84922000  0.72972000  0.33164000  1.0
  C  C123  1  0.15076000  0.77027000  0.83164000  1.0
  C  C124  1  0.08602000  0.52708000  0.79025000  1.0
  C  C125  1  0.91399000  0.97293000  0.29026000  1.0
  C  C126  1  0.91396000  0.47294000  0.20974000  1.0
  C  C127  1  0.08602000  0.02707000  0.70975000  1.0
  C  C128  1  0.66847000  0.43217000  0.62230000  1.0
  C  C129  1  0.33153000  0.06782000  0.12230000  1.0
  C  C130  1  0.33151000  0.56783000  0.37770000  1.0
  C  C131  1  0.66848000  0.93217000  0.87770000  1.0
  C  C132  1  0.52789000  0.47474000  0.60487000  1.0
  C  C133  1  0.47212000  0.02527000  0.10487000  1.0
  C  C134  1  0.47210000  0.52526000  0.39513000  1.0
  C  C135  1  0.52788000  0.97473000  0.89513000  1.0
  C  C136  1  0.39330000  0.44985000  0.62507000  1.0
  C  C137  1  0.60670000  0.05014000  0.12507000  1.0
  C  C138  1  0.60669000  0.55015000  0.37493000  1.0
  C  C139  1  0.39330000  0.94985000  0.87493000  1.0
  C  C140  1  0.26372000  0.48836000  0.60701000  1.0
  C  C141  1  0.73628000  0.01164000  0.10701000  1.0
  C  C142  1  0.73626000  0.51165000  0.39299000  1.0
  C  C143  1  0.26373000  0.98835000  0.89299000  1.0
  C  C144  1  0.26437000  0.55294000  0.56805000  1.0
  C  C145  1  0.73563000  0.94706000  0.06805000  1.0
  C  C146  1  0.73561000  0.44706000  0.43194000  1.0
  C  C147  1  0.26438000  0.05293000  0.93195000  1.0
  C  C148  1  0.39952000  0.57776000  0.54813000  1.0
  C  C149  1  0.60048000  0.92225000  0.04812000  1.0
  C  C150  1  0.60047000  0.42224000  0.45187000  1.0
  C  C151  1  0.39952000  0.07776000  0.95187000  1.0
  C  C152  1  0.52873000  0.53895000  0.56616000  1.0
  C  C153  1  0.47126000  0.96105000  0.06616000  1.0
  C  C154  1  0.47125000  0.46105000  0.43385000  1.0
  C  C155  1  0.52874000  0.03895000  0.93384000  1.0
  C  C156  1  0.12766000  0.59344000  0.54822000  1.0
  C  C157  1  0.87234000  0.90657000  0.04822000  1.0
  C  C158  1  0.87232000  0.40657000  0.45178000  1.0
  C  C159  1  0.12766000  0.09342000  0.95179000  1.0
  C  C160  1  0.00553000  0.60937000  0.57853000  1.0
  C  C161  1  0.99447000  0.89064000  0.07853000  1.0
  C  C162  1  0.99445000  0.39064000  0.42147000  1.0
  C  C163  1  0.00553000  0.10935000  0.92147000  1.0
  C  C164  1  0.87864000  0.64994000  0.55960000  1.0
  C  C165  1  0.12135000  0.85006000  0.05960000  1.0
  C  C166  1  0.12134000  0.35006000  0.44040000  1.0
  C  C167  1  0.87865000  0.14994000  0.94040000  1.0
  C  C168  1  0.86930000  0.67514000  0.50980000  1.0
  C  C169  1  0.13068000  0.82485000  0.00979000  1.0
  C  C170  1  0.13068000  0.32486000  0.49020000  1.0
  C  C171  1  0.86932000  0.17514000  0.99020000  1.0
  C  C172  1  0.99020000  0.65934000  0.47941000  1.0
  C  C173  1  0.00978000  0.84066000  0.97941000  1.0
  C  C174  1  0.00979000  0.34066000  0.52058000  1.0
  C  C175  1  0.99021000  0.15933000  0.02059000  1.0
  C  C176  1  0.11727000  0.61914000  0.49846000  1.0
  C  C177  1  0.88272000  0.88087000  0.99846000  1.0
  C  C178  1  0.88271000  0.38087000  0.50154000  1.0
  C  C179  1  0.11727000  0.11912000  0.00154000  1.0
  C  C180  1  0.73227000  0.71936000  0.48964000  1.0
  C  C181  1  0.26771000  0.78063000  0.98964000  1.0
  C  C182  1  0.26771000  0.28064000  0.51036000  1.0
  C  C183  1  0.73229000  0.21936000  0.01036000  1.0
  C  C184  1  0.55627000  0.83500000  0.51614000  1.0
  C  C185  1  0.44373000  0.66500000  0.01614000  1.0
  C  C186  1  0.44373000  0.16500000  0.48386000  1.0
  C  C187  1  0.55628000  0.33500000  0.98386000  1.0
  C  C188  1  0.51740000  0.90111000  0.55215000  1.0
  C  C189  1  0.48262000  0.59890000  0.05215000  1.0
  C  C190  1  0.48261000  0.09889000  0.44785000  1.0
  C  C191  1  0.51740000  0.40111000  0.94785000  1.0
  C  C192  1  0.38305000  0.94734000  0.54922000  1.0
  C  C193  1  0.61697000  0.55267000  0.04922000  1.0
  C  C194  1  0.61696000  0.05266000  0.45078000  1.0
  C  C195  1  0.38305000  0.44733000  0.95078000  1.0
  C  C196  1  0.28795000  0.92928000  0.51013000  1.0
  C  C197  1  0.71207000  0.57073000  0.01013000  1.0
  C  C198  1  0.71206000  0.07072000  0.48987000  1.0
  C  C199  1  0.28795000  0.42927000  0.98987000  1.0
  C  C200  1  0.32816000  0.86550000  0.47380000  1.0
  C  C201  1  0.67184000  0.63450000  0.97380000  1.0
  C  C202  1  0.67184000  0.13450000  0.52621000  1.0
  C  C203  1  0.32817000  0.36549000  0.02620000  1.0
  C  C204  1  0.46280000  0.81765000  0.47657000  1.0
  C  C205  1  0.53721000  0.68236000  0.97656000  1.0
  C  C206  1  0.53720000  0.18235000  0.52344000  1.0
  C  C207  1  0.46280000  0.31764000  0.02344000  1.0
  C  C208  1  0.33434000  0.01562000  0.58757000  1.0
  C  C209  1  0.66567000  0.48438000  0.08757000  1.0
  C  C210  1  0.66567000  0.98438000  0.41243000  1.0
  C  C211  1  0.33434000  0.51562000  0.91243000  1.0
  C  C212  1  0.22524000  0.84927000  0.43208000  1.0
  C  C213  1  0.77477000  0.65072000  0.93208000  1.0
  C  C214  1  0.77477000  0.15072000  0.56792000  1.0
  C  C215  1  0.22525000  0.34928000  0.06792000  1.0
  O  O216  1  0.25723000  0.23798000  0.69383000  1.0
  O  O217  1  0.74279000  0.26203000  0.19383000  1.0
  O  O218  1  0.74277000  0.76203000  0.30616000  1.0
  O  O219  1  0.25723000  0.73798000  0.80616000  1.0
  O  O220  1  0.11514000  0.24001000  0.62588000  1.0
  O  O221  1  0.88490000  0.25998000  0.12587000  1.0
  O  O222  1  0.88484000  0.75999000  0.37412000  1.0
  O  O223  1  0.11514000  0.74001000  0.87412000  1.0
  O  O224  1  0.70241000  0.46596000  0.67148000  1.0
  O  O225  1  0.29760000  0.03404000  0.17148000  1.0
  O  O226  1  0.29757000  0.53405000  0.32852000  1.0
  O  O227  1  0.70241000  0.96595000  0.82852000  1.0
  O  O228  1  0.68795000  0.79161000  0.52337000  1.0
  O  O229  1  0.31206000  0.70839000  0.02337000  1.0
  O  O230  1  0.31205000  0.20840000  0.47663000  1.0
  O  O231  1  0.68796000  0.29160000  0.97663000  1.0
  O  O232  1  0.25672000  0.79302000  0.39763000  1.0
  O  O233  1  0.74330000  0.70698000  0.89762000  1.0
  O  O234  1  0.74329000  0.20697000  0.60238000  1.0
  O  O235  1  0.25671000  0.29303000  0.10237000  1.0
  O  O236  1  0.10375000  0.89524000  0.43451000  1.0
  O  O237  1  0.89627000  0.60476000  0.93450000  1.0
  O  O238  1  0.89626000  0.10475000  0.56550000  1.0
  O  O239  1  0.10376000  0.39525000  0.06549000  1.0
  O  O240  1  0.20107000  0.04073000  0.58514000  1.0
  O  O241  1  0.79895000  0.45929000  0.08514000  1.0
  O  O242  1  0.79893000  0.95927000  0.41486000  1.0
  O  O243  1  0.20107000  0.54072000  0.91486000  1.0
  O  O244  1  0.22345000  0.52700000  0.79516000  1.0
  O  O245  1  0.77655000  0.97301000  0.29516000  1.0
  O  O246  1  0.77654000  0.47302000  0.20484000  1.0
  O  O247  1  0.22345000  0.02699000  0.70485000  1.0
  O  O248  1  0.99295000  0.56957000  0.81773000  1.0
  O  O249  1  0.00706000  0.93045000  0.31773000  1.0
  O  O250  1  0.00703000  0.43045000  0.18227000  1.0
  O  O251  1  0.99296000  0.06956000  0.68227000  1.0
  O  O252  1  0.42677000  0.04403000  0.61931000  1.0
  O  O253  1  0.57322000  0.45596000  0.11930000  1.0
  O  O254  1  0.57323000  0.95597000  0.38069000  1.0
  O  O255  1  0.42678000  0.54404000  0.88070000  1.0
  O  O256  1  0.55628000  0.20544000  0.67220000  1.0
  O  O257  1  0.44373000  0.29455000  0.17219000  1.0
  O  O258  1  0.44373000  0.79456000  0.32780000  1.0
  O  O259  1  0.55627000  0.70545000  0.82781000  1.0
  O  O260  1  0.48685000  0.09234000  0.74416000  1.0
  O  O261  1  0.51317000  0.40765000  0.24416000  1.0
  O  O262  1  0.51313000  0.90768000  0.25585000  1.0
  O  O263  1  0.48688000  0.59231000  0.75586000  1.0
