# generated using pymatgen
data_NaYH12(CO)12
_symmetry_space_group_name_H-M   'P 1'
_cell_length_a   6.84263000
_cell_length_b   7.47557000
_cell_length_c   15.62490000
_cell_angle_alpha   90.00000000
_cell_angle_beta   102.63800000
_cell_angle_gamma   89.99990000
_symmetry_Int_Tables_number   1
_chemical_formula_structural   NaYH12(CO)12
_chemical_formula_sum   'Na2 Y2 H24 C24 O24'
_cell_volume   779.88920629
_cell_formula_units_Z   2
loop_
 _symmetry_equiv_pos_site_id
 _symmetry_equiv_pos_as_xyz
  1  'x, y, z'
loop_
 _atom_site_type_symbol
 _atom_site_label
 _atom_site_symmetry_multiplicity
 _atom_site_fract_x
 _atom_site_fract_y
 _atom_site_fract_z
 _atom_site_occupancy
  Na  Na0  1  0.14068000  0.74994000  0.28156000  1.0
  Na  Na1  1  0.85931000  0.24994000  0.71844000  1.0
  Y  Y2  1  0.30441000  0.25010000  0.60876000  1.0
  Y  Y3  1  0.69558000  0.75011000  0.39124000  1.0
  H  H4  1  0.84492000  0.26259000  0.06056000  1.0
  H  H5  1  0.15508000  0.76259000  0.93944000  1.0
  H  H6  1  0.21620000  0.23719000  0.06059000  1.0
  H  H7  1  0.78381000  0.73719000  0.93941000  1.0
  H  H8  1  0.76311000  0.25738000  0.89703000  1.0
  H  H9  1  0.23689000  0.75738000  0.10298000  1.0
  H  H10  1  0.13456000  0.24237000  0.89707000  1.0
  H  H11  1  0.86544000  0.74238000  0.10293000  1.0
  H  H12  1  0.21890000  0.40188000  0.20804000  1.0
  H  H13  1  0.78109000  0.90188000  0.79196000  1.0
  H  H14  1  0.98911000  0.09792000  0.20799000  1.0
  H  H15  1  0.01089000  0.59792000  0.79201000  1.0
  H  H16  1  0.98437000  0.41272000  0.19650000  1.0
  H  H17  1  0.01562000  0.91272000  0.80350000  1.0
  H  H18  1  0.21208000  0.08706000  0.19645000  1.0
  H  H19  1  0.78792000  0.58706000  0.80355000  1.0
  H  H20  1  0.45741000  0.61595000  0.69979000  1.0
  H  H21  1  0.54259000  0.11595000  0.30021000  1.0
  H  H22  1  0.24233000  0.88428000  0.69980000  1.0
  H  H23  1  0.75767000  0.38428000  0.30020000  1.0
  H  H24  1  0.51358000  0.76864000  0.58301000  1.0
  H  H25  1  0.48643000  0.26864000  0.41698000  1.0
  H  H26  1  0.06925000  0.73165000  0.58311000  1.0
  H  H27  1  0.93075000  0.23165000  0.41689000  1.0
  C  C28  1  0.39522000  0.25002000  0.79014000  1.0
  C  C29  1  0.60478000  0.75002000  0.20986000  1.0
  C  C30  1  0.44402000  0.24989000  0.88751000  1.0
  C  C31  1  0.55597000  0.74989000  0.11249000  1.0
  C  C32  1  0.53571000  0.24990000  0.07088000  1.0
  C  C33  1  0.46429000  0.74991000  0.92912000  1.0
  C  C34  1  0.68963000  0.25678000  0.02454000  1.0
  C  C35  1  0.31037000  0.75678000  0.97545000  1.0
  C  C36  1  0.33548000  0.24298000  0.02458000  1.0
  C  C37  1  0.66452000  0.74299000  0.97542000  1.0
  C  C38  1  0.37668000  0.68692000  0.57327000  1.0
  C  C39  1  0.62331000  0.18693000  0.42673000  1.0
  C  C40  1  0.19640000  0.81327000  0.57330000  1.0
  C  C41  1  0.80360000  0.31327000  0.42669000  1.0
  C  C42  1  0.35251000  0.58728000  0.48661000  1.0
  C  C43  1  0.64748000  0.08730000  0.51340000  1.0
  C  C44  1  0.13396000  0.91291000  0.48663000  1.0
  C  C45  1  0.86605000  0.41289000  0.51337000  1.0
  C  C46  1  0.64449000  0.25462000  0.93342000  1.0
  C  C47  1  0.35552000  0.75462000  0.06658000  1.0
  C  C48  1  0.28956000  0.24513000  0.93346000  1.0
  C  C49  1  0.71044000  0.74513000  0.06654000  1.0
  C  C50  1  0.58464000  0.24998000  0.16889000  1.0
  C  C51  1  0.41536000  0.74998000  0.83111000  1.0
  O  O52  1  0.28987000  0.42820000  0.48375000  1.0
  O  O53  1  0.71013000  0.92820000  0.51625000  1.0
  O  O54  1  0.19386000  0.07195000  0.48378000  1.0
  O  O55  1  0.80614000  0.57196000  0.51622000  1.0
  O  O56  1  0.39523000  0.66925000  0.42147000  1.0
  O  O57  1  0.60477000  0.16925000  0.57853000  1.0
  O  O58  1  0.02608000  0.83097000  0.42150000  1.0
  O  O59  1  0.97391000  0.33097000  0.57850000  1.0
  O  O60  1  0.53530000  0.24371000  0.74757000  1.0
  O  O61  1  0.46469000  0.74371000  0.25243000  1.0
  O  O62  1  0.21250000  0.25647000  0.74769000  1.0
  O  O63  1  0.78750000  0.75647000  0.25231000  1.0
  O  O64  1  0.10620000  0.48504000  0.20021000  1.0
  O  O65  1  0.89380000  0.98504000  0.79979000  1.0
  O  O66  1  0.09395000  0.01476000  0.20012000  1.0
  O  O67  1  0.90605000  0.51476000  0.79988000  1.0
  O  O68  1  0.44725000  0.20995000  0.20978000  1.0
  O  O69  1  0.55275000  0.70995000  0.79022000  1.0
  O  O70  1  0.76286000  0.29010000  0.20979000  1.0
  O  O71  1  0.23715000  0.79010000  0.79021000  1.0
  O  O72  1  0.39469000  0.55650000  0.64140000  1.0
  O  O73  1  0.60531000  0.05650000  0.35860000  1.0
  O  O74  1  0.24671000  0.94371000  0.64142000  1.0
  O  O75  1  0.75329000  0.44371000  0.35858000  1.0
