# generated using pymatgen
data_Zn2H26C41N2O9
_symmetry_space_group_name_H-M   'P 1'
_cell_length_a   13.39480000
_cell_length_b   13.94060000
_cell_length_c   15.31690000
_cell_angle_alpha   89.03750000
_cell_angle_beta   88.32590000
_cell_angle_gamma   68.39210000
_symmetry_Int_Tables_number   1
_chemical_formula_structural   Zn2H26C41N2O9
_chemical_formula_sum   'Zn2 H26 C41 N2 O9'
_cell_volume   2657.96244113
_cell_formula_units_Z   1
loop_
 _symmetry_equiv_pos_site_id
 _symmetry_equiv_pos_as_xyz
  1  'x, y, z'
loop_
 _atom_site_type_symbol
 _atom_site_label
 _atom_site_symmetry_multiplicity
 _atom_site_fract_x
 _atom_site_fract_y
 _atom_site_fract_z
 _atom_site_occupancy
  Zn  Zn0  1  0.49410000  0.60299000  0.50229000  1.0
  Zn  Zn1  1  0.51003000  0.39913000  0.50569000  1.0
  H  H2  1  0.85629000  0.25723000  0.40871000  1.0
  H  H3  1  0.34754000  0.30418000  0.55198000  1.0
  H  H4  1  0.65839000  0.19416000  0.45111000  1.0
  H  H5  1  0.19928000  0.28825000  0.36009000  1.0
  H  H6  1  0.66246000  0.01302000  0.44466000  1.0
  H  H7  1  0.59309000  0.90074000  0.37896000  1.0
  H  H8  1  0.58794000  0.72257000  0.38660000  1.0
  H  H9  1  0.41276000  0.78430000  0.61897000  1.0
  H  H10  1  0.40900000  0.96564000  0.62213000  1.0
  H  H11  1  0.04705000  0.22792000  0.36696000  1.0
  H  H12  1  0.81193000  0.55622000  0.50440000  1.0
  H  H13  1  0.43765000  0.66945000  0.77945000  1.0
  H  H14  1  0.14296000  0.74990000  0.53429000  1.0
  H  H15  1  0.86533000  0.66873000  0.50491000  1.0
  H  H16  1  0.27843000  0.41440000  0.40275000  1.0
  H  H17  1  0.43400000  0.67117000  0.94235000  1.0
  H  H18  1  0.80156000  0.80098000  0.60087000  1.0
  H  H19  1  0.79033000  0.84294000  0.48907000  1.0
  H  H20  1  0.79275000  0.92965000  0.57397000  1.0
  H  H21  1  0.54694000  0.33960000  0.78212000  1.0
  H  H22  1  0.54626000  0.33912000  0.94525000  1.0
  H  H23  1  0.43133000  0.38208000  0.07005000  1.0
  H  H24  1  0.43905000  0.38198000  0.23273000  1.0
  H  H25  1  0.55531000  0.62994000  0.22019000  1.0
  H  H26  1  0.55276000  0.62866000  0.05744000  1.0
  H  H27  1  0.33718000  0.12811000  0.55090000  1.0
  C  C28  1  0.49634000  0.50409000  0.67337000  1.0
  C  C29  1  0.17459000  0.59718000  0.48701000  1.0
  C  C30  1  0.46014000  0.59801000  0.90761000  1.0
  C  C31  1  0.29341000  0.56794000  0.49663000  1.0
  C  C32  1  0.46129000  0.59764000  0.81679000  1.0
  C  C33  1  0.49275000  0.50448000  0.77118000  1.0
  C  C34  1  0.52190000  0.41161000  0.81834000  1.0
  C  C35  1  0.52059000  0.41200000  0.90921000  1.0
  C  C36  1  0.49029000  0.50510000  0.95556000  1.0
  C  C37  1  0.46030000  0.43560000  0.10244000  1.0
  C  C38  1  0.46352000  0.43563000  0.19314000  1.0
  C  C39  1  0.01745000  0.54986000  0.46919000  1.0
  C  C40  1  0.49751000  0.50591000  0.23592000  1.0
  C  C41  1  0.52832000  0.57611000  0.18626000  1.0
  C  C42  1  0.52575000  0.57562000  0.09558000  1.0
  C  C43  1  0.50096000  0.50566000  0.33342000  1.0
  C  C44  1  0.49169000  0.50544000  0.05192000  1.0
  C  C45  1  0.41084000  0.13851000  0.52940000  1.0
  C  C46  1  0.41544000  0.23651000  0.53016000  1.0
  C  C47  1  0.58954000  0.17481000  0.47219000  1.0
  C  C48  1  0.59061000  0.07497000  0.46872000  1.0
  C  C49  1  0.50034000  0.05485000  0.49905000  1.0
  C  C50  1  0.13032000  0.52434000  0.45861000  1.0
  C  C51  1  0.55275000  0.87831000  0.43388000  1.0
  C  C52  1  0.55012000  0.77958000  0.43718000  1.0
  C  C53  1  0.45040000  0.81478000  0.56707000  1.0
  C  C54  1  0.44871000  0.91500000  0.56798000  1.0
  C  C55  1  0.70975000  0.43073000  0.48612000  1.0
  C  C56  1  0.50037000  0.94892000  0.50001000  1.0
  C  C57  1  0.99550000  0.30027000  0.39724000  1.0
  C  C58  1  0.82427000  0.40966000  0.45954000  1.0
  C  C59  1  0.10837000  0.69443000  0.51429000  1.0
  C  C60  1  0.99614000  0.72132000  0.51867000  1.0
  C  C61  1  0.97270000  0.47198000  0.45113000  1.0
  C  C62  1  0.95156000  0.64925000  0.49866000  1.0
  C  C63  1  0.82442000  0.84918000  0.55252000  1.0
  C  C64  1  0.03981000  0.37615000  0.41320000  1.0
  C  C65  1  0.15001000  0.35920000  0.39360000  1.0
  C  C66  1  0.19397000  0.42914000  0.41706000  1.0
  C  C67  1  0.86567000  0.48586000  0.47324000  1.0
  C  C68  1  0.89010000  0.31592000  0.42021000  1.0
  N  N69  1  0.50377000  0.25384000  0.50292000  1.0
  N  N70  1  0.49954000  0.74863000  0.50251000  1.0
  O  O71  1  0.46991000  0.59138000  0.63452000  1.0
  O  O72  1  0.52587000  0.41655000  0.63611000  1.0
  O  O73  1  0.33300000  0.63695000  0.48166000  1.0
  O  O74  1  0.34520000  0.47616000  0.52276000  1.0
  O  O75  1  0.52206000  0.57787000  0.36913000  1.0
  O  O76  1  0.48241000  0.43314000  0.37405000  1.0
  O  O77  1  0.65598000  0.52039000  0.51594000  1.0
  O  O78  1  0.67270000  0.35927000  0.47662000  1.0
  O  O79  1  0.93799000  0.82016000  0.54530000  1.0
