# generated using pymatgen
data_KHC3NO2
_symmetry_space_group_name_H-M   'P 1'
_cell_length_a   6.36252000
_cell_length_b   6.79823000
_cell_length_c   18.29340000
_cell_angle_alpha   89.99990000
_cell_angle_beta   90.00010000
_cell_angle_gamma   89.99990000
_symmetry_Int_Tables_number   1
_chemical_formula_structural   KHC3NO2
_chemical_formula_sum   'K8 H8 C24 N8 O16'
_cell_volume   791.26042484
_cell_formula_units_Z   8
loop_
 _symmetry_equiv_pos_site_id
 _symmetry_equiv_pos_as_xyz
  1  'x, y, z'
loop_
 _atom_site_type_symbol
 _atom_site_label
 _atom_site_symmetry_multiplicity
 _atom_site_fract_x
 _atom_site_fract_y
 _atom_site_fract_z
 _atom_site_occupancy
  K  K0  1  0.75157000  0.49308000  0.06020000  1.0
  K  K1  1  0.25157000  0.00692000  0.93980000  1.0
  K  K2  1  0.74844000  0.99308000  0.43981000  1.0
  K  K3  1  0.24844000  0.50692000  0.56019000  1.0
  K  K4  1  0.24844000  0.50692000  0.93980000  1.0
  K  K5  1  0.74843000  0.99308000  0.06020000  1.0
  K  K6  1  0.25157000  0.00693000  0.56019000  1.0
  K  K7  1  0.75156000  0.49308000  0.43981000  1.0
  H  H8  1  0.10403000  0.80363000  0.25000000  1.0
  H  H9  1  0.60403000  0.69637000  0.75000000  1.0
  H  H10  1  0.39597000  0.30363000  0.25000000  1.0
  H  H11  1  0.89597000  0.19637000  0.75000000  1.0
  H  H12  1  0.84831000  0.66068000  0.25000000  1.0
  H  H13  1  0.34830000  0.83931000  0.75000000  1.0
  H  H14  1  0.65169000  0.16068000  0.25000000  1.0
  H  H15  1  0.15169000  0.33932000  0.75000000  1.0
  C  C16  1  0.38012000  0.74693000  0.18458000  1.0
  C  C17  1  0.88012000  0.75307000  0.81542000  1.0
  C  C18  1  0.11989000  0.24693000  0.31542000  1.0
  C  C19  1  0.61988000  0.25307000  0.68458000  1.0
  C  C20  1  0.61988000  0.25307000  0.81542000  1.0
  C  C21  1  0.11987000  0.24693000  0.18458000  1.0
  C  C22  1  0.88013000  0.75307000  0.68458000  1.0
  C  C23  1  0.38012000  0.74693000  0.31542000  1.0
  C  C24  1  0.27071000  0.77086000  0.25000000  1.0
  C  C25  1  0.77071000  0.72915000  0.75000000  1.0
  C  C26  1  0.22929000  0.27086000  0.25000000  1.0
  C  C27  1  0.72929000  0.22914000  0.75000000  1.0
  C  C28  1  0.26646000  0.75405000  0.11086000  1.0
  C  C29  1  0.76645000  0.74595000  0.88914000  1.0
  C  C30  1  0.23354000  0.25405000  0.38914000  1.0
  C  C31  1  0.73354000  0.24595000  0.61086000  1.0
  C  C32  1  0.73355000  0.24595000  0.88914000  1.0
  C  C33  1  0.23354000  0.25405000  0.11086000  1.0
  C  C34  1  0.76646000  0.74595000  0.61086000  1.0
  C  C35  1  0.26646000  0.75405000  0.38914000  1.0
  C  C36  1  0.68015000  0.69256000  0.25000000  1.0
  C  C37  1  0.18015000  0.80744000  0.75000000  1.0
  C  C38  1  0.81985000  0.19256000  0.25000000  1.0
  C  C39  1  0.31985000  0.30744000  0.75000000  1.0
  N  N40  1  0.58785000  0.70895000  0.18455000  1.0
  N  N41  1  0.08785000  0.79105000  0.81545000  1.0
  N  N42  1  0.91215000  0.20895000  0.31545000  1.0
  N  N43  1  0.41215000  0.29105000  0.68455000  1.0
  N  N44  1  0.41215000  0.29105000  0.81545000  1.0
  N  N45  1  0.91215000  0.20895000  0.18455000  1.0
  N  N46  1  0.08785000  0.79105000  0.68455000  1.0
  N  N47  1  0.58785000  0.70895000  0.31545000  1.0
  O  O48  1  0.38101000  0.75788000  0.05386000  1.0
  O  O49  1  0.88101000  0.74211000  0.94614000  1.0
  O  O50  1  0.11899000  0.25788000  0.44614000  1.0
  O  O51  1  0.61899000  0.24212000  0.55386000  1.0
  O  O52  1  0.61899000  0.24211000  0.94614000  1.0
  O  O53  1  0.11899000  0.25788000  0.05386000  1.0
  O  O54  1  0.88101000  0.74212000  0.55386000  1.0
  O  O55  1  0.38101000  0.75789000  0.44614000  1.0
  O  O56  1  0.06813000  0.75244000  0.11361000  1.0
  O  O57  1  0.56813000  0.74756000  0.88639000  1.0
  O  O58  1  0.43187000  0.25244000  0.38639000  1.0
  O  O59  1  0.93187000  0.24756000  0.61361000  1.0
  O  O60  1  0.93187000  0.24756000  0.88639000  1.0
  O  O61  1  0.43187000  0.25244000  0.11361000  1.0
  O  O62  1  0.56813000  0.74756000  0.61361000  1.0
  O  O63  1  0.06813000  0.75244000  0.38639000  1.0
