# generated using pymatgen
data_UH2C5(NO3)2
_symmetry_space_group_name_H-M   'P 1'
_cell_length_a   6.80673000
_cell_length_b   10.85840000
_cell_length_c   12.22150000
_cell_angle_alpha   72.52370000
_cell_angle_beta   73.84940000
_cell_angle_gamma   71.74920000
_symmetry_Int_Tables_number   1
_chemical_formula_structural   UH2C5(NO3)2
_chemical_formula_sum   'U4 H8 C20 N8 O24'
_cell_volume   801.17669883
_cell_formula_units_Z   4
loop_
 _symmetry_equiv_pos_site_id
 _symmetry_equiv_pos_as_xyz
  1  'x, y, z'
loop_
 _atom_site_type_symbol
 _atom_site_label
 _atom_site_symmetry_multiplicity
 _atom_site_fract_x
 _atom_site_fract_y
 _atom_site_fract_z
 _atom_site_occupancy
  U  U0  1  0.77795000  0.76828000  0.49111000  1.0
  U  U1  1  0.03747000  0.73176000  0.00890000  1.0
  U  U2  1  0.22205000  0.23172000  0.50890000  1.0
  U  U3  1  0.96252000  0.26824000  0.99110000  1.0
  H  H4  1  0.28349000  0.63183000  0.56739000  1.0
  H  H5  1  0.48324000  0.86804000  0.93254000  1.0
  H  H6  1  0.71651000  0.36816000  0.43260000  1.0
  H  H7  1  0.51675000  0.13197000  0.06746000  1.0
  H  H8  1  0.19659000  0.45936000  0.75512000  1.0
  H  H9  1  0.41132000  0.04050000  0.74486000  1.0
  H  H10  1  0.80340000  0.54064000  0.24489000  1.0
  H  H11  1  0.58869000  0.95950000  0.25513000  1.0
  C  C12  1  0.38617000  0.57978000  0.62920000  1.0
  C  C13  1  0.59553000  0.92024000  0.87080000  1.0
  C  C14  1  0.61383000  0.42022000  0.37080000  1.0
  C  C15  1  0.40447000  0.07976000  0.12920000  1.0
  C  C16  1  0.49638000  0.44346000  0.78756000  1.0
  C  C17  1  0.72750000  0.05667000  0.71252000  1.0
  C  C18  1  0.50363000  0.55654000  0.21244000  1.0
  C  C19  1  0.27251000  0.94332000  0.28747000  1.0
  C  C20  1  0.47311000  0.34644000  0.90043000  1.0
  C  C21  1  0.72010000  0.15362000  0.59961000  1.0
  C  C22  1  0.52689000  0.65357000  0.09957000  1.0
  C  C23  1  0.27990000  0.84637000  0.40038000  1.0
  C  C24  1  0.64054000  0.51925000  0.72434000  1.0
  C  C25  1  0.88424000  0.98100000  0.77575000  1.0
  C  C26  1  0.35947000  0.48074000  0.27566000  1.0
  C  C27  1  0.11576000  0.01900000  0.22425000  1.0
  C  C28  1  0.84227000  0.52844000  0.73741000  1.0
  C  C29  1  0.10815000  0.97179000  0.76273000  1.0
  C  C30  1  0.15773000  0.47156000  0.26259000  1.0
  C  C31  1  0.89186000  0.02821000  0.23727000  1.0
  N  N32  1  0.56856000  0.60351000  0.62653000  1.0
  N  N33  1  0.79887000  0.89665000  0.87353000  1.0
  N  N34  1  0.43144000  0.39648000  0.37347000  1.0
  N  N35  1  0.20113000  0.10335000  0.12647000  1.0
  N  N36  1  0.34075000  0.48394000  0.72402000  1.0
  N  N37  1  0.54896000  0.01603000  0.77600000  1.0
  N  N38  1  0.65925000  0.51606000  0.27598000  1.0
  N  N39  1  0.45104000  0.98397000  0.22399000  1.0
  O  O40  1  0.65262000  0.88717000  0.58051000  1.0
  O  O41  1  0.11992000  0.61314000  0.91928000  1.0
  O  O42  1  0.34738000  0.11282000  0.41950000  1.0
  O  O43  1  0.88007000  0.38687000  0.08072000  1.0
  O  O44  1  0.90519000  0.64721000  0.40354000  1.0
  O  O45  1  0.95636000  0.85266000  0.09663000  1.0
  O  O46  1  0.09480000  0.35280000  0.59646000  1.0
  O  O47  1  0.04363000  0.14735000  0.90337000  1.0
  O  O48  1  0.61336000  0.31080000  0.96208000  1.0
  O  O49  1  0.88634000  0.18927000  0.53800000  1.0
  O  O50  1  0.38664000  0.68920000  0.03792000  1.0
  O  O51  1  0.11368000  0.81072000  0.46200000  1.0
  O  O52  1  0.30782000  0.30261000  0.93043000  1.0
  O  O53  1  0.54108000  0.19740000  0.56952000  1.0
  O  O54  1  0.69217000  0.69740000  0.06958000  1.0
  O  O55  1  0.45892000  0.80260000  0.43048000  1.0
  O  O56  1  0.93544000  0.44903000  0.81880000  1.0
  O  O57  1  0.20349000  0.05101000  0.68127000  1.0
  O  O58  1  0.06457000  0.55097000  0.18120000  1.0
  O  O59  1  0.79651000  0.94899000  0.31873000  1.0
  O  O60  1  0.91842000  0.61992000  0.66045000  1.0
  O  O61  1  0.19868000  0.88039000  0.83980000  1.0
  O  O62  1  0.08158000  0.38008000  0.33955000  1.0
  O  O63  1  0.80132000  0.11961000  0.16020000  1.0
