# generated using pymatgen
data_CuH4C5N3
_symmetry_space_group_name_H-M   'P 1'
_cell_length_a   6.45591000
_cell_length_b   7.91608000
_cell_length_c   12.04360000
_cell_angle_alpha   90.00020000
_cell_angle_beta   90.00030000
_cell_angle_gamma   103.96900000
_symmetry_Int_Tables_number   1
_chemical_formula_structural   CuH4C5N3
_chemical_formula_sum   'Cu4 H16 C20 N12'
_cell_volume   597.29186804
_cell_formula_units_Z   4
loop_
 _symmetry_equiv_pos_site_id
 _symmetry_equiv_pos_as_xyz
  1  'x, y, z'
loop_
 _atom_site_type_symbol
 _atom_site_label
 _atom_site_symmetry_multiplicity
 _atom_site_fract_x
 _atom_site_fract_y
 _atom_site_fract_z
 _atom_site_occupancy
  Cu  Cu0  1  0.69085000  0.96472000  0.25000000  1.0
  Cu  Cu1  1  0.30915000  0.03528000  0.75000000  1.0
  Cu  Cu2  1  0.93922000  0.61068000  0.25000000  1.0
  Cu  Cu3  1  0.06078000  0.38933000  0.75000000  1.0
  H  H4  1  0.72719000  0.05215000  0.48738000  1.0
  H  H5  1  0.27281000  0.94785000  0.98738000  1.0
  H  H6  1  0.27282000  0.94785000  0.51262000  1.0
  H  H7  1  0.72719000  0.05215000  0.01262000  1.0
  H  H8  1  0.78703000  0.45547000  0.46984000  1.0
  H  H9  1  0.21297000  0.54453000  0.96984000  1.0
  H  H10  1  0.21296000  0.54453000  0.53016000  1.0
  H  H11  1  0.78704000  0.45547000  0.03016000  1.0
  H  H12  1  0.71276000  0.56718000  0.65713000  1.0
  H  H13  1  0.28723000  0.43282000  0.15713000  1.0
  H  H14  1  0.28724000  0.43281000  0.34287000  1.0
  H  H15  1  0.71277000  0.56719000  0.84287000  1.0
  H  H16  1  0.68443000  0.88733000  0.66590000  1.0
  H  H17  1  0.31556000  0.11267000  0.16590000  1.0
  H  H18  1  0.31558000  0.11267000  0.33410000  1.0
  H  H19  1  0.68443000  0.88733000  0.83410000  1.0
  C  C20  1  0.71503000  0.82372000  0.58981000  1.0
  C  C21  1  0.28496000  0.17628000  0.08981000  1.0
  C  C22  1  0.28498000  0.17627000  0.41019000  1.0
  C  C23  1  0.71503000  0.82372000  0.91019000  1.0
  C  C24  1  0.22126000  0.74081000  0.25000000  1.0
  C  C25  1  0.77876000  0.25918000  0.75000000  1.0
  C  C26  1  0.78029000  0.20746000  0.25000000  1.0
  C  C27  1  0.21971000  0.79254000  0.75000000  1.0
  C  C28  1  0.73846000  0.91701000  0.49066000  1.0
  C  C29  1  0.26154000  0.08299000  0.99066000  1.0
  C  C30  1  0.26155000  0.08298000  0.50934000  1.0
  C  C31  1  0.73845000  0.91702000  0.00934000  1.0
  C  C32  1  0.77138000  0.58846000  0.48145000  1.0
  C  C33  1  0.22862000  0.41154000  0.98145000  1.0
  C  C34  1  0.22862000  0.41153000  0.51855000  1.0
  C  C35  1  0.77138000  0.58846000  0.01855000  1.0
  C  C36  1  0.72989000  0.65190000  0.58487000  1.0
  C  C37  1  0.27010000  0.34810000  0.08487000  1.0
  C  C38  1  0.27011000  0.34809000  0.41513000  1.0
  C  C39  1  0.72990000  0.65190000  0.91513000  1.0
  N  N40  1  0.39501000  0.83230000  0.25000000  1.0
  N  N41  1  0.60499000  0.16769000  0.75000000  1.0
  N  N42  1  0.83714000  0.36055000  0.25000000  1.0
  N  N43  1  0.16286000  0.63945000  0.75000000  1.0
  N  N44  1  0.77437000  0.84923000  0.39247000  1.0
  N  N45  1  0.22564000  0.15078000  0.89247000  1.0
  N  N46  1  0.22564000  0.15077000  0.60753000  1.0
  N  N47  1  0.77437000  0.84923000  0.10754000  1.0
  N  N48  1  0.79533000  0.68441000  0.38836000  1.0
  N  N49  1  0.20467000  0.31559000  0.88835000  1.0
  N  N50  1  0.20467000  0.31558000  0.61164000  1.0
  N  N51  1  0.79533000  0.68442000  0.11164000  1.0
