# generated using pymatgen
data_ZnH14C16(NO)5
_symmetry_space_group_name_H-M   'P 1'
_cell_length_a   9.71091000
_cell_length_b   10.28050000
_cell_length_c   11.21592823
_cell_angle_alpha   99.09713103
_cell_angle_beta   115.13232928
_cell_angle_gamma   110.21700000
_symmetry_Int_Tables_number   1
_chemical_formula_structural   ZnH14C16(NO)5
_chemical_formula_sum   'Zn2 H28 C32 N10 O10'
_cell_volume   887.89507371
_cell_formula_units_Z   2
loop_
 _symmetry_equiv_pos_site_id
 _symmetry_equiv_pos_as_xyz
  1  'x, y, z'
loop_
 _atom_site_type_symbol
 _atom_site_label
 _atom_site_symmetry_multiplicity
 _atom_site_fract_x
 _atom_site_fract_y
 _atom_site_fract_z
 _atom_site_occupancy
  Zn  Zn0  1  0.84418000  0.85833000  0.25134000  1.0
  Zn  Zn1  1  0.15583000  0.14167000  0.74866000  1.0
  H  H2  1  0.78813000  0.32188000  0.19582000  1.0
  H  H3  1  0.21188000  0.67812000  0.80419000  1.0
  H  H4  1  0.25395000  0.31933000  0.47394000  1.0
  H  H5  1  0.74606000  0.68068000  0.52607000  1.0
  H  H6  1  0.23089000  0.73589000  0.50232000  1.0
  H  H7  1  0.76912000  0.26411000  0.49768000  1.0
  H  H8  1  0.57604000  0.50738000  0.63152000  1.0
  H  H9  1  0.42396000  0.49262000  0.36848000  1.0
  H  H10  1  0.42497000  0.45532000  0.69119000  1.0
  H  H11  1  0.57504000  0.54469000  0.30882000  1.0
  H  H12  1  0.00495000  0.91946000  0.05287000  1.0
  H  H13  1  0.99505000  0.08055000  0.94713000  1.0
  H  H14  1  0.51869000  0.58895000  0.93484000  1.0
  H  H15  1  0.48131000  0.41105000  0.06516000  1.0
  H  H16  1  0.43719000  0.73197000  0.04666000  1.0
  H  H17  1  0.56281000  0.26802000  0.95334000  1.0
  H  H18  1  0.40445000  0.83072000  0.41102000  1.0
  H  H19  1  0.59555000  0.16928000  0.58898000  1.0
  H  H20  1  0.74593000  0.90645000  0.49204000  1.0
  H  H21  1  0.25407000  0.09355000  0.50797000  1.0
  H  H22  1  0.15839000  0.74879000  0.02802000  1.0
  H  H23  1  0.84162000  0.25122000  0.97198000  1.0
  H  H24  1  0.13538000  0.74039000  0.17658000  1.0
  H  H25  1  0.86462000  0.25961000  0.82341000  1.0
  H  H26  1  0.12145000  0.48883000  0.13660000  1.0
  H  H27  1  0.87854000  0.51117000  0.86338000  1.0
  H  H28  1  0.15426000  0.49855000  0.99323000  1.0
  H  H29  1  0.84573000  0.50145000  0.00676000  1.0
  C  C30  1  0.00024000  0.53827000  0.34147000  1.0
  C  C31  1  0.99976000  0.46172000  0.65852000  1.0
  C  C32  1  0.92207000  0.38342000  0.28012000  1.0
  C  C33  1  0.07794000  0.61658000  0.71988000  1.0
  C  C34  1  0.01413000  0.30623000  0.32893000  1.0
  C  C35  1  0.98587000  0.69376000  0.67107000  1.0
  C  C36  1  0.18559000  0.38314000  0.43944000  1.0
  C  C37  1  0.81442000  0.61687000  0.56057000  1.0
  C  C38  1  0.26299000  0.53766000  0.49985000  1.0
  C  C39  1  0.73702000  0.46234000  0.50015000  1.0
  C  C40  1  0.17123000  0.61583000  0.45168000  1.0
  C  C41  1  0.82878000  0.38417000  0.54832000  1.0
  C  C42  1  0.89952000  0.62018000  0.28941000  1.0
  C  C43  1  0.10050000  0.37983000  0.71059000  1.0
  C  C44  1  0.92657000  0.14013000  0.26197000  1.0
  C  C45  1  0.07343000  0.85987000  0.73804000  1.0
  C  C46  1  0.51480000  0.54676000  0.68129000  1.0
  C  C47  1  0.48520000  0.45324000  0.31871000  1.0
  C  C48  1  0.87637000  0.82749000  0.99024000  1.0
  C  C49  1  0.12363000  0.17251000  0.00976000  1.0
  C  C50  1  0.63301000  0.66164000  0.93780000  1.0
  C  C51  1  0.36699000  0.33836000  0.06220000  1.0
  C  C52  1  0.47788000  0.76803000  0.15750000  1.0
  C  C53  1  0.52212000  0.23197000  0.84251000  1.0
  C  C54  1  0.46399000  0.82194000  0.34956000  1.0
  C  C55  1  0.53600000  0.17805000  0.65044000  1.0
  C  C56  1  0.63113000  0.85893000  0.38807000  1.0
  C  C57  1  0.36886000  0.14106000  0.61193000  1.0
  C  C58  1  0.18302000  0.70223000  0.11231000  1.0
  C  C59  1  0.81697000  0.29777000  0.88768000  1.0
  C  C60  1  0.09650000  0.53249000  0.05019000  1.0
  C  C61  1  0.90349000  0.46751000  0.94980000  1.0
  N  N62  1  0.64564000  0.65036000  0.82205000  1.0
  N  N63  1  0.35436000  0.34964000  0.17795000  1.0
  N  N64  1  0.80046000  0.75538000  0.85328000  1.0
  N  N65  1  0.19954000  0.24463000  0.14672000  1.0
  N  N66  1  0.77802000  0.77346000  0.04642000  1.0
  N  N67  1  0.22198000  0.22655000  0.95358000  1.0
  N  N68  1  0.63729000  0.82378000  0.26667000  1.0
  N  N69  1  0.36270000  0.17621000  0.73333000  1.0
  N  N70  1  0.36912000  0.76478000  0.20363000  1.0
  N  N71  1  0.63087000  0.23522000  0.79637000  1.0
  O  O72  1  0.98554000  0.76374000  0.34252000  1.0
  O  O73  1  0.01445000  0.23626000  0.65747000  1.0
  O  O74  1  0.74180000  0.54885000  0.19810000  1.0
  O  O75  1  0.25821000  0.45116000  0.80190000  1.0
  O  O76  1  0.78825000  0.07578000  0.14630000  1.0
  O  O77  1  0.21172000  0.92422000  0.85371000  1.0
  O  O78  1  0.00319000  0.07252000  0.33376000  1.0
  O  O79  1  0.99681000  0.92748000  0.66625000  1.0
  O  O80  1  0.43189000  0.62326000  0.60734000  1.0
  O  O81  1  0.56812000  0.37675000  0.39266000  1.0
