# generated using pymatgen
data_MnCuH6C14(NO4)2
_symmetry_space_group_name_H-M   'P 1'
_cell_length_a   5.04296000
_cell_length_b   7.40140000
_cell_length_c   9.26227000
_cell_angle_alpha   99.87010000
_cell_angle_beta   96.92400000
_cell_angle_gamma   99.21370000
_symmetry_Int_Tables_number   1
_chemical_formula_structural   MnCuH6C14(NO4)2
_chemical_formula_sum   'Mn1 Cu1 H6 C14 N2 O8'
_cell_volume   332.28643768
_cell_formula_units_Z   1
loop_
 _symmetry_equiv_pos_site_id
 _symmetry_equiv_pos_as_xyz
  1  'x, y, z'
loop_
 _atom_site_type_symbol
 _atom_site_label
 _atom_site_symmetry_multiplicity
 _atom_site_fract_x
 _atom_site_fract_y
 _atom_site_fract_z
 _atom_site_occupancy
  Mn  Mn0  1  0.00000000  0.50000000  0.50000000  1.0
  Cu  Cu1  1  0.50000000  0.50000000  0.00000000  1.0
  H  H2  1  0.91871000  0.12099000  0.63425000  1.0
  H  H3  1  0.08129000  0.87901000  0.36575000  1.0
  H  H4  1  0.23305000  0.80394000  0.77548000  1.0
  H  H5  1  0.76695000  0.19606000  0.22452000  1.0
  H  H6  1  0.19924000  0.09834000  0.95044000  1.0
  H  H7  1  0.80076000  0.90166000  0.04956000  1.0
  C  C8  1  0.71512000  0.26707000  0.79621000  1.0
  C  C9  1  0.28488000  0.73293000  0.20379000  1.0
  C  C10  1  0.75745000  0.10963000  0.70243000  1.0
  C  C11  1  0.24256000  0.89037000  0.29757000  1.0
  C  C12  1  0.58099000  0.94008000  0.69281000  1.0
  C  C13  1  0.41901000  0.05992000  0.30719000  1.0
  C  C14  1  0.37465000  0.93341000  0.78131000  1.0
  C  C15  1  0.62535000  0.06659000  0.21870000  1.0
  C  C16  1  0.35234000  0.09521000  0.87695000  1.0
  C  C17  1  0.64765000  0.90479000  0.12305000  1.0
  C  C18  1  0.87424000  0.45948000  0.80798000  1.0
  C  C19  1  0.12576000  0.54052000  0.19203000  1.0
  C  C20  1  0.60426000  0.76917000  0.58365000  1.0
  C  C21  1  0.39574000  0.23083000  0.41635000  1.0
  N  N22  1  0.51724000  0.25830000  0.88240000  1.0
  N  N23  1  0.48276000  0.74170000  0.11759000  1.0
  O  O24  1  0.80821000  0.59110000  0.89840000  1.0
  O  O25  1  0.19179000  0.40890000  0.10160000  1.0
  O  O26  1  0.06287000  0.48593000  0.73125000  1.0
  O  O27  1  0.93713000  0.51408000  0.26875000  1.0
  O  O28  1  0.84257000  0.74971000  0.56058000  1.0
  O  O29  1  0.15744000  0.25030000  0.43942000  1.0
  O  O30  1  0.38573000  0.66239000  0.51969000  1.0
  O  O31  1  0.61428000  0.33761000  0.48031000  1.0
