# generated using pymatgen
data_ZnH15C12SN3O4
_symmetry_space_group_name_H-M   'P 1'
_cell_length_a   7.56974000
_cell_length_b   11.61730000
_cell_length_c   15.77720000
_cell_angle_alpha   90.00010000
_cell_angle_beta   90.00000000
_cell_angle_gamma   90.00000000
_symmetry_Int_Tables_number   1
_chemical_formula_structural   ZnH15C12SN3O4
_chemical_formula_sum   'Zn4 H60 C48 S4 N12 O16'
_cell_volume   1387.44602929
_cell_formula_units_Z   4
loop_
 _symmetry_equiv_pos_site_id
 _symmetry_equiv_pos_as_xyz
  1  'x, y, z'
loop_
 _atom_site_type_symbol
 _atom_site_label
 _atom_site_symmetry_multiplicity
 _atom_site_fract_x
 _atom_site_fract_y
 _atom_site_fract_z
 _atom_site_occupancy
  Zn  Zn0  1  0.15059000  0.26691000  0.03283000  1.0
  Zn  Zn1  1  0.65059000  0.73309000  0.96717000  1.0
  Zn  Zn2  1  0.15059000  0.23309000  0.53283000  1.0
  Zn  Zn3  1  0.65059000  0.76691000  0.46717000  1.0
  H  H4  1  0.24337000  0.35933000  0.79940000  1.0
  H  H5  1  0.74337000  0.64067000  0.20060000  1.0
  H  H6  1  0.24337000  0.14067000  0.29940000  1.0
  H  H7  1  0.74337000  0.85933000  0.70060000  1.0
  H  H8  1  0.02735000  0.30580000  0.72759000  1.0
  H  H9  1  0.52736000  0.69420000  0.27241000  1.0
  H  H10  1  0.02735000  0.19420000  0.22759000  1.0
  H  H11  1  0.52736000  0.80580000  0.77241000  1.0
  H  H12  1  0.34289000  0.52996000  0.89911000  1.0
  H  H13  1  0.84288000  0.47003000  0.10089000  1.0
  H  H14  1  0.34289000  0.97003000  0.39911000  1.0
  H  H15  1  0.84288000  0.02997000  0.60090000  1.0
  H  H16  1  0.31181000  0.50288000  0.00954000  1.0
  H  H17  1  0.81181000  0.49712000  0.99046000  1.0
  H  H18  1  0.31181000  0.99712000  0.50954000  1.0
  H  H19  1  0.81181000  0.00288000  0.49046000  1.0
  H  H20  1  0.12409000  0.50779000  0.93951000  1.0
  H  H21  1  0.62409000  0.49221000  0.06049000  1.0
  H  H22  1  0.12409000  0.99221000  0.43950000  1.0
  H  H23  1  0.62409000  0.00779000  0.56050000  1.0
  H  H24  1  0.54002000  0.37228000  0.88340000  1.0
  H  H25  1  0.04002000  0.62772000  0.11660000  1.0
  H  H26  1  0.54002000  0.12772000  0.38340000  1.0
  H  H27  1  0.04002000  0.87228000  0.61660000  1.0
  H  H28  1  0.47251000  0.22939000  0.91396000  1.0
  H  H29  1  0.97251000  0.77061000  0.08604000  1.0
  H  H30  1  0.47251000  0.27061000  0.41396000  1.0
  H  H31  1  0.97251000  0.72939000  0.58604000  1.0
  H  H32  1  0.52160000  0.33418000  0.99308000  1.0
  H  H33  1  0.02160000  0.66582000  0.00692000  1.0
  H  H34  1  0.52160000  0.16582000  0.49308000  1.0
  H  H35  1  0.02160000  0.83418000  0.50692000  1.0
  H  H36  1  0.77428000  0.20811000  0.69186000  1.0
  H  H37  1  0.27429000  0.79189000  0.30814000  1.0
  H  H38  1  0.77428000  0.29189000  0.19186000  1.0
  H  H39  1  0.27429000  0.70811000  0.80814000  1.0
  H  H40  1  0.67427000  0.28330000  0.77721000  1.0
  H  H41  1  0.17428000  0.71670000  0.22279000  1.0
  H  H42  1  0.67427000  0.21670000  0.27721000  1.0
  H  H43  1  0.17428000  0.78330000  0.72279000  1.0
  H  H44  1  0.76694000  0.14376000  0.79434000  1.0
  H  H45  1  0.26695000  0.85624000  0.20566000  1.0
  H  H46  1  0.76694000  0.35624000  0.29434000  1.0
  H  H47  1  0.26695000  0.64376000  0.70566000  1.0
  H  H48  1  0.63774000  0.10461000  0.02797000  1.0
  H  H49  1  0.13774000  0.89539000  0.97203000  1.0
  H  H50  1  0.63774000  0.39539000  0.52796000  1.0
  H  H51  1  0.13774000  0.60461000  0.47203000  1.0
  H  H52  1  0.93695000  0.02871000  0.06294000  1.0
  H  H53  1  0.43695000  0.97129000  0.93706000  1.0
  H  H54  1  0.93695000  0.47130000  0.56294000  1.0
  H  H55  1  0.43695000  0.52871000  0.43706000  1.0
  H  H56  1  0.99227000  0.93949000  0.20467000  1.0
  H  H57  1  0.49226000  0.06052000  0.79533000  1.0
  H  H58  1  0.99226000  0.56052000  0.70466000  1.0
  H  H59  1  0.49226000  0.43948000  0.29534000  1.0
  H  H60  1  0.44933000  0.99314000  0.27126000  1.0
  H  H61  1  0.94932000  0.00686000  0.72874000  1.0
  H  H62  1  0.44932000  0.50686000  0.77126000  1.0
  H  H63  1  0.94932000  0.49314000  0.22874000  1.0
  C  C64  1  0.02749000  0.28302000  0.85409000  1.0
  C  C65  1  0.52750000  0.71698000  0.14591000  1.0
  C  C66  1  0.02749000  0.21697000  0.35409000  1.0
  C  C67  1  0.52750000  0.78302000  0.64591000  1.0
  C  C68  1  0.26285000  0.48293000  0.94585000  1.0
  C  C69  1  0.76285000  0.51707000  0.05415000  1.0
  C  C70  1  0.26285000  0.01707000  0.44585000  1.0
  C  C71  1  0.76285000  0.98293000  0.55415000  1.0
  C  C72  1  0.46578000  0.32084000  0.92983000  1.0
  C  C73  1  0.96578000  0.67916000  0.07017000  1.0
  C  C74  1  0.46578000  0.17916000  0.42983000  1.0
  C  C75  1  0.96578000  0.82084000  0.57017000  1.0
  C  C76  1  0.78264000  0.22515000  0.75991000  1.0
  C  C77  1  0.28265000  0.77485000  0.24010000  1.0
  C  C78  1  0.78264000  0.27485000  0.25990000  1.0
  C  C79  1  0.28264000  0.72515000  0.74010000  1.0
  C  C80  1  0.34732000  0.10728000  0.13076000  1.0
  C  C81  1  0.84731000  0.89272000  0.86924000  1.0
  C  C82  1  0.34731000  0.39272000  0.63076000  1.0
  C  C83  1  0.84731000  0.60729000  0.36924000  1.0
  C  C84  1  0.52530000  0.05627000  0.14830000  1.0
  C  C85  1  0.02529000  0.94373000  0.85170000  1.0
  C  C86  1  0.52529000  0.44373000  0.64830000  1.0
  C  C87  1  0.02530000  0.55627000  0.35170000  1.0
  C  C88  1  0.66298000  0.06429000  0.08913000  1.0
  C  C89  1  0.16297000  0.93571000  0.91087000  1.0
  C  C90  1  0.66297000  0.43571000  0.58913000  1.0
  C  C91  1  0.16297000  0.56429000  0.41087000  1.0
  C  C92  1  0.83040000  0.02187000  0.10908000  1.0
  C  C93  1  0.33040000  0.97814000  0.89092000  1.0
  C  C94  1  0.83040000  0.47814000  0.60908000  1.0
  C  C95  1  0.33040000  0.52186000  0.39092000  1.0
  C  C96  1  0.86133000  0.97056000  0.18766000  1.0
  C  C97  1  0.36133000  0.02944000  0.81234000  1.0
  C  C98  1  0.86133000  0.52944000  0.68766000  1.0
  C  C99  1  0.36132000  0.47056000  0.31234000  1.0
  C  C100  1  0.72357000  0.95900000  0.24640000  1.0
  C  C101  1  0.22357000  0.04100000  0.75361000  1.0
  C  C102  1  0.72357000  0.54101000  0.74639000  1.0
  C  C103  1  0.22356000  0.45899000  0.25361000  1.0
  C  C104  1  0.55673000  0.00236000  0.22606000  1.0
  C  C105  1  0.05673000  0.99764000  0.77394000  1.0
  C  C106  1  0.55672000  0.49764000  0.72606000  1.0
  C  C107  1  0.05672000  0.50236000  0.27394000  1.0
  C  C108  1  0.75592000  0.90052000  0.32995000  1.0
  C  C109  1  0.25591000  0.09948000  0.67005000  1.0
  C  C110  1  0.75591000  0.59948000  0.82994000  1.0
  C  C111  1  0.25591000  0.40052000  0.17005000  1.0
  S  S112  1  0.91616000  0.23784000  0.94277000  1.0
  S  S113  1  0.41617000  0.76216000  0.05723000  1.0
  S  S114  1  0.91616000  0.26215000  0.44277000  1.0
  S  S115  1  0.41616000  0.73784000  0.55723000  1.0
  N  N116  1  0.27833000  0.35669000  0.93235000  1.0
  N  N117  1  0.77834000  0.64331000  0.06765000  1.0
  N  N118  1  0.27834000  0.14331000  0.43235000  1.0
  N  N119  1  0.77834000  0.85669000  0.56765000  1.0
  N  N120  1  0.19489000  0.32477000  0.85576000  1.0
  N  N121  1  0.69489000  0.67523000  0.14424000  1.0
  N  N122  1  0.19489000  0.17523000  0.35576000  1.0
  N  N123  1  0.69489000  0.82477000  0.64424000  1.0
  N  N124  1  0.95321000  0.27621000  0.77768000  1.0
  N  N125  1  0.45321000  0.72379000  0.22233000  1.0
  N  N126  1  0.95321000  0.22379000  0.27767000  1.0
  N  N127  1  0.45321000  0.77621000  0.72233000  1.0
  O  O128  1  0.31949000  0.14236000  0.05453000  1.0
  O  O129  1  0.81950000  0.85764000  0.94547000  1.0
  O  O130  1  0.31949000  0.35764000  0.55453000  1.0
  O  O131  1  0.81949000  0.64236000  0.44547000  1.0
  O  O132  1  0.23534000  0.11401000  0.19000000  1.0
  O  O133  1  0.73533000  0.88599000  0.81000000  1.0
  O  O134  1  0.23534000  0.38599000  0.68999000  1.0
  O  O135  1  0.73534000  0.61401000  0.31000000  1.0
  O  O136  1  0.61249000  0.86770000  0.36974000  1.0
  O  O137  1  0.11249000  0.13231000  0.63026000  1.0
  O  O138  1  0.61249000  0.63231000  0.86974000  1.0
  O  O139  1  0.11248000  0.36769000  0.13026000  1.0
  O  O140  1  0.90927000  0.88604000  0.35693000  1.0
  O  O141  1  0.40927000  0.11397000  0.64308000  1.0
  O  O142  1  0.90927000  0.61396000  0.85692000  1.0
  O  O143  1  0.40926000  0.38603000  0.14308000  1.0
