# generated using pymatgen
data_CdH24C28S2N14(OF2)2
_symmetry_space_group_name_H-M   'P 1'
_cell_length_a   8.95793000
_cell_length_b   12.59800000
_cell_length_c   16.05730000
_cell_angle_alpha   90.00000000
_cell_angle_beta   96.48340000
_cell_angle_gamma   90.00000000
_symmetry_Int_Tables_number   1
_chemical_formula_structural   CdH24C28S2N14(OF2)2
_chemical_formula_sum   'Cd2 H48 C56 S4 N28 O4 F8'
_cell_volume   1800.50938078
_cell_formula_units_Z   2
loop_
 _symmetry_equiv_pos_site_id
 _symmetry_equiv_pos_as_xyz
  1  'x, y, z'
loop_
 _atom_site_type_symbol
 _atom_site_label
 _atom_site_symmetry_multiplicity
 _atom_site_fract_x
 _atom_site_fract_y
 _atom_site_fract_z
 _atom_site_occupancy
  Cd  Cd0  1  0.00000000  0.50000000  0.50000000  1.0
  Cd  Cd1  1  0.50000000  0.00000000  0.00000000  1.0
  H  H2  1  0.28693000  0.69257000  0.52517000  1.0
  H  H3  1  0.21307000  0.19257000  0.97483000  1.0
  H  H4  1  0.71307000  0.30743000  0.47483000  1.0
  H  H5  1  0.78693000  0.80743000  0.02517000  1.0
  H  H6  1  0.29841000  0.41677000  0.37882000  1.0
  H  H7  1  0.20159000  0.91677000  0.12118000  1.0
  H  H8  1  0.70159000  0.58323000  0.62118000  1.0
  H  H9  1  0.79841000  0.08323000  0.87882000  1.0
  H  H10  1  0.66532000  0.68960000  0.45621000  1.0
  H  H11  1  0.83468000  0.18960000  0.04379000  1.0
  H  H12  1  0.33468000  0.31040000  0.54379000  1.0
  H  H13  1  0.16532000  0.81040000  0.95621000  1.0
  H  H14  1  0.52625000  0.78085000  0.48450000  1.0
  H  H15  1  0.97375000  0.28084000  0.01550000  1.0
  H  H16  1  0.47375000  0.21915000  0.51550000  1.0
  H  H17  1  0.02625000  0.71915000  0.98450000  1.0
  H  H18  1  0.62307000  0.91583000  0.40194000  1.0
  H  H19  1  0.87693000  0.41583000  0.09806000  1.0
  H  H20  1  0.37693000  0.08417000  0.59806000  1.0
  H  H21  1  0.12307000  0.58417000  0.90194000  1.0
  H  H22  1  0.75801000  0.83523000  0.35928000  1.0
  H  H23  1  0.74199000  0.33523000  0.14072000  1.0
  H  H24  1  0.24199000  0.16477000  0.64072000  1.0
  H  H25  1  0.25801000  0.66477000  0.85928000  1.0
  H  H26  1  0.57509000  0.14540000  0.18022000  1.0
  H  H27  1  0.92491000  0.64540000  0.31978000  1.0
  H  H28  1  0.42491000  0.85460000  0.81978000  1.0
  H  H29  1  0.07509000  0.35460000  0.68022000  1.0
  H  H30  1  0.59718000  0.81223000  0.17365000  1.0
  H  H31  1  0.90282000  0.31223000  0.32635000  1.0
  H  H32  1  0.40282000  0.18777000  0.82635000  1.0
  H  H33  1  0.09718000  0.68777000  0.67365000  1.0
  H  H34  1  0.07667000  0.94494000  0.36067000  1.0
  H  H35  1  0.42333000  0.44494000  0.13933000  1.0
  H  H36  1  0.92333000  0.05506000  0.63933000  1.0
  H  H37  1  0.57667000  0.55506000  0.86067000  1.0
  H  H38  1  0.09581000  0.71069000  0.16500000  1.0
  H  H39  1  0.40419000  0.21069000  0.33500000  1.0
  H  H40  1  0.90419000  0.28931000  0.83500000  1.0
  H  H41  1  0.59581000  0.78931000  0.66500000  1.0
  H  H42  1  0.36421000  0.67870000  0.21412000  1.0
  H  H43  1  0.13579000  0.17870000  0.28588000  1.0
  H  H44  1  0.63579000  0.32130000  0.78588000  1.0
  H  H45  1  0.86421000  0.82130000  0.71412000  1.0
  H  H46  1  0.55994000  0.61833000  0.30919000  1.0
  H  H47  1  0.94006000  0.11833000  0.19081000  1.0
  H  H48  1  0.44006000  0.38167000  0.69081000  1.0
  H  H49  1  0.05994000  0.88167000  0.80919000  1.0
  C  C50  1  0.31960000  0.63086000  0.48372000  1.0
  C  C51  1  0.18040000  0.13086000  0.01628000  1.0
  C  C52  1  0.68040000  0.36914000  0.51628000  1.0
  C  C53  1  0.81960000  0.86914000  0.98373000  1.0
  C  C54  1  0.32843000  0.49229000  0.40871000  1.0
  C  C55  1  0.17157000  0.99229000  0.09129000  1.0
  C  C56  1  0.67157000  0.50771000  0.59129000  1.0
  C  C57  1  0.82844000  0.00771000  0.90871000  1.0
  C  C58  1  0.55082000  0.71980000  0.43945000  1.0
  C  C59  1  0.94918000  0.21980000  0.06055000  1.0
  C  C60  1  0.44918000  0.28020000  0.56055000  1.0
  C  C61  1  0.05082000  0.78020000  0.93945000  1.0
  C  C62  1  0.53829000  0.76433000  0.34880000  1.0
  C  C63  1  0.96171000  0.26433000  0.15120000  1.0
  C  C64  1  0.46171000  0.23567000  0.65120000  1.0
  C  C65  1  0.03829000  0.73567000  0.84880000  1.0
  C  C66  1  0.64093000  0.86246000  0.35029000  1.0
  C  C67  1  0.85907000  0.36246000  0.14971000  1.0
  C  C68  1  0.35907000  0.13753000  0.64971000  1.0
  C  C69  1  0.14093000  0.63754000  0.85029000  1.0
  C  C70  1  0.58539000  0.06329000  0.20006000  1.0
  C  C71  1  0.91461000  0.56329000  0.29994000  1.0
  C  C72  1  0.41461000  0.93671000  0.79994000  1.0
  C  C73  1  0.08539000  0.43671000  0.70006000  1.0
  C  C74  1  0.59693000  0.89450000  0.19352000  1.0
  C  C75  1  0.90307000  0.39450000  0.30648000  1.0
  C  C76  1  0.40307000  0.10550000  0.80648000  1.0
  C  C77  1  0.09693000  0.60550000  0.69352000  1.0
  C  C78  1  0.37423000  0.78944000  0.31688000  1.0
  C  C79  1  0.12577000  0.28944000  0.18312000  1.0
  C  C80  1  0.62577000  0.21056000  0.68312000  1.0
  C  C81  1  0.87423000  0.71056000  0.81688000  1.0
  C  C82  1  0.28865000  0.86364000  0.35563000  1.0
  C  C83  1  0.21135000  0.36364000  0.14437000  1.0
  C  C84  1  0.71135000  0.13636000  0.64437000  1.0
  C  C85  1  0.78865000  0.63636000  0.85563000  1.0
  C  C86  1  0.13913000  0.88637000  0.32864000  1.0
  C  C87  1  0.36087000  0.38637000  0.17136000  1.0
  C  C88  1  0.86087000  0.11363000  0.67136000  1.0
  C  C89  1  0.63913000  0.61363000  0.82864000  1.0
  C  C90  1  0.07390000  0.83015000  0.25944000  1.0
  C  C91  1  0.42609000  0.33015000  0.24056000  1.0
  C  C92  1  0.92610000  0.16985000  0.74056000  1.0
  C  C93  1  0.57390000  0.66985000  0.75944000  1.0
  C  C94  1  0.15126000  0.75483000  0.21807000  1.0
  C  C95  1  0.34874000  0.25483000  0.28193000  1.0
  C  C96  1  0.84874000  0.24517000  0.78193000  1.0
  C  C97  1  0.65126000  0.74517000  0.71807000  1.0
  C  C98  1  0.30146000  0.73584000  0.24739000  1.0
  C  C99  1  0.19854000  0.23584000  0.25261000  1.0
  C  C100  1  0.69854000  0.26416000  0.75261000  1.0
  C  C101  1  0.80146000  0.76416000  0.74739000  1.0
  C  C102  1  0.92400000  0.76462000  0.51521000  1.0
  C  C103  1  0.57600000  0.26462000  0.98479000  1.0
  C  C104  1  0.07600000  0.23538000  0.48479000  1.0
  C  C105  1  0.42400000  0.73538000  0.01521000  1.0
  S  S106  1  0.87991000  0.88141000  0.54565000  1.0
  S  S107  1  0.62009000  0.38141000  0.95435000  1.0
  S  S108  1  0.12009000  0.11859000  0.45435000  1.0
  S  S109  1  0.37991000  0.61859000  0.04565000  1.0
  N  N110  1  0.24502000  0.54129000  0.46315000  1.0
  N  N111  1  0.25498000  0.04129000  0.03685000  1.0
  N  N112  1  0.75498000  0.45871000  0.53685000  1.0
  N  N113  1  0.74502000  0.95871000  0.96315000  1.0
  N  N114  1  0.45132000  0.54600000  0.39513000  1.0
  N  N115  1  0.04868000  0.04600000  0.10487000  1.0
  N  N116  1  0.54868000  0.45400000  0.60487000  1.0
  N  N117  1  0.95132000  0.95400000  0.89513000  1.0
  N  N118  1  0.44413000  0.63404000  0.44420000  1.0
  N  N119  1  0.05587000  0.13404000  0.05580000  1.0
  N  N120  1  0.55587000  0.36596000  0.55580000  1.0
  N  N121  1  0.94413000  0.86596000  0.94420000  1.0
  N  N122  1  0.61536000  0.92556000  0.27429000  1.0
  N  N123  1  0.88464000  0.42556000  0.22571000  1.0
  N  N124  1  0.38464000  0.07444000  0.72571000  1.0
  N  N125  1  0.11536000  0.57444000  0.77429000  1.0
  N  N126  1  0.60776000  0.03352000  0.27973000  1.0
  N  N127  1  0.89224000  0.53352000  0.22027000  1.0
  N  N128  1  0.39224000  0.96648000  0.72027000  1.0
  N  N129  1  0.10776000  0.46648000  0.77973000  1.0
  N  N130  1  0.57726000  0.98047000  0.14482000  1.0
  N  N131  1  0.92274000  0.48047000  0.35518000  1.0
  N  N132  1  0.42274000  0.01953000  0.85518000  1.0
  N  N133  1  0.07726000  0.51953000  0.64482000  1.0
  N  N134  1  0.95294000  0.67883000  0.48995000  1.0
  N  N135  1  0.54706000  0.17883000  0.01004000  1.0
  N  N136  1  0.04706000  0.32117000  0.51005000  1.0
  N  N137  1  0.45294000  0.82117000  0.98995000  1.0
  O  O138  1  0.59905000  0.68871000  0.29569000  1.0
  O  O139  1  0.90095000  0.18871000  0.20431000  1.0
  O  O140  1  0.40095000  0.31129000  0.70431000  1.0
  O  O141  1  0.09905000  0.81129000  0.79569000  1.0
  F  F142  1  0.35394000  0.91710000  0.42463000  1.0
  F  F143  1  0.14606000  0.41710000  0.07537000  1.0
  F  F144  1  0.64606000  0.08290000  0.57537000  1.0
  F  F145  1  0.85394000  0.58290000  0.92463000  1.0
  F  F146  1  0.92689000  0.85037000  0.23116000  1.0
  F  F147  1  0.57311000  0.35036000  0.26884000  1.0
  F  F148  1  0.07310000  0.14963000  0.76884000  1.0
  F  F149  1  0.42689000  0.64964000  0.73116000  1.0
