# generated using pymatgen
data_ZnH18C22(NO2)2
_symmetry_space_group_name_H-M   'P 1'
_cell_length_a   6.87853000
_cell_length_b   9.36663000
_cell_length_c   15.89300000
_cell_angle_alpha   96.48130000
_cell_angle_beta   100.99300000
_cell_angle_gamma   90.52860000
_symmetry_Int_Tables_number   1
_chemical_formula_structural   ZnH18C22(NO2)2
_chemical_formula_sum   'Zn2 H36 C44 N4 O8'
_cell_volume   998.25441660
_cell_formula_units_Z   2
loop_
 _symmetry_equiv_pos_site_id
 _symmetry_equiv_pos_as_xyz
  1  'x, y, z'
loop_
 _atom_site_type_symbol
 _atom_site_label
 _atom_site_symmetry_multiplicity
 _atom_site_fract_x
 _atom_site_fract_y
 _atom_site_fract_z
 _atom_site_occupancy
  Zn  Zn0  1  0.38438000  0.30193000  0.69919000  1.0
  Zn  Zn1  1  0.61562000  0.69807000  0.30081000  1.0
  H  H2  1  0.51240000  0.82077000  0.71793000  1.0
  H  H3  1  0.48760000  0.17923000  0.28207000  1.0
  H  H4  1  0.05852000  0.67957000  0.86069000  1.0
  H  H5  1  0.94148000  0.32043000  0.13932000  1.0
  H  H6  1  0.24419000  0.79574000  0.76528000  1.0
  H  H7  1  0.75581000  0.20426000  0.23472000  1.0
  H  H8  1  0.06795000  0.92894000  0.64978000  1.0
  H  H9  1  0.93205000  0.07107000  0.35022000  1.0
  H  H10  1  0.77643000  0.00952000  0.57136000  1.0
  H  H11  1  0.22359000  0.99048000  0.42865000  1.0
  H  H12  1  0.59377000  0.86803000  0.54844000  1.0
  H  H13  1  0.40624000  0.13198000  0.45156000  1.0
  H  H14  1  0.52285000  0.72536000  0.85875000  1.0
  H  H15  1  0.47714000  0.27463000  0.14125000  1.0
  H  H16  1  0.75095000  0.66917000  0.91812000  1.0
  H  H17  1  0.24904000  0.33083000  0.08188000  1.0
  H  H18  1  0.09856000  0.15368000  0.53713000  1.0
  H  H19  1  0.90143000  0.84632000  0.46287000  1.0
  H  H20  1  0.76816000  0.20982000  0.45308000  1.0
  H  H21  1  0.23183000  0.79018000  0.54691000  1.0
  H  H22  1  0.79869000  0.60621000  0.62621000  1.0
  H  H23  1  0.20129000  0.39378000  0.37379000  1.0
  H  H24  1  0.12809000  0.53561000  0.69794000  1.0
  H  H25  1  0.87189000  0.46439000  0.30206000  1.0
  H  H26  1  0.50858000  0.38644000  0.42246000  1.0
  H  H27  1  0.49140000  0.61355000  0.57754000  1.0
  H  H28  1  0.54127000  0.09595000  0.81910000  1.0
  H  H29  1  0.45873000  0.90405000  0.18090000  1.0
  H  H30  1  0.42995000  0.96278000  0.92992000  1.0
  H  H31  1  0.57006000  0.03722000  0.07009000  1.0
  H  H32  1  0.88808000  0.20190000  0.88962000  1.0
  H  H33  1  0.11193000  0.79809000  0.11039000  1.0
  H  H34  1  0.01285000  0.31248000  0.77879000  1.0
  H  H35  1  0.98715000  0.68752000  0.22121000  1.0
  H  H36  1  0.18665000  0.90914000  0.00971000  1.0
  H  H37  1  0.81338000  0.09087000  0.99030000  1.0
  C  C38  1  0.77705000  0.88183000  0.67501000  1.0
  C  C39  1  0.22295000  0.11817000  0.32499000  1.0
  C  C40  1  0.67377000  0.81711000  0.72949000  1.0
  C  C41  1  0.32623000  0.18290000  0.27050000  1.0
  C  C42  1  0.77321000  0.74568000  0.79729000  1.0
  C  C43  1  0.22679000  0.25432000  0.20271000  1.0
  C  C44  1  0.97991000  0.73790000  0.80943000  1.0
  C  C45  1  0.02009000  0.26210000  0.19058000  1.0
  C  C46  1  0.08367000  0.80309000  0.75602000  1.0
  C  C47  1  0.91633000  0.19692000  0.24399000  1.0
  C  C48  1  0.98399000  0.87633000  0.68983000  1.0
  C  C49  1  0.01601000  0.12367000  0.31017000  1.0
  C  C50  1  0.66913000  0.95128000  0.59875000  1.0
  C  C51  1  0.33088000  0.04873000  0.40125000  1.0
  C  C52  1  0.51552000  0.05520000  0.62360000  1.0
  C  C53  1  0.48448000  0.94480000  0.37640000  1.0
  C  C54  1  0.66134000  0.67036000  0.85326000  1.0
  C  C55  1  0.33865000  0.32964000  0.14674000  1.0
  C  C56  1  0.60711000  0.51423000  0.81345000  1.0
  C  C57  1  0.39290000  0.48577000  0.18654000  1.0
  C  C58  1  0.02593000  0.25349000  0.55265000  1.0
  C  C59  1  0.97407000  0.74651000  0.44735000  1.0
  C  C60  1  0.84255000  0.28644000  0.50672000  1.0
  C  C61  1  0.15744000  0.71356000  0.49329000  1.0
  C  C62  1  0.75233000  0.41429000  0.53209000  1.0
  C  C63  1  0.24766000  0.58571000  0.46792000  1.0
  C  C64  1  0.85716000  0.50488000  0.60305000  1.0
  C  C65  1  0.14283000  0.49511000  0.39695000  1.0
  C  C66  1  0.04120000  0.46621000  0.64416000  1.0
  C  C67  1  0.95879000  0.53378000  0.35585000  1.0
  C  C68  1  0.55837000  0.44891000  0.48545000  1.0
  C  C69  1  0.44161000  0.55108000  0.51455000  1.0
  C  C70  1  0.39780000  0.11465000  0.83729000  1.0
  C  C71  1  0.60222000  0.88534000  0.16272000  1.0
  C  C72  1  0.33564000  0.04282000  0.89945000  1.0
  C  C73  1  0.66438000  0.95718000  0.10055000  1.0
  C  C74  1  0.14927000  0.07005000  0.92129000  1.0
  C  C75  1  0.85076000  0.92995000  0.07872000  1.0
  C  C76  1  0.03364000  0.17174000  0.87750000  1.0
  C  C77  1  0.96637000  0.82826000  0.12251000  1.0
  C  C78  1  0.10434000  0.23673000  0.81468000  1.0
  C  C79  1  0.89567000  0.76327000  0.18532000  1.0
  C  C80  1  0.08520000  0.99058000  0.98515000  1.0
  C  C81  1  0.91482000  0.00943000  0.01485000  1.0
  N  N82  1  0.12532000  0.34235000  0.62010000  1.0
  N  N83  1  0.87467000  0.65765000  0.37990000  1.0
  N  N84  1  0.28341000  0.20957000  0.79476000  1.0
  N  N85  1  0.71660000  0.79044000  0.20524000  1.0
  O  O86  1  0.33721000  0.01561000  0.61332000  1.0
  O  O87  1  0.66280000  0.98440000  0.38667000  1.0
  O  O88  1  0.58517000  0.18267000  0.65693000  1.0
  O  O89  1  0.41483000  0.81734000  0.34307000  1.0
  O  O90  1  0.46878000  0.50317000  0.74429000  1.0
  O  O91  1  0.53122000  0.49684000  0.25571000  1.0
  O  O92  1  0.69355000  0.41163000  0.84592000  1.0
  O  O93  1  0.30647000  0.58836000  0.15406000  1.0
