# generated using pymatgen
data_CdH13C18N5O7
_symmetry_space_group_name_H-M   'P 1'
_cell_length_a   10.36590000
_cell_length_b   10.88650000
_cell_length_c   11.06050000
_cell_angle_alpha   102.53100000
_cell_angle_beta   104.67700000
_cell_angle_gamma   111.71900000
_symmetry_Int_Tables_number   1
_chemical_formula_structural   CdH13C18N5O7
_chemical_formula_sum   'Cd2 H26 C36 N10 O14'
_cell_volume   1052.53376472
_cell_formula_units_Z   2
loop_
 _symmetry_equiv_pos_site_id
 _symmetry_equiv_pos_as_xyz
  1  'x, y, z'
loop_
 _atom_site_type_symbol
 _atom_site_label
 _atom_site_symmetry_multiplicity
 _atom_site_fract_x
 _atom_site_fract_y
 _atom_site_fract_z
 _atom_site_occupancy
  Cd  Cd0  1  0.34726000  0.41255000  0.65748000  1.0
  Cd  Cd1  1  0.65274000  0.58745000  0.34252000  1.0
  H  H2  1  0.84343000  0.42218000  0.65218000  1.0
  H  H3  1  0.15657000  0.57781000  0.34782000  1.0
  H  H4  1  0.83902000  0.67741000  0.00755000  1.0
  H  H5  1  0.16098000  0.32259000  0.99245000  1.0
  H  H6  1  0.37650000  0.39170000  0.92974000  1.0
  H  H7  1  0.62351000  0.60830000  0.07026000  1.0
  H  H8  1  0.24818000  0.66723000  0.99593000  1.0
  H  H9  1  0.75182000  0.33277000  0.00406000  1.0
  H  H10  1  0.44818000  0.27149000  0.08431000  1.0
  H  H11  1  0.55182000  0.72851000  0.91569000  1.0
  H  H12  1  0.90895000  0.10312000  0.17425000  1.0
  H  H13  1  0.09104000  0.89688000  0.82575000  1.0
  H  H14  1  0.03058000  0.25758000  0.41757000  1.0
  H  H15  1  0.96942000  0.74242000  0.58243000  1.0
  H  H16  1  0.32070000  0.07924000  0.60141000  1.0
  H  H17  1  0.67930000  0.92076000  0.39859000  1.0
  H  H18  1  0.39267000  0.94577000  0.74323000  1.0
  H  H19  1  0.60733000  0.05423000  0.25677000  1.0
  H  H20  1  0.32863000  0.09431000  0.20278000  1.0
  H  H21  1  0.67136000  0.90569000  0.79722000  1.0
  H  H22  1  0.43145000  0.24600000  0.44411000  1.0
  H  H23  1  0.56854000  0.75399000  0.55588000  1.0
  H  H24  1  0.22188000  0.55841000  0.56151000  1.0
  H  H25  1  0.77812000  0.44159000  0.43848000  1.0
  H  H26  1  0.34281000  0.58430000  0.49115000  1.0
  H  H27  1  0.65719000  0.41570000  0.50885000  1.0
  C  C28  1  0.82289000  0.54711000  0.82094000  1.0
  C  C29  1  0.17711000  0.45290000  0.17906000  1.0
  C  C30  1  0.05350000  0.54081000  0.81490000  1.0
  C  C31  1  0.94650000  0.45919000  0.18509000  1.0
  C  C32  1  0.05047000  0.68204000  0.01260000  1.0
  C  C33  1  0.94954000  0.31796000  0.98740000  1.0
  C  C34  1  0.90095000  0.49762000  0.75338000  1.0
  C  C35  1  0.09905000  0.50238000  0.24662000  1.0
  C  C36  1  0.65969000  0.50214000  0.75345000  1.0
  C  C37  1  0.34031000  0.49786000  0.24655000  1.0
  C  C38  1  0.42822000  0.10105000  0.92524000  1.0
  C  C39  1  0.57178000  0.89895000  0.07476000  1.0
  C  C40  1  0.89826000  0.63975000  0.95267000  1.0
  C  C41  1  0.10174000  0.36026000  0.04733000  1.0
  C  C42  1  0.38130000  0.29298000  0.89229000  1.0
  C  C43  1  0.61871000  0.70702000  0.10771000  1.0
  C  C44  1  0.12990000  0.63447000  0.94631000  1.0
  C  C45  1  0.87010000  0.36553000  0.05369000  1.0
  C  C46  1  0.42045000  0.22563000  0.97809000  1.0
  C  C47  1  0.57955000  0.77437000  0.02191000  1.0
  C  C48  1  0.02508000  0.13407000  0.23148000  1.0
  C  C49  1  0.97492000  0.86594000  0.76852000  1.0
  C  C50  1  0.09101000  0.21774000  0.36514000  1.0
  C  C51  1  0.90899000  0.78226000  0.63486000  1.0
  C  C52  1  0.35040000  0.11817000  0.70906000  1.0
  C  C53  1  0.64960000  0.88183000  0.29094000  1.0
  C  C54  1  0.39021000  0.04423000  0.78719000  1.0
  C  C55  1  0.60979000  0.95577000  0.21281000  1.0
  C  C56  1  0.11195000  0.09000000  0.17123000  1.0
  C  C57  1  0.88805000  0.91000000  0.82877000  1.0
  C  C58  1  0.13391000  0.48475000  0.73980000  1.0
  C  C59  1  0.86609000  0.51525000  0.26020000  1.0
  C  C60  1  0.25997000  0.12894000  0.24742000  1.0
  C  C61  1  0.74002000  0.87106000  0.75258000  1.0
  C  C62  1  0.31687000  0.21251000  0.38077000  1.0
  C  C63  1  0.68313000  0.78749000  0.61923000  1.0
  N  N64  1  0.23472000  0.25675000  0.43855000  1.0
  N  N65  1  0.76528000  0.74325000  0.56145000  1.0
  N  N66  1  0.34745000  0.24093000  0.76029000  1.0
  N  N67  1  0.65255000  0.75907000  0.23971000  1.0
  N  N68  1  0.12902000  0.77719000  0.15224000  1.0
  N  N69  1  0.87098000  0.22280000  0.84776000  1.0
  N  N70  1  0.47264000  0.04015000  0.01895000  1.0
  N  N71  1  0.52735000  0.95984000  0.98105000  1.0
  N  N72  1  0.05984000  0.00352000  0.03655000  1.0
  N  N73  1  0.94015000  0.99648000  0.96344000  1.0
  O  O74  1  0.59341000  0.42238000  0.63119000  1.0
  O  O75  1  0.40659000  0.57763000  0.36881000  1.0
  O  O76  1  0.59224000  0.54468000  0.82074000  1.0
  O  O77  1  0.40776000  0.45532000  0.17925000  1.0
  O  O78  1  0.26161000  0.50025000  0.80991000  1.0
  O  O79  1  0.73839000  0.49975000  0.19009000  1.0
  O  O80  1  0.07323000  0.42887000  0.61426000  1.0
  O  O81  1  0.92677000  0.57113000  0.38574000  1.0
  O  O82  1  0.05336000  0.80644000  0.21384000  1.0
  O  O83  1  0.94665000  0.19357000  0.78616000  1.0
  O  O84  1  0.26667000  0.82253000  0.20104000  1.0
  O  O85  1  0.73333000  0.17745000  0.79897000  1.0
  O  O86  1  0.32956000  0.59638000  0.57905000  1.0
  O  O87  1  0.67044000  0.40362000  0.42095000  1.0
