# generated using pymatgen
data_FeH8Pt(C3N2)4
_symmetry_space_group_name_H-M   'P 1'
_cell_length_a   6.97781000
_cell_length_b   7.23563000
_cell_length_c   7.30682000
_cell_angle_alpha   97.79150000
_cell_angle_beta   90.00040000
_cell_angle_gamma   90.00010000
_symmetry_Int_Tables_number   1
_chemical_formula_structural   FeH8Pt(C3N2)4
_chemical_formula_sum   'Fe1 H8 Pt1 C12 N8'
_cell_volume   365.50713110
_cell_formula_units_Z   1
loop_
 _symmetry_equiv_pos_site_id
 _symmetry_equiv_pos_as_xyz
  1  'x, y, z'
loop_
 _atom_site_type_symbol
 _atom_site_label
 _atom_site_symmetry_multiplicity
 _atom_site_fract_x
 _atom_site_fract_y
 _atom_site_fract_z
 _atom_site_occupancy
  Fe  Fe0  1  0.50000000  0.47757000  0.99903000  1.0
  H  H1  1  0.79669000  0.83995000  0.01007000  1.0
  H  H2  1  0.79780000  0.18669000  0.98770000  1.0
  H  H3  1  0.20220000  0.18670000  0.98772000  1.0
  H  H4  1  0.20330000  0.83995000  0.01007000  1.0
  H  H5  1  0.79703000  0.84740000  0.57323000  1.0
  H  H6  1  0.79697000  0.14485000  0.42685000  1.0
  H  H7  1  0.20301000  0.14484000  0.42685000  1.0
  H  H8  1  0.20297000  0.84740000  0.57324000  1.0
  Pt  Pt9  1  0.00001000  0.49740000  0.50147000  1.0
  C  C10  1  0.66387000  0.91869000  0.00619000  1.0
  C  C11  1  0.66546000  0.10832000  0.99288000  1.0
  C  C12  1  0.33454000  0.10831000  0.99289000  1.0
  C  C13  1  0.33613000  0.91869000  0.00620000  1.0
  C  C14  1  0.80394000  0.48470000  0.69464000  1.0
  C  C15  1  0.80397000  0.50333000  0.30693000  1.0
  C  C16  1  0.19603000  0.50335000  0.30694000  1.0
  C  C17  1  0.19606000  0.48470000  0.69465000  1.0
  C  C18  1  0.66277000  0.91452000  0.54116000  1.0
  C  C19  1  0.66275000  0.07766000  0.45886000  1.0
  C  C20  1  0.33725000  0.07765000  0.45887000  1.0
  C  C21  1  0.33723000  0.91452000  0.54116000  1.0
  N  N22  1  0.50000000  0.82422000  0.01422000  1.0
  N  N23  1  0.50000000  0.20611000  0.98925000  1.0
  N  N24  1  0.69278000  0.47532000  0.81308000  1.0
  N  N25  1  0.69264000  0.50002000  0.18666000  1.0
  N  N26  1  0.30737000  0.50004000  0.18666000  1.0
  N  N27  1  0.30722000  0.47532000  0.81309000  1.0
  N  N28  1  0.50000000  0.83161000  0.58234000  1.0
  N  N29  1  0.50000000  0.16015000  0.41710000  1.0
