# generated using pymatgen
data_AgH11C11N3Cl
_symmetry_space_group_name_H-M   'P 1'
_cell_length_a   7.31866000
_cell_length_b   10.89920000
_cell_length_c   11.20090000
_cell_angle_alpha   76.40420000
_cell_angle_beta   82.65630000
_cell_angle_gamma   87.37870000
_symmetry_Int_Tables_number   1
_chemical_formula_structural   AgH11C11N3Cl
_chemical_formula_sum   'Ag3 H33 C33 N9 Cl3'
_cell_volume   861.19408509
_cell_formula_units_Z   3
loop_
 _symmetry_equiv_pos_site_id
 _symmetry_equiv_pos_as_xyz
  1  'x, y, z'
loop_
 _atom_site_type_symbol
 _atom_site_label
 _atom_site_symmetry_multiplicity
 _atom_site_fract_x
 _atom_site_fract_y
 _atom_site_fract_z
 _atom_site_occupancy
  Ag  Ag0  1  0.02037000  0.80368000  0.43686000  1.0
  Ag  Ag1  1  0.35595000  0.79159000  0.56007000  1.0
  Ag  Ag2  1  0.65273000  0.93211000  0.62333000  1.0
  H  H3  1  0.31442000  0.26822000  0.47213000  1.0
  H  H4  1  0.11130000  0.24237000  0.41026000  1.0
  H  H5  1  0.92181000  0.27969000  0.58428000  1.0
  H  H6  1  0.12454000  0.26898000  0.65808000  1.0
  H  H7  1  0.90056000  0.49462000  0.59911000  1.0
  H  H8  1  0.12969000  0.48982000  0.63717000  1.0
  H  H9  1  0.10532000  0.86776000  0.21992000  1.0
  H  H10  1  0.21714000  0.02941000  0.03520000  1.0
  H  H11  1  0.43376000  0.97096000  0.86470000  1.0
  H  H12  1  0.54466000  0.74749000  0.88812000  1.0
  H  H13  1  0.43805000  0.58532000  0.07832000  1.0
  H  H14  1  0.63197000  0.11364000  0.03759000  1.0
  H  H15  1  0.77508000  0.13817000  0.14760000  1.0
  H  H16  1  0.51119000  0.26390000  0.20675000  1.0
  H  H17  1  0.35816000  0.17519000  0.15144000  1.0
  H  H18  1  0.50149000  0.11052000  0.40393000  1.0
  H  H19  1  0.28406000  0.07367000  0.36392000  1.0
  H  H20  1  0.50923000  0.60027000  0.51372000  1.0
  H  H21  1  0.57167000  0.37018000  0.54152000  1.0
  H  H22  1  0.75485000  0.28638000  0.37571000  1.0
  H  H23  1  0.87746000  0.43666000  0.17817000  1.0
  H  H24  1  0.81049000  0.66551000  0.14796000  1.0
  H  H25  1  0.87978000  0.93603000  0.00401000  1.0
  H  H26  1  0.73090000  0.92619000  0.89476000  1.0
  H  H27  1  0.85706000  0.12094000  0.77819000  1.0
  H  H28  1  0.05471000  0.09962000  0.85869000  1.0
  H  H29  1  0.00627000  0.01854000  0.62393000  1.0
  H  H30  1  0.21473000  0.04680000  0.68065000  1.0
  H  H31  1  0.93539000  0.47922000  0.94302000  1.0
  H  H32  1  0.03413000  0.25253000  0.97439000  1.0
  H  H33  1  0.35026000  0.19615000  0.88430000  1.0
  H  H34  1  0.56654000  0.36522000  0.77531000  1.0
  H  H35  1  0.47234000  0.59105000  0.75215000  1.0
  C  C36  1  0.12263000  0.64100000  0.37939000  1.0
  C  C37  1  0.18519000  0.43757000  0.38055000  1.0
  C  C38  1  0.17560000  0.30564000  0.45535000  1.0
  C  C39  1  0.05861000  0.31942000  0.57792000  1.0
  C  C40  1  0.04166000  0.46204000  0.57605000  1.0
  C  C41  1  0.26765000  0.71681000  0.16091000  1.0
  C  C42  1  0.20445000  0.84160000  0.14852000  1.0
  C  C43  1  0.26717000  0.93234000  0.04316000  1.0
  C  C44  1  0.38845000  0.89975000  0.94844000  1.0
  C  C45  1  0.44954000  0.77449000  0.96131000  1.0
  C  C46  1  0.39075000  0.68290000  0.06721000  1.0
  C  C47  1  0.50211000  0.84053000  0.38369000  1.0
  C  C48  1  0.62397000  0.96906000  0.20807000  1.0
  C  C49  1  0.64119000  0.10264000  0.13649000  1.0
  C  C50  1  0.47816000  0.16818000  0.20241000  1.0
  C  C51  1  0.43241000  0.08219000  0.33324000  1.0
  C  C52  1  0.65336000  0.64690000  0.32818000  1.0
  C  C53  1  0.58701000  0.56411000  0.43927000  1.0
  C  C54  1  0.62311000  0.43511000  0.45511000  1.0
  C  C55  1  0.72585000  0.38766000  0.36140000  1.0
  C  C56  1  0.79324000  0.47131000  0.25131000  1.0
  C  C57  1  0.75745000  0.60075000  0.23370000  1.0
  C  C58  1  0.19183000  0.77190000  0.72851000  1.0
  C  C59  1  0.98658000  0.83001000  0.87130000  1.0
  C  C60  1  0.87569000  0.93586000  0.90672000  1.0
  C  C61  1  0.96325000  0.05295000  0.81364000  1.0
  C  C62  1  0.07755000  0.00486000  0.70697000  1.0
  C  C63  1  0.19631000  0.54660000  0.84394000  1.0
  C  C64  1  0.07348000  0.45227000  0.90829000  1.0
  C  C65  1  0.13031000  0.32617000  0.92471000  1.0
  C  C66  1  0.30675000  0.29445000  0.87587000  1.0
  C  C67  1  0.42855000  0.38984000  0.81292000  1.0
  C  C68  1  0.37524000  0.51652000  0.79789000  1.0
  N  N69  1  0.10899000  0.52105000  0.44793000  1.0
  N  N70  1  0.20974000  0.62298000  0.26928000  1.0
  N  N71  1  0.24942000  0.49689000  0.26834000  1.0
  N  N72  1  0.50923000  0.96084000  0.31583000  1.0
  N  N73  1  0.61486000  0.77895000  0.30917000  1.0
  N  N74  1  0.69225000  0.85789000  0.19973000  1.0
  N  N75  1  0.09554000  0.87001000  0.76134000  1.0
  N  N76  1  0.13690000  0.67450000  0.82567000  1.0
  N  N77  1  0.00798000  0.70844000  0.91493000  1.0
  Cl  Cl78  1  0.92646000  0.02490000  0.40267000  1.0
  Cl  Cl79  1  0.76533000  0.71834000  0.65664000  1.0
  Cl  Cl80  1  0.54002000  0.13191000  0.65307000  1.0
