# generated using pymatgen
data_Gd2H22C18S9N6O17
_symmetry_space_group_name_H-M   'P 1'
_cell_length_a   9.58337000
_cell_length_b   13.23850000
_cell_length_c   14.93690000
_cell_angle_alpha   65.48740000
_cell_angle_beta   82.05170000
_cell_angle_gamma   79.99500000
_symmetry_Int_Tables_number   1
_chemical_formula_structural   Gd2H22C18S9N6O17
_chemical_formula_sum   'Gd4 H44 C36 S18 N12 O34'
_cell_volume   1693.37515808
_cell_formula_units_Z   2
loop_
 _symmetry_equiv_pos_site_id
 _symmetry_equiv_pos_as_xyz
  1  'x, y, z'
loop_
 _atom_site_type_symbol
 _atom_site_label
 _atom_site_symmetry_multiplicity
 _atom_site_fract_x
 _atom_site_fract_y
 _atom_site_fract_z
 _atom_site_occupancy
  Gd  Gd0  1  0.83539000  0.44815000  0.45906000  1.0
  Gd  Gd1  1  0.16461000  0.55185000  0.54095000  1.0
  Gd  Gd2  1  0.70757000  0.96136000  0.55021000  1.0
  Gd  Gd3  1  0.29243000  0.03864000  0.44979000  1.0
  H  H4  1  0.98379000  0.10398000  0.26089000  1.0
  H  H5  1  0.01620000  0.89601000  0.73911000  1.0
  H  H6  1  0.09356000  0.98557000  0.24911000  1.0
  H  H7  1  0.90644000  0.01443000  0.75089000  1.0
  H  H8  1  0.07527000  0.22893000  0.77555000  1.0
  H  H9  1  0.92472000  0.77107000  0.22445000  1.0
  H  H10  1  0.96983000  0.35066000  0.78275000  1.0
  H  H11  1  0.03017000  0.64934000  0.21725000  1.0
  H  H12  1  0.54326000  0.39686000  0.76052000  1.0
  H  H13  1  0.45674000  0.60314000  0.23948000  1.0
  H  H14  1  0.46414000  0.53713000  0.69736000  1.0
  H  H15  1  0.53586000  0.46287000  0.30263000  1.0
  H  H16  1  0.47928000  0.25716000  0.26276000  1.0
  H  H17  1  0.52072000  0.74285000  0.73724000  1.0
  H  H18  1  0.55614000  0.15710000  0.21301000  1.0
  H  H19  1  0.44386000  0.84291000  0.78699000  1.0
  H  H20  1  0.41140000  0.20370000  0.68524000  1.0
  H  H21  1  0.58860000  0.79631000  0.31476000  1.0
  H  H22  1  0.57982000  0.24046000  0.68898000  1.0
  H  H23  1  0.42019000  0.75953000  0.31103000  1.0
  H  H24  1  0.21442000  0.15239000  0.16542000  1.0
  H  H25  1  0.78557000  0.84761000  0.83458000  1.0
  H  H26  1  0.33292000  0.25304000  0.14213000  1.0
  H  H27  1  0.66709000  0.74695000  0.85787000  1.0
  H  H28  1  0.83674000  0.54381000  0.22751000  1.0
  H  H29  1  0.16327000  0.45619000  0.77249000  1.0
  H  H30  1  0.66999000  0.64319000  0.30673000  1.0
  H  H31  1  0.33002000  0.35681000  0.69327000  1.0
  H  H32  1  0.94164000  0.42902000  0.26564000  1.0
  H  H33  1  0.05836000  0.57098000  0.73435000  1.0
  H  H34  1  0.56537000  0.80665000  0.49605000  1.0
  H  H35  1  0.43463000  0.19335000  0.50395000  1.0
  H  H36  1  0.56233000  0.58931000  0.40187000  1.0
  H  H37  1  0.43767000  0.41069000  0.59813000  1.0
  H  H38  1  0.74653000  0.28318000  0.39463000  1.0
  H  H39  1  0.25346000  0.71683000  0.60537000  1.0
  H  H40  1  0.04384000  0.23414000  0.48529000  1.0
  H  H41  1  0.95616000  0.76586000  0.51471000  1.0
  H  H42  1  0.05361000  0.30944000  0.37293000  1.0
  H  H43  1  0.94640000  0.69055000  0.62707000  1.0
  H  H44  1  0.70310000  0.72451000  0.54454000  1.0
  H  H45  1  0.29690000  0.27549000  0.45546000  1.0
  H  H46  1  0.65683000  0.26434000  0.49246000  1.0
  H  H47  1  0.34317000  0.73566000  0.50755000  1.0
  C  C48  1  0.99680000  0.95716000  0.39510000  1.0
  C  C49  1  0.00320000  0.04284000  0.60489000  1.0
  C  C50  1  0.99431000  0.01283000  0.28383000  1.0
  C  C51  1  0.00569000  0.98716000  0.71617000  1.0
  C  C52  1  0.87788000  0.05649000  0.11645000  1.0
  C  C53  1  0.12211000  0.94350000  0.88356000  1.0
  C  C54  1  0.87168000  0.14879000  0.94118000  1.0
  C  C55  1  0.12831000  0.85122000  0.05883000  1.0
  C  C56  1  0.97271000  0.28223000  0.75895000  1.0
  C  C57  1  0.02729000  0.71776000  0.24105000  1.0
  C  C58  1  0.95344000  0.32885000  0.64990000  1.0
  C  C59  1  0.04656000  0.67115000  0.35011000  1.0
  C  C60  1  0.64337000  0.48491000  0.61483000  1.0
  C  C61  1  0.35663000  0.51509000  0.38517000  1.0
  C  C62  1  0.56571000  0.48181000  0.71174000  1.0
  C  C63  1  0.43429000  0.51819000  0.28826000  1.0
  C  C64  1  0.64410000  0.44307000  0.89582000  1.0
  C  C65  1  0.35590000  0.55693000  0.10418000  1.0
  C  C66  1  0.66195000  0.34528000  0.06932000  1.0
  C  C67  1  0.33806000  0.65472000  0.93068000  1.0
  C  C68  1  0.57819000  0.20468000  0.25354000  1.0
  C  C69  1  0.42181000  0.79532000  0.74645000  1.0
  C  C70  1  0.62637000  0.12509000  0.35366000  1.0
  C  C71  1  0.37363000  0.87491000  0.64634000  1.0
  C  C72  1  0.58747000  0.09491000  0.65977000  1.0
  C  C73  1  0.41254000  0.90509000  0.34023000  1.0
  C  C74  1  0.51848000  0.16981000  0.71061000  1.0
  C  C75  1  0.48153000  0.83019000  0.28940000  1.0
  C  C76  1  0.38989000  0.18696000  0.87597000  1.0
  C  C77  1  0.61011000  0.81303000  0.12403000  1.0
  C  C78  1  0.23598000  0.28677000  0.96132000  1.0
  C  C79  1  0.76402000  0.71323000  0.03868000  1.0
  C  C80  1  0.22043000  0.23949000  0.15277000  1.0
  C  C81  1  0.77957000  0.76051000  0.84723000  1.0
  C  C82  1  0.14916000  0.26110000  0.24123000  1.0
  C  C83  1  0.85083000  0.73891000  0.75876000  1.0
  S  S84  1  0.84436000  0.98124000  0.24250000  1.0
  S  S85  1  0.15564000  0.01876000  0.75750000  1.0
  S  S86  1  0.74928000  0.08032000  0.03534000  1.0
  S  S87  1  0.25071000  0.91968000  0.96466000  1.0
  S  S88  1  0.82784000  0.20054000  0.81999000  1.0
  S  S89  1  0.17216000  0.79946000  0.18001000  1.0
  S  S90  1  0.68011000  0.52643000  0.77191000  1.0
  S  S91  1  0.31988000  0.47358000  0.22809000  1.0
  S  S92  1  0.77729000  0.41888000  0.97316000  1.0
  S  S93  1  0.22271000  0.58112000  0.02684000  1.0
  S  S94  1  0.71795000  0.28975000  0.18787000  1.0
  S  S95  1  0.28206000  0.71025000  0.81212000  1.0
  S  S96  1  0.50758000  0.09163000  0.84227000  1.0
  S  S97  1  0.49243000  0.90838000  0.15773000  1.0
  S  S98  1  0.34951000  0.16131000  0.99898000  1.0
  S  S99  1  0.65049000  0.83869000  0.00102000  1.0
  S  S100  1  0.13282000  0.33448000  0.04311000  1.0
  S  S101  1  0.86718000  0.66552000  0.95689000  1.0
  N  N102  1  0.99510000  0.09983000  0.07266000  1.0
  N  N103  1  0.00489000  0.90017000  0.92734000  1.0
  N  N104  1  0.99183000  0.15254000  0.97212000  1.0
  N  N105  1  0.00817000  0.84746000  0.02789000  1.0
  N  N106  1  0.53046000  0.39499000  0.94104000  1.0
  N  N107  1  0.46954000  0.60501000  0.05896000  1.0
  N  N108  1  0.54051000  0.33867000  0.04114000  1.0
  N  N109  1  0.45950000  0.66133000  0.95886000  1.0
  N  N110  1  0.32223000  0.28169000  0.81611000  1.0
  N  N111  1  0.67777000  0.71831000  0.18389000  1.0
  N  N112  1  0.23576000  0.33900000  0.86465000  1.0
  N  N113  1  0.76424000  0.66100000  0.13535000  1.0
  O  O114  1  0.89034000  0.90753000  0.44541000  1.0
  O  O115  1  0.10966000  0.09247000  0.55459000  1.0
  O  O116  1  0.10401000  0.96191000  0.43230000  1.0
  O  O117  1  0.89600000  0.03809000  0.56770000  1.0
  O  O118  1  0.86505000  0.29102000  0.61981000  1.0
  O  O119  1  0.13495000  0.70898000  0.38019000  1.0
  O  O120  1  0.02205000  0.40801000  0.58956000  1.0
  O  O121  1  0.97795000  0.59199000  0.41044000  1.0
  O  O122  1  0.74643000  0.54144000  0.57764000  1.0
  O  O123  1  0.25357000  0.45856000  0.42236000  1.0
  O  O124  1  0.60552000  0.42726000  0.57346000  1.0
  O  O125  1  0.39448000  0.57274000  0.42654000  1.0
  O  O126  1  0.73771000  0.13414000  0.38472000  1.0
  O  O127  1  0.26229000  0.86586000  0.61527000  1.0
  O  O128  1  0.54978000  0.04736000  0.40782000  1.0
  O  O129  1  0.45022000  0.95264000  0.59218000  1.0
  O  O130  1  0.59108000  0.13870000  0.56451000  1.0
  O  O131  1  0.40892000  0.86130000  0.43549000  1.0
  O  O132  1  0.63790000  0.99496000  0.70661000  1.0
  O  O133  1  0.36211000  0.00504000  0.29339000  1.0
  O  O134  1  0.05080000  0.34135000  0.22732000  1.0
  O  O135  1  0.94920000  0.65866000  0.77267000  1.0
  O  O136  1  0.19471000  0.19644000  0.32528000  1.0
  O  O137  1  0.80528000  0.80356000  0.67472000  1.0
  O  O138  1  0.66525000  0.59705000  0.37999000  1.0
  O  O139  1  0.33476000  0.40295000  0.62001000  1.0
  O  O140  1  0.87670000  0.48217000  0.28839000  1.0
  O  O141  1  0.12330000  0.51783000  0.71161000  1.0
  O  O142  1  0.02164000  0.31237000  0.43738000  1.0
  O  O143  1  0.97835000  0.68762000  0.56262000  1.0
  O  O144  1  0.70157000  0.32361000  0.43548000  1.0
  O  O145  1  0.29843000  0.67639000  0.56453000  1.0
  O  O146  1  0.64325000  0.79487000  0.53797000  1.0
  O  O147  1  0.35675000  0.20514000  0.46203000  1.0
