# generated using pymatgen
data_NiH32C36(NO4)2
_symmetry_space_group_name_H-M   'P 1'
_cell_length_a   10.99430000
_cell_length_b   11.87460000
_cell_length_c   14.82580000
_cell_angle_alpha   103.53900000
_cell_angle_beta   110.62900000
_cell_angle_gamma   103.40500000
_symmetry_Int_Tables_number   1
_chemical_formula_structural   NiH32C36(NO4)2
_chemical_formula_sum   'Ni2 H64 C72 N4 O16'
_cell_volume   1652.69152992
_cell_formula_units_Z   2
loop_
 _symmetry_equiv_pos_site_id
 _symmetry_equiv_pos_as_xyz
  1  'x, y, z'
loop_
 _atom_site_type_symbol
 _atom_site_label
 _atom_site_symmetry_multiplicity
 _atom_site_fract_x
 _atom_site_fract_y
 _atom_site_fract_z
 _atom_site_occupancy
  Ni  Ni0  1  0.86213000  0.80253000  0.74723000  1.0
  Ni  Ni1  1  0.13788000  0.19748000  0.25277000  1.0
  H  H2  1  0.96493000  0.65953000  0.84316000  1.0
  H  H3  1  0.03507000  0.34049000  0.15683000  1.0
  H  H4  1  0.08268000  0.78606000  0.86221000  1.0
  H  H5  1  0.91732000  0.21396000  0.13778000  1.0
  H  H6  1  0.79439000  0.90601000  0.87921000  1.0
  H  H7  1  0.20562000  0.09400000  0.12080000  1.0
  H  H8  1  0.94920000  0.91145000  0.93353000  1.0
  H  H9  1  0.05080000  0.08853000  0.06648000  1.0
  H  H10  1  0.07469000  0.00035000  0.68869000  1.0
  H  H11  1  0.92532000  0.99966000  0.31131000  1.0
  H  H12  1  0.60899000  0.55032000  0.70069000  1.0
  H  H13  1  0.39102000  0.44969000  0.29932000  1.0
  H  H14  1  0.57675000  0.42417000  0.42495000  1.0
  H  H15  1  0.42324000  0.57582000  0.57505000  1.0
  H  H16  1  0.03875000  0.65922000  0.70551000  1.0
  H  H17  1  0.96124000  0.34078000  0.29449000  1.0
  H  H18  1  0.86397000  0.84194000  0.56250000  1.0
  H  H19  1  0.13603000  0.15805000  0.43750000  1.0
  H  H20  1  0.22135000  0.21946000  0.61835000  1.0
  H  H21  1  0.77866000  0.78054000  0.38165000  1.0
  H  H22  1  0.39010000  0.26552000  0.62591000  1.0
  H  H23  1  0.60992000  0.73448000  0.37410000  1.0
  H  H24  1  0.63112000  0.63072000  0.54835000  1.0
  H  H25  1  0.36887000  0.36927000  0.45165000  1.0
  H  H26  1  0.45445000  0.97001000  0.89881000  1.0
  H  H27  1  0.54556000  0.02998000  0.10118000  1.0
  H  H28  1  0.43101000  0.74429000  0.88295000  1.0
  H  H29  1  0.56897000  0.25571000  0.11704000  1.0
  H  H30  1  0.66623000  0.94559000  0.74273000  1.0
  H  H31  1  0.33377000  0.05441000  0.25728000  1.0
  H  H32  1  0.70056000  0.06627000  0.94879000  1.0
  H  H33  1  0.29945000  0.93372000  0.05120000  1.0
  H  H34  1  0.82530000  0.99502000  0.47914000  1.0
  H  H35  1  0.17469000  0.00497000  0.52085000  1.0
  H  H36  1  0.00148000  0.45485000  0.58893000  1.0
  H  H37  1  0.99851000  0.54514000  0.41107000  1.0
  H  H38  1  0.61641000  0.10302000  0.66553000  1.0
  H  H39  1  0.38359000  0.89697000  0.33447000  1.0
  H  H40  1  0.89627000  0.23369000  0.52287000  1.0
  H  H41  1  0.10373000  0.76631000  0.47715000  1.0
  H  H42  1  0.77070000  0.11874000  0.40574000  1.0
  H  H43  1  0.22932000  0.88126000  0.59427000  1.0
  H  H44  1  0.58504000  0.13215000  0.46536000  1.0
  H  H45  1  0.41496000  0.86784000  0.53463000  1.0
  H  H46  1  0.70863000  0.24607000  0.58257000  1.0
  H  H47  1  0.29135000  0.75392000  0.41743000  1.0
  H  H48  1  0.64609000  0.26133000  0.36237000  1.0
  H  H49  1  0.35391000  0.73866000  0.63763000  1.0
  H  H50  1  0.81700000  0.31098000  0.37613000  1.0
  H  H51  1  0.18301000  0.68902000  0.62388000  1.0
  H  H52  1  0.12118000  0.24115000  0.72111000  1.0
  H  H53  1  0.87882000  0.75885000  0.27889000  1.0
  H  H54  1  0.60385000  0.35756000  0.76315000  1.0
  H  H55  1  0.39615000  0.64244000  0.23685000  1.0
  H  H56  1  0.23721000  0.68046000  0.92505000  1.0
  H  H57  1  0.76278000  0.31954000  0.07494000  1.0
  H  H58  1  0.84141000  0.37509000  0.86098000  1.0
  H  H59  1  0.15858000  0.62490000  0.13901000  1.0
  H  H60  1  0.03563000  0.51758000  0.91059000  1.0
  H  H61  1  0.96436000  0.48242000  0.08940000  1.0
  H  H62  1  0.97525000  0.29749000  0.80184000  1.0
  H  H63  1  0.02476000  0.70251000  0.19815000  1.0
  H  H64  1  0.89442000  0.22493000  0.94995000  1.0
  H  H65  1  0.10559000  0.77507000  0.05006000  1.0
  C  C66  1  0.35467000  0.39772000  0.72923000  1.0
  C  C67  1  0.64534000  0.60229000  0.27078000  1.0
  C  C68  1  0.36868000  0.18528000  0.73744000  1.0
  C  C69  1  0.63133000  0.81473000  0.26256000  1.0
  C  C70  1  0.26432000  0.08967000  0.73457000  1.0
  C  C71  1  0.73568000  0.91033000  0.26543000  1.0
  C  C72  1  0.60868000  0.72152000  0.80063000  1.0
  C  C73  1  0.39133000  0.27850000  0.19938000  1.0
  C  C74  1  0.46098000  0.49346000  0.73433000  1.0
  C  C75  1  0.53903000  0.50655000  0.26568000  1.0
  C  C76  1  0.50927000  0.20103000  0.79795000  1.0
  C  C77  1  0.49073000  0.79897000  0.20204000  1.0
  C  C78  1  0.68079000  0.47276000  0.48617000  1.0
  C  C79  1  0.31920000  0.52723000  0.51383000  1.0
  C  C80  1  0.93748000  0.60417000  0.64212000  1.0
  C  C81  1  0.06252000  0.39582000  0.35788000  1.0
  C  C82  1  0.80885000  0.90146000  0.58280000  1.0
  C  C83  1  0.19114000  0.09853000  0.41719000  1.0
  C  C84  1  0.18208000  0.92068000  0.80080000  1.0
  C  C85  1  0.81791000  0.07932000  0.19919000  1.0
  C  C86  1  0.49024000  0.62020000  0.79129000  1.0
  C  C87  1  0.50976000  0.37982000  0.20871000  1.0
  C  C88  1  0.54080000  0.11956000  0.85403000  1.0
  C  C89  1  0.45921000  0.88043000  0.14597000  1.0
  C  C90  1  0.29467000  0.55493000  0.83106000  1.0
  C  C91  1  0.70532000  0.44507000  0.16893000  1.0
  C  C92  1  0.26617000  0.42826000  0.77430000  1.0
  C  C93  1  0.73383000  0.57175000  0.22569000  1.0
  C  C94  1  0.71793000  0.06547000  0.56562000  1.0
  C  C95  1  0.28207000  0.93453000  0.43438000  1.0
  C  C96  1  0.29502000  0.01422000  0.79670000  1.0
  C  C97  1  0.70497000  0.98577000  0.20330000  1.0
  C  C98  1  0.33119000  0.26481000  0.67228000  1.0
  C  C99  1  0.66882000  0.73521000  0.32772000  1.0
  C  C100  1  0.71009000  0.58816000  0.55485000  1.0
  C  C101  1  0.28989000  0.41183000  0.44515000  1.0
  C  C102  1  0.43148000  0.02941000  0.85389000  1.0
  C  C103  1  0.56852000  0.97059000  0.14611000  1.0
  C  C104  1  0.40822000  0.64829000  0.83929000  1.0
  C  C105  1  0.59177000  0.35171000  0.16070000  1.0
  C  C106  1  0.78404000  0.42034000  0.49499000  1.0
  C  C107  1  0.21595000  0.57966000  0.50501000  1.0
  C  C108  1  0.69861000  0.95878000  0.68332000  1.0
  C  C109  1  0.30139000  0.04122000  0.31668000  1.0
  C  C110  1  0.68056000  0.12997000  0.90790000  1.0
  C  C111  1  0.31944000  0.87002000  0.09210000  1.0
  C  C112  1  0.78632000  0.98817000  0.53642000  1.0
  C  C113  1  0.21368000  0.01182000  0.46358000  1.0
  C  C114  1  0.91553000  0.48950000  0.57598000  1.0
  C  C115  1  0.08447000  0.51049000  0.42402000  1.0
  C  C116  1  0.67093000  0.04655000  0.63929000  1.0
  C  C117  1  0.32908000  0.95344000  0.36071000  1.0
  C  C118  1  0.78644000  0.20032000  0.46773000  1.0
  C  C119  1  0.21357000  0.79968000  0.53228000  1.0
  C  C120  1  0.69486000  0.16450000  0.52095000  1.0
  C  C121  1  0.30514000  0.83549000  0.47905000  1.0
  C  C122  1  0.75482000  0.29710000  0.41943000  1.0
  C  C123  1  0.24517000  0.70289000  0.58057000  1.0
  C  C124  1  0.14750000  0.33774000  0.76471000  1.0
  C  C125  1  0.85250000  0.66226000  0.23529000  1.0
  C  C126  1  0.62272000  0.29363000  0.80369000  1.0
  C  C127  1  0.37728000  0.70637000  0.19631000  1.0
  C  C128  1  0.20974000  0.58443000  0.87932000  1.0
  C  C129  1  0.79026000  0.41557000  0.12068000  1.0
  C  C130  1  0.75741000  0.30230000  0.85814000  1.0
  C  C131  1  0.24259000  0.69769000  0.14187000  1.0
  C  C132  1  0.09729000  0.49381000  0.87010000  1.0
  C  C133  1  0.90270000  0.50619000  0.12988000  1.0
  C  C134  1  0.06507000  0.36971000  0.81072000  1.0
  C  C135  1  0.93493000  0.63029000  0.18927000  1.0
  C  C136  1  0.78773000  0.21878000  0.90908000  1.0
  C  C137  1  0.21228000  0.78122000  0.09092000  1.0
  N  N138  1  0.83630000  0.65326000  0.63286000  1.0
  N  N139  1  0.16369000  0.34673000  0.36714000  1.0
  N  N140  1  0.76965000  0.88831000  0.65721000  1.0
  N  N141  1  0.23035000  0.11169000  0.34279000  1.0
  O  O142  1  0.98552000  0.74822000  0.86023000  1.0
  O  O143  1  0.01449000  0.25180000  0.13976000  1.0
  O  O144  1  0.67402000  0.68913000  0.74628000  1.0
  O  O145  1  0.32600000  0.31088000  0.25374000  1.0
  O  O146  1  0.89157000  0.94019000  0.88332000  1.0
  O  O147  1  0.10844000  0.05983000  0.11671000  1.0
  O  O148  1  0.05601000  0.91008000  0.74526000  1.0
  O  O149  1  0.94398000  0.08992000  0.25475000  1.0
  O  O150  1  0.13026000  0.06546000  0.67011000  1.0
  O  O151  1  0.86974000  0.93454000  0.32990000  1.0
  O  O152  1  0.53844000  0.46614000  0.68390000  1.0
  O  O153  1  0.46156000  0.53387000  0.31611000  1.0
  O  O154  1  0.21133000  0.85634000  0.85703000  1.0
  O  O155  1  0.78866000  0.14366000  0.14297000  1.0
  O  O156  1  0.64118000  0.83087000  0.85782000  1.0
  O  O157  1  0.35883000  0.16914000  0.14219000  1.0
