# generated using pymatgen
data_Zn3H18C28(NO3)4
_symmetry_space_group_name_H-M   'P 1'
_cell_length_a   10.76640000
_cell_length_b   14.93516459
_cell_length_c   21.87990000
_cell_angle_alpha   89.99992791
_cell_angle_beta   89.99990000
_cell_angle_gamma   68.88223657
_symmetry_Int_Tables_number   1
_chemical_formula_structural   Zn3H18C28(NO3)4
_chemical_formula_sum   'Zn12 H72 C112 N16 O48'
_cell_volume   3281.96459865
_cell_formula_units_Z   4
loop_
 _symmetry_equiv_pos_site_id
 _symmetry_equiv_pos_as_xyz
  1  'x, y, z'
loop_
 _atom_site_type_symbol
 _atom_site_label
 _atom_site_symmetry_multiplicity
 _atom_site_fract_x
 _atom_site_fract_y
 _atom_site_fract_z
 _atom_site_occupancy
  Zn  Zn0  1  0.62699000  0.45897000  0.13334000  1.0
  Zn  Zn1  1  0.37301000  0.54103000  0.63334000  1.0
  Zn  Zn2  1  0.08594000  0.54096000  0.36668000  1.0
  Zn  Zn3  1  0.91406000  0.45904000  0.86668000  1.0
  Zn  Zn4  1  0.75948000  0.93281000  0.10811000  1.0
  Zn  Zn5  1  0.24052000  0.06719000  0.60810000  1.0
  Zn  Zn6  1  0.69207000  0.06712000  0.39195000  1.0
  Zn  Zn7  1  0.30793000  0.93288000  0.89195000  1.0
  Zn  Zn8  1  0.64133000  0.00003000  0.25000000  1.0
  Zn  Zn9  1  0.35868000  0.99996000  0.75000000  1.0
  Zn  Zn10  1  0.75964000  0.48044000  0.99995000  1.0
  Zn  Zn11  1  0.24035000  0.51957000  0.49995000  1.0
  H  H12  1  0.60849000  0.67443000  0.12620000  1.0
  H  H13  1  0.39150000  0.32557000  0.62620000  1.0
  H  H14  1  0.28269000  0.32537000  0.37379000  1.0
  H  H15  1  0.71732000  0.67462000  0.87379000  1.0
  H  H16  1  0.71252000  0.58809000  0.34192000  1.0
  H  H17  1  0.28747000  0.41191000  0.84192000  1.0
  H  H18  1  0.30060000  0.41198000  0.15815000  1.0
  H  H19  1  0.69941000  0.58802000  0.65815000  1.0
  H  H20  1  0.67049000  0.75595000  0.30980000  1.0
  H  H21  1  0.32950000  0.24405000  0.80980000  1.0
  H  H22  1  0.42628000  0.24406000  0.19018000  1.0
  H  H23  1  0.57372000  0.75594000  0.69018000  1.0
  H  H24  1  0.66084000  0.26203000  0.19053000  1.0
  H  H25  1  0.33916000  0.73797000  0.69053000  1.0
  H  H26  1  0.92275000  0.73787000  0.30948000  1.0
  H  H27  1  0.07725000  0.26212000  0.80948000  1.0
  H  H28  1  0.81986000  0.26472000  0.37036000  1.0
  H  H29  1  0.18015000  0.73527000  0.87036000  1.0
  H  H30  1  0.08453000  0.73521000  0.12966000  1.0
  H  H31  1  0.91546000  0.26479000  0.62966000  1.0
  H  H32  1  0.78492000  0.43845000  0.35478000  1.0
  H  H33  1  0.21508000  0.56155000  0.85478000  1.0
  H  H34  1  0.22338000  0.56150000  0.14527000  1.0
  H  H35  1  0.77662000  0.43850000  0.64527000  1.0
  H  H36  1  0.02138000  0.50364000  0.14003000  1.0
  H  H37  1  0.97861000  0.49637000  0.64003000  1.0
  H  H38  1  0.52501000  0.49677000  0.35989000  1.0
  H  H39  1  0.47498000  0.50323000  0.85989000  1.0
  H  H40  1  0.00825000  0.48747000  0.06027000  1.0
  H  H41  1  0.99175000  0.51253000  0.56027000  1.0
  H  H42  1  0.49576000  0.51274000  0.43966000  1.0
  H  H43  1  0.50424000  0.48726000  0.93966000  1.0
  H  H44  1  0.11450000  0.39039000  0.10665000  1.0
  H  H45  1  0.88550000  0.60961000  0.60664000  1.0
  H  H46  1  0.50481000  0.60997000  0.39338000  1.0
  H  H47  1  0.49518000  0.39004000  0.89338000  1.0
  H  H48  1  0.94929000  0.90430000  0.89047000  1.0
  H  H49  1  0.05071000  0.09570000  0.39046000  1.0
  H  H50  1  0.85359000  0.09572000  0.60947000  1.0
  H  H51  1  0.14641000  0.90428000  0.10947000  1.0
  H  H52  1  0.97414000  0.73346000  0.87248000  1.0
  H  H53  1  0.02586000  0.26654000  0.37248000  1.0
  H  H54  1  0.70767000  0.26658000  0.62739000  1.0
  H  H55  1  0.29233000  0.73342000  0.12739000  1.0
  H  H56  1  0.82208000  0.72757000  0.05384000  1.0
  H  H57  1  0.17792000  0.27243000  0.55384000  1.0
  H  H58  1  0.54931000  0.27216000  0.44614000  1.0
  H  H59  1  0.45069000  0.72784000  0.94614000  1.0
  H  H60  1  0.76451000  0.23250000  0.92946000  1.0
  H  H61  1  0.23548000  0.76750000  0.42946000  1.0
  H  H62  1  0.99722000  0.76743000  0.57054000  1.0
  H  H63  1  0.00278000  0.23257000  0.07053000  1.0
  H  H64  1  0.85636000  0.05898000  0.90217000  1.0
  H  H65  1  0.14363000  0.94102000  0.40217000  1.0
  H  H66  1  0.91537000  0.94096000  0.59785000  1.0
  H  H67  1  0.08463000  0.05905000  0.09785000  1.0
  H  H68  1  0.69802000  0.15034000  0.11228000  1.0
  H  H69  1  0.30198000  0.84966000  0.61228000  1.0
  H  H70  1  0.84891000  0.84953000  0.38768000  1.0
  H  H71  1  0.15109000  0.15047000  0.88768000  1.0
  H  H72  1  0.38336000  0.98130000  0.11269000  1.0
  H  H73  1  0.61665000  0.01870000  0.61270000  1.0
  H  H74  1  0.36463000  0.01851000  0.38729000  1.0
  H  H75  1  0.63536000  0.98150000  0.88728000  1.0
  H  H76  1  0.52556000  0.94148000  0.06540000  1.0
  H  H77  1  0.47445000  0.05852000  0.56541000  1.0
  H  H78  1  0.46675000  0.05851000  0.43463000  1.0
  H  H79  1  0.53327000  0.94148000  0.93462000  1.0
  H  H80  1  0.38364000  0.04466000  0.04357000  1.0
  H  H81  1  0.61637000  0.95534000  0.54358000  1.0
  H  H82  1  0.42813000  0.95527000  0.45645000  1.0
  H  H83  1  0.57188000  0.04473000  0.95645000  1.0
  C  C84  1  0.02042000  0.45171000  0.10463000  1.0
  C  C85  1  0.97959000  0.54829000  0.60463000  1.0
  C  C86  1  0.47210000  0.54860000  0.39533000  1.0
  C  C87  1  0.52789000  0.45141000  0.89533000  1.0
  C  C88  1  0.90617000  0.41931000  0.11906000  1.0
  C  C89  1  0.09382000  0.58070000  0.61906000  1.0
  C  C90  1  0.32547000  0.58094000  0.38090000  1.0
  C  C91  1  0.67453000  0.41906000  0.88090000  1.0
  C  C92  1  0.63554000  0.82304000  0.19259000  1.0
  C  C93  1  0.36446000  0.17695000  0.69259000  1.0
  C  C94  1  0.45828000  0.17682000  0.30740000  1.0
  C  C95  1  0.54172000  0.82318000  0.80740000  1.0
  C  C96  1  0.64134000  0.72673000  0.21467000  1.0
  C  C97  1  0.35867000  0.27326000  0.71467000  1.0
  C  C98  1  0.36779000  0.27314000  0.28531000  1.0
  C  C99  1  0.63220000  0.72686000  0.78532000  1.0
  C  C100  1  0.62757000  0.65834000  0.17466000  1.0
  C  C101  1  0.37244000  0.34165000  0.67465000  1.0
  C  C102  1  0.28569000  0.34153000  0.32535000  1.0
  C  C103  1  0.71431000  0.65847000  0.82535000  1.0
  C  C104  1  0.67255000  0.54416000  0.25162000  1.0
  C  C105  1  0.32745000  0.45584000  0.75162000  1.0
  C  C106  1  0.21668000  0.45579000  0.24843000  1.0
  C  C107  1  0.78333000  0.54421000  0.74843000  1.0
  C  C108  1  0.68722000  0.60905000  0.29458000  1.0
  C  C109  1  0.31279000  0.39094000  0.79457000  1.0
  C  C110  1  0.29622000  0.39094000  0.20547000  1.0
  C  C111  1  0.70378000  0.60906000  0.70548000  1.0
  C  C112  1  0.66702000  0.70243000  0.27637000  1.0
  C  C113  1  0.33297000  0.29757000  0.77637000  1.0
  C  C114  1  0.36930000  0.29753000  0.22363000  1.0
  C  C115  1  0.63070000  0.70247000  0.72364000  1.0
  C  C116  1  0.69684000  0.44245000  0.26513000  1.0
  C  C117  1  0.30316000  0.55755000  0.76513000  1.0
  C  C118  1  0.13925000  0.55750000  0.23492000  1.0
  C  C119  1  0.86075000  0.44250000  0.73492000  1.0
  C  C120  1  0.68822000  0.29883000  0.22813000  1.0
  C  C121  1  0.31179000  0.70117000  0.72813000  1.0
  C  C122  1  0.98699000  0.70108000  0.27189000  1.0
  C  C123  1  0.01301000  0.29892000  0.77189000  1.0
  C  C124  1  0.74705000  0.24974000  0.28114000  1.0
  C  C125  1  0.25295000  0.75026000  0.78115000  1.0
  C  C126  1  0.99681000  0.75018000  0.21889000  1.0
  C  C127  1  0.00318000  0.24982000  0.71889000  1.0
  C  C128  1  0.77860000  0.30145000  0.32793000  1.0
  C  C129  1  0.22140000  0.69855000  0.82793000  1.0
  C  C130  1  0.08002000  0.69847000  0.17210000  1.0
  C  C131  1  0.91998000  0.30153000  0.67210000  1.0
  C  C132  1  0.75573000  0.39822000  0.31969000  1.0
  C  C133  1  0.24427000  0.60178000  0.81969000  1.0
  C  C134  1  0.15393000  0.60171000  0.18035000  1.0
  C  C135  1  0.84606000  0.39829000  0.68035000  1.0
  C  C136  1  0.76513000  0.14631000  0.28918000  1.0
  C  C137  1  0.23488000  0.85368000  0.78918000  1.0
  C  C138  1  0.91158000  0.85363000  0.21087000  1.0
  C  C139  1  0.08842000  0.14637000  0.71087000  1.0
  C  C140  1  0.90463000  0.61507000  0.95247000  1.0
  C  C141  1  0.09537000  0.38493000  0.45247000  1.0
  C  C142  1  0.51964000  0.38486000  0.54747000  1.0
  C  C143  1  0.48036000  0.61514000  0.04746000  1.0
  C  C144  1  0.91946000  0.86446000  0.92566000  1.0
  C  C145  1  0.08055000  0.13554000  0.42566000  1.0
  C  C146  1  0.78384000  0.13551000  0.57429000  1.0
  C  C147  1  0.21616000  0.86449000  0.07429000  1.0
  C  C148  1  0.93658000  0.76833000  0.91596000  1.0
  C  C149  1  0.06343000  0.23166000  0.41596000  1.0
  C  C150  1  0.70486000  0.23162000  0.58396000  1.0
  C  C151  1  0.29514000  0.76838000  0.08396000  1.0
  C  C152  1  0.90170000  0.71639000  0.96165000  1.0
  C  C153  1  0.09830000  0.28361000  0.46165000  1.0
  C  C154  1  0.61799000  0.28353000  0.53827000  1.0
  C  C155  1  0.38201000  0.71648000  0.03827000  1.0
  C  C156  1  0.85091000  0.76436000  0.01649000  1.0
  C  C157  1  0.14909000  0.23564000  0.51649000  1.0
  C  C158  1  0.61499000  0.23548000  0.48350000  1.0
  C  C159  1  0.38500000  0.76453000  0.98350000  1.0
  C  C160  1  0.86288000  0.90849000  0.98065000  1.0
  C  C161  1  0.13711000  0.09151000  0.48065000  1.0
  C  C162  1  0.77126000  0.09139000  0.51933000  1.0
  C  C163  1  0.22874000  0.90861000  0.01933000  1.0
  C  C164  1  0.77052000  0.17794000  0.96370000  1.0
  C  C165  1  0.22948000  0.82206000  0.46370000  1.0
  C  C166  1  0.94873000  0.82198000  0.53629000  1.0
  C  C167  1  0.05127000  0.17802000  0.03629000  1.0
  C  C168  1  0.82237000  0.08081000  0.94859000  1.0
  C  C169  1  0.17762000  0.91919000  0.44859000  1.0
  C  C170  1  0.90328000  0.91912000  0.55142000  1.0
  C  C171  1  0.09672000  0.08089000  0.05142000  1.0
  C  C172  1  0.82510000  0.01275000  0.99309000  1.0
  C  C173  1  0.17489000  0.98725000  0.49309000  1.0
  C  C174  1  0.83792000  0.98715000  0.50691000  1.0
  C  C175  1  0.16208000  0.01285000  0.00691000  1.0
  C  C176  1  0.73306000  0.13367000  0.06544000  1.0
  C  C177  1  0.26694000  0.86633000  0.56544000  1.0
  C  C178  1  0.86712000  0.86622000  0.43453000  1.0
  C  C179  1  0.13288000  0.13378000  0.93453000  1.0
  C  C180  1  0.72458000  0.20575000  0.02325000  1.0
  C  C181  1  0.27542000  0.79425000  0.52325000  1.0
  C  C182  1  0.93069000  0.79416000  0.47674000  1.0
  C  C183  1  0.06931000  0.20584000  0.97674000  1.0
  C  C184  1  0.67398000  0.31013000  0.04175000  1.0
  C  C185  1  0.32601000  0.68987000  0.54174000  1.0
  C  C186  1  0.98441000  0.68980000  0.45827000  1.0
  C  C187  1  0.01558000  0.31020000  0.95826000  1.0
  C  C188  1  0.44514000  0.00594000  0.08182000  1.0
  C  C189  1  0.55486000  0.99406000  0.58183000  1.0
  C  C190  1  0.45096000  0.99398000  0.41821000  1.0
  C  C191  1  0.54905000  0.00602000  0.91821000  1.0
  C  C192  1  0.49413000  0.07384000  0.11784000  1.0
  C  C193  1  0.50587000  0.92616000  0.61784000  1.0
  C  C194  1  0.56792000  0.92607000  0.38225000  1.0
  C  C195  1  0.43207000  0.07393000  0.88225000  1.0
  N  N196  1  0.66281000  0.39258000  0.22067000  1.0
  N  N197  1  0.33719000  0.60742000  0.72067000  1.0
  N  N198  1  0.05533000  0.60734000  0.27936000  1.0
  N  N199  1  0.94467000  0.39266000  0.77936000  1.0
  N  N200  1  0.63776000  0.57102000  0.19335000  1.0
  N  N201  1  0.36224000  0.42898000  0.69334000  1.0
  N  N202  1  0.20869000  0.42889000  0.30670000  1.0
  N  N203  1  0.79132000  0.57110000  0.80670000  1.0
  N  N204  1  0.78124000  0.04047000  0.05040000  1.0
  N  N205  1  0.21875000  0.95953000  0.55040000  1.0
  N  N206  1  0.82193000  0.95942000  0.44959000  1.0
  N  N207  1  0.17807000  0.04058000  0.94958000  1.0
  N  N208  1  0.83131000  0.85715000  0.02531000  1.0
  N  N209  1  0.16869000  0.14285000  0.52531000  1.0
  N  N210  1  0.68820000  0.14266000  0.47471000  1.0
  N  N211  1  0.31180000  0.85734000  0.97471000  1.0
  O  O212  1  0.91834000  0.35284000  0.15508000  1.0
  O  O213  1  0.08166000  0.64717000  0.65507000  1.0
  O  O214  1  0.27113000  0.64745000  0.34491000  1.0
  O  O215  1  0.72886000  0.35257000  0.84491000  1.0
  O  O216  1  0.79033000  0.47080000  0.09348000  1.0
  O  O217  1  0.20967000  0.52920000  0.59348000  1.0
  O  O218  1  0.26117000  0.52937000  0.40645000  1.0
  O  O219  1  0.73883000  0.47063000  0.90644000  1.0
  O  O220  1  0.69773000  0.82284000  0.14270000  1.0
  O  O221  1  0.30227000  0.17716000  0.64270000  1.0
  O  O222  1  0.52020000  0.17707000  0.35730000  1.0
  O  O223  1  0.47979000  0.82293000  0.85730000  1.0
  O  O224  1  0.57418000  0.89347000  0.22680000  1.0
  O  O225  1  0.42583000  0.10652000  0.72680000  1.0
  O  O226  1  0.46747000  0.10634000  0.27320000  1.0
  O  O227  1  0.53253000  0.89366000  0.77320000  1.0
  O  O228  1  0.81616000  0.10682000  0.34004000  1.0
  O  O229  1  0.18385000  0.89318000  0.84003000  1.0
  O  O230  1  0.92323000  0.89317000  0.16004000  1.0
  O  O231  1  0.07677000  0.10683000  0.66003000  1.0
  O  O232  1  0.72338000  0.10752000  0.24664000  1.0
  O  O233  1  0.27663000  0.89247000  0.74664000  1.0
  O  O234  1  0.83088000  0.89237000  0.25336000  1.0
  O  O235  1  0.16911000  0.10763000  0.75336000  1.0
  O  O236  1  0.83602000  0.58970000  0.99082000  1.0
  O  O237  1  0.16398000  0.41030000  0.49082000  1.0
  O  O238  1  0.42574000  0.41025000  0.50907000  1.0
  O  O239  1  0.57426000  0.58975000  0.00907000  1.0
  O  O240  1  0.96971000  0.56685000  0.90704000  1.0
  O  O241  1  0.03029000  0.43315000  0.40704000  1.0
  O  O242  1  0.53638000  0.43300000  0.59296000  1.0
  O  O243  1  0.46362000  0.56700000  0.09296000  1.0
  O  O244  1  0.68403000  0.36787000  0.00184000  1.0
  O  O245  1  0.31597000  0.63213000  0.50184000  1.0
  O  O246  1  0.05215000  0.63205000  0.49817000  1.0
  O  O247  1  0.94785000  0.36795000  0.99817000  1.0
  O  O248  1  0.62832000  0.33182000  0.09586000  1.0
  O  O249  1  0.37168000  0.66818000  0.59586000  1.0
  O  O250  1  0.96032000  0.66811000  0.40416000  1.0
  O  O251  1  0.03967000  0.33189000  0.90416000  1.0
  O  O252  1  0.60665000  0.03498000  0.14868000  1.0
  O  O253  1  0.39334000  0.96502000  0.64868000  1.0
  O  O254  1  0.64162000  0.96492000  0.35141000  1.0
  O  O255  1  0.35837000  0.03508000  0.85141000  1.0
  O  O256  1  0.42852000  0.16078000  0.11760000  1.0
  O  O257  1  0.57147000  0.83922000  0.61760000  1.0
  O  O258  1  0.58926000  0.83913000  0.38249000  1.0
  O  O259  1  0.41072000  0.16087000  0.88250000  1.0
