# generated using pymatgen
data_ErH14C18(NO3)2
_symmetry_space_group_name_H-M   'P 1'
_cell_length_a   7.33339000
_cell_length_b   9.99552000
_cell_length_c   12.89970000
_cell_angle_alpha   112.66100000
_cell_angle_beta   91.61010000
_cell_angle_gamma   97.43340000
_symmetry_Int_Tables_number   1
_chemical_formula_structural   ErH14C18(NO3)2
_chemical_formula_sum   'Er2 H28 C36 N4 O12'
_cell_volume   862.08703041
_cell_formula_units_Z   2
loop_
 _symmetry_equiv_pos_site_id
 _symmetry_equiv_pos_as_xyz
  1  'x, y, z'
loop_
 _atom_site_type_symbol
 _atom_site_label
 _atom_site_symmetry_multiplicity
 _atom_site_fract_x
 _atom_site_fract_y
 _atom_site_fract_z
 _atom_site_occupancy
  Er  Er0  1  0.71010000  0.57298000  0.68852000  1.0
  Er  Er1  1  0.28990000  0.42702000  0.31148000  1.0
  H  H2  1  0.25174000  0.31836000  0.68880000  1.0
  H  H3  1  0.74826000  0.68163000  0.31120000  1.0
  H  H4  1  0.30561000  0.19358000  0.55709000  1.0
  H  H5  1  0.69439000  0.80642000  0.44290000  1.0
  H  H6  1  0.98674000  0.17541000  0.47160000  1.0
  H  H7  1  0.01326000  0.82459000  0.52840000  1.0
  H  H8  1  0.97073000  0.13247000  0.59219000  1.0
  H  H9  1  0.02927000  0.86753000  0.40781000  1.0
  H  H10  1  0.49982000  0.66759000  0.05381000  1.0
  H  H11  1  0.50017000  0.33241000  0.94619000  1.0
  H  H12  1  0.32549000  0.54162000  0.95758000  1.0
  H  H13  1  0.67450000  0.45838000  0.04242000  1.0
  H  H14  1  0.38766000  0.73527000  0.60845000  1.0
  H  H15  1  0.61234000  0.26474000  0.39155000  1.0
  H  H16  1  0.32171000  0.97624000  0.61434000  1.0
  H  H17  1  0.67830000  0.02376000  0.38566000  1.0
  H  H18  1  0.55093000  0.20483000  0.72387000  1.0
  H  H19  1  0.44907000  0.79517000  0.27613000  1.0
  H  H20  1  0.84434000  0.31508000  0.84350000  1.0
  H  H21  1  0.15567000  0.68492000  0.15651000  1.0
  H  H22  1  0.13119000  0.28378000  0.93500000  1.0
  H  H23  1  0.86881000  0.71622000  0.06501000  1.0
  H  H24  1  0.32632000  0.11913000  0.97468000  1.0
  H  H25  1  0.67369000  0.88087000  0.02532000  1.0
  H  H26  1  0.37893000  0.85951000  0.93663000  1.0
  H  H27  1  0.62107000  0.14049000  0.06337000  1.0
  H  H28  1  0.13782000  0.65237000  0.82016000  1.0
  H  H29  1  0.86218000  0.34763000  0.17984000  1.0
  C  C30  1  0.28660000  0.40467000  0.56125000  1.0
  C  C31  1  0.71339000  0.59533000  0.43875000  1.0
  C  C32  1  0.22050000  0.27998000  0.59742000  1.0
  C  C33  1  0.77949000  0.72002000  0.40258000  1.0
  C  C34  1  0.01612000  0.22113000  0.56370000  1.0
  C  C35  1  0.98388000  0.77887000  0.43630000  1.0
  C  C36  1  0.89691000  0.34001000  0.61286000  1.0
  C  C37  1  0.10308000  0.65998000  0.38713000  1.0
  C  C38  1  0.57401000  0.57048000  0.88453000  1.0
  C  C39  1  0.42599000  0.42952000  0.11548000  1.0
  C  C40  1  0.47469000  0.56031000  0.98272000  1.0
  C  C41  1  0.52531000  0.43970000  0.01728000  1.0
  C  C42  1  0.48414000  0.83506000  0.65468000  1.0
  C  C43  1  0.51586000  0.16494000  0.34532000  1.0
  C  C44  1  0.44741000  0.97185000  0.65915000  1.0
  C  C45  1  0.55259000  0.02815000  0.34085000  1.0
  C  C46  1  0.57236000  0.09643000  0.71850000  1.0
  C  C47  1  0.42765000  0.90358000  0.28150000  1.0
  C  C48  1  0.73542000  0.08301000  0.77276000  1.0
  C  C49  1  0.26459000  0.91699000  0.22724000  1.0
  C  C50  1  0.87132000  0.20715000  0.83617000  1.0
  C  C51  1  0.12868000  0.79285000  0.16383000  1.0
  C  C52  1  0.02853000  0.18929000  0.88558000  1.0
  C  C53  1  0.97147000  0.81072000  0.11442000  1.0
  C  C54  1  0.06375000  0.04677000  0.87389000  1.0
  C  C55  1  0.93625000  0.95324000  0.12612000  1.0
  C  C56  1  0.22636000  0.02436000  0.92227000  1.0
  C  C57  1  0.77364000  0.97565000  0.07773000  1.0
  C  C58  1  0.25390000  0.88336000  0.90417000  1.0
  C  C59  1  0.74610000  0.11664000  0.09583000  1.0
  C  C60  1  0.11817000  0.76536000  0.83899000  1.0
  C  C61  1  0.88182000  0.23464000  0.16101000  1.0
  C  C62  1  0.93219000  0.92119000  0.81087000  1.0
  C  C63  1  0.06782000  0.07881000  0.18913000  1.0
  C  C64  1  0.76377000  0.93995000  0.76109000  1.0
  C  C65  1  0.23623000  0.06005000  0.23891000  1.0
  N  N66  1  0.63794000  0.81883000  0.70315000  1.0
  N  N67  1  0.36206000  0.18117000  0.29685000  1.0
  N  N68  1  0.96066000  0.78262000  0.79451000  1.0
  N  N69  1  0.03934000  0.21738000  0.20549000  1.0
  O  O70  1  0.41987000  0.50174000  0.62009000  1.0
  O  O71  1  0.58013000  0.49826000  0.37991000  1.0
  O  O72  1  0.20901000  0.40420000  0.47193000  1.0
  O  O73  1  0.79099000  0.59580000  0.52807000  1.0
  O  O74  1  0.97244000  0.46535000  0.68628000  1.0
  O  O75  1  0.02756000  0.53465000  0.31372000  1.0
  O  O76  1  0.72593000  0.31681000  0.58089000  1.0
  O  O77  1  0.27407000  0.68318000  0.41911000  1.0
  O  O78  1  0.64689000  0.46201000  0.82009000  1.0
  O  O79  1  0.35311000  0.53799000  0.17991000  1.0
  O  O80  1  0.58119000  0.68725000  0.86548000  1.0
  O  O81  1  0.41881000  0.31275000  0.13452000  1.0
