# generated using pymatgen
data_FeH14C20(N5Cl)2
_symmetry_space_group_name_H-M   'P 1'
_cell_length_a   7.46795000
_cell_length_b   7.99248000
_cell_length_c   9.14477000
_cell_angle_alpha   112.93500000
_cell_angle_beta   96.61510000
_cell_angle_gamma   103.87600000
_symmetry_Int_Tables_number   1
_chemical_formula_structural   FeH14C20(N5Cl)2
_chemical_formula_sum   'Fe1 H14 C20 N10 Cl2'
_cell_volume   474.53369405
_cell_formula_units_Z   1
loop_
 _symmetry_equiv_pos_site_id
 _symmetry_equiv_pos_as_xyz
  1  'x, y, z'
loop_
 _atom_site_type_symbol
 _atom_site_label
 _atom_site_symmetry_multiplicity
 _atom_site_fract_x
 _atom_site_fract_y
 _atom_site_fract_z
 _atom_site_occupancy
  Fe  Fe0  1  0.00001000  0.50003000  0.50000000  1.0
  H  H1  1  0.59983000  0.71748000  0.33244000  1.0
  H  H2  1  0.40014000  0.28256000  0.66752000  1.0
  H  H3  1  0.40505000  0.57190000  0.48135000  1.0
  H  H4  1  0.59495000  0.42810000  0.51860000  1.0
  H  H5  1  0.98967000  0.80717000  0.39486000  1.0
  H  H6  1  0.01035000  0.19290000  0.60522000  1.0
  H  H7  1  0.06610000  0.45320000  0.12597000  1.0
  H  H8  1  0.93406000  0.54687000  0.87400000  1.0
  H  H9  1  0.20474000  0.34162000  0.88270000  1.0
  H  H10  1  0.79536000  0.65830000  0.11726000  1.0
  H  H11  1  0.33364000  0.06284000  0.82409000  1.0
  H  H12  1  0.66627000  0.93695000  0.17586000  1.0
  H  H13  1  0.32694000  0.90789000  0.01529000  1.0
  H  H14  1  0.67293000  0.09200000  0.98475000  1.0
  C  C15  1  0.46626000  0.74628000  0.35016000  1.0
  C  C16  1  0.53372000  0.25374000  0.64983000  1.0
  C  C17  1  0.35672000  0.65907000  0.42960000  1.0
  C  C18  1  0.64328000  0.34094000  0.57038000  1.0
  C  C19  1  0.12864000  0.79193000  0.38506000  1.0
  C  C20  1  0.87136000  0.20813000  0.61498000  1.0
  C  C21  1  0.24990000  0.89436000  0.32201000  1.0
  C  C22  1  0.75008000  0.10569000  0.67802000  1.0
  C  C23  1  0.19503000  0.04633000  0.29677000  1.0
  C  C24  1  0.80493000  0.95371000  0.70326000  1.0
  C  C25  1  0.13617000  0.25450000  0.20927000  1.0
  C  C26  1  0.86385000  0.74553000  0.79072000  1.0
  C  C27  1  0.13005000  0.33928000  0.10055000  1.0
  C  C28  1  0.87005000  0.66073000  0.89943000  1.0
  C  C29  1  0.20347000  0.27282000  0.96506000  1.0
  C  C30  1  0.79659000  0.72709000  0.03490000  1.0
  C  C31  1  0.27674000  0.11666000  0.93157000  1.0
  C  C32  1  0.72323000  0.88321000  0.06841000  1.0
  C  C33  1  0.27848000  0.03114000  0.03492000  1.0
  C  C34  1  0.72146000  0.96878000  0.96510000  1.0
  N  N35  1  0.41593000  0.86515000  0.29509000  1.0
  N  N36  1  0.58405000  0.13490000  0.70493000  1.0
  N  N37  1  0.12075000  0.15930000  0.40338000  1.0
  N  N38  1  0.87923000  0.84076000  0.59665000  1.0
  N  N39  1  0.08380000  0.28873000  0.35331000  1.0
  N  N40  1  0.91620000  0.71133000  0.64669000  1.0
  N  N41  1  0.21160000  0.10251000  0.17304000  1.0
  N  N42  1  0.78839000  0.89751000  0.82699000  1.0
  N  N43  1  0.18023000  0.67192000  0.43955000  1.0
  N  N44  1  0.81977000  0.32811000  0.56047000  1.0
  Cl  Cl45  1  0.23772000  0.56244000  0.71872000  1.0
  Cl  Cl46  1  0.76230000  0.43760000  0.28129000  1.0
