# generated using pymatgen
data_CdH13C16(NO2)3
_symmetry_space_group_name_H-M   'P 1'
_cell_length_a   8.84693000
_cell_length_b   9.95939911
_cell_length_c   10.79380000
_cell_angle_alpha   71.18845088
_cell_angle_beta   84.41250000
_cell_angle_gamma   64.01961515
_symmetry_Int_Tables_number   1
_chemical_formula_structural   CdH13C16(NO2)3
_chemical_formula_sum   'Cd2 H26 C32 N6 O12'
_cell_volume   808.19017969
_cell_formula_units_Z   2
loop_
 _symmetry_equiv_pos_site_id
 _symmetry_equiv_pos_as_xyz
  1  'x, y, z'
loop_
 _atom_site_type_symbol
 _atom_site_label
 _atom_site_symmetry_multiplicity
 _atom_site_fract_x
 _atom_site_fract_y
 _atom_site_fract_z
 _atom_site_occupancy
  Cd  Cd0  1  0.81663000  0.43822000  0.52810000  1.0
  Cd  Cd1  1  0.18337000  0.56178000  0.47189000  1.0
  H  H2  1  0.05374000  0.01731000  0.63885000  1.0
  H  H3  1  0.94626000  0.98269000  0.36115000  1.0
  H  H4  1  0.81170000  0.20363000  0.43615000  1.0
  H  H5  1  0.18830000  0.79637000  0.56385000  1.0
  H  H6  1  0.62264000  0.33683000  0.42342000  1.0
  H  H7  1  0.37736000  0.66317000  0.57658000  1.0
  H  H8  1  0.45065000  0.76173000  0.32414000  1.0
  H  H9  1  0.54935000  0.23827000  0.67586000  1.0
  H  H10  1  0.96284000  0.58002000  0.23668000  1.0
  H  H11  1  0.03716000  0.41998000  0.76332000  1.0
  H  H12  1  0.84342000  0.60067000  0.95451000  1.0
  H  H13  1  0.15658000  0.39933000  0.04549000  1.0
  H  H14  1  0.98222000  0.67160000  0.74611000  1.0
  H  H15  1  0.01777000  0.32841000  0.25389000  1.0
  H  H16  1  0.91396000  0.09721000  0.81531000  1.0
  H  H17  1  0.08604000  0.90279000  0.18469000  1.0
  H  H18  1  0.77535000  0.02632000  0.02155000  1.0
  H  H19  1  0.22465000  0.97368000  0.97845000  1.0
  H  H20  1  0.32492000  0.65181000  0.79140000  1.0
  H  H21  1  0.67509000  0.34819000  0.20860000  1.0
  H  H22  1  0.80219000  0.32032000  0.99645000  1.0
  H  H23  1  0.19781000  0.67968000  0.00355000  1.0
  H  H24  1  0.35625000  0.23773000  0.30983000  1.0
  H  H25  1  0.64375000  0.76227000  0.69017000  1.0
  H  H26  1  0.34887000  0.95236000  0.70439000  1.0
  H  H27  1  0.65113000  0.04764000  0.29562000  1.0
  C  C28  1  0.56588000  0.74065000  0.27167000  1.0
  C  C29  1  0.43411000  0.25935000  0.72833000  1.0
  C  C30  1  0.82648000  0.64277000  0.23067000  1.0
  C  C31  1  0.17352000  0.35723000  0.76933000  1.0
  C  C32  1  0.80453000  0.80827000  0.00070000  1.0
  C  C33  1  0.19546000  0.19174000  0.99931000  1.0
  C  C34  1  0.86109000  0.70825000  0.92370000  1.0
  C  C35  1  0.13891000  0.29175000  0.07630000  1.0
  C  C36  1  0.93930000  0.74683000  0.80835000  1.0
  C  C37  1  0.06070000  0.25317000  0.19165000  1.0
  C  C38  1  0.96108000  0.88548000  0.76966000  1.0
  C  C39  1  0.03892000  0.11452000  0.23034000  1.0
  C  C40  1  0.90021000  0.98771000  0.84586000  1.0
  C  C41  1  0.09979000  0.01229000  0.15414000  1.0
  C  C42  1  0.82205000  0.94837000  0.96140000  1.0
  C  C43  1  0.17795000  0.05163000  0.03860000  1.0
  C  C44  1  0.65185000  0.46666000  0.75535000  1.0
  C  C45  1  0.34815000  0.53334000  0.24465000  1.0
  C  C46  1  0.57177000  0.48393000  0.88104000  1.0
  C  C47  1  0.42822000  0.51608000  0.11896000  1.0
  C  C48  1  0.40134000  0.58535000  0.88282000  1.0
  C  C49  1  0.59866000  0.41465000  0.11718000  1.0
  C  C50  1  0.66988000  0.39860000  0.99907000  1.0
  C  C51  1  0.33012000  0.60140000  0.00093000  1.0
  C  C52  1  0.15811000  0.22146000  0.51660000  1.0
  C  C53  1  0.84189000  0.77854000  0.48340000  1.0
  C  C54  1  0.33429000  0.10729000  0.50772000  1.0
  C  C55  1  0.66571000  0.89271000  0.49228000  1.0
  C  C56  1  0.42032000  0.13410000  0.39298000  1.0
  C  C57  1  0.57968000  0.86590000  0.60702000  1.0
  C  C58  1  0.41518000  0.97233000  0.61474000  1.0
  C  C59  1  0.58482000  0.02767000  0.38526000  1.0
  N  N60  1  0.73736000  0.75981000  0.12428000  1.0
  N  N61  1  0.26264000  0.24019000  0.87572000  1.0
  N  N62  1  0.56981000  0.82419000  0.14867000  1.0
  N  N63  1  0.43019000  0.17581000  0.85133000  1.0
  N  N64  1  0.72142000  0.62666000  0.32607000  1.0
  N  N65  1  0.27858000  0.37334000  0.67393000  1.0
  O  O66  1  0.04286000  0.91516000  0.65787000  1.0
  O  O67  1  0.95714000  0.08484000  0.34213000  1.0
  O  O68  1  0.80950000  0.38117000  0.75822000  1.0
  O  O69  1  0.19051000  0.61882000  0.24178000  1.0
  O  O70  1  0.56357000  0.53816000  0.64682000  1.0
  O  O71  1  0.43643000  0.46184000  0.35318000  1.0
  O  O72  1  0.06501000  0.17727000  0.60195000  1.0
  O  O73  1  0.93499000  0.82273000  0.39805000  1.0
  O  O74  1  0.10100000  0.36343000  0.43938000  1.0
  O  O75  1  0.89899000  0.63658000  0.56063000  1.0
  O  O76  1  0.72684000  0.27186000  0.48259000  1.0
  O  O77  1  0.27316000  0.72814000  0.51741000  1.0
