# generated using pymatgen
data_CuSiH8C8(N2F3)2
_symmetry_space_group_name_H-M   'P 1'
_cell_length_a   6.89813000
_cell_length_b   6.89799000
_cell_length_c   7.91153000
_cell_angle_alpha   90.00000000
_cell_angle_beta   89.99960000
_cell_angle_gamma   89.99990000
_symmetry_Int_Tables_number   1
_chemical_formula_structural   CuSiH8C8(N2F3)2
_chemical_formula_sum   'Cu1 Si1 H8 C8 N4 F6'
_cell_volume   376.45616555
_cell_formula_units_Z   1
loop_
 _symmetry_equiv_pos_site_id
 _symmetry_equiv_pos_as_xyz
  1  'x, y, z'
loop_
 _atom_site_type_symbol
 _atom_site_label
 _atom_site_symmetry_multiplicity
 _atom_site_fract_x
 _atom_site_fract_y
 _atom_site_fract_z
 _atom_site_occupancy
  Cu  Cu0  1  0.50000000  0.50000000  0.50000000  1.0
  Si  Si1  1  0.50000000  0.50000000  0.00000000  1.0
  H  H2  1  0.50000000  0.18102000  0.76471000  1.0
  H  H3  1  0.18101000  0.50000000  0.76470000  1.0
  H  H4  1  0.50000000  0.81898000  0.76471000  1.0
  H  H5  1  0.81899000  0.50000000  0.76470000  1.0
  H  H6  1  0.50000000  0.81898000  0.23529000  1.0
  H  H7  1  0.18101000  0.50000000  0.23530000  1.0
  H  H8  1  0.50000000  0.18102000  0.23529000  1.0
  H  H9  1  0.81899000  0.50000000  0.23530000  1.0
  C  C10  1  0.50000000  0.10119000  0.64585000  1.0
  C  C11  1  0.10121000  0.50000000  0.64587000  1.0
  C  C12  1  0.50000000  0.89881000  0.64586000  1.0
  C  C13  1  0.89880000  0.50000000  0.64588000  1.0
  C  C14  1  0.50000000  0.89881000  0.35415000  1.0
  C  C15  1  0.10120000  0.50000000  0.35412000  1.0
  C  C16  1  0.50000000  0.10119000  0.35414000  1.0
  C  C17  1  0.89880000  0.50000000  0.35413000  1.0
  N  N18  1  0.50000000  0.20102000  0.50000000  1.0
  N  N19  1  0.20102000  0.50000000  0.50001000  1.0
  N  N20  1  0.50000000  0.79898000  0.50000000  1.0
  N  N21  1  0.79898000  0.50000000  0.49999000  1.0
  F  F22  1  0.50000000  0.50000000  0.78012000  1.0
  F  F23  1  0.50000000  0.50000000  0.21988000  1.0
  F  F24  1  0.67486000  0.32513000  1.00000000  1.0
  F  F25  1  0.32513000  0.32513000  0.00000000  1.0
  F  F26  1  0.32513000  0.67487000  0.00000000  1.0
  F  F27  1  0.67486000  0.67487000  0.00000000  1.0
