# generated using pymatgen
data_Cd2H23C39N4ClO6
_symmetry_space_group_name_H-M   'P 1'
_cell_length_a   10.06760000
_cell_length_b   10.30630000
_cell_length_c   16.18930000
_cell_angle_alpha   81.87620000
_cell_angle_beta   75.08050000
_cell_angle_gamma   77.98320000
_symmetry_Int_Tables_number   1
_chemical_formula_structural   Cd2H23C39N4ClO6
_chemical_formula_sum   'Cd4 H46 C78 N8 Cl2 O12'
_cell_volume   1580.74810869
_cell_formula_units_Z   2
loop_
 _symmetry_equiv_pos_site_id
 _symmetry_equiv_pos_as_xyz
  1  'x, y, z'
loop_
 _atom_site_type_symbol
 _atom_site_label
 _atom_site_symmetry_multiplicity
 _atom_site_fract_x
 _atom_site_fract_y
 _atom_site_fract_z
 _atom_site_occupancy
  Cd  Cd0  1  0.06144000  0.01993000  0.27562000  1.0
  Cd  Cd1  1  0.93857000  0.98007000  0.72438000  1.0
  Cd  Cd2  1  0.68882000  0.25408000  0.85800000  1.0
  Cd  Cd3  1  0.31119000  0.74592000  0.14200000  1.0
  H  H4  1  0.40526000  0.07197000  0.24751000  1.0
  H  H5  1  0.59474000  0.92803000  0.75249000  1.0
  H  H6  1  0.37022000  0.28806000  0.97946000  1.0
  H  H7  1  0.62978000  0.71194000  0.02054000  1.0
  H  H8  1  0.24378000  0.33533000  0.13349000  1.0
  H  H9  1  0.75622000  0.66467000  0.86651000  1.0
  H  H10  1  0.38015000  0.38749000  0.22890000  1.0
  H  H11  1  0.61985000  0.61251000  0.77110000  1.0
  H  H12  1  0.61292000  0.39622000  0.25280000  1.0
  H  H13  1  0.38708000  0.60378000  0.74720000  1.0
  H  H14  1  0.86957000  0.37794000  0.19823000  1.0
  H  H15  1  0.13043000  0.62206000  0.80177000  1.0
  H  H16  1  0.07759000  0.34660000  0.07652000  1.0
  H  H17  1  0.92241000  0.65340000  0.92348000  1.0
  H  H18  1  0.17976000  0.31124000  0.91852000  1.0
  H  H19  1  0.82024000  0.68877000  0.08148000  1.0
  H  H20  1  0.01115000  0.98724000  0.08796000  1.0
  H  H21  1  0.98885000  0.01276000  0.91204000  1.0
  H  H22  1  0.81432000  0.97960000  0.01872000  1.0
  H  H23  1  0.18569000  0.02041000  0.98128000  1.0
  H  H24  1  0.56916000  0.01930000  0.10711000  1.0
  H  H25  1  0.43084000  0.98071000  0.89288000  1.0
  H  H26  1  0.36576000  0.12712000  0.39543000  1.0
  H  H27  1  0.63424000  0.87288000  0.60456000  1.0
  H  H28  1  0.46484000  0.16674000  0.51756000  1.0
  H  H29  1  0.53516000  0.83326000  0.48243000  1.0
  H  H30  1  0.18655000  0.65212000  0.47904000  1.0
  H  H31  1  0.81344000  0.34788000  0.52096000  1.0
  H  H32  1  0.07754000  0.51957000  0.26943000  1.0
  H  H33  1  0.92245000  0.48043000  0.73057000  1.0
  H  H34  1  0.50658000  0.50387000  0.63643000  1.0
  H  H35  1  0.49343000  0.49613000  0.36357000  1.0
  H  H36  1  0.26394000  0.19856000  0.74435000  1.0
  H  H37  1  0.73605000  0.80144000  0.25566000  1.0
  H  H38  1  0.15257000  0.24318000  0.62038000  1.0
  H  H39  1  0.84742000  0.75682000  0.37963000  1.0
  H  H40  1  0.37856000  0.56573000  0.52118000  1.0
  H  H41  1  0.62144000  0.43426000  0.47882000  1.0
  H  H42  1  0.18414000  0.23517000  0.47298000  1.0
  H  H43  1  0.81584000  0.76483000  0.52702000  1.0
  H  H44  1  0.67820000  0.15584000  0.57418000  1.0
  H  H45  1  0.32180000  0.84416000  0.42581000  1.0
  H  H46  1  0.91345000  0.09779000  0.47759000  1.0
  H  H47  1  0.08655000  0.90221000  0.52241000  1.0
  H  H48  1  0.01569000  0.29457000  0.82892000  1.0
  H  H49  1  0.98431000  0.70543000  0.17108000  1.0
  C  C50  1  0.10906000  0.25577000  0.32277000  1.0
  C  C51  1  0.89095000  0.74422000  0.67723000  1.0
  C  C52  1  0.12843000  0.36665000  0.36733000  1.0
  C  C53  1  0.87156000  0.63335000  0.63268000  1.0
  C  C54  1  0.46609000  0.31330000  0.77044000  1.0
  C  C55  1  0.53391000  0.68669000  0.22956000  1.0
  C  C56  1  0.39173000  0.34824000  0.69886000  1.0
  C  C57  1  0.60827000  0.65176000  0.30114000  1.0
  C  C58  1  0.42388000  0.45131000  0.63499000  1.0
  C  C59  1  0.57612000  0.54869000  0.36501000  1.0
  C  C60  1  0.11077000  0.74173000  0.33259000  1.0
  C  C61  1  0.88923000  0.25827000  0.66741000  1.0
  C  C62  1  0.19620000  0.43914000  0.48544000  1.0
  C  C63  1  0.80379000  0.56086000  0.51457000  1.0
  C  C64  1  0.25639000  0.40895000  0.56161000  1.0
  C  C65  1  0.74360000  0.59105000  0.43839000  1.0
  C  C66  1  0.74830000  0.05493000  0.25311000  1.0
  C  C67  1  0.25171000  0.94507000  0.74689000  1.0
  C  C68  1  0.13059000  0.60037000  0.37078000  1.0
  C  C69  1  0.86940000  0.39963000  0.62923000  1.0
  C  C70  1  0.63563000  0.33992000  0.04516000  1.0
  C  C71  1  0.36437000  0.66008000  0.95484000  1.0
  C  C72  1  0.17244000  0.57055000  0.44810000  1.0
  C  C73  1  0.82755000  0.42946000  0.55190000  1.0
  C  C74  1  0.58673000  0.11274000  0.39169000  1.0
  C  C75  1  0.41327000  0.88726000  0.60831000  1.0
  C  C76  1  0.72572000  0.08269000  0.34128000  1.0
  C  C77  1  0.27428000  0.91731000  0.65872000  1.0
  C  C78  1  0.22698000  0.30353000  0.62472000  1.0
  C  C79  1  0.77302000  0.69647000  0.37528000  1.0
  C  C80  1  0.17017000  0.33828000  0.44515000  1.0
  C  C81  1  0.82982000  0.66172000  0.55486000  1.0
  C  C82  1  0.10943000  0.49805000  0.33001000  1.0
  C  C83  1  0.89056000  0.50195000  0.66999000  1.0
  C  C84  1  0.63114000  0.05238000  0.21993000  1.0
  C  C85  1  0.36887000  0.94763000  0.78007000  1.0
  C  C86  1  0.29027000  0.27695000  0.69384000  1.0
  C  C87  1  0.70973000  0.72305000  0.30617000  1.0
  C  C88  1  0.90207000  0.00565000  0.12340000  1.0
  C  C89  1  0.09793000  0.99435000  0.87660000  1.0
  C  C90  1  0.65682000  0.02404000  0.13385000  1.0
  C  C91  1  0.34319000  0.97597000  0.86615000  1.0
  C  C92  1  0.35334000  0.48422000  0.56955000  1.0
  C  C93  1  0.64666000  0.51577000  0.43045000  1.0
  C  C94  1  0.81983000  0.10313000  0.45430000  1.0
  C  C95  1  0.18017000  0.89687000  0.54570000  1.0
  C  C96  1  0.97764000  0.31006000  0.89686000  1.0
  C  C97  1  0.02236000  0.68995000  0.10314000  1.0
  C  C98  1  0.78394000  0.33609000  0.01188000  1.0
  C  C99  1  0.21606000  0.66391000  0.98811000  1.0
  C  C100  1  0.57500000  0.36538000  0.13196000  1.0
  C  C101  1  0.42500000  0.63462000  0.86804000  1.0
  C  C102  1  0.79271000  0.00160000  0.08528000  1.0
  C  C103  1  0.20730000  0.99841000  0.91472000  1.0
  C  C104  1  0.49325000  0.07758000  0.27365000  1.0
  C  C105  1  0.50675000  0.92242000  0.72634000  1.0
  C  C106  1  0.86693000  0.35012000  0.06794000  1.0
  C  C107  1  0.13307000  0.64988000  0.93206000  1.0
  C  C108  1  0.56978000  0.14178000  0.47704000  1.0
  C  C109  1  0.43023000  0.85822000  0.52296000  1.0
  C  C110  1  0.47185000  0.10836000  0.35593000  1.0
  C  C111  1  0.52816000  0.89164000  0.64407000  1.0
  C  C112  1  0.06812000  0.32034000  0.94793000  1.0
  C  C113  1  0.93188000  0.67966000  0.05207000  1.0
  C  C114  1  0.01235000  0.33947000  0.03367000  1.0
  C  C115  1  0.98765000  0.66053000  0.96633000  1.0
  C  C116  1  0.68623000  0.13648000  0.50853000  1.0
  C  C117  1  0.31377000  0.86352000  0.49147000  1.0
  C  C118  1  0.42331000  0.31291000  0.02443000  1.0
  C  C119  1  0.57669000  0.68709000  0.97557000  1.0
  C  C120  1  0.66185000  0.38069000  0.18590000  1.0
  C  C121  1  0.33815000  0.61930000  0.81410000  1.0
  C  C122  1  0.43011000  0.36709000  0.16266000  1.0
  C  C123  1  0.56989000  0.63291000  0.83734000  1.0
  C  C124  1  0.80282000  0.37197000  0.15584000  1.0
  C  C125  1  0.19718000  0.62803000  0.84416000  1.0
  C  C126  1  0.35430000  0.33998000  0.10910000  1.0
  C  C127  1  0.64570000  0.66003000  0.89090000  1.0
  N  N128  1  0.83839000  0.07814000  0.37331000  1.0
  N  N129  1  0.16161000  0.92186000  0.62669000  1.0
  N  N130  1  0.88096000  0.03088000  0.20459000  1.0
  N  N131  1  0.11905000  0.96912000  0.79541000  1.0
  N  N132  1  0.55919000  0.31436000  0.99348000  1.0
  N  N133  1  0.44081000  0.68564000  0.00652000  1.0
  N  N134  1  0.84069000  0.31571000  0.92819000  1.0
  N  N135  1  0.15932000  0.68429000  0.07181000  1.0
  Cl  Cl136  1  0.26439000  0.00113000  0.13134000  1.0
  Cl  Cl137  1  0.73561000  0.99887000  0.86865000  1.0
  O  O138  1  0.14461000  0.13632000  0.35559000  1.0
  O  O139  1  0.85539000  0.86368000  0.64441000  1.0
  O  O140  1  0.06048000  0.28236000  0.25624000  1.0
  O  O141  1  0.93953000  0.71764000  0.74376000  1.0
  O  O142  1  0.58449000  0.35342000  0.75565000  1.0
  O  O143  1  0.41551000  0.64658000  0.24436000  1.0
  O  O144  1  0.10180000  0.83439000  0.37877000  1.0
  O  O145  1  0.89819000  0.16562000  0.62122000  1.0
  O  O146  1  0.41446000  0.24819000  0.83874000  1.0
  O  O147  1  0.58554000  0.75181000  0.16127000  1.0
  O  O148  1  0.10107000  0.76623000  0.25398000  1.0
  O  O149  1  0.89893000  0.23376000  0.74602000  1.0
