# generated using pymatgen
data_ZnH9C14(N2O)3
_symmetry_space_group_name_H-M   'P 1'
_cell_length_a   8.80875000
_cell_length_b   9.31612000
_cell_length_c   17.10830000
_cell_angle_alpha   90.00000000
_cell_angle_beta   90.00000000
_cell_angle_gamma   105.70100000
_symmetry_Int_Tables_number   1
_chemical_formula_structural   ZnH9C14(N2O)3
_chemical_formula_sum   'Zn4 H36 C56 N24 O12'
_cell_volume   1351.57868278
_cell_formula_units_Z   4
loop_
 _symmetry_equiv_pos_site_id
 _symmetry_equiv_pos_as_xyz
  1  'x, y, z'
loop_
 _atom_site_type_symbol
 _atom_site_label
 _atom_site_symmetry_multiplicity
 _atom_site_fract_x
 _atom_site_fract_y
 _atom_site_fract_z
 _atom_site_occupancy
  Zn  Zn0  1  0.00070000  0.43830000  0.67617000  1.0
  Zn  Zn1  1  0.49930000  0.06170000  0.17617000  1.0
  Zn  Zn2  1  0.99930000  0.56170000  0.32383000  1.0
  Zn  Zn3  1  0.50070000  0.93830000  0.82383000  1.0
  H  H4  1  0.38019000  0.80545000  0.40685000  1.0
  H  H5  1  0.11981000  0.69455000  0.90685000  1.0
  H  H6  1  0.61981000  0.19455000  0.59315000  1.0
  H  H7  1  0.88019000  0.30545000  0.09315000  1.0
  H  H8  1  0.35296000  0.94245000  0.52580000  1.0
  H  H9  1  0.14704000  0.55755000  0.02580000  1.0
  H  H10  1  0.64704000  0.05755000  0.47420000  1.0
  H  H11  1  0.85296000  0.44245000  0.97420000  1.0
  H  H12  1  0.06728000  0.17596000  0.39882000  1.0
  H  H13  1  0.43272000  0.32404000  0.89882000  1.0
  H  H14  1  0.93272000  0.82404000  0.60118000  1.0
  H  H15  1  0.56729000  0.67596000  0.10118000  1.0
  H  H16  1  0.09725000  0.03832000  0.27956000  1.0
  H  H17  1  0.40275000  0.46169000  0.77956000  1.0
  H  H18  1  0.90275000  0.96168000  0.72044000  1.0
  H  H19  1  0.59725000  0.53832000  0.22044000  1.0
  H  H20  1  0.04424000  0.30914000  0.51141000  1.0
  H  H21  1  0.45576000  0.19086000  0.01141000  1.0
  H  H22  1  0.95576000  0.69086000  0.48859000  1.0
  H  H23  1  0.54424000  0.80914000  0.98859000  1.0
  H  H24  1  0.23262000  0.22491000  0.72812000  1.0
  H  H25  1  0.26738000  0.27509000  0.22812000  1.0
  H  H26  1  0.76738000  0.77509000  0.27188000  1.0
  H  H27  1  0.73262000  0.72491000  0.77188000  1.0
  H  H28  1  0.28084000  0.61095000  0.53370000  1.0
  H  H29  1  0.21916000  0.88905000  0.03370000  1.0
  H  H30  1  0.71916000  0.38905000  0.46630000  1.0
  H  H31  1  0.78084000  0.11095000  0.96630000  1.0
  H  H32  1  0.29264000  0.04474000  0.63237000  1.0
  H  H33  1  0.20736000  0.45525000  0.13237000  1.0
  H  H34  1  0.70736000  0.95525000  0.36763000  1.0
  H  H35  1  0.79264000  0.54475000  0.86763000  1.0
  H  H36  1  0.58890000  0.61727000  0.67201000  1.0
  H  H37  1  0.91110000  0.88273000  0.17201000  1.0
  H  H38  1  0.41110000  0.38273000  0.32799000  1.0
  H  H39  1  0.08890000  0.11727000  0.82799000  1.0
  C  C40  1  0.31360000  0.88837000  0.40462000  1.0
  C  C41  1  0.18640000  0.61164000  0.90462000  1.0
  C  C42  1  0.68640000  0.11163000  0.59538000  1.0
  C  C43  1  0.81360000  0.38837000  0.09538000  1.0
  C  C44  1  0.29775000  0.96642000  0.47213000  1.0
  C  C45  1  0.20225000  0.53359000  0.97214000  1.0
  C  C46  1  0.70225000  0.03358000  0.52787000  1.0
  C  C47  1  0.79775000  0.46642000  0.02787000  1.0
  C  C48  1  0.20915000  0.07123000  0.47164000  1.0
  C  C49  1  0.29085000  0.42877000  0.97165000  1.0
  C  C50  1  0.79085000  0.92877000  0.52836000  1.0
  C  C51  1  0.70915000  0.57123000  0.02836000  1.0
  C  C52  1  0.13864000  0.09700000  0.40100000  1.0
  C  C53  1  0.36136000  0.40301000  0.90100000  1.0
  C  C54  1  0.86136000  0.90300000  0.59900000  1.0
  C  C55  1  0.63864000  0.59700000  0.09900000  1.0
  C  C56  1  0.15521000  0.01980000  0.33348000  1.0
  C  C57  1  0.34479000  0.48021000  0.83348000  1.0
  C  C58  1  0.84479000  0.98020000  0.66652000  1.0
  C  C59  1  0.65521000  0.51980000  0.16653000  1.0
  C  C60  1  0.24171000  0.91344000  0.33473000  1.0
  C  C61  1  0.25829000  0.58656000  0.83473000  1.0
  C  C62  1  0.75829000  0.08656000  0.66527000  1.0
  C  C63  1  0.74171000  0.41344000  0.16527000  1.0
  C  C64  1  0.25072000  0.82450000  0.26453000  1.0
  C  C65  1  0.24928000  0.67550000  0.76453000  1.0
  C  C66  1  0.74928000  0.17550000  0.73547000  1.0
  C  C67  1  0.75072000  0.32450000  0.23547000  1.0
  C  C68  1  0.18664000  0.15104000  0.54191000  1.0
  C  C69  1  0.31336000  0.34896000  0.04191000  1.0
  C  C70  1  0.81336000  0.84896000  0.45809000  1.0
  C  C71  1  0.68664000  0.65104000  0.95809000  1.0
  C  C72  1  0.10766000  0.25931000  0.55298000  1.0
  C  C73  1  0.39234000  0.24069000  0.05298000  1.0
  C  C74  1  0.89234000  0.74069000  0.44702000  1.0
  C  C75  1  0.60766000  0.75931000  0.94702000  1.0
  C  C76  1  0.20352000  0.22209000  0.66654000  1.0
  C  C77  1  0.29648000  0.27790000  0.16654000  1.0
  C  C78  1  0.79648000  0.77790000  0.33346000  1.0
  C  C79  1  0.70352000  0.72209000  0.83346000  1.0
  C  C80  1  0.37748000  0.56331000  0.51934000  1.0
  C  C81  1  0.12252000  0.93669000  0.01934000  1.0
  C  C82  1  0.62252000  0.43668000  0.48066000  1.0
  C  C83  1  0.87748000  0.06331000  0.98066000  1.0
  C  C84  1  0.49596000  0.56701000  0.57381000  1.0
  C  C85  1  0.00404000  0.93299000  0.07381000  1.0
  C  C86  1  0.50404000  0.43299000  0.42619000  1.0
  C  C87  1  0.99596000  0.06701000  0.92619000  1.0
  C  C88  1  0.62044000  0.50372000  0.55370000  1.0
  C  C89  1  0.87955000  0.99628000  0.05370000  1.0
  C  C90  1  0.37956000  0.49628000  0.44630000  1.0
  C  C91  1  0.12045000  0.00372000  0.94630000  1.0
  C  C92  1  0.75055000  0.51234000  0.60973000  1.0
  C  C93  1  0.74945000  0.98766000  0.10973000  1.0
  C  C94  1  0.24945000  0.48766000  0.39027000  1.0
  C  C95  1  0.25055000  0.01234000  0.89027000  1.0
  N  N96  1  0.15919000  0.68662000  0.24941000  1.0
  N  N97  1  0.34080000  0.81338000  0.74941000  1.0
  N  N98  1  0.84081000  0.31338000  0.75059000  1.0
  N  N99  1  0.65919000  0.18662000  0.25059000  1.0
  N  N100  1  0.20754000  0.64502000  0.18011000  1.0
  N  N101  1  0.29246000  0.85498000  0.68011000  1.0
  N  N102  1  0.79246000  0.35498000  0.81989000  1.0
  N  N103  1  0.70754000  0.14502000  0.31989000  1.0
  N  N104  1  0.32325000  0.75218000  0.15329000  1.0
  N  N105  1  0.17675000  0.74782000  0.65329000  1.0
  N  N106  1  0.67675000  0.24781000  0.84671000  1.0
  N  N107  1  0.82325000  0.25218000  0.34671000  1.0
  N  N108  1  0.35306000  0.86617000  0.20524000  1.0
  N  N109  1  0.14694000  0.63383000  0.70524000  1.0
  N  N110  1  0.64694000  0.13383000  0.79476000  1.0
  N  N111  1  0.85306000  0.36617000  0.29476000  1.0
  N  N112  1  0.11961000  0.30229000  0.63031000  1.0
  N  N113  1  0.38039000  0.19771000  0.13031000  1.0
  N  N114  1  0.88039000  0.69771000  0.36969000  1.0
  N  N115  1  0.61961000  0.80229000  0.86969000  1.0
  N  N116  1  0.24640000  0.13068000  0.61503000  1.0
  N  N117  1  0.25360000  0.36932000  0.11503000  1.0
  N  N118  1  0.75360000  0.86932000  0.38497000  1.0
  N  N119  1  0.74640000  0.63068000  0.88497000  1.0
  O  O120  1  0.86684000  0.46325000  0.58718000  1.0
  O  O121  1  0.63316000  0.03675000  0.08718000  1.0
  O  O122  1  0.13316000  0.53675000  0.41282000  1.0
  O  O123  1  0.36684000  0.96325000  0.91282000  1.0
  O  O124  1  0.74393000  0.56681000  0.67767000  1.0
  O  O125  1  0.75607000  0.93319000  0.17767000  1.0
  O  O126  1  0.25607000  0.43319000  0.32233000  1.0
  O  O127  1  0.24394000  0.06681000  0.82233000  1.0
  O  O128  1  0.49030000  0.62971000  0.64487000  1.0
  O  O129  1  0.00970000  0.87029000  0.14487000  1.0
  O  O130  1  0.50970000  0.37029000  0.35513000  1.0
  O  O131  1  0.99030000  0.12971000  0.85513000  1.0
