# generated using pymatgen
data_NaH5C5N2O5
_symmetry_space_group_name_H-M   'P 1'
_cell_length_a   3.62739000
_cell_length_b   13.73620000
_cell_length_c   14.63400000
_cell_angle_alpha   89.99990000
_cell_angle_beta   95.72810000
_cell_angle_gamma   89.99960000
_symmetry_Int_Tables_number   1
_chemical_formula_structural   NaH5C5N2O5
_chemical_formula_sum   'Na4 H20 C20 N8 O20'
_cell_volume   725.52090447
_cell_formula_units_Z   4
loop_
 _symmetry_equiv_pos_site_id
 _symmetry_equiv_pos_as_xyz
  1  'x, y, z'
loop_
 _atom_site_type_symbol
 _atom_site_label
 _atom_site_symmetry_multiplicity
 _atom_site_fract_x
 _atom_site_fract_y
 _atom_site_fract_z
 _atom_site_occupancy
  Na  Na0  1  0.26996000  0.12334000  0.88496000  1.0
  Na  Na1  1  0.73005000  0.62334000  0.61504000  1.0
  Na  Na2  1  0.73003000  0.87666000  0.11504000  1.0
  Na  Na3  1  0.26995000  0.37666000  0.38496000  1.0
  H  H4  1  0.86828000  0.23280000  0.98827000  1.0
  H  H5  1  0.13172000  0.73280000  0.51173000  1.0
  H  H6  1  0.13171000  0.76720000  0.01173000  1.0
  H  H7  1  0.86827000  0.26720000  0.48827000  1.0
  H  H8  1  0.76426000  0.13260000  0.03794000  1.0
  H  H9  1  0.23575000  0.63260000  0.46206000  1.0
  H  H10  1  0.23573000  0.86740000  0.96206000  1.0
  H  H11  1  0.76425000  0.36740000  0.53794000  1.0
  H  H12  1  0.28953000  0.69364000  0.84464000  1.0
  H  H13  1  0.71048000  0.19364000  0.65536000  1.0
  H  H14  1  0.71047000  0.30636000  0.15536000  1.0
  H  H15  1  0.28953000  0.80636000  0.34464000  1.0
  H  H16  1  0.29033000  0.30524000  0.75551000  1.0
  H  H17  1  0.70968000  0.80524000  0.74449000  1.0
  H  H18  1  0.70966000  0.69476000  0.24449000  1.0
  H  H19  1  0.29032000  0.19476000  0.25551000  1.0
  H  H20  1  0.09622000  0.56062000  0.94837000  1.0
  H  H21  1  0.90379000  0.06062000  0.55163000  1.0
  H  H22  1  0.90379000  0.43938000  0.05163000  1.0
  H  H23  1  0.09621000  0.93938000  0.44837000  1.0
  C  C24  1  0.22594000  0.45761000  0.84277000  1.0
  C  C25  1  0.77408000  0.95762000  0.65723000  1.0
  C  C26  1  0.77407000  0.54238000  0.15723000  1.0
  C  C27  1  0.22592000  0.04239000  0.34277000  1.0
  C  C28  1  0.46511000  0.41645000  0.68398000  1.0
  C  C29  1  0.53489000  0.91645000  0.81602000  1.0
  C  C30  1  0.53489000  0.58354000  0.31602000  1.0
  C  C31  1  0.46512000  0.08355000  0.18398000  1.0
  C  C32  1  0.29125000  0.61668000  0.82783000  1.0
  C  C33  1  0.70876000  0.11669000  0.67217000  1.0
  C  C34  1  0.70875000  0.38331000  0.17217000  1.0
  C  C35  1  0.29124000  0.88331000  0.32783000  1.0
  C  C36  1  0.36038000  0.48016000  0.75861000  1.0
  C  C37  1  0.63963000  0.98016000  0.74139000  1.0
  C  C38  1  0.63963000  0.51984000  0.24139000  1.0
  C  C39  1  0.36037000  0.01985000  0.25861000  1.0
  C  C40  1  0.13031000  0.36421000  0.88479000  1.0
  C  C41  1  0.86968000  0.86422000  0.61521000  1.0
  C  C42  1  0.86968000  0.63578000  0.11521000  1.0
  C  C43  1  0.13031000  0.13578000  0.38479000  1.0
  N  N44  1  0.39782000  0.57956000  0.75069000  1.0
  N  N45  1  0.60220000  0.07956000  0.74932000  1.0
  N  N46  1  0.60218000  0.42044000  0.24931000  1.0
  N  N47  1  0.39782000  0.92044000  0.25068000  1.0
  N  N48  1  0.18910000  0.54601000  0.88479000  1.0
  N  N49  1  0.81091000  0.04602000  0.61521000  1.0
  N  N50  1  0.81091000  0.45399000  0.11521000  1.0
  N  N51  1  0.18909000  0.95399000  0.38479000  1.0
  O  O52  1  0.16838000  0.28690000  0.83691000  1.0
  O  O53  1  0.83164000  0.78690000  0.66308000  1.0
  O  O54  1  0.83162000  0.71310000  0.16308000  1.0
  O  O55  1  0.16835000  0.21310000  0.33692000  1.0
  O  O56  1  0.61651000  0.45160000  0.61838000  1.0
  O  O57  1  0.38349000  0.95160000  0.88162000  1.0
  O  O58  1  0.38350000  0.54840000  0.38162000  1.0
  O  O59  1  0.61652000  0.04840000  0.11838000  1.0
  O  O60  1  0.01325000  0.36350000  0.96319000  1.0
  O  O61  1  0.98676000  0.86351000  0.53681000  1.0
  O  O62  1  0.98676000  0.63649000  0.03681000  1.0
  O  O63  1  0.01324000  0.13649000  0.46319000  1.0
  O  O64  1  0.81250000  0.16307000  0.97887000  1.0
  O  O65  1  0.18751000  0.66307000  0.52113000  1.0
  O  O66  1  0.18749000  0.83693000  0.02113000  1.0
  O  O67  1  0.81249000  0.33693000  0.47887000  1.0
  O  O68  1  0.39903000  0.32306000  0.68967000  1.0
  O  O69  1  0.60096000  0.82306000  0.81032000  1.0
  O  O70  1  0.60096000  0.67694000  0.31033000  1.0
  O  O71  1  0.39903000  0.17695000  0.18967000  1.0
