# generated using pymatgen
data_H8WC10N2O3
_symmetry_space_group_name_H-M   'P 1'
_cell_length_a   7.32684000
_cell_length_b   13.20830000
_cell_length_c   13.20830000
_cell_angle_alpha   79.36970000
_cell_angle_beta   73.89500000
_cell_angle_gamma   73.89510000
_symmetry_Int_Tables_number   1
_chemical_formula_structural   H8WC10N2O3
_chemical_formula_sum   'H32 W4 C40 N8 O12'
_cell_volume   1171.84302608
_cell_formula_units_Z   4
loop_
 _symmetry_equiv_pos_site_id
 _symmetry_equiv_pos_as_xyz
  1  'x, y, z'
loop_
 _atom_site_type_symbol
 _atom_site_label
 _atom_site_symmetry_multiplicity
 _atom_site_fract_x
 _atom_site_fract_y
 _atom_site_fract_z
 _atom_site_occupancy
  H  H0  1  0.79738000  0.45838000  0.43217000  1.0
  H  H1  1  0.68831000  0.54158000  0.56781000  1.0
  H  H2  1  0.18831000  0.56781000  0.54158000  1.0
  H  H3  1  0.29738000  0.43217000  0.45838000  1.0
  H  H4  1  0.69252000  0.65809000  0.39936000  1.0
  H  H5  1  0.75054000  0.34185000  0.60063000  1.0
  H  H6  1  0.25054000  0.60063000  0.34185000  1.0
  H  H7  1  0.19253000  0.39936000  0.65809000  1.0
  H  H8  1  0.75346000  0.74217000  0.20834000  1.0
  H  H9  1  0.70418000  0.25782000  0.79170000  1.0
  H  H10  1  0.20418000  0.79170000  0.25782000  1.0
  H  H11  1  0.25347000  0.20834000  0.74217000  1.0
  H  H12  1  0.91335000  0.62766000  0.06320000  1.0
  H  H13  1  0.60390000  0.37238000  0.93678000  1.0
  H  H14  1  0.10390000  0.93678000  0.37237000  1.0
  H  H15  1  0.41335000  0.06320000  0.62766000  1.0
  H  H16  1  0.05035000  0.52215000  0.95236000  1.0
  H  H17  1  0.52464000  0.47788000  0.04769000  1.0
  H  H18  1  0.02464000  0.04769000  0.47788000  1.0
  H  H19  1  0.55035000  0.95236000  0.52215000  1.0
  H  H20  1  0.20459000  0.38725000  0.82990000  1.0
  H  H21  1  0.42137000  0.61279000  0.17013000  1.0
  H  H22  1  0.92138000  0.17012000  0.61279000  1.0
  H  H23  1  0.70459000  0.82990000  0.38725000  1.0
  H  H24  1  0.26925000  0.19121000  0.90469000  1.0
  H  H25  1  0.36492000  0.80883000  0.09528000  1.0
  H  H26  1  0.86492000  0.09528000  0.80883000  1.0
  H  H27  1  0.76925000  0.90469000  0.19120000  1.0
  H  H28  1  0.16261000  0.14640000  0.10241000  1.0
  H  H29  1  0.41140000  0.85359000  0.89757000  1.0
  H  H30  1  0.91140000  0.89757000  0.85359000  1.0
  H  H31  1  0.66261000  0.10241000  0.14640000  1.0
  W  W32  1  0.97977000  0.25297000  0.31457000  1.0
  W  W33  1  0.54731000  0.74705000  0.68543000  1.0
  W  W34  1  0.04731000  0.68543000  0.74705000  1.0
  W  W35  1  0.47977000  0.31457000  0.25297000  1.0
  C  C36  1  0.81912000  0.50088000  0.35250000  1.0
  C  C37  1  0.67280000  0.49909000  0.64749000  1.0
  C  C38  1  0.17280000  0.64749000  0.49909000  1.0
  C  C39  1  0.31912000  0.35249000  0.50089000  1.0
  C  C40  1  0.76173000  0.61090000  0.33297000  1.0
  C  C41  1  0.70601000  0.38907000  0.66701000  1.0
  C  C42  1  0.20601000  0.66702000  0.38906000  1.0
  C  C43  1  0.26173000  0.33296000  0.61090000  1.0
  C  C44  1  0.79723000  0.65644000  0.22752000  1.0
  C  C45  1  0.68138000  0.34355000  0.77247000  1.0
  C  C46  1  0.18138000  0.77247000  0.34354000  1.0
  C  C47  1  0.29724000  0.22752000  0.65644000  1.0
  C  C48  1  0.88642000  0.59246000  0.14592000  1.0
  C  C49  1  0.62465000  0.40757000  0.85405000  1.0
  C  C50  1  0.12465000  0.85405000  0.40757000  1.0
  C  C51  1  0.38642000  0.14592000  0.59246000  1.0
  C  C52  1  0.93735000  0.48229000  0.17237000  1.0
  C  C53  1  0.59189000  0.51775000  0.82759000  1.0
  C  C54  1  0.09189000  0.82759000  0.51775000  1.0
  C  C55  1  0.43735000  0.17237000  0.48229000  1.0
  C  C56  1  0.02647000  0.40647000  0.09265000  1.0
  C  C57  1  0.52544000  0.59354000  0.90736000  1.0
  C  C58  1  0.02544000  0.90736000  0.59354000  1.0
  C  C59  1  0.52647000  0.09265000  0.40647000  1.0
  C  C60  1  0.07750000  0.43834000  0.98362000  1.0
  C  C61  1  0.49926000  0.56169000  0.01641000  1.0
  C  C62  1  0.99926000  0.01640000  0.56168000  1.0
  C  C63  1  0.57749000  0.98362000  0.43834000  1.0
  C  C64  1  0.16488000  0.36112000  0.91447000  1.0
  C  C65  1  0.44012000  0.63891000  0.08556000  1.0
  C  C66  1  0.94012000  0.08556000  0.63891000  1.0
  C  C67  1  0.66488000  0.91446000  0.36112000  1.0
  C  C68  1  0.19878000  0.25435000  0.95551000  1.0
  C  C69  1  0.40840000  0.74567000  0.04449000  1.0
  C  C70  1  0.90840000  0.04449000  0.74567000  1.0
  C  C71  1  0.69878000  0.95551000  0.25435000  1.0
  C  C72  1  0.14157000  0.22821000  0.06472000  1.0
  C  C73  1  0.43440000  0.77178000  0.93527000  1.0
  C  C74  1  0.93441000  0.93527000  0.77178000  1.0
  C  C75  1  0.64157000  0.06472000  0.22821000  1.0
  N  N76  1  0.90423000  0.43880000  0.27466000  1.0
  N  N77  1  0.61779000  0.56121000  0.72531000  1.0
  N  N78  1  0.11779000  0.72531000  0.56120000  1.0
  N  N79  1  0.40423000  0.27466000  0.43880000  1.0
  N  N80  1  0.05747000  0.30244000  0.13108000  1.0
  N  N81  1  0.49083000  0.69756000  0.86893000  1.0
  N  N82  1  0.99084000  0.86893000  0.69755000  1.0
  N  N83  1  0.55746000  0.13108000  0.30244000  1.0
  O  O84  1  0.73121000  0.28559000  0.28159000  1.0
  O  O85  1  0.29834000  0.71449000  0.71841000  1.0
  O  O86  1  0.79834000  0.71841000  0.71449000  1.0
  O  O87  1  0.23121000  0.28159000  0.28559000  1.0
  O  O88  1  0.05136000  0.11534000  0.30373000  1.0
  O  O89  1  0.47060000  0.88473000  0.69612000  1.0
  O  O90  1  0.97060000  0.69612000  0.88473000  1.0
  O  O91  1  0.55136000  0.30373000  0.11534000  1.0
  O  O92  1  0.90227000  0.26565000  0.45159000  1.0
  O  O93  1  0.61950000  0.73427000  0.54844000  1.0
  O  O94  1  0.11950000  0.54844000  0.73427000  1.0
  O  O95  1  0.40227000  0.45159000  0.26566000  1.0
