# generated using pymatgen
data_MnH8C7SNO3
_symmetry_space_group_name_H-M   'P 1'
_cell_length_a   15.40980000
_cell_length_b   16.40520000
_cell_length_c   16.40510000
_cell_angle_alpha   110.66800000
_cell_angle_beta   108.24500000
_cell_angle_gamma   108.24500000
_symmetry_Int_Tables_number   1
_chemical_formula_structural   MnH8C7SNO3
_chemical_formula_sum   'Mn12 H96 C84 S12 N12 O36'
_cell_volume   3239.59665738
_cell_formula_units_Z   12
loop_
 _symmetry_equiv_pos_site_id
 _symmetry_equiv_pos_as_xyz
  1  'x, y, z'
loop_
 _atom_site_type_symbol
 _atom_site_label
 _atom_site_symmetry_multiplicity
 _atom_site_fract_x
 _atom_site_fract_y
 _atom_site_fract_z
 _atom_site_occupancy
  Mn  Mn0  1  0.25000000  0.34235000  0.65765000  1.0
  Mn  Mn1  1  0.90763000  0.31526000  0.65758000  1.0
  Mn  Mn2  1  0.59237000  0.34242000  0.68475000  1.0
  Mn  Mn3  1  0.75000000  0.65765000  0.34235000  1.0
  Mn  Mn4  1  0.09237000  0.68475000  0.34242000  1.0
  Mn  Mn5  1  0.40763000  0.65758000  0.31525000  1.0
  Mn  Mn6  1  0.34330000  0.18667000  0.59328000  1.0
  Mn  Mn7  1  0.15670000  0.40672000  0.81333000  1.0
  Mn  Mn8  1  0.75000000  0.40664000  0.59336000  1.0
  Mn  Mn9  1  0.65669000  0.81333000  0.40672000  1.0
  Mn  Mn10  1  0.84330000  0.59328000  0.18667000  1.0
  Mn  Mn11  1  0.25000000  0.59336000  0.40664000  1.0
  H  H12  1  0.59924000  0.40934000  0.97456000  1.0
  H  H13  1  0.22050000  0.14988000  0.71370000  1.0
  H  H14  1  0.21772000  0.91736000  0.59753000  1.0
  H  H15  1  0.09913000  0.85420000  0.59471000  1.0
  H  H16  1  0.21971000  0.89832000  0.69912000  1.0
  H  H17  1  0.12892000  0.09048000  0.77406000  1.0
  H  H18  1  0.15495000  0.00506000  0.80833000  1.0
  H  H19  1  0.04030000  0.96095000  0.69715000  1.0
  H  H20  1  0.18986000  0.56504000  0.59054000  1.0
  H  H21  1  0.07050000  0.56385000  0.85005000  1.0
  H  H22  1  0.30021000  0.68013000  0.08248000  1.0
  H  H23  1  0.24485000  0.74049000  0.14570000  1.0
  H  H24  1  0.32130000  0.80078000  0.10158000  1.0
  H  H25  1  0.03834000  0.68365000  0.90951000  1.0
  H  H26  1  0.14981000  0.80331000  0.99492000  1.0
  H  H27  1  0.07928000  0.73624000  0.03905000  1.0
  H  H28  1  0.62481000  0.02541000  0.43491000  1.0
  H  H29  1  0.50671000  0.28630000  0.43606000  1.0
  H  H30  1  0.62049000  0.40250000  0.31996000  1.0
  H  H31  1  0.50480000  0.40540000  0.25954000  1.0
  H  H32  1  0.52097000  0.30098000  0.19923000  1.0
  H  H33  1  0.35493000  0.22588000  0.31612000  1.0
  H  H34  1  0.34686000  0.19170000  0.19651000  1.0
  H  H35  1  0.34335000  0.30286000  0.26357000  1.0
  H  H36  1  0.87519000  0.56509000  0.97459000  1.0
  H  H37  1  0.99329000  0.56394000  0.71370000  1.0
  H  H38  1  0.87951000  0.68004000  0.59750000  1.0
  H  H39  1  0.99520000  0.74046000  0.59461000  1.0
  H  H40  1  0.97903000  0.80077000  0.69902000  1.0
  H  H41  1  0.14507000  0.68389000  0.77412000  1.0
  H  H42  1  0.15313000  0.80350000  0.80831000  1.0
  H  H43  1  0.15665000  0.73643000  0.69714000  1.0
  H  H44  1  0.90076000  0.02544000  0.59067000  1.0
  H  H45  1  0.27949000  0.28630000  0.85012000  1.0
  H  H46  1  0.28228000  0.40247000  0.08264000  1.0
  H  H47  1  0.40087000  0.40528000  0.14580000  1.0
  H  H48  1  0.28029000  0.30088000  0.10168000  1.0
  H  H49  1  0.37108000  0.22594000  0.90952000  1.0
  H  H50  1  0.34505000  0.19167000  0.99494000  1.0
  H  H51  1  0.45970000  0.30285000  0.03905000  1.0
  H  H52  1  0.31014000  0.40946000  0.43496000  1.0
  H  H53  1  0.42949000  0.14995000  0.43615000  1.0
  H  H54  1  0.19979000  0.91752000  0.31987000  1.0
  H  H55  1  0.25515000  0.85430000  0.25951000  1.0
  H  H56  1  0.17870000  0.89842000  0.19922000  1.0
  H  H57  1  0.46166000  0.09049000  0.31635000  1.0
  H  H58  1  0.35019000  0.00508000  0.19668000  1.0
  H  H59  1  0.42072000  0.96095000  0.26376000  1.0
  H  H60  1  0.40076000  0.59067000  0.02544000  1.0
  H  H61  1  0.77949000  0.85012000  0.28630000  1.0
  H  H62  1  0.78228000  0.08264000  0.40247000  1.0
  H  H63  1  0.90087000  0.14580000  0.40528000  1.0
  H  H64  1  0.78029000  0.10168000  0.30088000  1.0
  H  H65  1  0.87108000  0.90952000  0.22594000  1.0
  H  H66  1  0.84505000  0.99494000  0.19166000  1.0
  H  H67  1  0.95970000  0.03905000  0.30285000  1.0
  H  H68  1  0.81014000  0.43496000  0.40946000  1.0
  H  H69  1  0.92950000  0.43615000  0.14995000  1.0
  H  H70  1  0.69979000  0.31987000  0.91752000  1.0
  H  H71  1  0.75515000  0.25951000  0.85430000  1.0
  H  H72  1  0.67870000  0.19922000  0.89842000  1.0
  H  H73  1  0.96166000  0.31635000  0.09049000  1.0
  H  H74  1  0.85019000  0.19669000  0.00508000  1.0
  H  H75  1  0.92072000  0.26376000  0.96095000  1.0
  H  H76  1  0.37519000  0.97459000  0.56508000  1.0
  H  H77  1  0.49330000  0.71370000  0.56394000  1.0
  H  H78  1  0.37951000  0.59750000  0.68004000  1.0
  H  H79  1  0.49520000  0.59460000  0.74046000  1.0
  H  H80  1  0.47903000  0.69902000  0.80077000  1.0
  H  H81  1  0.64507000  0.77412000  0.68388000  1.0
  H  H82  1  0.65314000  0.80830000  0.80350000  1.0
  H  H83  1  0.65665000  0.69714000  0.73643000  1.0
  H  H84  1  0.12480000  0.43491000  0.02541000  1.0
  H  H85  1  0.00670000  0.43606000  0.28630000  1.0
  H  H86  1  0.12049000  0.31996000  0.40250000  1.0
  H  H87  1  0.00480000  0.25954000  0.40540000  1.0
  H  H88  1  0.02097000  0.19923000  0.30098000  1.0
  H  H89  1  0.85493000  0.31612000  0.22588000  1.0
  H  H90  1  0.84686000  0.19650000  0.19169000  1.0
  H  H91  1  0.84335000  0.26357000  0.30286000  1.0
  H  H92  1  0.09924000  0.97456000  0.40933000  1.0
  H  H93  1  0.72051000  0.71370000  0.14988000  1.0
  H  H94  1  0.71772000  0.59753000  0.91736000  1.0
  H  H95  1  0.59913000  0.59472000  0.85420000  1.0
  H  H96  1  0.71971000  0.69912000  0.89832000  1.0
  H  H97  1  0.62893000  0.77406000  0.09048000  1.0
  H  H98  1  0.65495000  0.80833000  0.00506000  1.0
  H  H99  1  0.54030000  0.69715000  0.96095000  1.0
  H  H100  1  0.68986000  0.59054000  0.56504000  1.0
  H  H101  1  0.57050000  0.85006000  0.56385000  1.0
  H  H102  1  0.80021000  0.08248000  0.68013000  1.0
  H  H103  1  0.74485000  0.14570000  0.74049000  1.0
  H  H104  1  0.82130000  0.10158000  0.80079000  1.0
  H  H105  1  0.53834000  0.90951000  0.68365000  1.0
  H  H106  1  0.64981000  0.99492000  0.80332000  1.0
  H  H107  1  0.57928000  0.03905000  0.73624000  1.0
  C  C108  1  0.48037000  0.44015000  0.90377000  1.0
  C  C109  1  0.46647000  0.37513000  0.80462000  1.0
  C  C110  1  0.55481000  0.44855000  0.98609000  1.0
  C  C111  1  0.42400000  0.49293000  0.91661000  1.0
  C  C112  1  0.22823000  0.08336000  0.67854000  1.0
  C  C113  1  0.17945000  0.91419000  0.64310000  1.0
  C  C114  1  0.12293000  0.01647000  0.74553000  1.0
  C  C115  1  0.04017000  0.46352000  0.55975000  1.0
  C  C116  1  0.09128000  0.42932000  0.62471000  1.0
  C  C117  1  0.10624000  0.53744000  0.55138000  1.0
  C  C118  1  0.93102000  0.42366000  0.50702000  1.0
  C  C119  1  0.14480000  0.59523000  0.91655000  1.0
  C  C120  1  0.26512000  0.72889000  0.08568000  1.0
  C  C121  1  0.10635000  0.72910000  0.98351000  1.0
  C  C122  1  0.57666000  0.09623000  0.53641000  1.0
  C  C123  1  0.66194000  0.19541000  0.57059000  1.0
  C  C124  1  0.56880000  0.01388000  0.46255000  1.0
  C  C125  1  0.50735000  0.08340000  0.57624000  1.0
  C  C126  1  0.54973000  0.32149000  0.40479000  1.0
  C  C127  1  0.53666000  0.35695000  0.27111000  1.0
  C  C128  1  0.37760000  0.25448000  0.27072000  1.0
  C  C129  1  0.92334000  0.46358000  0.90377000  1.0
  C  C130  1  0.83806000  0.42942000  0.80459000  1.0
  C  C131  1  0.93120000  0.53745000  0.98612000  1.0
  C  C132  1  0.99265000  0.42375000  0.91661000  1.0
  C  C133  1  0.95027000  0.59522000  0.67852000  1.0
  C  C134  1  0.96333000  0.72889000  0.64305000  1.0
  C  C135  1  0.12240000  0.72928000  0.74552000  1.0
  C  C136  1  0.01963000  0.09623000  0.55985000  1.0
  C  C137  1  0.03354000  0.19538000  0.62488000  1.0
  C  C138  1  0.94519000  0.01391000  0.55145000  1.0
  C  C139  1  0.07600000  0.08338000  0.50707000  1.0
  C  C140  1  0.27177000  0.32146000  0.91665000  1.0
  C  C141  1  0.32055000  0.35690000  0.08581000  1.0
  C  C142  1  0.37707000  0.25447000  0.98353000  1.0
  C  C143  1  0.45983000  0.44025000  0.53648000  1.0
  C  C144  1  0.40872000  0.37529000  0.57068000  1.0
  C  C145  1  0.39376000  0.44862000  0.46256000  1.0
  C  C146  1  0.56898000  0.49298000  0.57634000  1.0
  C  C147  1  0.35520000  0.08345000  0.40477000  1.0
  C  C148  1  0.23488000  0.91432000  0.27111000  1.0
  C  C149  1  0.39365000  0.01649000  0.27090000  1.0
  C  C150  1  0.51963000  0.55986000  0.09623000  1.0
  C  C151  1  0.53354000  0.62487000  0.19538000  1.0
  C  C152  1  0.44519000  0.55145000  0.01391000  1.0
  C  C153  1  0.57600000  0.50708000  0.08338000  1.0
  C  C154  1  0.77176000  0.91664000  0.32146000  1.0
  C  C155  1  0.82055000  0.08581000  0.35690000  1.0
  C  C156  1  0.87707000  0.98353000  0.25447000  1.0
  C  C157  1  0.95983000  0.53648000  0.44025000  1.0
  C  C158  1  0.90872000  0.57068000  0.37529000  1.0
  C  C159  1  0.89376000  0.46256000  0.44862000  1.0
  C  C160  1  0.06898000  0.57634000  0.49298000  1.0
  C  C161  1  0.85520000  0.40477000  0.08345000  1.0
  C  C162  1  0.73487000  0.27111000  0.91432000  1.0
  C  C163  1  0.89365000  0.27090000  0.01649000  1.0
  C  C164  1  0.42334000  0.90377000  0.46358000  1.0
  C  C165  1  0.33806000  0.80459000  0.42941000  1.0
  C  C166  1  0.43119000  0.98612000  0.53744000  1.0
  C  C167  1  0.49265000  0.91660000  0.42375000  1.0
  C  C168  1  0.45027000  0.67852000  0.59522000  1.0
  C  C169  1  0.46334000  0.64305000  0.72889000  1.0
  C  C170  1  0.62240000  0.74552000  0.72928000  1.0
  C  C171  1  0.07666000  0.53642000  0.09623000  1.0
  C  C172  1  0.16193000  0.57059000  0.19541000  1.0
  C  C173  1  0.06880000  0.46255000  0.01388000  1.0
  C  C174  1  0.00735000  0.57625000  0.08340000  1.0
  C  C175  1  0.04973000  0.40478000  0.32148000  1.0
  C  C176  1  0.03666000  0.27112000  0.35695000  1.0
  C  C177  1  0.87760000  0.27072000  0.25448000  1.0
  C  C178  1  0.98037000  0.90377000  0.44015000  1.0
  C  C179  1  0.96647000  0.80462000  0.37513000  1.0
  C  C180  1  0.05481000  0.98609000  0.44855000  1.0
  C  C181  1  0.92400000  0.91661000  0.49292000  1.0
  C  C182  1  0.72824000  0.67854000  0.08335000  1.0
  C  C183  1  0.67945000  0.64310000  0.91419000  1.0
  C  C184  1  0.62293000  0.74553000  0.01647000  1.0
  C  C185  1  0.54017000  0.55975000  0.46352000  1.0
  C  C186  1  0.59128000  0.62471000  0.42932000  1.0
  C  C187  1  0.60624000  0.55138000  0.53745000  1.0
  C  C188  1  0.43102000  0.50702000  0.42366000  1.0
  C  C189  1  0.64480000  0.91655000  0.59523000  1.0
  C  C190  1  0.76513000  0.08568000  0.72889000  1.0
  C  C191  1  0.60635000  0.98351000  0.72910000  1.0
  S  S192  1  0.33432000  0.49407000  0.81964000  1.0
  S  S193  1  0.84019000  0.32553000  0.50587000  1.0
  S  S194  1  0.51461000  0.18037000  0.67433000  1.0
  S  S195  1  0.98539000  0.32566000  0.81962000  1.0
  S  S196  1  0.16568000  0.18036000  0.50593000  1.0
  S  S197  1  0.65981000  0.49413000  0.67447000  1.0
  S  S198  1  0.66568000  0.50593000  0.18037000  1.0
  S  S199  1  0.15981000  0.67447000  0.49413000  1.0
  S  S200  1  0.48539000  0.81963000  0.32566000  1.0
  S  S201  1  0.01461000  0.67434000  0.18038000  1.0
  S  S202  1  0.83432000  0.81964000  0.49407000  1.0
  S  S203  1  0.34019000  0.50587000  0.32553000  1.0
  N  N204  1  0.18023000  0.00824000  0.69035000  1.0
  N  N205  1  0.17186000  0.68213000  0.99168000  1.0
  N  N206  1  0.49005000  0.30964000  0.31779000  1.0
  N  N207  1  0.00995000  0.68221000  0.69036000  1.0
  N  N208  1  0.31977000  0.30965000  0.99176000  1.0
  N  N209  1  0.32814000  0.00832000  0.31787000  1.0
  N  N210  1  0.81977000  0.99176000  0.30965000  1.0
  N  N211  1  0.82814000  0.31787000  0.00832000  1.0
  N  N212  1  0.50995000  0.69036000  0.68221000  1.0
  N  N213  1  0.99005000  0.31779000  0.30964000  1.0
  N  N214  1  0.68023000  0.69035000  0.00824000  1.0
  N  N215  1  0.67186000  0.99168000  0.68213000  1.0
  O  O216  1  0.37378000  0.30646000  0.73482000  1.0
  O  O217  1  0.54802000  0.38996000  0.79659000  1.0
  O  O218  1  0.27823000  0.07974000  0.63135000  1.0
  O  O219  1  0.06732000  0.42825000  0.69341000  1.0
  O  O220  1  0.15797000  0.40640000  0.60982000  1.0
  O  O221  1  0.19849000  0.55174000  0.92012000  1.0
  O  O222  1  0.63903000  0.26517000  0.57166000  1.0
  O  O223  1  0.75153000  0.20344000  0.59354000  1.0
  O  O224  1  0.64690000  0.36866000  0.44847000  1.0
  O  O225  1  0.86098000  0.42834000  0.73483000  1.0
  O  O226  1  0.74847000  0.40646000  0.79656000  1.0
  O  O227  1  0.85310000  0.55154000  0.63134000  1.0
  O  O228  1  0.12623000  0.26517000  0.69354000  1.0
  O  O229  1  0.95198000  0.20341000  0.61005000  1.0
  O  O230  1  0.22177000  0.36865000  0.92026000  1.0
  O  O231  1  0.43268000  0.30659000  0.57175000  1.0
  O  O232  1  0.34203000  0.39018000  0.59360000  1.0
  O  O233  1  0.30151000  0.07988000  0.44826000  1.0
  O  O234  1  0.62622000  0.69354000  0.26518000  1.0
  O  O235  1  0.45198000  0.61005000  0.20341000  1.0
  O  O236  1  0.72177000  0.92026000  0.36865000  1.0
  O  O237  1  0.93268000  0.57175000  0.30659000  1.0
  O  O238  1  0.84204000  0.59360000  0.39018000  1.0
  O  O239  1  0.80151000  0.44826000  0.07988000  1.0
  O  O240  1  0.36097000  0.73483000  0.42834000  1.0
  O  O241  1  0.24847000  0.79655000  0.40645000  1.0
  O  O242  1  0.35310000  0.63133000  0.55153000  1.0
  O  O243  1  0.13902000  0.57166000  0.26517000  1.0
  O  O244  1  0.25153000  0.59354000  0.20344000  1.0
  O  O245  1  0.14690000  0.44847000  0.36866000  1.0
  O  O246  1  0.87378000  0.73482000  0.30646000  1.0
  O  O247  1  0.04802000  0.79659000  0.38996000  1.0
  O  O248  1  0.77823000  0.63135000  0.07974000  1.0
  O  O249  1  0.56732000  0.69341000  0.42825000  1.0
  O  O250  1  0.65797000  0.60983000  0.40640000  1.0
  O  O251  1  0.69849000  0.92012000  0.55175000  1.0
