# generated using pymatgen
data_ZnH24C26S(N2O3)2
_symmetry_space_group_name_H-M   'P 1'
_cell_length_a   9.76475000
_cell_length_b   11.63510000
_cell_length_c   12.06670000
_cell_angle_alpha   92.14260000
_cell_angle_beta   96.63550000
_cell_angle_gamma   103.79400000
_symmetry_Int_Tables_number   1
_chemical_formula_structural   ZnH24C26S(N2O3)2
_chemical_formula_sum   'Zn2 H48 C52 S2 N8 O12'
_cell_volume   1319.48657469
_cell_formula_units_Z   2
loop_
 _symmetry_equiv_pos_site_id
 _symmetry_equiv_pos_as_xyz
  1  'x, y, z'
loop_
 _atom_site_type_symbol
 _atom_site_label
 _atom_site_symmetry_multiplicity
 _atom_site_fract_x
 _atom_site_fract_y
 _atom_site_fract_z
 _atom_site_occupancy
  Zn  Zn0  1  0.99144000  0.67764000  0.81494000  1.0
  Zn  Zn1  1  0.00857000  0.32235000  0.18505000  1.0
  H  H2  1  0.54384000  0.65009000  0.92178000  1.0
  H  H3  1  0.45617000  0.34991000  0.07823000  1.0
  H  H4  1  0.62563000  0.41301000  0.92324000  1.0
  H  H5  1  0.37438000  0.58699000  0.07677000  1.0
  H  H6  1  0.55763000  0.47747000  0.80560000  1.0
  H  H7  1  0.44238000  0.52254000  0.19441000  1.0
  H  H8  1  0.33041000  0.46384000  0.87952000  1.0
  H  H9  1  0.66961000  0.53616000  0.12049000  1.0
  H  H10  1  0.36559000  0.32245000  0.87780000  1.0
  H  H11  1  0.63442000  0.67756000  0.12221000  1.0
  H  H12  1  0.14015000  0.04247000  0.63850000  1.0
  H  H13  1  0.85984000  0.95753000  0.36150000  1.0
  H  H14  1  0.98341000  0.82473000  0.48434000  1.0
  H  H15  1  0.01658000  0.17527000  0.51566000  1.0
  H  H16  1  0.16816000  0.86774000  0.52112000  1.0
  H  H17  1  0.83183000  0.13225000  0.47888000  1.0
  H  H18  1  0.17855000  0.05884000  0.42884000  1.0
  H  H19  1  0.82144000  0.94116000  0.57115000  1.0
  H  H20  1  0.09869000  0.93667000  0.33253000  1.0
  H  H21  1  0.90130000  0.06332000  0.66747000  1.0
  H  H22  1  0.07304000  0.84417000  0.04174000  1.0
  H  H23  1  0.92696000  0.15584000  0.95826000  1.0
  H  H24  1  0.32228000  0.67957000  0.85553000  1.0
  H  H25  1  0.67772000  0.32043000  0.14447000  1.0
  H  H26  1  0.50380000  0.84215000  0.01365000  1.0
  H  H27  1  0.49620000  0.15786000  0.98635000  1.0
  H  H28  1  0.18098000  0.04842000  0.09507000  1.0
  H  H29  1  0.81902000  0.95158000  0.90493000  1.0
  H  H30  1  0.27764000  0.21670000  0.23354000  1.0
  H  H31  1  0.72237000  0.78330000  0.76646000  1.0
  H  H32  1  0.63249000  0.06950000  0.34481000  1.0
  H  H33  1  0.36752000  0.93051000  0.65519000  1.0
  H  H34  1  0.53308000  0.89589000  0.20576000  1.0
  H  H35  1  0.46691000  0.10411000  0.79423000  1.0
  H  H36  1  0.34529000  0.43126000  0.33970000  1.0
  H  H37  1  0.65471000  0.56874000  0.66030000  1.0
  H  H38  1  0.17264000  0.48105000  0.45694000  1.0
  H  H39  1  0.82736000  0.51894000  0.54306000  1.0
  H  H40  1  0.29339000  0.25610000  0.70770000  1.0
  H  H41  1  0.70661000  0.74389000  0.29230000  1.0
  H  H42  1  0.46609000  0.20456000  0.58885000  1.0
  H  H43  1  0.53391000  0.79543000  0.41115000  1.0
  H  H44  1  0.14717000  0.58802000  0.61670000  1.0
  H  H45  1  0.85283000  0.41198000  0.38329000  1.0
  H  H46  1  0.93980000  0.39786000  0.86581000  1.0
  H  H47  1  0.06020000  0.60213000  0.13418000  1.0
  H  H48  1  0.07297000  0.25087000  0.75529000  1.0
  H  H49  1  0.92703000  0.74913000  0.24471000  1.0
  C  C50  1  0.76118000  0.65293000  0.93811000  1.0
  C  C51  1  0.23883000  0.34708000  0.06190000  1.0
  C  C52  1  0.61007000  0.59224000  0.95758000  1.0
  C  C53  1  0.38994000  0.40777000  0.04244000  1.0
  C  C54  1  0.55430000  0.46966000  0.89556000  1.0
  C  C55  1  0.44571000  0.53035000  0.10445000  1.0
  C  C56  1  0.40325000  0.41278000  0.91757000  1.0
  C  C57  1  0.59676000  0.58722000  0.08244000  1.0
  C  C58  1  0.03279000  0.88899000  0.71181000  1.0
  C  C59  1  0.96720000  0.11101000  0.28819000  1.0
  C  C60  1  0.04839000  0.96635000  0.61253000  1.0
  C  C61  1  0.95160000  0.03365000  0.38747000  1.0
  C  C62  1  0.07307000  0.90276000  0.50609000  1.0
  C  C63  1  0.92692000  0.09724000  0.49391000  1.0
  C  C64  1  0.08414000  0.98377000  0.40935000  1.0
  C  C65  1  0.91586000  0.01623000  0.59066000  1.0
  C  C66  1  0.16521000  0.82067000  0.01388000  1.0
  C  C67  1  0.83478000  0.17933000  0.98612000  1.0
  C  C68  1  0.29805000  0.73678000  0.91962000  1.0
  C  C69  1  0.70196000  0.26322000  0.08038000  1.0
  C  C70  1  0.38890000  0.81662000  0.99702000  1.0
  C  C71  1  0.61110000  0.18338000  0.00298000  1.0
  C  C72  1  0.35303000  0.96264000  0.14131000  1.0
  C  C73  1  0.64696000  0.03736000  0.85869000  1.0
  C  C74  1  0.27868000  0.05099000  0.14983000  1.0
  C  C75  1  0.72132000  0.94902000  0.85017000  1.0
  C  C76  1  0.33350000  0.14644000  0.22798000  1.0
  C  C77  1  0.66650000  0.85356000  0.77202000  1.0
  C  C78  1  0.46154000  0.15269000  0.29577000  1.0
  C  C79  1  0.53846000  0.84730000  0.70423000  1.0
  C  C80  1  0.53355000  0.06277000  0.29023000  1.0
  C  C81  1  0.46645000  0.93722000  0.70976000  1.0
  C  C82  1  0.47834000  0.96678000  0.21239000  1.0
  C  C83  1  0.52166000  0.03322000  0.78761000  1.0
  C  C84  1  0.41590000  0.31621000  0.45879000  1.0
  C  C85  1  0.58410000  0.68379000  0.54120000  1.0
  C  C86  1  0.33445000  0.39392000  0.42061000  1.0
  C  C87  1  0.66555000  0.60607000  0.57939000  1.0
  C  C88  1  0.23736000  0.42138000  0.48644000  1.0
  C  C89  1  0.76264000  0.57862000  0.51356000  1.0
  C  C90  1  0.22367000  0.37204000  0.58968000  1.0
  C  C91  1  0.77633000  0.62796000  0.41031000  1.0
  C  C92  1  0.30381000  0.29249000  0.62646000  1.0
  C  C93  1  0.69618000  0.70751000  0.37353000  1.0
  C  C94  1  0.40034000  0.26413000  0.56064000  1.0
  C  C95  1  0.59966000  0.73587000  0.43935000  1.0
  C  C96  1  0.10448000  0.51605000  0.66722000  1.0
  C  C97  1  0.89552000  0.48395000  0.33278000  1.0
  C  C98  1  0.00135000  0.41448000  0.79632000  1.0
  C  C99  1  0.99865000  0.58552000  0.20368000  1.0
  C  C100  1  0.06631000  0.34097000  0.74217000  1.0
  C  C101  1  0.93369000  0.65902000  0.25783000  1.0
  S  S102  1  0.54536000  0.28593000  0.37833000  1.0
  S  S103  1  0.45464000  0.71407000  0.62167000  1.0
  N  N104  1  0.15972000  0.73966000  0.93189000  1.0
  N  N105  1  0.84029000  0.26033000  0.06811000  1.0
  N  N106  1  0.30344000  0.86938000  0.05642000  1.0
  N  N107  1  0.69656000  0.13062000  0.94358000  1.0
  N  N108  1  0.13127000  0.40600000  0.65984000  1.0
  N  N109  1  0.86873000  0.59400000  0.34015000  1.0
  N  N110  1  0.02685000  0.52314000  0.74927000  1.0
  N  N111  1  0.97316000  0.47686000  0.25073000  1.0
  O  O112  1  0.83775000  0.73373000  0.00444000  1.0
  O  O113  1  0.16225000  0.26628000  0.99556000  1.0
  O  O114  1  0.79910000  0.61455000  0.84612000  1.0
  O  O115  1  0.20091000  0.38545000  0.15388000  1.0
  O  O116  1  0.01107000  0.77540000  0.68708000  1.0
  O  O117  1  0.98892000  0.22460000  0.31292000  1.0
  O  O118  1  0.03663000  0.93500000  0.80766000  1.0
  O  O119  1  0.96336000  0.06500000  0.19234000  1.0
  O  O120  1  0.57442000  0.37928000  0.30114000  1.0
  O  O121  1  0.42559000  0.62073000  0.69886000  1.0
  O  O122  1  0.66239000  0.26399000  0.45369000  1.0
  O  O123  1  0.33761000  0.73602000  0.54631000  1.0
