# generated using pymatgen
data_CdH17C22NO8
_symmetry_space_group_name_H-M   'P 1'
_cell_length_a   8.20388000
_cell_length_b   10.07640000
_cell_length_c   14.29360000
_cell_angle_alpha   97.39210000
_cell_angle_beta   101.39800000
_cell_angle_gamma   112.75000000
_symmetry_Int_Tables_number   1
_chemical_formula_structural   CdH17C22NO8
_chemical_formula_sum   'Cd2 H34 C44 N2 O16'
_cell_volume   1040.32266259
_cell_formula_units_Z   2
loop_
 _symmetry_equiv_pos_site_id
 _symmetry_equiv_pos_as_xyz
  1  'x, y, z'
loop_
 _atom_site_type_symbol
 _atom_site_label
 _atom_site_symmetry_multiplicity
 _atom_site_fract_x
 _atom_site_fract_y
 _atom_site_fract_z
 _atom_site_occupancy
  Cd  Cd0  1  0.19664000  0.92334000  0.54705000  1.0
  Cd  Cd1  1  0.80336000  0.07667000  0.45295000  1.0
  H  H2  1  0.50382000  0.09721000  0.72456000  1.0
  H  H3  1  0.49618000  0.90279000  0.27544000  1.0
  H  H4  1  0.59401000  0.09915000  0.63780000  1.0
  H  H5  1  0.40599000  0.90085000  0.36221000  1.0
  H  H6  1  0.11113000  0.70841000  0.29898000  1.0
  H  H7  1  0.88887000  0.29159000  0.70102000  1.0
  H  H8  1  0.18672000  0.44197000  0.53408000  1.0
  H  H9  1  0.81328000  0.55803000  0.46592000  1.0
  H  H10  1  0.00681000  0.13935000  0.84909000  1.0
  H  H11  1  0.99318000  0.86064000  0.15091000  1.0
  H  H12  1  0.38446000  0.21956000  0.33740000  1.0
  H  H13  1  0.61555000  0.78044000  0.66261000  1.0
  H  H14  1  0.37788000  0.63751000  0.30283000  1.0
  H  H15  1  0.62212000  0.36249000  0.69716000  1.0
  H  H16  1  0.14807000  0.73835000  0.70731000  1.0
  H  H17  1  0.85194000  0.26166000  0.29270000  1.0
  H  H18  1  0.36463000  0.21294000  0.16207000  1.0
  H  H19  1  0.63538000  0.78706000  0.83794000  1.0
  H  H20  1  0.58647000  0.29644000  0.24957000  1.0
  H  H21  1  0.41353000  0.70356000  0.75043000  1.0
  H  H22  1  0.09007000  0.74317000  0.87228000  1.0
  H  H23  1  0.90993000  0.25683000  0.12772000  1.0
  H  H24  1  0.01504000  0.85307000  0.00505000  1.0
  H  H25  1  0.98496000  0.14693000  0.99495000  1.0
  H  H26  1  0.07692000  0.12099000  0.68894000  1.0
  H  H27  1  0.92307000  0.87900000  0.31107000  1.0
  H  H28  1  0.95957000  0.59593000  0.05713000  1.0
  H  H29  1  0.04043000  0.40407000  0.94287000  1.0
  H  H30  1  0.33297000  0.20482000  0.99971000  1.0
  H  H31  1  0.66703000  0.79518000  0.00029000  1.0
  H  H32  1  0.76322000  0.47591000  0.88611000  1.0
  H  H33  1  0.23677000  0.52409000  0.11389000  1.0
  H  H34  1  0.44684000  0.27937000  0.85785000  1.0
  H  H35  1  0.55315000  0.72062000  0.14215000  1.0
  C  C36  1  0.27853000  0.55338000  0.42197000  1.0
  C  C37  1  0.72148000  0.44662000  0.57803000  1.0
  C  C38  1  0.24189000  0.43764000  0.47101000  1.0
  C  C39  1  0.75811000  0.56236000  0.52899000  1.0
  C  C40  1  0.38642000  0.42786000  0.30898000  1.0
  C  C41  1  0.61359000  0.57214000  0.69102000  1.0
  C  C42  1  0.24657000  0.68393000  0.45824000  1.0
  C  C43  1  0.75343000  0.31607000  0.54176000  1.0
  C  C44  1  0.03995000  0.04909000  0.82292000  1.0
  C  C45  1  0.96004000  0.95090000  0.17708000  1.0
  C  C46  1  0.35338000  0.31307000  0.35827000  1.0
  C  C47  1  0.64663000  0.68694000  0.64173000  1.0
  C  C48  1  0.27910000  0.31854000  0.43858000  1.0
  C  C49  1  0.72091000  0.68147000  0.56142000  1.0
  C  C50  1  0.23757000  0.19260000  0.48863000  1.0
  C  C51  1  0.76243000  0.80740000  0.51137000  1.0
  C  C52  1  0.34845000  0.54757000  0.34091000  1.0
  C  C53  1  0.65155000  0.45243000  0.65909000  1.0
  C  C54  1  0.04560000  0.94291000  0.87706000  1.0
  C  C55  1  0.95440000  0.05709000  0.12295000  1.0
  C  C56  1  0.12011000  0.82674000  0.74289000  1.0
  C  C57  1  0.87988000  0.17326000  0.25711000  1.0
  C  C58  1  0.49401000  0.31393000  0.19073000  1.0
  C  C59  1  0.50600000  0.68608000  0.80927000  1.0
  C  C60  1  0.75762000  0.46928000  0.12438000  1.0
  C  C61  1  0.24238000  0.53072000  0.87561000  1.0
  C  C62  1  0.08534000  0.82930000  0.83425000  1.0
  C  C63  1  0.91466000  0.17070000  0.16575000  1.0
  C  C64  1  0.88389000  0.54319000  0.22508000  1.0
  C  C65  1  0.11611000  0.45681000  0.77492000  1.0
  C  C66  1  0.01384000  0.94632000  0.97383000  1.0
  C  C67  1  0.98616000  0.05367000  0.02617000  1.0
  C  C68  1  0.07800000  0.04004000  0.73264000  1.0
  C  C69  1  0.92200000  0.95996000  0.26736000  1.0
  C  C70  1  0.57904000  0.35693000  0.10860000  1.0
  C  C71  1  0.42096000  0.64307000  0.89140000  1.0
  C  C72  1  0.82142000  0.50979000  0.04356000  1.0
  C  C73  1  0.17858000  0.49021000  0.95644000  1.0
  C  C74  1  0.47178000  0.28956000  0.01204000  1.0
  C  C75  1  0.52822000  0.71044000  0.98796000  1.0
  C  C76  1  0.71258000  0.44138000  0.94793000  1.0
  C  C77  1  0.28742000  0.55861000  0.05207000  1.0
  C  C78  1  0.53637000  0.33066000  0.93213000  1.0
  C  C79  1  0.46363000  0.66933000  0.06787000  1.0
  N  N80  1  0.11877000  0.93157000  0.69354000  1.0
  N  N81  1  0.88123000  0.06843000  0.30646000  1.0
  O  O82  1  0.12024000  0.16931000  0.53884000  1.0
  O  O83  1  0.87976000  0.83069000  0.46116000  1.0
  O  O84  1  0.22646000  0.70526000  0.54338000  1.0
  O  O85  1  0.77354000  0.29474000  0.45662000  1.0
  O  O86  1  0.24025000  0.77470000  0.40213000  1.0
  O  O87  1  0.75975000  0.22530000  0.59787000  1.0
  O  O88  1  0.45500000  0.43501000  0.22896000  1.0
  O  O89  1  0.54501000  0.56499000  0.77105000  1.0
  O  O90  1  0.32089000  0.11014000  0.47734000  1.0
  O  O91  1  0.67911000  0.88986000  0.52267000  1.0
  O  O92  1  0.50491000  0.03268000  0.66817000  1.0
  O  O93  1  0.49509000  0.96732000  0.33183000  1.0
  O  O94  1  0.02685000  0.66917000  0.22791000  1.0
  O  O95  1  0.97315000  0.33083000  0.77208000  1.0
  O  O96  1  0.86374000  0.49283000  0.29803000  1.0
  O  O97  1  0.13627000  0.50717000  0.70196000  1.0
