# generated using pymatgen
data_Cd3P2H26C14(NO6)2
_symmetry_space_group_name_H-M   'P 1'
_cell_length_a   9.84876000
_cell_length_b   10.75520000
_cell_length_c   12.54279079
_cell_angle_alpha   64.62715315
_cell_angle_beta   78.85889973
_cell_angle_gamma   89.97500000
_symmetry_Int_Tables_number   1
_chemical_formula_structural   Cd3P2H26C14(NO6)2
_chemical_formula_sum   'Cd6 P4 H52 C28 N4 O24'
_cell_volume   1172.72378454
_cell_formula_units_Z   2
loop_
 _symmetry_equiv_pos_site_id
 _symmetry_equiv_pos_as_xyz
  1  'x, y, z'
loop_
 _atom_site_type_symbol
 _atom_site_label
 _atom_site_symmetry_multiplicity
 _atom_site_fract_x
 _atom_site_fract_y
 _atom_site_fract_z
 _atom_site_occupancy
  Cd  Cd0  1  0.92442000  0.69074000  0.78290000  1.0
  Cd  Cd1  1  0.57562000  0.47389000  0.21697000  1.0
  Cd  Cd2  1  0.07558000  0.30927000  0.21709000  1.0
  Cd  Cd3  1  0.42438000  0.52611000  0.78304000  1.0
  Cd  Cd4  1  0.75008000  0.36648000  0.99994000  1.0
  Cd  Cd5  1  0.24992000  0.63352000  0.00006000  1.0
  P  P6  1  0.59395000  0.68534000  0.91052000  1.0
  P  P7  1  0.90594000  0.59586000  0.08950000  1.0
  P  P8  1  0.40604000  0.31467000  0.08948000  1.0
  P  P9  1  0.09406000  0.40414000  0.91050000  1.0
  H  H10  1  0.91121000  0.18439000  0.09859000  1.0
  H  H11  1  0.58890000  0.28304000  0.90139000  1.0
  H  H12  1  0.08878000  0.81561000  0.90141000  1.0
  H  H13  1  0.41110000  0.71697000  0.09861000  1.0
  H  H14  1  0.79138000  0.14683000  0.20999000  1.0
  H  H15  1  0.70868000  0.35680000  0.78995000  1.0
  H  H16  1  0.20862000  0.85317000  0.79001000  1.0
  H  H17  1  0.29133000  0.64319000  0.21006000  1.0
  H  H18  1  0.72811000  0.87412000  0.90115000  1.0
  H  H19  1  0.77169000  0.77542000  0.09893000  1.0
  H  H20  1  0.27189000  0.12588000  0.09885000  1.0
  H  H21  1  0.22831000  0.22458000  0.90107000  1.0
  H  H22  1  0.59779000  0.93338000  0.81547000  1.0
  H  H23  1  0.90200000  0.74876000  0.18465000  1.0
  H  H24  1  0.40222000  0.06663000  0.18453000  1.0
  H  H25  1  0.09800000  0.25124000  0.81536000  1.0
  H  H26  1  0.66846000  0.80041000  0.65288000  1.0
  H  H27  1  0.83097000  0.45306000  0.34725000  1.0
  H  H28  1  0.33154000  0.19959000  0.34712000  1.0
  H  H29  1  0.16903000  0.54694000  0.65275000  1.0
  H  H30  1  0.82519000  0.89774000  0.55502000  1.0
  H  H31  1  0.67433000  0.45309000  0.44499000  1.0
  H  H32  1  0.17482000  0.10226000  0.44498000  1.0
  H  H33  1  0.32568000  0.54691000  0.55501000  1.0
  H  H34  1  0.55815000  0.01417000  0.63024000  1.0
  H  H35  1  0.94169000  0.64398000  0.36996000  1.0
  H  H36  1  0.44186000  0.98584000  0.36975000  1.0
  H  H37  1  0.05831000  0.35602000  0.63004000  1.0
  H  H38  1  0.62622000  0.02117000  0.48689000  1.0
  H  H39  1  0.87343000  0.50773000  0.51325000  1.0
  H  H40  1  0.37378000  0.97883000  0.51311000  1.0
  H  H41  1  0.12657000  0.49227000  0.48675000  1.0
  H  H42  1  0.67535000  0.24004000  0.50518000  1.0
  H  H43  1  0.82452000  0.74494000  0.49512000  1.0
  H  H44  1  0.32465000  0.75995000  0.49482000  1.0
  H  H45  1  0.17548000  0.25506000  0.50488000  1.0
  H  H46  1  0.71290000  0.14886000  0.71089000  1.0
  H  H47  1  0.78712000  0.85966000  0.28936000  1.0
  H  H48  1  0.28710000  0.85113000  0.28911000  1.0
  H  H49  1  0.21288000  0.14033000  0.71065000  1.0
  H  H50  1  0.86997000  0.24117000  0.61328000  1.0
  H  H51  1  0.63004000  0.85455000  0.38695000  1.0
  H  H52  1  0.13002000  0.75884000  0.38671000  1.0
  H  H53  1  0.36996000  0.14544000  0.61306000  1.0
  H  H54  1  0.96819000  0.02502000  0.62316000  1.0
  H  H55  1  0.53162000  0.64864000  0.37681000  1.0
  H  H56  1  0.03181000  0.97498000  0.37684000  1.0
  H  H57  1  0.46838000  0.35137000  0.62319000  1.0
  H  H58  1  0.91455000  0.01228000  0.77086000  1.0
  H  H59  1  0.58547000  0.78353000  0.22917000  1.0
  H  H60  1  0.08545000  0.98773000  0.22914000  1.0
  H  H61  1  0.41453000  0.21646000  0.77084000  1.0
  C  C62  1  0.67970000  0.86177000  0.83405000  1.0
  C  C63  1  0.82010000  0.69588000  0.16597000  1.0
  C  C64  1  0.32031000  0.13824000  0.16595000  1.0
  C  C65  1  0.17990000  0.30413000  0.83403000  1.0
  C  C66  1  0.73495000  0.89589000  0.62292000  1.0
  C  C67  1  0.76470000  0.51884000  0.37714000  1.0
  C  C68  1  0.26505000  0.10411000  0.37708000  1.0
  C  C69  1  0.23530000  0.48116000  0.62286000  1.0
  C  C70  1  0.65553000  0.02101000  0.56696000  1.0
  C  C71  1  0.84425000  0.58775000  0.43319000  1.0
  C  C72  1  0.34447000  0.97898000  0.43304000  1.0
  C  C73  1  0.15575000  0.41224000  0.56681000  1.0
  C  C74  1  0.74332000  0.15545000  0.53243000  1.0
  C  C75  1  0.75655000  0.68779000  0.46774000  1.0
  C  C76  1  0.25668000  0.84456000  0.46756000  1.0
  C  C77  1  0.24345000  0.31221000  0.53226000  1.0
  C  C78  1  0.79924000  0.14903000  0.64057000  1.0
  C  C79  1  0.70075000  0.78963000  0.35961000  1.0
  C  C80  1  0.20076000  0.85097000  0.35943000  1.0
  C  C81  1  0.29925000  0.21036000  0.64040000  1.0
  C  C82  1  0.87682000  0.02039000  0.69135000  1.0
  C  C83  1  0.62307000  0.71202000  0.30869000  1.0
  C  C84  1  0.12318000  0.97962000  0.30865000  1.0
  C  C85  1  0.37693000  0.28799000  0.69131000  1.0
  C  C86  1  0.85886000  0.19307000  0.41972000  1.0
  C  C87  1  0.64091000  0.61283000  0.58041000  1.0
  C  C88  1  0.14114000  0.80693000  0.58027000  1.0
  C  C89  1  0.35909000  0.38715000  0.41960000  1.0
  N  N90  1  0.79029000  0.88982000  0.72706000  1.0
  N  N91  1  0.70950000  0.61702000  0.27298000  1.0
  N  N92  1  0.20971000  0.11018000  0.27294000  1.0
  N  N93  1  0.29050000  0.38297000  0.72703000  1.0
  O  O94  1  0.69722000  0.59075000  0.88131000  1.0
  O  O95  1  0.80288000  0.47203000  0.11870000  1.0
  O  O96  1  0.30278000  0.40925000  0.11869000  1.0
  O  O97  1  0.19712000  0.52797000  0.88130000  1.0
  O  O98  1  0.46035000  0.68020000  0.86335000  1.0
  O  O99  1  0.03954000  0.54367000  0.13678000  1.0
  O  O100  1  0.53965000  0.31980000  0.13665000  1.0
  O  O101  1  0.96046000  0.45633000  0.86322000  1.0
  O  O102  1  0.55704000  0.65970000  0.04384000  1.0
  O  O103  1  0.94285000  0.70338000  0.95616000  1.0
  O  O104  1  0.44296000  0.34031000  0.95615000  1.0
  O  O105  1  0.05715000  0.29662000  0.04384000  1.0
  O  O106  1  0.97028000  0.26266000  0.41044000  1.0
  O  O107  1  0.52940000  0.67314000  0.58957000  1.0
  O  O108  1  0.02971000  0.73736000  0.58954000  1.0
  O  O109  1  0.47061000  0.32686000  0.41044000  1.0
  O  O110  1  0.84118000  0.16115000  0.33667000  1.0
  O  O111  1  0.65867000  0.49798000  0.66352000  1.0
  O  O112  1  0.15881000  0.83884000  0.66332000  1.0
  O  O113  1  0.34132000  0.50200000  0.33647000  1.0
  O  O114  1  0.81001000  0.15195000  0.12785000  1.0
  O  O115  1  0.69012000  0.27981000  0.87206000  1.0
  O  O116  1  0.18999000  0.84805000  0.87215000  1.0
  O  O117  1  0.30988000  0.72020000  0.12794000  1.0
