# generated using pymatgen
data_ZnH10(C7N3)2
_symmetry_space_group_name_H-M   'P 1'
_cell_length_a   14.78130000
_cell_length_b   14.82950000
_cell_length_c   15.20047814
_cell_angle_alpha   106.77908743
_cell_angle_beta   109.27090464
_cell_angle_gamma   110.11800000
_symmetry_Int_Tables_number   1
_chemical_formula_structural   ZnH10(C7N3)2
_chemical_formula_sum   'Zn4 H40 C56 N24'
_cell_volume   2631.79281787
_cell_formula_units_Z   4
loop_
 _symmetry_equiv_pos_site_id
 _symmetry_equiv_pos_as_xyz
  1  'x, y, z'
loop_
 _atom_site_type_symbol
 _atom_site_label
 _atom_site_symmetry_multiplicity
 _atom_site_fract_x
 _atom_site_fract_y
 _atom_site_fract_z
 _atom_site_occupancy
  Zn  Zn0  1  0.13072000  0.63524000  0.49021000  1.0
  Zn  Zn1  1  0.85905000  0.51214000  0.36953000  1.0
  Zn  Zn2  1  0.87708000  0.37604000  0.50405000  1.0
  Zn  Zn3  1  0.14471000  0.51357000  0.64634000  1.0
  H  H4  1  0.62394000  0.27054000  0.46948000  1.0
  H  H5  1  0.17879000  0.70135000  0.84136000  1.0
  H  H6  1  0.34491000  0.87171000  0.66128000  1.0
  H  H7  1  0.81057000  0.66302000  0.52280000  1.0
  H  H8  1  0.17268000  0.68974000  0.30882000  1.0
  H  H9  1  0.15364000  0.31177000  0.51540000  1.0
  H  H10  1  0.83190000  0.15871000  0.52360000  1.0
  H  H11  1  0.78736000  0.35107000  0.15140000  1.0
  H  H12  1  0.61200000  0.04127000  0.08831000  1.0
  H  H13  1  0.06533000  0.12088000  0.71128000  1.0
  H  H14  1  0.35301000  0.41739000  0.40293000  1.0
  H  H15  1  0.92000000  0.62216000  0.04210000  1.0
  H  H16  1  0.02146000  0.96770000  0.59547000  1.0
  H  H17  1  0.55780000  0.94839000  0.92888000  1.0
  H  H18  1  0.95438000  0.56278000  0.91872000  1.0
  H  H19  1  0.41377000  0.35998000  0.31385000  1.0
  H  H20  1  0.47331000  0.22140000  0.99402000  1.0
  H  H21  1  0.60666000  0.29568000  0.10213000  1.0
  H  H22  1  0.58754000  0.25574000  0.97274000  1.0
  H  H23  1  0.72693000  0.97147000  0.61597000  1.0
  H  H24  1  0.78974000  0.10526000  0.63314000  1.0
  H  H25  1  0.74154000  0.99399000  0.51259000  1.0
  H  H26  1  0.17623000  0.08693000  0.30678000  1.0
  H  H27  1  0.21942000  0.15149000  0.44193000  1.0
  H  H28  1  0.12138000  0.16840000  0.35245000  1.0
  H  H29  1  0.25322000  0.86374000  0.19773000  1.0
  H  H30  1  0.19543000  0.82474000  0.27454000  1.0
  H  H31  1  0.24621000  0.74847000  0.21263000  1.0
  H  H32  1  0.78799000  0.89137000  0.70152000  1.0
  H  H33  1  0.72884000  0.79729000  0.56920000  1.0
  H  H34  1  0.83439000  0.79725000  0.66830000  1.0
  H  H35  1  0.33151000  0.05586000  0.93526000  1.0
  H  H36  1  0.35233000  0.06679000  0.82990000  1.0
  H  H37  1  0.28545000  0.93775000  0.82146000  1.0
  H  H38  1  0.18016000  0.89466000  0.07015000  1.0
  H  H39  1  0.24760000  0.82420000  0.03431000  1.0
  H  H40  1  0.13849000  0.82115000  0.93603000  1.0
  H  H41  1  0.34543000  0.11239000  0.40884000  1.0
  H  H42  1  0.45229000  0.14396000  0.37522000  1.0
  H  H43  1  0.47625000  0.22386000  0.50149000  1.0
  C  C44  1  0.06499000  0.80321000  0.57592000  1.0
  C  C45  1  0.61862000  0.41292000  0.33996000  1.0
  C  C46  1  0.20166000  0.79422000  0.20306000  1.0
  C  C47  1  0.80648000  0.84952000  0.64317000  1.0
  C  C48  1  0.35174000  0.02069000  0.87511000  1.0
  C  C49  1  0.16698000  0.82042000  0.01206000  1.0
  C  C50  1  0.41573000  0.17899000  0.41758000  1.0
  C  C51  1  0.55575000  0.22977000  0.02229000  1.0
  C  C52  1  0.78232000  0.02549000  0.59832000  1.0
  C  C53  1  0.19614000  0.16147000  0.37010000  1.0
  C  C54  1  0.91831000  0.52170000  0.71717000  1.0
  C  C55  1  0.35279000  0.73221000  0.79257000  1.0
  C  C56  1  0.77458000  0.21257000  0.28428000  1.0
  C  C57  1  0.90790000  0.59742000  0.21382000  1.0
  C  C58  1  0.19223000  0.46859000  0.40215000  1.0
  C  C59  1  0.09089000  0.31404000  0.70021000  1.0
  C  C60  1  0.63249000  0.31830000  0.42773000  1.0
  C  C61  1  0.09325000  0.64118000  0.79005000  1.0
  C  C62  1  0.33767000  0.81488000  0.69367000  1.0
  C  C63  1  0.89557000  0.69958000  0.53967000  1.0
  C  C64  1  0.08719000  0.66153000  0.28846000  1.0
  C  C65  1  0.15808000  0.36614000  0.48013000  1.0
  C  C66  1  0.91590000  0.21917000  0.58078000  1.0
  C  C67  1  0.79159000  0.31600000  0.20520000  1.0
  C  C68  1  0.97182000  0.80845000  0.57918000  1.0
  C  C69  1  0.55589000  0.34163000  0.36845000  1.0
  C  C70  1  0.00833000  0.60573000  0.81524000  1.0
  C  C71  1  0.39429000  0.83575000  0.79754000  1.0
  C  C72  1  0.72580000  0.21056000  0.18570000  1.0
  C  C73  1  0.99999000  0.64469000  0.19946000  1.0
  C  C74  1  0.20960000  0.38540000  0.41950000  1.0
  C  C75  1  0.99637000  0.21245000  0.65583000  1.0
  C  C76  1  0.55285000  0.12585000  0.01686000  1.0
  C  C77  1  0.89228000  0.02977000  0.63828000  1.0
  C  C78  1  0.28648000  0.25781000  0.38062000  1.0
  C  C79  1  0.09030000  0.72477000  0.10725000  1.0
  C  C80  1  0.89181000  0.92831000  0.63074000  1.0
  C  C81  1  0.46053000  0.02449000  0.92467000  1.0
  C  C82  1  0.08500000  0.72220000  0.00772000  1.0
  C  C83  1  0.38365000  0.25176000  0.37870000  1.0
  C  C84  1  0.62852000  0.12071000  0.09318000  1.0
  C  C85  1  0.98786000  0.11986000  0.67290000  1.0
  C  C86  1  0.28452000  0.35219000  0.39761000  1.0
  C  C87  1  0.00019000  0.66333000  0.11143000  1.0
  C  C88  1  0.96374000  0.90593000  0.60429000  1.0
  C  C89  1  0.47663000  0.93951000  0.88831000  1.0
  C  C90  1  0.01226000  0.63047000  0.91623000  1.0
  C  C91  1  0.44603000  0.31620000  0.34981000  1.0
  C  C92  1  0.16019000  0.88800000  0.59261000  1.0
  C  C93  1  0.58798000  0.47017000  0.28697000  1.0
  C  C94  1  0.81235000  0.45098000  0.69561000  1.0
  C  C95  1  0.37634000  0.70545000  0.87644000  1.0
  C  C96  1  0.73881000  0.13043000  0.31367000  1.0
  C  C97  1  0.79587000  0.55427000  0.14447000  1.0
  C  C98  1  0.23084000  0.52454000  0.35006000  1.0
  C  C99  1  0.19805000  0.35036000  0.77731000  1.0
  N  N100  1  0.04478000  0.69950000  0.53978000  1.0
  N  N101  1  0.72307000  0.42910000  0.37929000  1.0
  N  N102  1  0.94963000  0.51019000  0.64160000  1.0
  N  N103  1  0.27570000  0.65613000  0.69253000  1.0
  N  N104  1  0.85939000  0.31319000  0.35669000  1.0
  N  N105  1  0.93987000  0.59017000  0.30538000  1.0
  N  N106  1  0.13594000  0.49590000  0.45019000  1.0
  N  N107  1  0.06628000  0.37531000  0.65460000  1.0
  N  N108  1  0.73017000  0.37089000  0.43361000  1.0
  N  N109  1  0.05711000  0.58194000  0.68713000  1.0
  N  N110  1  0.26728000  0.70863000  0.63237000  1.0
  N  N111  1  0.94045000  0.63641000  0.51521000  1.0
  N  N112  1  0.05044000  0.62918000  0.34953000  1.0
  N  N113  1  0.11694000  0.43425000  0.49912000  1.0
  N  N114  1  0.95836000  0.31489000  0.58103000  1.0
  N  N115  1  0.86903000  0.37623000  0.30755000  1.0
  N  N116  1  0.23582000  0.95841000  0.60172000  1.0
  N  N117  1  0.56394000  0.52054000  0.24638000  1.0
  N  N118  1  0.72584000  0.38997000  0.67847000  1.0
  N  N119  1  0.39389000  0.68654000  0.94798000  1.0
  N  N120  1  0.70757000  0.06456000  0.34019000  1.0
  N  N121  1  0.70301000  0.51459000  0.08457000  1.0
  N  N122  1  0.26487000  0.57379000  0.30981000  1.0
  N  N123  1  0.28591000  0.37659000  0.84007000  1.0
