# generated using pymatgen
data_Zn2H17C28N8(O2F)3
_symmetry_space_group_name_H-M   'P 1'
_cell_length_a   14.36960000
_cell_length_b   14.68816438
_cell_length_c   14.75776858
_cell_angle_alpha   60.15918586
_cell_angle_beta   86.58321778
_cell_angle_gamma   61.48597192
_symmetry_Int_Tables_number   1
_chemical_formula_structural   Zn2H17C28N8(O2F)3
_chemical_formula_sum   'Zn4 H34 C56 N16 O12 F6'
_cell_volume   2308.49581949
_cell_formula_units_Z   2
loop_
 _symmetry_equiv_pos_site_id
 _symmetry_equiv_pos_as_xyz
  1  'x, y, z'
loop_
 _atom_site_type_symbol
 _atom_site_label
 _atom_site_symmetry_multiplicity
 _atom_site_fract_x
 _atom_site_fract_y
 _atom_site_fract_z
 _atom_site_occupancy
  Zn  Zn0  1  0.35258000  0.13245000  0.35832000  1.0
  Zn  Zn1  1  0.50243000  0.15875000  0.50276000  1.0
  Zn  Zn2  1  0.64406000  0.85358000  0.64609000  1.0
  Zn  Zn3  1  0.50149000  0.82655000  0.50443000  1.0
  H  H4  1  0.49560000  0.18759000  0.18826000  1.0
  H  H5  1  0.65763000  0.20627000  0.33379000  1.0
  H  H6  1  0.42493000  0.42953000  0.01084000  1.0
  H  H7  1  0.22071000  0.60040000  0.98818000  1.0
  H  H8  1  0.44252000  0.56302000  0.85209000  1.0
  H  H9  1  0.27201000  0.68633000  0.82793000  1.0
  H  H10  1  0.49616000  0.70682000  0.98710000  1.0
  H  H11  1  0.35346000  0.80725000  0.96276000  1.0
  H  H12  1  0.98534000  0.17999000  0.20534000  1.0
  H  H13  1  0.49475000  0.16400000  0.85311000  1.0
  H  H14  1  0.14858000  0.78808000  0.42086000  1.0
  H  H15  1  0.81047000  0.83843000  0.03076000  1.0
  H  H16  1  0.97466000  0.80481000  0.44999000  1.0
  H  H17  1  0.77582000  0.84543000  0.19384000  1.0
  H  H18  1  0.07395000  0.12761000  0.72929000  1.0
  H  H19  1  0.13571000  0.42175000  0.54096000  1.0
  H  H20  1  0.90438000  0.26932000  0.75093000  1.0
  H  H21  1  0.96988000  0.56060000  0.56924000  1.0
  H  H22  1  0.68893000  0.54738000  0.55842000  1.0
  H  H23  1  0.86930000  0.58854000  0.74487000  1.0
  H  H24  1  0.46770000  0.42423000  0.31103000  1.0
  H  H25  1  0.27377000  0.39002000  0.13017000  1.0
  H  H26  1  0.51938000  0.83353000  0.83448000  1.0
  H  H27  1  0.33906000  0.78576000  0.65345000  1.0
  H  H28  1  0.30517000  0.78028000  0.45945000  1.0
  H  H29  1  0.72215000  0.79883000  0.88539000  1.0
  H  H30  1  0.53407000  0.40764000  0.08366000  1.0
  H  H31  1  0.21097000  0.70647000  0.01852000  1.0
  H  H32  1  0.69375000  0.49981000  0.83845000  1.0
  H  H33  1  0.10620000  0.98775000  0.67371000  1.0
  H  H34  1  0.73439000  0.39903000  0.10507000  1.0
  H  H35  1  0.30411000  0.34405000  0.90832000  1.0
  H  H36  1  0.99477000  0.16343000  0.48491000  1.0
  H  H37  1  0.42467000  0.32035000  0.62157000  1.0
  C  C38  1  0.52642000  0.09004000  0.23950000  1.0
  C  C39  1  0.68768000  0.10910000  0.38619000  1.0
  C  C40  1  0.28408000  0.87474000  0.40535000  1.0
  C  C41  1  0.68633000  0.89520000  0.82273000  1.0
  C  C42  1  0.61684000  0.09213000  0.72584000  1.0
  C  C43  1  0.21066000  0.06955000  0.28413000  1.0
  C  C44  1  0.21022000  0.19486000  0.59983000  1.0
  C  C45  1  0.41319000  0.78361000  0.78581000  1.0
  C  C46  1  0.18688000  0.97578000  0.32741000  1.0
  C  C47  1  0.66083000  0.99428000  0.83299000  1.0
  C  C48  1  0.45570000  0.47811000  0.02484000  1.0
  C  C49  1  0.26234000  0.64529000  0.99121000  1.0
  C  C50  1  0.46954000  0.56646000  0.91771000  1.0
  C  C51  1  0.27700000  0.72032000  0.87794000  1.0
  C  C52  1  0.41516000  0.61893000  0.08750000  1.0
  C  C53  1  0.37363000  0.54711000  0.07330000  1.0
  C  C54  1  0.39350000  0.70228000  0.88809000  1.0
  C  C55  1  0.77181000  0.90982000  0.47163000  1.0
  C  C56  1  0.60478000  0.89230000  0.31491000  1.0
  C  C57  1  0.41618000  0.71624000  0.97976000  1.0
  C  C58  1  0.88273000  0.10653000  0.27052000  1.0
  C  C59  1  0.53658000  0.09777000  0.01929000  1.0
  C  C60  1  0.98422000  0.09651000  0.25926000  1.0
  C  C61  1  0.55880000  0.09581000  0.92662000  1.0
  C  C62  1  0.08254000  0.98383000  0.31752000  1.0
  C  C63  1  0.65500000  0.00111000  0.92910000  1.0
  C  C64  1  0.07486000  0.87873000  0.37916000  1.0
  C  C65  1  0.73360000  0.91179000  0.02664000  1.0
  C  C66  1  0.97528000  0.88822000  0.39468000  1.0
  C  C67  1  0.71371000  0.91534000  0.11879000  1.0
  C  C68  1  0.87668000  0.00231000  0.34720000  1.0
  C  C69  1  0.61444000  0.00520000  0.11873000  1.0
  C  C70  1  0.05002000  0.22337000  0.69072000  1.0
  C  C71  1  0.08649000  0.38710000  0.58929000  1.0
  C  C72  1  0.95513000  0.30299000  0.70470000  1.0
  C  C73  1  0.99338000  0.46527000  0.60488000  1.0
  C  C74  1  0.92451000  0.42536000  0.66056000  1.0
  C  C75  1  0.71613000  0.57380000  0.60347000  1.0
  C  C76  1  0.80824000  0.59513000  0.69812000  1.0
  C  C77  1  0.11532000  0.26547000  0.63019000  1.0
  C  C78  1  0.42144000  0.39929000  0.28239000  1.0
  C  C79  1  0.32208000  0.38296000  0.18981000  1.0
  C  C80  1  0.58964000  0.99693000  0.21909000  1.0
  C  C81  1  0.78127000  0.00842000  0.39133000  1.0
  C  C82  1  0.82120000  0.51888000  0.66185000  1.0
  C  C83  1  0.36770000  0.45305000  0.17735000  1.0
  C  C84  1  0.21371000  0.15626000  0.52841000  1.0
  C  C85  1  0.31021000  0.18922000  0.60589000  1.0
  C  C86  1  0.48177000  0.82961000  0.77592000  1.0
  C  C87  1  0.39043000  0.80457000  0.68374000  1.0
  C  C88  1  0.58655000  0.53406000  0.91779000  1.0
  C  C89  1  0.19054000  0.85529000  0.81844000  1.0
  C  C90  1  0.78425000  0.22761000  0.19457000  1.0
  C  C91  1  0.42212000  0.18767000  0.00914000  1.0
  C  C92  1  0.12467000  0.16744000  0.47226000  1.0
  C  C93  1  0.34537000  0.23829000  0.65311000  1.0
  N  N94  1  0.50474000  0.04351000  0.33718000  1.0
  N  N95  1  0.63266000  0.07049000  0.45787000  1.0
  N  N96  1  0.68499000  0.94552000  0.51201000  1.0
  N  N97  1  0.55421000  0.91901000  0.38462000  1.0
  N  N98  1  0.64671000  0.67538000  0.60401000  1.0
  N  N99  1  0.70392000  0.68855000  0.66352000  1.0
  N  N100  1  0.40923000  0.30445000  0.35168000  1.0
  N  N101  1  0.34726000  0.29400000  0.29427000  1.0
  N  N102  1  0.30938000  0.13027000  0.49571000  1.0
  N  N103  1  0.36797000  0.14900000  0.54427000  1.0
  N  N104  1  0.49972000  0.87228000  0.67587000  1.0
  N  N105  1  0.44346000  0.85677000  0.61949000  1.0
  N  N106  1  0.35537000  0.90792000  0.40894000  1.0
  N  N107  1  0.65664000  0.93432000  0.71913000  1.0
  N  N108  1  0.61050000  0.06013000  0.65716000  1.0
  N  N109  1  0.30823000  0.03204000  0.33348000  1.0
  O  O110  1  0.64633000  0.52751000  0.97982000  1.0
  O  O111  1  0.61943000  0.51437000  0.83848000  1.0
  O  O112  1  0.16045000  0.91977000  0.85593000  1.0
  O  O113  1  0.15203000  0.89741000  0.71530000  1.0
  O  O114  1  0.70147000  0.23982000  0.15815000  1.0
  O  O115  1  0.79696000  0.32324000  0.16524000  1.0
  O  O116  1  0.36459000  0.16840000  0.07192000  1.0
  O  O117  1  0.38263000  0.29888000  0.91418000  1.0
  O  O118  1  0.11012000  0.19874000  0.37822000  1.0
  O  O119  1  0.05401000  0.14393000  0.53392000  1.0
  O  O120  1  0.33452000  0.23071000  0.73865000  1.0
  O  O121  1  0.39089000  0.30115000  0.58302000  1.0
  F  F122  1  0.52002000  0.53903000  0.15484000  1.0
  F  F123  1  0.35164000  0.67309000  0.14133000  1.0
  F  F124  1  0.83828000  0.78905000  0.51085000  1.0
  F  F125  1  0.65841000  0.77548000  0.33992000  1.0
  F  F126  1  0.58619000  0.20992000  0.68853000  1.0
  F  F127  1  0.14870000  0.18639000  0.20315000  1.0
