# generated using pymatgen
data_Al2H18C29(NO3)4
_symmetry_space_group_name_H-M   'P 1'
_cell_length_a   6.67074000
_cell_length_b   22.35500000
_cell_length_c   25.59060000
_cell_angle_alpha   89.44740000
_cell_angle_beta   89.99170000
_cell_angle_gamma   89.91090000
_symmetry_Int_Tables_number   1
_chemical_formula_structural   Al2H18C29(NO3)4
_chemical_formula_sum   'Al4 H36 C58 N8 O24'
_cell_volume   3816.00054818
_cell_formula_units_Z   2
loop_
 _symmetry_equiv_pos_site_id
 _symmetry_equiv_pos_as_xyz
  1  'x, y, z'
loop_
 _atom_site_type_symbol
 _atom_site_label
 _atom_site_symmetry_multiplicity
 _atom_site_fract_x
 _atom_site_fract_y
 _atom_site_fract_z
 _atom_site_occupancy
  Al  Al0  1  0.71718000  0.74524000  0.74821000  1.0
  Al  Al1  1  0.28282000  0.25477000  0.25179000  1.0
  Al  Al2  1  0.21874000  0.74752000  0.74833000  1.0
  Al  Al3  1  0.78126000  0.25248000  0.25167000  1.0
  H  H4  1  0.27846000  0.87477000  0.86358000  1.0
  H  H5  1  0.72149000  0.12525000  0.13642000  1.0
  H  H6  1  0.36182000  0.14199000  0.13214000  1.0
  H  H7  1  0.63816000  0.85799000  0.86787000  1.0
  H  H8  1  0.23022000  0.00332000  0.00169000  1.0
  H  H9  1  0.76964000  0.99668000  0.99831000  1.0
  H  H10  1  0.62274000  0.93068000  0.94123000  1.0
  H  H11  1  0.37717000  0.06930000  0.05878000  1.0
  H  H12  1  0.73302000  0.05221000  0.06420000  1.0
  H  H13  1  0.26688000  0.94782000  0.93581000  1.0
  H  H14  1  0.23534000  0.90028000  0.65063000  1.0
  H  H15  1  0.76469000  0.09973000  0.34938000  1.0
  H  H16  1  0.22815000  0.97555000  0.57735000  1.0
  H  H17  1  0.77190000  0.02447000  0.42267000  1.0
  H  H18  1  0.32042000  0.10273000  0.47863000  1.0
  H  H19  1  0.67954000  0.89733000  0.52139000  1.0
  H  H20  1  0.21885000  0.37687000  0.13069000  1.0
  H  H21  1  0.78115000  0.62313000  0.86930000  1.0
  H  H22  1  0.23174000  0.45083000  0.05570000  1.0
  H  H23  1  0.76827000  0.54916000  0.94430000  1.0
  H  H24  1  0.12613000  0.56318000  0.94665000  1.0
  H  H25  1  0.87387000  0.43682000  0.05335000  1.0
  H  H26  1  0.13938000  0.63672000  0.87092000  1.0
  H  H27  1  0.86063000  0.36328000  0.12908000  1.0
  H  H28  1  0.21914000  0.37764000  0.37083000  1.0
  H  H29  1  0.78087000  0.62236000  0.62917000  1.0
  H  H30  1  0.23141000  0.45053000  0.44508000  1.0
  H  H31  1  0.76859000  0.54947000  0.55491000  1.0
  H  H32  1  0.12669000  0.56437000  0.55150000  1.0
  H  H33  1  0.87331000  0.43562000  0.44850000  1.0
  H  H34  1  0.13911000  0.63689000  0.62638000  1.0
  H  H35  1  0.86090000  0.36310000  0.37362000  1.0
  H  H36  1  0.47271000  0.82564000  0.74087000  1.0
  H  H37  1  0.52729000  0.17436000  0.25909000  1.0
  H  H38  1  0.97306000  0.67089000  0.73290000  1.0
  H  H39  1  0.02694000  0.32911000  0.26710000  1.0
  C  C40  1  0.46692000  0.67633000  0.82083000  1.0
  C  C41  1  0.53308000  0.32367000  0.17917000  1.0
  C  C42  1  0.46580000  0.67436000  0.67773000  1.0
  C  C43  1  0.53421000  0.32564000  0.32227000  1.0
  C  C44  1  0.96610000  0.81633000  0.67453000  1.0
  C  C45  1  0.03389000  0.18369000  0.32547000  1.0
  C  C46  1  0.96600000  0.81923000  0.81740000  1.0
  C  C47  1  0.03399000  0.18077000  0.18261000  1.0
  C  C48  1  0.95901000  0.86224000  0.86133000  1.0
  C  C49  1  0.04095000  0.13776000  0.13868000  1.0
  C  C50  1  0.13586000  0.88755000  0.88103000  1.0
  C  C51  1  0.86408000  0.11246000  0.11897000  1.0
  C  C52  1  0.12792000  0.92817000  0.92159000  1.0
  C  C53  1  0.87198000  0.07184000  0.07841000  1.0
  C  C54  1  0.94284000  0.94461000  0.94421000  1.0
  C  C55  1  0.05706000  0.05539000  0.05579000  1.0
  C  C56  1  0.76686000  0.91864000  0.92402000  1.0
  C  C57  1  0.23306000  0.08135000  0.07598000  1.0
  C  C58  1  0.77415000  0.87816000  0.88328000  1.0
  C  C59  1  0.22580000  0.12183000  0.11673000  1.0
  C  C60  1  0.92416000  0.98667000  0.98697000  1.0
  C  C61  1  0.07571000  0.01333000  0.01303000  1.0
  C  C62  1  0.03568000  0.14318000  0.37248000  1.0
  C  C63  1  0.96433000  0.85684000  0.62753000  1.0
  C  C64  1  0.88548000  0.09963000  0.37799000  1.0
  C  C65  1  0.11453000  0.90039000  0.62202000  1.0
  C  C66  1  0.88927000  0.05797000  0.41848000  1.0
  C  C67  1  0.11076000  0.94205000  0.58153000  1.0
  C  C68  1  0.04763000  0.05883000  0.45481000  1.0
  C  C69  1  0.95237000  0.94121000  0.54522000  1.0
  C  C70  1  0.19900000  0.10199000  0.45018000  1.0
  C  C71  1  0.80098000  0.89806000  0.54984000  1.0
  C  C72  1  0.18936000  0.14377000  0.40982000  1.0
  C  C73  1  0.81062000  0.85627000  0.59019000  1.0
  C  C74  1  0.46077000  0.63383000  0.86607000  1.0
  C  C75  1  0.53923000  0.36617000  0.13393000  1.0
  C  C76  1  0.63901000  0.60954000  0.88673000  1.0
  C  C77  1  0.36099000  0.39045000  0.11327000  1.0
  C  C78  1  0.63237000  0.56894000  0.92799000  1.0
  C  C79  1  0.36763000  0.43105000  0.07201000  1.0
  C  C80  1  0.44564000  0.55230000  0.94940000  1.0
  C  C81  1  0.55437000  0.44770000  0.05060000  1.0
  C  C82  1  0.26788000  0.57690000  0.92907000  1.0
  C  C83  1  0.73212000  0.42310000  0.07093000  1.0
  C  C84  1  0.27533000  0.61733000  0.88754000  1.0
  C  C85  1  0.72467000  0.38267000  0.11246000  1.0
  C  C86  1  0.46033000  0.63267000  0.63272000  1.0
  C  C87  1  0.53968000  0.36733000  0.36728000  1.0
  C  C88  1  0.63853000  0.60868000  0.61221000  1.0
  C  C89  1  0.36148000  0.39133000  0.38779000  1.0
  C  C90  1  0.63238000  0.56876000  0.57113000  1.0
  C  C91  1  0.36762000  0.43124000  0.42887000  1.0
  C  C92  1  0.44595000  0.55247000  0.54964000  1.0
  C  C93  1  0.55405000  0.44753000  0.45036000  1.0
  C  C94  1  0.26824000  0.57729000  0.56940000  1.0
  C  C95  1  0.73175000  0.42271000  0.43060000  1.0
  C  C96  1  0.27538000  0.61704000  0.61074000  1.0
  C  C97  1  0.72462000  0.38296000  0.38926000  1.0
  N  N98  1  0.07020000  0.01888000  0.49755000  1.0
  N  N99  1  0.92980000  0.98117000  0.50248000  1.0
  N  N100  1  0.41948000  0.51130000  0.99120000  1.0
  N  N101  1  0.58053000  0.48870000  0.00880000  1.0
  N  N102  1  0.41985000  0.51202000  0.50810000  1.0
  N  N103  1  0.58015000  0.48798000  0.49190000  1.0
  N  N104  1  0.34311000  0.19128000  0.41004000  1.0
  N  N105  1  0.65686000  0.80875000  0.58996000  1.0
  O  O106  1  0.29716000  0.69214000  0.69532000  1.0
  O  O107  1  0.70284000  0.30786000  0.30468000  1.0
  O  O108  1  0.63840000  0.69163000  0.80333000  1.0
  O  O109  1  0.36159000  0.30837000  0.19667000  1.0
  O  O110  1  0.79835000  0.80153000  0.79950000  1.0
  O  O111  1  0.20165000  0.19846000  0.20051000  1.0
  O  O112  1  0.63681000  0.68858000  0.69623000  1.0
  O  O113  1  0.36320000  0.31143000  0.30377000  1.0
  O  O114  1  0.79580000  0.80057000  0.69215000  1.0
  O  O115  1  0.20421000  0.19944000  0.30785000  1.0
  O  O116  1  0.29868000  0.69357000  0.80257000  1.0
  O  O117  1  0.70131000  0.30643000  0.19743000  1.0
  O  O118  1  0.46924000  0.78291000  0.74701000  1.0
  O  O119  1  0.53075000  0.21709000  0.25299000  1.0
  O  O120  1  0.13675000  0.80367000  0.69363000  1.0
  O  O121  1  0.86324000  0.19633000  0.30637000  1.0
  O  O122  1  0.13776000  0.80359000  0.80040000  1.0
  O  O123  1  0.86224000  0.19640000  0.19960000  1.0
  O  O124  1  0.96926000  0.71058000  0.74773000  1.0
  O  O125  1  0.03074000  0.28942000  0.25227000  1.0
  O  O126  1  0.52068000  0.17503000  0.41040000  1.0
  O  O127  1  0.28278000  0.24344000  0.41228000  1.0
  O  O128  1  0.47930000  0.82502000  0.58959000  1.0
  O  O129  1  0.71719000  0.75659000  0.58774000  1.0
