# generated using pymatgen
data_Er2H18(C3O8)3
_symmetry_space_group_name_H-M   'P 1'
_cell_length_a   8.72546000
_cell_length_b   8.72544000
_cell_length_c   8.72540000
_cell_angle_alpha   66.46300000
_cell_angle_beta   66.46300000
_cell_angle_gamma   66.46300000
_symmetry_Int_Tables_number   1
_chemical_formula_structural   Er2H18(C3O8)3
_chemical_formula_sum   'Er2 H18 C9 O24'
_cell_volume   535.13838285
_cell_formula_units_Z   1
loop_
 _symmetry_equiv_pos_site_id
 _symmetry_equiv_pos_as_xyz
  1  'x, y, z'
loop_
 _atom_site_type_symbol
 _atom_site_label
 _atom_site_symmetry_multiplicity
 _atom_site_fract_x
 _atom_site_fract_y
 _atom_site_fract_z
 _atom_site_occupancy
  Er  Er0  1  0.76696000  0.76696000  0.76696000  1.0
  Er  Er1  1  0.23304000  0.23305000  0.23304000  1.0
  H  H2  1  0.44940000  0.67563000  0.80784000  1.0
  H  H3  1  0.67562000  0.80784000  0.44941000  1.0
  H  H4  1  0.80783000  0.44940000  0.67563000  1.0
  H  H5  1  0.55060000  0.19216000  0.32437000  1.0
  H  H6  1  0.32438000  0.55059000  0.19217000  1.0
  H  H7  1  0.19216000  0.32437000  0.55059000  1.0
  H  H8  1  0.71612000  0.76884000  0.13677000  1.0
  H  H9  1  0.76884000  0.13677000  0.71612000  1.0
  H  H10  1  0.13677000  0.71612000  0.76884000  1.0
  H  H11  1  0.28388000  0.86322000  0.23116000  1.0
  H  H12  1  0.23116000  0.28387000  0.86322000  1.0
  H  H13  1  0.86323000  0.23116000  0.28387000  1.0
  H  H14  1  0.62574000  0.95360000  0.02333000  1.0
  H  H15  1  0.95360000  0.02333000  0.62573000  1.0
  H  H16  1  0.02333000  0.62573000  0.95360000  1.0
  H  H17  1  0.37427000  0.97667000  0.04640000  1.0
  H  H18  1  0.04640000  0.37426000  0.97666000  1.0
  H  H19  1  0.97668000  0.04640000  0.37426000  1.0
  C  C20  1  0.53563000  0.46437000  0.00000000  1.0
  C  C21  1  0.46436000  1.00000000  0.53563000  1.0
  C  C22  1  0.00000000  0.53562000  0.46437000  1.0
  C  C23  1  0.68452000  0.41586000  0.08206000  1.0
  C  C24  1  0.41585000  0.08206000  0.68452000  1.0
  C  C25  1  0.08206000  0.68451000  0.41586000  1.0
  C  C26  1  0.31548000  0.91794000  0.58414000  1.0
  C  C27  1  0.58414000  0.31549000  0.91793000  1.0
  C  C28  1  0.91794000  0.58413000  0.31548000  1.0
  O  O29  1  0.53764000  0.62795000  0.87730000  1.0
  O  O30  1  0.62793000  0.87729000  0.53766000  1.0
  O  O31  1  0.87730000  0.53764000  0.62794000  1.0
  O  O32  1  0.46235000  0.12270000  0.37206000  1.0
  O  O33  1  0.37207000  0.46235000  0.12271000  1.0
  O  O34  1  0.12270000  0.37205000  0.46235000  1.0
  O  O35  1  0.80339000  0.49036000  0.99099000  1.0
  O  O36  1  0.49035000  0.99098000  0.80340000  1.0
  O  O37  1  0.99098000  0.80339000  0.49034000  1.0
  O  O38  1  0.19660000  0.00902000  0.50964000  1.0
  O  O39  1  0.50965000  0.19661000  0.00901000  1.0
  O  O40  1  0.00901000  0.50966000  0.19661000  1.0
  O  O41  1  0.68174000  0.30097000  0.22803000  1.0
  O  O42  1  0.30097000  0.22803000  0.68173000  1.0
  O  O43  1  0.22803000  0.68172000  0.30097000  1.0
  O  O44  1  0.31826000  0.77198000  0.69903000  1.0
  O  O45  1  0.69903000  0.31827000  0.77197000  1.0
  O  O46  1  0.77196000  0.69903000  0.31827000  1.0
  O  O47  1  0.68021000  0.82984000  0.02698000  1.0
  O  O48  1  0.82984000  0.02698000  0.68021000  1.0
  O  O49  1  0.02698000  0.68021000  0.82984000  1.0
  O  O50  1  0.31979000  0.97302000  0.17016000  1.0
  O  O51  1  0.17016000  0.31978000  0.97302000  1.0
  O  O52  1  0.97303000  0.17016000  0.31979000  1.0
