# generated using pymatgen
data_GdAg3H6C14N2O11
_symmetry_space_group_name_H-M   'P 1'
_cell_length_a   8.03559000
_cell_length_b   13.91610000
_cell_length_c   14.61290000
_cell_angle_alpha   90.00010000
_cell_angle_beta   90.00000000
_cell_angle_gamma   90.00000000
_symmetry_Int_Tables_number   1
_chemical_formula_structural   GdAg3H6C14N2O11
_chemical_formula_sum   'Gd4 Ag12 H24 C56 N8 O44'
_cell_volume   1634.07401094
_cell_formula_units_Z   4
loop_
 _symmetry_equiv_pos_site_id
 _symmetry_equiv_pos_as_xyz
  1  'x, y, z'
loop_
 _atom_site_type_symbol
 _atom_site_label
 _atom_site_symmetry_multiplicity
 _atom_site_fract_x
 _atom_site_fract_y
 _atom_site_fract_z
 _atom_site_occupancy
  Gd  Gd0  1  0.96907000  0.75000000  0.25000000  1.0
  Gd  Gd1  1  0.53093000  0.75000000  0.75000000  1.0
  Gd  Gd2  1  0.03093000  0.25000000  0.75000000  1.0
  Gd  Gd3  1  0.46907000  0.25000000  0.25000000  1.0
  Ag  Ag4  1  0.55602000  0.82354000  0.01460000  1.0
  Ag  Ag5  1  0.94398000  0.82354000  0.98541000  1.0
  Ag  Ag6  1  0.94398000  0.67646000  0.51460000  1.0
  Ag  Ag7  1  0.55602000  0.67646000  0.48540000  1.0
  Ag  Ag8  1  0.44398000  0.17646000  0.98540000  1.0
  Ag  Ag9  1  0.05602000  0.17646000  0.01460000  1.0
  Ag  Ag10  1  0.05601000  0.32354000  0.48540000  1.0
  Ag  Ag11  1  0.44398000  0.32354000  0.51460000  1.0
  Ag  Ag12  1  0.25000000  0.94419000  0.00000000  1.0
  Ag  Ag13  1  0.25000000  0.55581000  0.50000000  1.0
  Ag  Ag14  1  0.75000000  0.05581000  0.00000000  1.0
  Ag  Ag15  1  0.75000000  0.44419000  0.50000000  1.0
  H  H16  1  0.27345000  0.76749000  0.55549000  1.0
  H  H17  1  0.22655000  0.76749000  0.44451000  1.0
  H  H18  1  0.22655000  0.73251000  0.05549000  1.0
  H  H19  1  0.27345000  0.73251000  0.94451000  1.0
  H  H20  1  0.72655000  0.23251000  0.44451000  1.0
  H  H21  1  0.77345000  0.23251000  0.55549000  1.0
  H  H22  1  0.77345000  0.26748000  0.94451000  1.0
  H  H23  1  0.72655000  0.26749000  0.05549000  1.0
  H  H24  1  0.61441000  0.47199000  0.06559000  1.0
  H  H25  1  0.88559000  0.47199000  0.93442000  1.0
  H  H26  1  0.88559000  0.02801000  0.56559000  1.0
  H  H27  1  0.61441000  0.02801000  0.43441000  1.0
  H  H28  1  0.38559000  0.52801000  0.93441000  1.0
  H  H29  1  0.11441000  0.52801000  0.06559000  1.0
  H  H30  1  0.11441000  0.97199000  0.43442000  1.0
  H  H31  1  0.38559000  0.97199000  0.56558000  1.0
  H  H32  1  0.90080000  0.35438000  0.29056000  1.0
  H  H33  1  0.59920000  0.35438000  0.70945000  1.0
  H  H34  1  0.59920000  0.14562000  0.79055000  1.0
  H  H35  1  0.90080000  0.14562000  0.20945000  1.0
  H  H36  1  0.09920000  0.64562000  0.70945000  1.0
  H  H37  1  0.40080000  0.64562000  0.29055000  1.0
  H  H38  1  0.40080000  0.85438000  0.20945000  1.0
  H  H39  1  0.09920000  0.85438000  0.79055000  1.0
  C  C40  1  0.69329000  0.66110000  0.10532000  1.0
  C  C41  1  0.80671000  0.66110000  0.89468000  1.0
  C  C42  1  0.80671000  0.83890000  0.60532000  1.0
  C  C43  1  0.69329000  0.83890000  0.39468000  1.0
  C  C44  1  0.30671000  0.33891000  0.89468000  1.0
  C  C45  1  0.19329000  0.33890000  0.10532000  1.0
  C  C46  1  0.19329000  0.16110000  0.39468000  1.0
  C  C47  1  0.30671000  0.16109000  0.60532000  1.0
  C  C48  1  0.75414000  0.57039000  0.14950000  1.0
  C  C49  1  0.74586000  0.57039000  0.85050000  1.0
  C  C50  1  0.74586000  0.92961000  0.64950000  1.0
  C  C51  1  0.75414000  0.92961000  0.35050000  1.0
  C  C52  1  0.24586000  0.42961000  0.85050000  1.0
  C  C53  1  0.25415000  0.42961000  0.14950000  1.0
  C  C54  1  0.25414000  0.07039000  0.35050000  1.0
  C  C55  1  0.24586000  0.07039000  0.64950000  1.0
  C  C56  1  0.70057000  0.47988000  0.12263000  1.0
  C  C57  1  0.79943000  0.47988000  0.87737000  1.0
  C  C58  1  0.79943000  0.02012000  0.62263000  1.0
  C  C59  1  0.70057000  0.02012000  0.37737000  1.0
  C  C60  1  0.29943000  0.52012000  0.87737000  1.0
  C  C61  1  0.20057000  0.52012000  0.12263000  1.0
  C  C62  1  0.20057000  0.97988000  0.37737000  1.0
  C  C63  1  0.29943000  0.97988000  0.62263000  1.0
  C  C64  1  0.74841000  0.39841000  0.17461000  1.0
  C  C65  1  0.75159000  0.39841000  0.82539000  1.0
  C  C66  1  0.75159000  0.10159000  0.67461000  1.0
  C  C67  1  0.74841000  0.10159000  0.32539000  1.0
  C  C68  1  0.25159000  0.60160000  0.82539000  1.0
  C  C69  1  0.24841000  0.60159000  0.17461000  1.0
  C  C70  1  0.24841000  0.89841000  0.32539000  1.0
  C  C71  1  0.25159000  0.89840000  0.67461000  1.0
  C  C72  1  0.85963000  0.41462000  0.24868000  1.0
  C  C73  1  0.64037000  0.41462000  0.75132000  1.0
  C  C74  1  0.64037000  0.08538000  0.74868000  1.0
  C  C75  1  0.85963000  0.08538000  0.25132000  1.0
  C  C76  1  0.14037000  0.58538000  0.75132000  1.0
  C  C77  1  0.35963000  0.58538000  0.24868000  1.0
  C  C78  1  0.35963000  0.91462000  0.25132000  1.0
  C  C79  1  0.14037000  0.91462000  0.74868000  1.0
  C  C80  1  0.90767000  0.50785000  0.26920000  1.0
  C  C81  1  0.59233000  0.50784000  0.73080000  1.0
  C  C82  1  0.59233000  0.99215000  0.76920000  1.0
  C  C83  1  0.90767000  0.99215000  0.23080000  1.0
  C  C84  1  0.09233000  0.49215000  0.73080000  1.0
  C  C85  1  0.40767000  0.49215000  0.26919000  1.0
  C  C86  1  0.40767000  0.00785000  0.23080000  1.0
  C  C87  1  0.09233000  0.00784000  0.76919000  1.0
  C  C88  1  0.01638000  0.53375000  0.34837000  1.0
  C  C89  1  0.48362000  0.53375000  0.65164000  1.0
  C  C90  1  0.48362000  0.96625000  0.84836000  1.0
  C  C91  1  0.01638000  0.96625000  0.15163000  1.0
  C  C92  1  0.98362000  0.46625000  0.65164000  1.0
  C  C93  1  0.51638000  0.46625000  0.34837000  1.0
  C  C94  1  0.51638000  0.03375000  0.15163000  1.0
  C  C95  1  0.98362000  0.03375000  0.84836000  1.0
  N  N96  1  0.85617000  0.58511000  0.22110000  1.0
  N  N97  1  0.64383000  0.58511000  0.77890000  1.0
  N  N98  1  0.64383000  0.91489000  0.72110000  1.0
  N  N99  1  0.85617000  0.91489000  0.27890000  1.0
  N  N100  1  0.14383000  0.41489000  0.77890000  1.0
  N  N101  1  0.35618000  0.41489000  0.22110000  1.0
  N  N102  1  0.35617000  0.08511000  0.27890000  1.0
  N  N103  1  0.14383000  0.08511000  0.72110000  1.0
  O  O104  1  0.76304000  0.74016000  0.13234000  1.0
  O  O105  1  0.73696000  0.74016000  0.86766000  1.0
  O  O106  1  0.73697000  0.75984000  0.63234000  1.0
  O  O107  1  0.76304000  0.75984000  0.36766000  1.0
  O  O108  1  0.23697000  0.25984000  0.86766000  1.0
  O  O109  1  0.26303000  0.25984000  0.13234000  1.0
  O  O110  1  0.26304000  0.24016000  0.36766000  1.0
  O  O111  1  0.23696000  0.24016000  0.63234000  1.0
  O  O112  1  0.57822000  0.65740000  0.04741000  1.0
  O  O113  1  0.92178000  0.65740000  0.95259000  1.0
  O  O114  1  0.92178000  0.84260000  0.54741000  1.0
  O  O115  1  0.57822000  0.84260000  0.45259000  1.0
  O  O116  1  0.42178000  0.34260000  0.95259000  1.0
  O  O117  1  0.07822000  0.34260000  0.04741000  1.0
  O  O118  1  0.07822000  0.15740000  0.45259000  1.0
  O  O119  1  0.42178000  0.15740000  0.54741000  1.0
  O  O120  1  0.68547000  0.31286000  0.15869000  1.0
  O  O121  1  0.81453000  0.31286000  0.84132000  1.0
  O  O122  1  0.81453000  0.18714000  0.65869000  1.0
  O  O123  1  0.68546000  0.18714000  0.34132000  1.0
  O  O124  1  0.31454000  0.68714000  0.84131000  1.0
  O  O125  1  0.18546000  0.68714000  0.15869000  1.0
  O  O126  1  0.18547000  0.81286000  0.34131000  1.0
  O  O127  1  0.31454000  0.81286000  0.65869000  1.0
  O  O128  1  0.07908000  0.46938000  0.39983000  1.0
  O  O129  1  0.42092000  0.46937000  0.60018000  1.0
  O  O130  1  0.42092000  0.03063000  0.89983000  1.0
  O  O131  1  0.07908000  0.03063000  0.10017000  1.0
  O  O132  1  0.92092000  0.53063000  0.60017000  1.0
  O  O133  1  0.57908000  0.53063000  0.39983000  1.0
  O  O134  1  0.57908000  0.96937000  0.10017000  1.0
  O  O135  1  0.92092000  0.96937000  0.89983000  1.0
  O  O136  1  0.04276000  0.62361000  0.36102000  1.0
  O  O137  1  0.45724000  0.62361000  0.63898000  1.0
  O  O138  1  0.45724000  0.87639000  0.86102000  1.0
  O  O139  1  0.04276000  0.87639000  0.13898000  1.0
  O  O140  1  0.95724000  0.37639000  0.63898000  1.0
  O  O141  1  0.54276000  0.37639000  0.36102000  1.0
  O  O142  1  0.54276000  0.12361000  0.13898000  1.0
  O  O143  1  0.95724000  0.12361000  0.86102000  1.0
  O  O144  1  0.25000000  0.72709000  0.50000000  1.0
  O  O145  1  0.25000000  0.77291000  0.00000000  1.0
  O  O146  1  0.75000000  0.27291000  0.50000000  1.0
  O  O147  1  0.75000000  0.22709000  0.00000000  1.0
