# generated using pymatgen
data_CdH17C21N3O4
_symmetry_space_group_name_H-M   'P 1'
_cell_length_a   8.84021000
_cell_length_b   10.52860000
_cell_length_c   10.84000000
_cell_angle_alpha   72.87300000
_cell_angle_beta   84.93320000
_cell_angle_gamma   79.22000000
_symmetry_Int_Tables_number   1
_chemical_formula_structural   CdH17C21N3O4
_chemical_formula_sum   'Cd2 H34 C42 N6 O8'
_cell_volume   946.58232202
_cell_formula_units_Z   2
loop_
 _symmetry_equiv_pos_site_id
 _symmetry_equiv_pos_as_xyz
  1  'x, y, z'
loop_
 _atom_site_type_symbol
 _atom_site_label
 _atom_site_symmetry_multiplicity
 _atom_site_fract_x
 _atom_site_fract_y
 _atom_site_fract_z
 _atom_site_occupancy
  Cd  Cd0  1  0.56826000  0.60622000  0.12629000  1.0
  Cd  Cd1  1  0.43174000  0.39378000  0.87371000  1.0
  H  H2  1  0.45047000  0.43295000  0.36936000  1.0
  H  H3  1  0.54953000  0.56705000  0.63064000  1.0
  H  H4  1  0.34852000  0.43074000  0.51665000  1.0
  H  H5  1  0.65148000  0.56926000  0.48335000  1.0
  H  H6  1  0.28159000  0.81363000  0.06877000  1.0
  H  H7  1  0.71840000  0.18637000  0.93123000  1.0
  H  H8  1  0.04433000  0.93131000  0.16094000  1.0
  H  H9  1  0.95567000  0.06869000  0.83906000  1.0
  H  H10  1  0.96939000  0.83089000  0.39352000  1.0
  H  H11  1  0.03061000  0.16911000  0.60648000  1.0
  H  H12  1  0.12390000  0.49728000  0.59729000  1.0
  H  H13  1  0.87610000  0.50272000  0.40271000  1.0
  H  H14  1  0.05792000  0.79463000  0.59708000  1.0
  H  H15  1  0.94208000  0.20537000  0.40293000  1.0
  H  H16  1  0.95108000  0.44641000  0.76832000  1.0
  H  H17  1  0.04893000  0.55359000  0.23168000  1.0
  H  H18  1  0.77899000  0.41825000  0.96469000  1.0
  H  H19  1  0.22102000  0.58175000  0.03531000  1.0
  H  H20  1  0.80547000  0.79678000  0.99293000  1.0
  H  H21  1  0.19453000  0.20322000  0.00707000  1.0
  H  H22  1  0.98432000  0.84019000  0.79912000  1.0
  H  H23  1  0.01568000  0.15981000  0.20088000  1.0
  H  H24  1  0.66182000  0.20872000  0.42847000  1.0
  H  H25  1  0.33818000  0.79128000  0.57153000  1.0
  H  H26  1  0.70481000  0.78318000  0.47658000  1.0
  H  H27  1  0.29519000  0.21683000  0.52342000  1.0
  H  H28  1  0.57947000  0.06695000  0.10988000  1.0
  H  H29  1  0.42053000  0.93305000  0.89012000  1.0
  H  H30  1  0.85820000  0.97037000  0.60879000  1.0
  H  H31  1  0.14180000  0.02963000  0.39121000  1.0
  H  H32  1  0.71806000  0.86388000  0.66390000  1.0
  H  H33  1  0.28194000  0.13612000  0.33610000  1.0
  H  H34  1  0.67040000  0.03883000  0.65129000  1.0
  H  H35  1  0.32961000  0.96117000  0.34870000  1.0
  C  C36  1  0.24135000  0.77390000  0.16833000  1.0
  C  C37  1  0.75865000  0.22610000  0.83167000  1.0
  C  C38  1  0.11174000  0.83964000  0.22002000  1.0
  C  C39  1  0.88826000  0.16036000  0.77998000  1.0
  C  C40  1  0.07148000  0.78359000  0.34940000  1.0
  C  C41  1  0.92853000  0.21641000  0.65060000  1.0
  C  C42  1  0.15575000  0.66355000  0.42344000  1.0
  C  C43  1  0.84425000  0.33645000  0.57656000  1.0
  C  C44  1  0.28308000  0.59787000  0.36002000  1.0
  C  C45  1  0.71692000  0.40213000  0.63998000  1.0
  C  C46  1  0.11049000  0.60704000  0.55834000  1.0
  C  C47  1  0.88951000  0.39296000  0.44166000  1.0
  C  C48  1  0.05346000  0.68701000  0.63516000  1.0
  C  C49  1  0.94654000  0.31299000  0.36484000  1.0
  C  C50  1  0.97883000  0.64926000  0.76225000  1.0
  C  C51  1  0.02117000  0.35074000  0.23775000  1.0
  C  C52  1  0.92468000  0.52645000  0.81555000  1.0
  C  C53  1  0.07532000  0.47355000  0.18446000  1.0
  C  C54  1  0.82855000  0.50972000  0.92529000  1.0
  C  C55  1  0.17145000  0.49028000  0.07471000  1.0
  C  C56  1  0.84398000  0.72112000  0.94140000  1.0
  C  C57  1  0.15602000  0.27888000  0.05860000  1.0
  C  C58  1  0.94213000  0.74450000  0.83313000  1.0
  C  C59  1  0.05787000  0.25550000  0.16687000  1.0
  C  C60  1  0.62045000  0.15298000  0.26053000  1.0
  C  C61  1  0.37955000  0.84702000  0.73947000  1.0
  C  C62  1  0.65825000  0.12486000  0.38975000  1.0
  C  C63  1  0.34175000  0.87514000  0.61026000  1.0
  C  C64  1  0.69098000  0.99239000  0.46874000  1.0
  C  C65  1  0.30902000  0.00761000  0.53126000  1.0
  C  C66  1  0.68239000  0.88750000  0.41639000  1.0
  C  C67  1  0.31761000  0.11250000  0.58360000  1.0
  C  C68  1  0.64371000  0.91364000  0.28758000  1.0
  C  C69  1  0.35629000  0.08636000  0.71242000  1.0
  C  C70  1  0.61306000  0.04694000  0.20911000  1.0
  C  C71  1  0.38693000  0.95306000  0.79088000  1.0
  C  C72  1  0.59066000  0.29675000  0.17881000  1.0
  C  C73  1  0.40934000  0.70325000  0.82119000  1.0
  C  C74  1  0.63170000  0.79932000  0.23486000  1.0
  C  C75  1  0.36830000  0.20068000  0.76514000  1.0
  C  C76  1  0.73575000  0.96455000  0.60547000  1.0
  C  C77  1  0.26425000  0.03545000  0.39453000  1.0
  N  N78  1  0.32502000  0.65728000  0.23515000  1.0
  N  N79  1  0.67497000  0.34272000  0.76485000  1.0
  N  N80  1  0.78384000  0.60668000  0.98561000  1.0
  N  N81  1  0.21616000  0.39332000  0.01439000  1.0
  N  N82  1  0.36444000  0.47736000  0.42036000  1.0
  N  N83  1  0.63556000  0.52264000  0.57964000  1.0
  O  O84  1  0.58116000  0.38744000  0.23799000  1.0
  O  O85  1  0.41884000  0.61256000  0.76201000  1.0
  O  O86  1  0.58245000  0.32165000  0.05794000  1.0
  O  O87  1  0.41755000  0.67835000  0.94206000  1.0
  O  O88  1  0.58826000  0.82850000  0.11910000  1.0
  O  O89  1  0.41174000  0.17150000  0.88090000  1.0
  O  O90  1  0.66338000  0.67782000  0.30633000  1.0
  O  O91  1  0.33662000  0.32218000  0.69367000  1.0
