# generated using pymatgen
data_CdH8C14(N4O3)2
_symmetry_space_group_name_H-M   'P 1'
_cell_length_a   9.36400000
_cell_length_b   14.97410000
_cell_length_c   19.16750000
_cell_angle_alpha   90.00000000
_cell_angle_beta   90.00000000
_cell_angle_gamma   90.00000000
_symmetry_Int_Tables_number   1
_chemical_formula_structural   CdH8C14(N4O3)2
_chemical_formula_sum   'Cd4 H32 C56 N32 O24'
_cell_volume   2687.61840223
_cell_formula_units_Z   4
loop_
 _symmetry_equiv_pos_site_id
 _symmetry_equiv_pos_as_xyz
  1  'x, y, z'
loop_
 _atom_site_type_symbol
 _atom_site_label
 _atom_site_symmetry_multiplicity
 _atom_site_fract_x
 _atom_site_fract_y
 _atom_site_fract_z
 _atom_site_occupancy
  Cd  Cd0  1  0.82160000  0.00000000  0.75000000  1.0
  Cd  Cd1  1  0.67840000  0.50000000  0.25000000  1.0
  Cd  Cd2  1  0.17840000  0.00000000  0.25000000  1.0
  Cd  Cd3  1  0.32161000  0.50000000  0.75000000  1.0
  H  H4  1  0.11456000  0.30357000  0.74050000  1.0
  H  H5  1  0.38544000  0.19643000  0.24050000  1.0
  H  H6  1  0.38544000  0.80357000  0.25950000  1.0
  H  H7  1  0.11456000  0.69643000  0.75950000  1.0
  H  H8  1  0.88544000  0.69643000  0.25950000  1.0
  H  H9  1  0.61456000  0.80357000  0.75950000  1.0
  H  H10  1  0.61456000  0.19643000  0.74050000  1.0
  H  H11  1  0.88544000  0.30357000  0.24050000  1.0
  H  H12  1  0.94506000  0.11048000  0.60207000  1.0
  H  H13  1  0.55494000  0.38952000  0.10207000  1.0
  H  H14  1  0.55494000  0.61048000  0.39793000  1.0
  H  H15  1  0.94506000  0.88952000  0.89793000  1.0
  H  H16  1  0.05494000  0.88952000  0.39793000  1.0
  H  H17  1  0.44506000  0.61048000  0.89793000  1.0
  H  H18  1  0.44506000  0.38952000  0.60207000  1.0
  H  H19  1  0.05494000  0.11048000  0.10207000  1.0
  H  H20  1  0.16212000  0.30088000  0.58999000  1.0
  H  H21  1  0.33788000  0.19912000  0.08999000  1.0
  H  H22  1  0.33788000  0.80088000  0.41001000  1.0
  H  H23  1  0.16212000  0.69912000  0.91001000  1.0
  H  H24  1  0.83788000  0.69912000  0.41001000  1.0
  H  H25  1  0.66212000  0.80088000  0.91001000  1.0
  H  H26  1  0.66212000  0.19912000  0.58999000  1.0
  H  H27  1  0.83788000  0.30088000  0.08999000  1.0
  H  H28  1  0.83218000  0.38126000  0.46352000  1.0
  H  H29  1  0.66782000  0.11874000  0.96352000  1.0
  H  H30  1  0.66782000  0.88126000  0.53648000  1.0
  H  H31  1  0.83218000  0.61874000  0.03648000  1.0
  H  H32  1  0.16782000  0.61874000  0.53648000  1.0
  H  H33  1  0.33218000  0.88126000  0.03648000  1.0
  H  H34  1  0.33218000  0.11874000  0.46352000  1.0
  H  H35  1  0.16782000  0.38126000  0.96352000  1.0
  C  C36  1  0.06628000  0.24210000  0.72219000  1.0
  C  C37  1  0.43372000  0.25790000  0.22219000  1.0
  C  C38  1  0.43372000  0.74210000  0.27781000  1.0
  C  C39  1  0.06628000  0.75790000  0.77781000  1.0
  C  C40  1  0.93372000  0.75790000  0.27781000  1.0
  C  C41  1  0.56628000  0.74210000  0.77781000  1.0
  C  C42  1  0.56629000  0.25790000  0.72219000  1.0
  C  C43  1  0.93371000  0.24210000  0.22219000  1.0
  C  C44  1  0.97785000  0.14352000  0.64978000  1.0
  C  C45  1  0.52215000  0.35648000  0.14978000  1.0
  C  C46  1  0.52215000  0.64352000  0.35022000  1.0
  C  C47  1  0.97785000  0.85648000  0.85022000  1.0
  C  C48  1  0.02215000  0.85648000  0.35022000  1.0
  C  C49  1  0.47785000  0.64352000  0.85022000  1.0
  C  C50  1  0.47785000  0.35648000  0.64978000  1.0
  C  C51  1  0.02215000  0.14352000  0.14978000  1.0
  C  C52  1  0.98178000  0.42415000  0.54258000  1.0
  C  C53  1  0.51822000  0.07585000  0.04258000  1.0
  C  C54  1  0.51822000  0.92415000  0.45742000  1.0
  C  C55  1  0.98178000  0.57585000  0.95742000  1.0
  C  C56  1  0.01823000  0.57585000  0.45742000  1.0
  C  C57  1  0.48178000  0.92415000  0.95742000  1.0
  C  C58  1  0.48177000  0.07585000  0.54258000  1.0
  C  C59  1  0.01823000  0.42415000  0.04258000  1.0
  C  C60  1  0.94782000  0.34290000  0.58547000  1.0
  C  C61  1  0.55218000  0.15710000  0.08547000  1.0
  C  C62  1  0.55218000  0.84290000  0.41453000  1.0
  C  C63  1  0.94782000  0.65710000  0.91453000  1.0
  C  C64  1  0.05218000  0.65710000  0.41453000  1.0
  C  C65  1  0.44782000  0.84290000  0.91453000  1.0
  C  C66  1  0.44782000  0.15710000  0.58547000  1.0
  C  C67  1  0.05219000  0.34290000  0.08547000  1.0
  C  C68  1  0.07652000  0.49245000  0.56324000  1.0
  C  C69  1  0.42349000  0.00755000  0.06324000  1.0
  C  C70  1  0.42348000  0.99245000  0.43676000  1.0
  C  C71  1  0.07652000  0.50755000  0.93676000  1.0
  C  C72  1  0.92349000  0.50755000  0.43676000  1.0
  C  C73  1  0.57651000  0.99245000  0.93676000  1.0
  C  C74  1  0.57651000  0.00755000  0.56324000  1.0
  C  C75  1  0.92349000  0.49245000  0.06324000  1.0
  C  C76  1  0.15602000  0.49082000  0.63152000  1.0
  C  C77  1  0.34398000  0.00918000  0.13152000  1.0
  C  C78  1  0.34398000  0.99082000  0.36848000  1.0
  C  C79  1  0.15601000  0.50918000  0.86848000  1.0
  C  C80  1  0.84398000  0.50918000  0.36848000  1.0
  C  C81  1  0.65602000  0.99082000  0.86848000  1.0
  C  C82  1  0.65602000  0.00918000  0.63152000  1.0
  C  C83  1  0.84398000  0.49082000  0.13152000  1.0
  C  C84  1  0.90628000  0.43314000  0.48011000  1.0
  C  C85  1  0.59373000  0.06686000  0.98011000  1.0
  C  C86  1  0.59372000  0.93314000  0.51989000  1.0
  C  C87  1  0.90627000  0.56686000  0.01989000  1.0
  C  C88  1  0.09373000  0.56686000  0.51989000  1.0
  C  C89  1  0.40627000  0.93314000  0.01989000  1.0
  C  C90  1  0.40627000  0.06686000  0.48011000  1.0
  C  C91  1  0.09373000  0.43314000  0.98011000  1.0
  N  N92  1  0.02275000  0.17425000  0.75997000  1.0
  N  N93  1  0.47725000  0.32575000  0.25997000  1.0
  N  N94  1  0.47725000  0.67425000  0.24003000  1.0
  N  N95  1  0.02275000  0.82576000  0.74003000  1.0
  N  N96  1  0.97725000  0.82576000  0.24003000  1.0
  N  N97  1  0.52275000  0.67424000  0.74003000  1.0
  N  N98  1  0.52275000  0.32575000  0.75997000  1.0
  N  N99  1  0.97725000  0.17425000  0.25997000  1.0
  N  N100  1  0.96598000  0.11258000  0.71388000  1.0
  N  N101  1  0.53402000  0.38742000  0.21388000  1.0
  N  N102  1  0.53402000  0.61258000  0.28612000  1.0
  N  N103  1  0.96598000  0.88742000  0.78612000  1.0
  N  N104  1  0.03402000  0.88742000  0.28612000  1.0
  N  N105  1  0.46598000  0.61258000  0.78612000  1.0
  N  N106  1  0.46598000  0.38742000  0.71388000  1.0
  N  N107  1  0.03402000  0.11258000  0.21388000  1.0
  N  N108  1  0.04063000  0.22509000  0.65266000  1.0
  N  N109  1  0.45938000  0.27491000  0.15266000  1.0
  N  N110  1  0.45938000  0.72509000  0.34734000  1.0
  N  N111  1  0.04063000  0.77491000  0.84734000  1.0
  N  N112  1  0.95937000  0.77491000  0.34734000  1.0
  N  N113  1  0.54062000  0.72509000  0.84734000  1.0
  N  N114  1  0.54062000  0.27491000  0.65266000  1.0
  N  N115  1  0.95938000  0.22509000  0.15266000  1.0
  N  N116  1  0.05845000  0.28275000  0.59714000  1.0
  N  N117  1  0.44155000  0.21725000  0.09714000  1.0
  N  N118  1  0.44155000  0.78275000  0.40286000  1.0
  N  N119  1  0.05845000  0.71725000  0.90286000  1.0
  N  N120  1  0.94155000  0.71725000  0.40286000  1.0
  N  N121  1  0.55845000  0.78275000  0.90286000  1.0
  N  N122  1  0.55845000  0.21725000  0.59714000  1.0
  N  N123  1  0.94155000  0.28275000  0.09714000  1.0
  O  O124  1  0.82500000  0.32551000  0.60385000  1.0
  O  O125  1  0.67500000  0.17449000  0.10385000  1.0
  O  O126  1  0.67500000  0.82551000  0.39615000  1.0
  O  O127  1  0.82500000  0.67449000  0.89615000  1.0
  O  O128  1  0.17500000  0.67449000  0.39615000  1.0
  O  O129  1  0.32500000  0.82551000  0.89615000  1.0
  O  O130  1  0.32500000  0.17449000  0.60385000  1.0
  O  O131  1  0.17500000  0.32551000  0.10385000  1.0
  O  O132  1  0.12088000  0.43394000  0.67750000  1.0
  O  O133  1  0.37912000  0.06606000  0.17750000  1.0
  O  O134  1  0.37912000  0.93394000  0.32250000  1.0
  O  O135  1  0.12088000  0.56606000  0.82250000  1.0
  O  O136  1  0.87912000  0.56606000  0.32250000  1.0
  O  O137  1  0.62088000  0.93394000  0.82250000  1.0
  O  O138  1  0.62088000  0.06606000  0.67750000  1.0
  O  O139  1  0.87912000  0.43394000  0.17750000  1.0
  O  O140  1  0.25699000  0.54742000  0.63956000  1.0
  O  O141  1  0.24301000  0.95258000  0.13956000  1.0
  O  O142  1  0.24301000  0.04742000  0.36045000  1.0
  O  O143  1  0.25699000  0.45258000  0.86044000  1.0
  O  O144  1  0.74301000  0.45258000  0.36044000  1.0
  O  O145  1  0.75699000  0.04742000  0.86044000  1.0
  O  O146  1  0.75699000  0.95258000  0.63956000  1.0
  O  O147  1  0.74301000  0.54742000  0.13956000  1.0
