# generated using pymatgen
data_CuMoH2C2NO4
_symmetry_space_group_name_H-M   'P 1'
_cell_length_a   5.19879000
_cell_length_b   8.19378000
_cell_length_c   11.99250000
_cell_angle_alpha   89.99980000
_cell_angle_beta   89.99930000
_cell_angle_gamma   103.01600000
_symmetry_Int_Tables_number   1
_chemical_formula_structural   CuMoH2C2NO4
_chemical_formula_sum   'Cu4 Mo4 H8 C8 N4 O16'
_cell_volume   497.72816498
_cell_formula_units_Z   4
loop_
 _symmetry_equiv_pos_site_id
 _symmetry_equiv_pos_as_xyz
  1  'x, y, z'
loop_
 _atom_site_type_symbol
 _atom_site_label
 _atom_site_symmetry_multiplicity
 _atom_site_fract_x
 _atom_site_fract_y
 _atom_site_fract_z
 _atom_site_occupancy
  Cu  Cu0  1  0.50506000  0.67858000  0.07099000  1.0
  Cu  Cu1  1  0.00507000  0.17858000  0.42899000  1.0
  Cu  Cu2  1  0.49495000  0.32141000  0.92901000  1.0
  Cu  Cu3  1  0.99492000  0.82142000  0.57101000  1.0
  Mo  Mo4  1  0.90348000  0.41413000  0.14597000  1.0
  Mo  Mo5  1  0.40349000  0.91413000  0.35403000  1.0
  Mo  Mo6  1  0.09653000  0.58586000  0.85403000  1.0
  Mo  Mo7  1  0.59650000  0.08587000  0.64597000  1.0
  H  H8  1  0.92923000  0.90432000  0.19187000  1.0
  H  H9  1  0.42927000  0.40434000  0.30813000  1.0
  H  H10  1  0.07078000  0.09567000  0.80812000  1.0
  H  H11  1  0.57073000  0.59567000  0.69187000  1.0
  H  H12  1  0.68173000  0.86523000  0.86108000  1.0
  H  H13  1  0.18169000  0.36524000  0.63891000  1.0
  H  H14  1  0.31828000  0.13476000  0.13891000  1.0
  H  H15  1  0.81830000  0.63478000  0.36109000  1.0
  C  C16  1  0.96127000  0.94722000  0.10627000  1.0
  C  C17  1  0.46129000  0.44724000  0.39373000  1.0
  C  C18  1  0.03873000  0.05277000  0.89373000  1.0
  C  C19  1  0.53870000  0.55277000  0.60627000  1.0
  C  C20  1  0.82407000  0.92535000  0.92313000  1.0
  C  C21  1  0.32404000  0.42535000  0.57686000  1.0
  C  C22  1  0.17594000  0.07465000  0.07687000  1.0
  C  C23  1  0.67595000  0.57467000  0.42314000  1.0
  N  N24  1  0.78779000  0.87350000  0.02910000  1.0
  N  N25  1  0.28779000  0.37351000  0.47090000  1.0
  N  N26  1  0.21221000  0.12649000  0.97089000  1.0
  N  N27  1  0.71221000  0.62650000  0.52911000  1.0
  O  O28  1  0.39910000  0.81651000  0.22443000  1.0
  O  O29  1  0.89920000  0.31656000  0.27557000  1.0
  O  O30  1  0.60089000  0.18348000  0.77557000  1.0
  O  O31  1  0.10080000  0.68343000  0.72443000  1.0
  O  O32  1  0.24090000  0.47445000  0.09777000  1.0
  O  O33  1  0.74094000  0.97443000  0.40217000  1.0
  O  O34  1  0.75911000  0.52555000  0.90223000  1.0
  O  O35  1  0.25904000  0.02557000  0.59783000  1.0
  O  O36  1  0.71465000  0.26608000  0.04997000  1.0
  O  O37  1  0.21470000  0.76612000  0.45007000  1.0
  O  O38  1  0.28535000  0.73391000  0.95004000  1.0
  O  O39  1  0.78529000  0.23388000  0.54993000  1.0
  O  O40  1  0.76416000  0.59267000  0.16318000  1.0
  O  O41  1  0.26423000  0.09268000  0.33681000  1.0
  O  O42  1  0.23584000  0.40732000  0.83681000  1.0
  O  O43  1  0.73578000  0.90732000  0.66318000  1.0
