# generated using pymatgen
data_CuH11C16N4O7
_symmetry_space_group_name_H-M   'P 1'
_cell_length_a   7.27891000
_cell_length_b   7.60673000
_cell_length_c   14.35850000
_cell_angle_alpha   97.61860000
_cell_angle_beta   99.52020000
_cell_angle_gamma   90.12220000
_symmetry_Int_Tables_number   1
_chemical_formula_structural   CuH11C16N4O7
_chemical_formula_sum   'Cu2 H22 C32 N8 O14'
_cell_volume   776.90539405
_cell_formula_units_Z   2
loop_
 _symmetry_equiv_pos_site_id
 _symmetry_equiv_pos_as_xyz
  1  'x, y, z'
loop_
 _atom_site_type_symbol
 _atom_site_label
 _atom_site_symmetry_multiplicity
 _atom_site_fract_x
 _atom_site_fract_y
 _atom_site_fract_z
 _atom_site_occupancy
  Cu  Cu0  1  0.50000000  0.50000000  0.50000000  1.0
  Cu  Cu1  1  0.00000000  0.00000000  0.50000000  1.0
  H  H2  1  0.32058000  0.94509000  0.49467000  1.0
  H  H3  1  0.67942000  0.05491000  0.50533000  1.0
  H  H4  1  0.27985000  0.15589000  0.48604000  1.0
  H  H5  1  0.72014000  0.84411000  0.51396000  1.0
  H  H6  1  0.46908000  0.79368000  0.94223000  1.0
  H  H7  1  0.53091000  0.20633000  0.05777000  1.0
  H  H8  1  0.40201000  0.46435000  0.93279000  1.0
  H  H9  1  0.59799000  0.53566000  0.06721000  1.0
  H  H10  1  0.26837000  0.29450000  0.77765000  1.0
  H  H11  1  0.73163000  0.70550000  0.22235000  1.0
  H  H12  1  0.09915000  0.94555000  0.27981000  1.0
  H  H13  1  0.90086000  0.05445000  0.72019000  1.0
  H  H14  1  0.00973000  0.14190000  0.15798000  1.0
  H  H15  1  0.99028000  0.85811000  0.84202000  1.0
  H  H16  1  0.05995000  0.70688000  0.93779000  1.0
  H  H17  1  0.94006000  0.29312000  0.06221000  1.0
  H  H18  1  0.16362000  0.51649000  0.06120000  1.0
  H  H19  1  0.83638000  0.48351000  0.93879000  1.0
  H  H20  1  0.37273000  0.78834000  0.35604000  1.0
  H  H21  1  0.62727000  0.21166000  0.64396000  1.0
  H  H22  1  0.22177000  0.24766000  0.33359000  1.0
  H  H23  1  0.77822000  0.75234000  0.66641000  1.0
  C  C24  1  0.37971000  0.79035000  0.79174000  1.0
  C  C25  1  0.62028000  0.20965000  0.20826000  1.0
  C  C26  1  0.41425000  0.71182000  0.87522000  1.0
  C  C27  1  0.58575000  0.28818000  0.12478000  1.0
  C  C28  1  0.37602000  0.53139000  0.86963000  1.0
  C  C29  1  0.62397000  0.46861000  0.13037000  1.0
  C  C30  1  0.30228000  0.43486000  0.78221000  1.0
  C  C31  1  0.69773000  0.56513000  0.21779000  1.0
  C  C32  1  0.27187000  0.51295000  0.69791000  1.0
  C  C33  1  0.72812000  0.48705000  0.30209000  1.0
  C  C34  1  0.31009000  0.69529000  0.70157000  1.0
  C  C35  1  0.68991000  0.30471000  0.29843000  1.0
  C  C36  1  0.26519000  0.78867000  0.61392000  1.0
  C  C37  1  0.73481000  0.21132000  0.38608000  1.0
  C  C38  1  0.20055000  0.38400000  0.60947000  1.0
  C  C39  1  0.79945000  0.61599000  0.39053000  1.0
  C  C40  1  0.14064000  0.72071000  0.17720000  1.0
  C  C41  1  0.85936000  0.27929000  0.82280000  1.0
  C  C42  1  0.09568000  0.89626000  0.20472000  1.0
  C  C43  1  0.90433000  0.10374000  0.79528000  1.0
  C  C44  1  0.04206000  0.00503000  0.13488000  1.0
  C  C45  1  0.95796000  0.99497000  0.86512000  1.0
  C  C46  1  0.02844000  0.94181000  0.03707000  1.0
  C  C47  1  0.97157000  0.05820000  0.96293000  1.0
  C  C48  1  0.07049000  0.76294000  0.01228000  1.0
  C  C49  1  0.92953000  0.23706000  0.98772000  1.0
  C  C50  1  0.12792000  0.65355000  0.08122000  1.0
  C  C51  1  0.87208000  0.34645000  0.91878000  1.0
  C  C52  1  0.31241000  0.65685000  0.33220000  1.0
  C  C53  1  0.68758000  0.34315000  0.66780000  1.0
  C  C54  1  0.23449000  0.38165000  0.31707000  1.0
  C  C55  1  0.76550000  0.61834000  0.68293000  1.0
  N  N56  1  0.42377000  0.98037000  0.80112000  1.0
  N  N57  1  0.57623000  0.01963000  0.19888000  1.0
  N  N58  1  0.20252000  0.61025000  0.24756000  1.0
  N  N59  1  0.79748000  0.38975000  0.75244000  1.0
  N  N60  1  0.33576000  0.51445000  0.37754000  1.0
  N  N61  1  0.66424000  0.48555000  0.62246000  1.0
  N  N62  1  0.15189000  0.43439000  0.23645000  1.0
  N  N63  1  0.84811000  0.56561000  0.76354000  1.0
  O  O64  1  0.44238000  0.04420000  0.72767000  1.0
  O  O65  1  0.55762000  0.95580000  0.27233000  1.0
  O  O66  1  0.44204000  0.06839000  0.88155000  1.0
  O  O67  1  0.55796000  0.93161000  0.11845000  1.0
  O  O68  1  0.38051000  0.78440000  0.55696000  1.0
  O  O69  1  0.61949000  0.21560000  0.44304000  1.0
  O  O70  1  0.10688000  0.86211000  0.60553000  1.0
  O  O71  1  0.89312000  0.13789000  0.39447000  1.0
  O  O72  1  0.06406000  0.28602000  0.61122000  1.0
  O  O73  1  0.93593000  0.71398000  0.38878000  1.0
  O  O74  1  0.29290000  0.36698000  0.53867000  1.0
  O  O75  1  0.70710000  0.63301000  0.46133000  1.0
  O  O76  1  0.24292000  0.03049000  0.45740000  1.0
  O  O77  1  0.75708000  0.96951000  0.54260000  1.0
