# generated using pymatgen
data_BaH13C15NO5
_symmetry_space_group_name_H-M   'P 1'
_cell_length_a   7.07518000
_cell_length_b   14.51240000
_cell_length_c   15.14710000
_cell_angle_alpha   90.00020000
_cell_angle_beta   90.00000000
_cell_angle_gamma   89.99860000
_symmetry_Int_Tables_number   1
_chemical_formula_structural   BaH13C15NO5
_chemical_formula_sum   'Ba4 H52 C60 N4 O20'
_cell_volume   1555.27154360
_cell_formula_units_Z   4
loop_
 _symmetry_equiv_pos_site_id
 _symmetry_equiv_pos_as_xyz
  1  'x, y, z'
loop_
 _atom_site_type_symbol
 _atom_site_label
 _atom_site_symmetry_multiplicity
 _atom_site_fract_x
 _atom_site_fract_y
 _atom_site_fract_z
 _atom_site_occupancy
  Ba  Ba0  1  0.94185000  0.19237000  0.43938000  1.0
  Ba  Ba1  1  0.55814000  0.80764000  0.93938000  1.0
  Ba  Ba2  1  0.05816000  0.69238000  0.06062000  1.0
  Ba  Ba3  1  0.44184000  0.30763000  0.56062000  1.0
  H  H4  1  0.95137000  0.50162000  0.58883000  1.0
  H  H5  1  0.54866000  0.49838000  0.08883000  1.0
  H  H6  1  0.04864000  0.00162000  0.91117000  1.0
  H  H7  1  0.45137000  0.99838000  0.41117000  1.0
  H  H8  1  0.87660000  0.22178000  0.75199000  1.0
  H  H9  1  0.62342000  0.77822000  0.25199000  1.0
  H  H10  1  0.12339000  0.72178000  0.74800000  1.0
  H  H11  1  0.37660000  0.27822000  0.24801000  1.0
  H  H12  1  0.82846000  0.18288000  0.90951000  1.0
  H  H13  1  0.67154000  0.81711000  0.40951000  1.0
  H  H14  1  0.17153000  0.68289000  0.59049000  1.0
  H  H15  1  0.32847000  0.31711000  0.09049000  1.0
  H  H16  1  0.78620000  0.30888000  0.02077000  1.0
  H  H17  1  0.71380000  0.69112000  0.52077000  1.0
  H  H18  1  0.21380000  0.80888000  0.47923000  1.0
  H  H19  1  0.28619000  0.19112000  0.97923000  1.0
  H  H20  1  0.78712000  0.47211000  0.97283000  1.0
  H  H21  1  0.71287000  0.52790000  0.47283000  1.0
  H  H22  1  0.21289000  0.97211000  0.52718000  1.0
  H  H23  1  0.28712000  0.02789000  0.02718000  1.0
  H  H24  1  0.85923000  0.62629000  0.69485000  1.0
  H  H25  1  0.64079000  0.37371000  0.19485000  1.0
  H  H26  1  0.14077000  0.12629000  0.80515000  1.0
  H  H27  1  0.35923000  0.87371000  0.30515000  1.0
  H  H28  1  0.89029000  0.93003000  0.26090000  1.0
  H  H29  1  0.60971000  0.06998000  0.76090000  1.0
  H  H30  1  0.10970000  0.43003000  0.23909000  1.0
  H  H31  1  0.39029000  0.56997000  0.73910000  1.0
  H  H32  1  0.81360000  0.90567000  0.12812000  1.0
  H  H33  1  0.68641000  0.09432000  0.62812000  1.0
  H  H34  1  0.18640000  0.40568000  0.37187000  1.0
  H  H35  1  0.31359000  0.59433000  0.87188000  1.0
  H  H36  1  0.91338000  0.98716000  0.05336000  1.0
  H  H37  1  0.58662000  0.01283000  0.55335000  1.0
  H  H38  1  0.08661000  0.48717000  0.44664000  1.0
  H  H39  1  0.41338000  0.51284000  0.94664000  1.0
  H  H40  1  0.66520000  0.99014000  0.07729000  1.0
  H  H41  1  0.83480000  0.00986000  0.57729000  1.0
  H  H42  1  0.33480000  0.49014000  0.42270000  1.0
  H  H43  1  0.16520000  0.50987000  0.92271000  1.0
  H  H44  1  0.84701000  0.17710000  0.22090000  1.0
  H  H45  1  0.65299000  0.82289000  0.72090000  1.0
  H  H46  1  0.15298000  0.67711000  0.27911000  1.0
  H  H47  1  0.34702000  0.32290000  0.77910000  1.0
  H  H48  1  0.69708000  0.15449000  0.12873000  1.0
  H  H49  1  0.80292000  0.84551000  0.62873000  1.0
  H  H50  1  0.30291000  0.65449000  0.37127000  1.0
  H  H51  1  0.19709000  0.34551000  0.87127000  1.0
  H  H52  1  0.94854000  0.15628000  0.11483000  1.0
  H  H53  1  0.55146000  0.84372000  0.61483000  1.0
  H  H54  1  0.05145000  0.65628000  0.38518000  1.0
  H  H55  1  0.44855000  0.34372000  0.88517000  1.0
  C  C56  1  0.92953000  0.32287000  0.61019000  1.0
  C  C57  1  0.57048000  0.67713000  0.11019000  1.0
  C  C58  1  0.07047000  0.82287000  0.88981000  1.0
  C  C59  1  0.42953000  0.17713000  0.38981000  1.0
  C  C60  1  0.76961000  0.61578000  0.86141000  1.0
  C  C61  1  0.73038000  0.38422000  0.36141000  1.0
  C  C62  1  0.23039000  0.11578000  0.63860000  1.0
  C  C63  1  0.26961000  0.88422000  0.13860000  1.0
  C  C64  1  0.91403000  0.48488000  0.65682000  1.0
  C  C65  1  0.58599000  0.51512000  0.15682000  1.0
  C  C66  1  0.08596000  0.98488000  0.84318000  1.0
  C  C67  1  0.41403000  0.01511000  0.34319000  1.0
  C  C68  1  0.90404000  0.39324000  0.68167000  1.0
  C  C69  1  0.59598000  0.60676000  0.18167000  1.0
  C  C70  1  0.09596000  0.89324000  0.81833000  1.0
  C  C71  1  0.40404000  0.10676000  0.31833000  1.0
  C  C72  1  0.86175000  0.36930000  0.77116000  1.0
  C  C73  1  0.63824000  0.63070000  0.27116000  1.0
  C  C74  1  0.13824000  0.86930000  0.72884000  1.0
  C  C75  1  0.36175000  0.13070000  0.22885000  1.0
  C  C76  1  0.85720000  0.27620000  0.80059000  1.0
  C  C77  1  0.64278000  0.72380000  0.30059000  1.0
  C  C78  1  0.14280000  0.77620000  0.69941000  1.0
  C  C79  1  0.35722000  0.22380000  0.19941000  1.0
  C  C80  1  0.83036000  0.25483000  0.88848000  1.0
  C  C81  1  0.66964000  0.74517000  0.38847000  1.0
  C  C82  1  0.16964000  0.75484000  0.61152000  1.0
  C  C83  1  0.33036000  0.24516000  0.11153000  1.0
  C  C84  1  0.80560000  0.32594000  0.95120000  1.0
  C  C85  1  0.69440000  0.67406000  0.45120000  1.0
  C  C86  1  0.19440000  0.82594000  0.54880000  1.0
  C  C87  1  0.30561000  0.17406000  0.04880000  1.0
  C  C88  1  0.80485000  0.41700000  0.92483000  1.0
  C  C89  1  0.69516000  0.58300000  0.42483000  1.0
  C  C90  1  0.19515000  0.91701000  0.57518000  1.0
  C  C91  1  0.30485000  0.08299000  0.07518000  1.0
  C  C92  1  0.83171000  0.44182000  0.83468000  1.0
  C  C93  1  0.66830000  0.55818000  0.33467000  1.0
  C  C94  1  0.16829000  0.94182000  0.66533000  1.0
  C  C95  1  0.33170000  0.05818000  0.16533000  1.0
  C  C96  1  0.82607000  0.53528000  0.80418000  1.0
  C  C97  1  0.67393000  0.46472000  0.30418000  1.0
  C  C98  1  0.17393000  0.03528000  0.69583000  1.0
  C  C99  1  0.32607000  0.96472000  0.19582000  1.0
  C  C100  1  0.86689000  0.55485000  0.71671000  1.0
  C  C101  1  0.63312000  0.44515000  0.21670000  1.0
  C  C102  1  0.13311000  0.05485000  0.78330000  1.0
  C  C103  1  0.36688000  0.94515000  0.28330000  1.0
  C  C104  1  0.88473000  0.00610000  0.25861000  1.0
  C  C105  1  0.61528000  0.99390000  0.75861000  1.0
  C  C106  1  0.11527000  0.50610000  0.24139000  1.0
  C  C107  1  0.38473000  0.49390000  0.74139000  1.0
  C  C108  1  0.80639000  0.97715000  0.10514000  1.0
  C  C109  1  0.69362000  0.02285000  0.60514000  1.0
  C  C110  1  0.19361000  0.47715000  0.39486000  1.0
  C  C111  1  0.30638000  0.52285000  0.89486000  1.0
  C  C112  1  0.83289000  0.13748000  0.15989000  1.0
  C  C113  1  0.66711000  0.86252000  0.65989000  1.0
  C  C114  1  0.16710000  0.63748000  0.34012000  1.0
  C  C115  1  0.33290000  0.36252000  0.84011000  1.0
  N  N116  1  0.83989000  0.03923000  0.17866000  1.0
  N  N117  1  0.66012000  0.96077000  0.67866000  1.0
  N  N118  1  0.16011000  0.53923000  0.32133000  1.0
  N  N119  1  0.33989000  0.46077000  0.82133000  1.0
  O  O120  1  0.80906000  0.25747000  0.60443000  1.0
  O  O121  1  0.69095000  0.74253000  0.10443000  1.0
  O  O122  1  0.19094000  0.75748000  0.89557000  1.0
  O  O123  1  0.30904000  0.24252000  0.39557000  1.0
  O  O124  1  0.06425000  0.33422000  0.55554000  1.0
  O  O125  1  0.43575000  0.66578000  0.05554000  1.0
  O  O126  1  0.93573000  0.83422000  0.94446000  1.0
  O  O127  1  0.56426000  0.16578000  0.44446000  1.0
  O  O128  1  0.82302000  0.61841000  0.94173000  1.0
  O  O129  1  0.67696000  0.38159000  0.44173000  1.0
  O  O130  1  0.17699000  0.11840000  0.55827000  1.0
  O  O131  1  0.32297000  0.88159000  0.05827000  1.0
  O  O132  1  0.66959000  0.67743000  0.82420000  1.0
  O  O133  1  0.83040000  0.32256000  0.32421000  1.0
  O  O134  1  0.33041000  0.17743000  0.67580000  1.0
  O  O135  1  0.16960000  0.82257000  0.17581000  1.0
  O  O136  1  0.91991000  0.05377000  0.32524000  1.0
  O  O137  1  0.58009000  0.94623000  0.82524000  1.0
  O  O138  1  0.08008000  0.55378000  0.17476000  1.0
  O  O139  1  0.41991000  0.44623000  0.67476000  1.0
