# generated using pymatgen
data_CdH8C4(NCl)2
_symmetry_space_group_name_H-M   'P 1'
_cell_length_a   7.30323000
_cell_length_b   7.59766000
_cell_length_c   7.60290000
_cell_angle_alpha   107.95500000
_cell_angle_beta   91.03420000
_cell_angle_gamma   91.03190000
_symmetry_Int_Tables_number   1
_chemical_formula_structural   CdH8C4(NCl)2
_chemical_formula_sum   'Cd2 H16 C8 N4 Cl4'
_cell_volume   401.13166094
_cell_formula_units_Z   2
loop_
 _symmetry_equiv_pos_site_id
 _symmetry_equiv_pos_as_xyz
  1  'x, y, z'
loop_
 _atom_site_type_symbol
 _atom_site_label
 _atom_site_symmetry_multiplicity
 _atom_site_fract_x
 _atom_site_fract_y
 _atom_site_fract_z
 _atom_site_occupancy
  Cd  Cd0  1  0.74953000  0.91058000  0.06244000  1.0
  Cd  Cd1  1  0.24962000  0.06248000  0.91061000  1.0
  H  H2  1  0.75809000  0.49754000  0.79437000  1.0
  H  H3  1  0.82513000  0.18288000  0.46338000  1.0
  H  H4  1  0.32540000  0.46391000  0.18253000  1.0
  H  H5  1  0.25837000  0.79414000  0.49791000  1.0
  H  H6  1  0.79438000  0.33296000  0.91699000  1.0
  H  H7  1  0.71855000  0.10743000  0.65377000  1.0
  H  H8  1  0.21836000  0.65416000  0.10708000  1.0
  H  H9  1  0.29430000  0.91683000  0.33333333  1.0
  H  H10  1  0.87807000  0.68764000  0.35265000  1.0
  H  H11  1  0.53730000  0.68918000  0.33635000  1.0
  H  H12  1  0.03713000  0.33605000  0.68937000  1.0
  H  H13  1  0.37799000  0.35286000  0.68767000  1.0
  H  H14  1  0.89465000  0.43355000  0.22289000  1.0
  H  H15  1  0.59122000  0.81084000  0.57369000  1.0
  H  H16  1  0.09083000  0.57363000  0.81072000  1.0
  H  H17  1  0.39444000  0.22298000  0.43373000  1.0
  C  C18  1  0.84490000  0.46292000  0.89801000  1.0
  C  C19  1  0.73713000  0.08619000  0.50622000  1.0
  C  C20  1  0.23719000  0.50659000  0.08595000  1.0
  C  C21  1  0.34500000  0.89786000  0.46320000  1.0
  C  C22  1  0.87202000  0.57547000  0.22116000  1.0
  C  C23  1  0.54230000  0.82586000  0.44147000  1.0
  C  C24  1  0.04217000  0.44134000  0.82590000  1.0
  C  C25  1  0.37195000  0.22128000  0.57559000  1.0
  N  N26  1  0.83849000  0.61328000  0.07110000  1.0
  N  N27  1  0.66380000  0.94868000  0.38087000  1.0
  N  N28  1  0.16388000  0.38099000  0.94868000  1.0
  N  N29  1  0.33859000  0.07113000  0.61349000  1.0
  Cl  Cl30  1  0.05967000  0.10163000  0.21168000  1.0
  Cl  Cl31  1  0.44507000  0.75375000  0.87128000  1.0
  Cl  Cl32  1  0.94495000  0.87157000  0.75389000  1.0
  Cl  Cl33  1  0.55953000  0.21181000  0.10199000  1.0
