# generated using pymatgen
data_CuH3C4(IN)2
_symmetry_space_group_name_H-M   'P 1'
_cell_length_a   4.07857000
_cell_length_b   10.74030000
_cell_length_c   17.50460000
_cell_angle_alpha   89.99960000
_cell_angle_beta   89.99950000
_cell_angle_gamma   89.99960000
_symmetry_Int_Tables_number   1
_chemical_formula_structural   CuH3C4(IN)2
_chemical_formula_sum   'Cu4 H12 C16 I8 N8'
_cell_volume   766.79014723
_cell_formula_units_Z   4
loop_
 _symmetry_equiv_pos_site_id
 _symmetry_equiv_pos_as_xyz
  1  'x, y, z'
loop_
 _atom_site_type_symbol
 _atom_site_label
 _atom_site_symmetry_multiplicity
 _atom_site_fract_x
 _atom_site_fract_y
 _atom_site_fract_z
 _atom_site_occupancy
  Cu  Cu0  1  0.64862000  0.72014000  0.54782000  1.0
  Cu  Cu1  1  0.85137000  0.27986000  0.04781000  1.0
  Cu  Cu2  1  0.35136000  0.22015000  0.95219000  1.0
  Cu  Cu3  1  0.14863000  0.77986000  0.45219000  1.0
  H  H4  1  0.86615000  0.45361000  0.53580000  1.0
  H  H5  1  0.63386000  0.54639000  0.03580000  1.0
  H  H6  1  0.13384000  0.95361000  0.96420000  1.0
  H  H7  1  0.36616000  0.04639000  0.46420000  1.0
  H  H8  1  0.34708000  0.46972000  0.78640000  1.0
  H  H9  1  0.15288000  0.53026000  0.28640000  1.0
  H  H10  1  0.65291000  0.96973000  0.71360000  1.0
  H  H11  1  0.84715000  0.03027000  0.21360000  1.0
  H  H12  1  0.40840000  0.66357000  0.70585000  1.0
  H  H13  1  0.09155000  0.33641000  0.20585000  1.0
  H  H14  1  0.59158000  0.16358000  0.79416000  1.0
  H  H15  1  0.90845000  0.83642000  0.29416000  1.0
  C  C16  1  0.75127000  0.45707000  0.59211000  1.0
  C  C17  1  0.74872000  0.54294000  0.09211000  1.0
  C  C18  1  0.24872000  0.95707000  0.90789000  1.0
  C  C19  1  0.25128000  0.04293000  0.40789000  1.0
  C  C20  1  0.72061000  0.35185000  0.63874000  1.0
  C  C21  1  0.77938000  0.64815000  0.13873000  1.0
  C  C22  1  0.27936000  0.85185000  0.86127000  1.0
  C  C23  1  0.22064000  0.14815000  0.36126000  1.0
  C  C24  1  0.46427000  0.46617000  0.73036000  1.0
  C  C25  1  0.03570000  0.53382000  0.23036000  1.0
  C  C26  1  0.53571000  0.96618000  0.76965000  1.0
  C  C27  1  0.96431000  0.03383000  0.26964000  1.0
  C  C28  1  0.49423000  0.57292000  0.68584000  1.0
  C  C29  1  0.00574000  0.42706000  0.18585000  1.0
  C  C30  1  0.50576000  0.07293000  0.81416000  1.0
  C  C31  1  0.99427000  0.92707000  0.31415000  1.0
  I  I32  1  0.64211000  0.64059000  0.40737000  1.0
  I  I33  1  0.85789000  0.35942000  0.90737000  1.0
  I  I34  1  0.35790000  0.14058000  0.09263000  1.0
  I  I35  1  0.14210000  0.85941000  0.59263000  1.0
  I  I36  1  0.90612000  0.17701000  0.60266000  1.0
  I  I37  1  0.59390000  0.82299000  0.10267000  1.0
  I  I38  1  0.09388000  0.67702000  0.89734000  1.0
  I  I39  1  0.40614000  0.32299000  0.39733000  1.0
  N  N40  1  0.63415000  0.56769000  0.61590000  1.0
  N  N41  1  0.86583000  0.43232000  0.11590000  1.0
  N  N42  1  0.36584000  0.06769000  0.88410000  1.0
  N  N43  1  0.13418000  0.93231000  0.38410000  1.0
  N  N44  1  0.57622000  0.35502000  0.70674000  1.0
  N  N45  1  0.92376000  0.64496000  0.20674000  1.0
  N  N46  1  0.42376000  0.85504000  0.79326000  1.0
  N  N47  1  0.07626000  0.14497000  0.29325000  1.0
