# generated using pymatgen
data_ZnH11C19NO4
_symmetry_space_group_name_H-M   'P 1'
_cell_length_a   8.18471000
_cell_length_b   14.78960000
_cell_length_c   15.01490000
_cell_angle_alpha   89.99940000
_cell_angle_beta   97.72550000
_cell_angle_gamma   89.99960000
_symmetry_Int_Tables_number   1
_chemical_formula_structural   ZnH11C19NO4
_chemical_formula_sum   'Zn4 H44 C76 N4 O16'
_cell_volume   1801.03554107
_cell_formula_units_Z   4
loop_
 _symmetry_equiv_pos_site_id
 _symmetry_equiv_pos_as_xyz
  1  'x, y, z'
loop_
 _atom_site_type_symbol
 _atom_site_label
 _atom_site_symmetry_multiplicity
 _atom_site_fract_x
 _atom_site_fract_y
 _atom_site_fract_z
 _atom_site_occupancy
  Zn  Zn0  1  0.99037000  0.72957000  0.74632000  1.0
  Zn  Zn1  1  0.50963000  0.22957000  0.25368000  1.0
  Zn  Zn2  1  0.00963000  0.27043000  0.25368000  1.0
  Zn  Zn3  1  0.49038000  0.77043000  0.74631000  1.0
  H  H4  1  0.10492000  0.87634000  0.63304000  1.0
  H  H5  1  0.39508000  0.37634000  0.36698000  1.0
  H  H6  1  0.89509000  0.12366000  0.36697000  1.0
  H  H7  1  0.60492000  0.62365000  0.63302000  1.0
  H  H8  1  0.00329000  0.13193000  0.75208000  1.0
  H  H9  1  0.49672000  0.63193000  0.24793000  1.0
  H  H10  1  0.99672000  0.86807000  0.24792000  1.0
  H  H11  1  0.50326000  0.36807000  0.75207000  1.0
  H  H12  1  0.87541000  0.87554000  0.86103000  1.0
  H  H13  1  0.62458000  0.37554000  0.13897000  1.0
  H  H14  1  0.12459000  0.12446000  0.13897000  1.0
  H  H15  1  0.37543000  0.62446000  0.86102000  1.0
  H  H16  1  0.29625000  0.94953000  0.58223000  1.0
  H  H17  1  0.20375000  0.44953000  0.41778000  1.0
  H  H18  1  0.70375000  0.05047000  0.41777000  1.0
  H  H19  1  0.79626000  0.55046000  0.58223000  1.0
  H  H20  1  0.39080000  0.02520000  0.45048000  1.0
  H  H21  1  0.10919000  0.52521000  0.54953000  1.0
  H  H22  1  0.60919000  0.97479000  0.54952000  1.0
  H  H23  1  0.89082000  0.47478000  0.45048000  1.0
  H  H24  1  0.08634000  0.25467000  0.48595000  1.0
  H  H25  1  0.41366000  0.75467000  0.51405000  1.0
  H  H26  1  0.91365000  0.74532000  0.51404000  1.0
  H  H27  1  0.58635000  0.24532000  0.48595000  1.0
  H  H28  1  0.97730000  0.17758000  0.61251000  1.0
  H  H29  1  0.52271000  0.67757000  0.38750000  1.0
  H  H30  1  0.02270000  0.82243000  0.38749000  1.0
  H  H31  1  0.47730000  0.32242000  0.61250000  1.0
  H  H32  1  0.69418000  0.95293000  0.91692000  1.0
  H  H33  1  0.80584000  0.45292000  0.08309000  1.0
  H  H34  1  0.30582000  0.04707000  0.08308000  1.0
  H  H35  1  0.19417000  0.54708000  0.91691000  1.0
  H  H36  1  0.60885000  0.02809000  0.05146000  1.0
  H  H37  1  0.89114000  0.52808000  0.94854000  1.0
  H  H38  1  0.39114000  0.97191000  0.94854000  1.0
  H  H39  1  0.10885000  0.47192000  0.05146000  1.0
  H  H40  1  0.93503000  0.24937000  0.02116000  1.0
  H  H41  1  0.56494000  0.74936000  0.97883000  1.0
  H  H42  1  0.06495000  0.75064000  0.97884000  1.0
  H  H43  1  0.43505000  0.25064000  0.02116000  1.0
  H  H44  1  0.03454000  0.17227000  0.89191000  1.0
  H  H45  1  0.46546000  0.67226000  0.10808000  1.0
  H  H46  1  0.96545000  0.82774000  0.10808000  1.0
  H  H47  1  0.53454000  0.32774000  0.89191000  1.0
  C  C48  1  0.05600000  0.91706000  0.68347000  1.0
  C  C49  1  0.44400000  0.41706000  0.31654000  1.0
  C  C50  1  0.94401000  0.08294000  0.31653000  1.0
  C  C51  1  0.55600000  0.58293000  0.68346000  1.0
  C  C52  1  0.06224000  0.01163000  0.68151000  1.0
  C  C53  1  0.43776000  0.51163000  0.31850000  1.0
  C  C54  1  0.93777000  0.98837000  0.31850000  1.0
  C  C55  1  0.56223000  0.48837000  0.68150000  1.0
  C  C56  1  0.99940000  0.05826000  0.75059000  1.0
  C  C57  1  0.50060000  0.55827000  0.24942000  1.0
  C  C58  1  0.00061000  0.94174000  0.24941000  1.0
  C  C59  1  0.49938000  0.44174000  0.75058000  1.0
  C  C60  1  0.93174000  0.01116000  0.81786000  1.0
  C  C61  1  0.56825000  0.51116000  0.18215000  1.0
  C  C62  1  0.06825000  0.98885000  0.18215000  1.0
  C  C63  1  0.43174000  0.48884000  0.81785000  1.0
  C  C64  1  0.92843000  0.91666000  0.81228000  1.0
  C  C65  1  0.57156000  0.41666000  0.18774000  1.0
  C  C66  1  0.07157000  0.08334000  0.18773000  1.0
  C  C67  1  0.42844000  0.58334000  0.81226000  1.0
  C  C68  1  0.12896000  0.05797000  0.60716000  1.0
  C  C69  1  0.37104000  0.55797000  0.39285000  1.0
  C  C70  1  0.87104000  0.94203000  0.39284000  1.0
  C  C71  1  0.62896000  0.44202000  0.60715000  1.0
  C  C72  1  0.24680000  0.01574000  0.56082000  1.0
  C  C73  1  0.25320000  0.51575000  0.43920000  1.0
  C  C74  1  0.75320000  0.98426000  0.43918000  1.0
  C  C75  1  0.74681000  0.48425000  0.56081000  1.0
  C  C76  1  0.30288000  0.05839000  0.48804000  1.0
  C  C77  1  0.19713000  0.55840000  0.51197000  1.0
  C  C78  1  0.69712000  0.94161000  0.51196000  1.0
  C  C79  1  0.80288000  0.44159000  0.48803000  1.0
  C  C80  1  0.24567000  0.14463000  0.46086000  1.0
  C  C81  1  0.25433000  0.64463000  0.53915000  1.0
  C  C82  1  0.75433000  0.85537000  0.53913000  1.0
  C  C83  1  0.74568000  0.35536000  0.46086000  1.0
  C  C84  1  0.13081000  0.18778000  0.50789000  1.0
  C  C85  1  0.36919000  0.68778000  0.49212000  1.0
  C  C86  1  0.86918000  0.81222000  0.49211000  1.0
  C  C87  1  0.63081000  0.31222000  0.50789000  1.0
  C  C88  1  0.07204000  0.14459000  0.57939000  1.0
  C  C89  1  0.42797000  0.64459000  0.42062000  1.0
  C  C90  1  0.92796000  0.85541000  0.42061000  1.0
  C  C91  1  0.57204000  0.35540000  0.57938000  1.0
  C  C92  1  0.30054000  0.19052000  0.38126000  1.0
  C  C93  1  0.19947000  0.69052000  0.61874000  1.0
  C  C94  1  0.69946000  0.80948000  0.61873000  1.0
  C  C95  1  0.80054000  0.30948000  0.38126000  1.0
  C  C96  1  0.87105000  0.05713000  0.89426000  1.0
  C  C97  1  0.62895000  0.55712000  0.10575000  1.0
  C  C98  1  0.12894000  0.94287000  0.10574000  1.0
  C  C99  1  0.37105000  0.44287000  0.89426000  1.0
  C  C100  1  0.75018000  0.01719000  0.94009000  1.0
  C  C101  1  0.74983000  0.51719000  0.05991000  1.0
  C  C102  1  0.24982000  0.98281000  0.05990000  1.0
  C  C103  1  0.25017000  0.48282000  0.94009000  1.0
  C  C104  1  0.69968000  0.05958000  0.01457000  1.0
  C  C105  1  0.80033000  0.55958000  0.98544000  1.0
  C  C106  1  0.30032000  0.94042000  0.98543000  1.0
  C  C107  1  0.19968000  0.44042000  0.01456000  1.0
  C  C108  1  0.76581000  0.14340000  0.04408000  1.0
  C  C109  1  0.73419000  0.64340000  0.95593000  1.0
  C  C110  1  0.23418000  0.85660000  0.95592000  1.0
  C  C111  1  0.26581000  0.35660000  0.04407000  1.0
  C  C112  1  0.88390000  0.18429000  0.99766000  1.0
  C  C113  1  0.61608000  0.68429000  0.00234000  1.0
  C  C114  1  0.11609000  0.81571000  0.00234000  1.0
  C  C115  1  0.38391000  0.31571000  0.99766000  1.0
  C  C116  1  0.93711000  0.14126000  0.92451000  1.0
  C  C117  1  0.56288000  0.64126000  0.07548000  1.0
  C  C118  1  0.06288000  0.85874000  0.07548000  1.0
  C  C119  1  0.43711000  0.35874000  0.92452000  1.0
  C  C120  1  0.71595000  0.18932000  0.12501000  1.0
  C  C121  1  0.78405000  0.68932000  0.87499000  1.0
  C  C122  1  0.28406000  0.81068000  0.87500000  1.0
  C  C123  1  0.21594000  0.31068000  0.12500000  1.0
  N  N124  1  0.99029000  0.87086000  0.74705000  1.0
  N  N125  1  0.50971000  0.37087000  0.25296000  1.0
  N  N126  1  0.00971000  0.12914000  0.25295000  1.0
  N  N127  1  0.49030000  0.62913000  0.74704000  1.0
  O  O128  1  0.60172000  0.15224000  0.16324000  1.0
  O  O129  1  0.89829000  0.65223000  0.83676000  1.0
  O  O130  1  0.39829000  0.84777000  0.83676000  1.0
  O  O131  1  0.10171000  0.34777000  0.16324000  1.0
  O  O132  1  0.78724000  0.26272000  0.15118000  1.0
  O  O133  1  0.71276000  0.76271000  0.84881000  1.0
  O  O134  1  0.21277000  0.73729000  0.84881000  1.0
  O  O135  1  0.28724000  0.23728000  0.15119000  1.0
  O  O136  1  0.41541000  0.15281000  0.34407000  1.0
  O  O137  1  0.08458000  0.65282000  0.65594000  1.0
  O  O138  1  0.58458000  0.84719000  0.65593000  1.0
  O  O139  1  0.91542000  0.34718000  0.34407000  1.0
  O  O140  1  0.23203000  0.26458000  0.35478000  1.0
  O  O141  1  0.26797000  0.76459000  0.64522000  1.0
  O  O142  1  0.76796000  0.73542000  0.64522000  1.0
  O  O143  1  0.73204000  0.23541000  0.35478000  1.0
