# generated using pymatgen
data_KCoH14C8(NO5)2
_symmetry_space_group_name_H-M   'P 1'
_cell_length_a   5.07533000
_cell_length_b   11.09590000
_cell_length_c   12.22360000
_cell_angle_alpha   89.99910000
_cell_angle_beta   81.71750000
_cell_angle_gamma   89.99950000
_symmetry_Int_Tables_number   1
_chemical_formula_structural   KCoH14C8(NO5)2
_chemical_formula_sum   'K2 Co2 H28 C16 N4 O20'
_cell_volume   681.19648312
_cell_formula_units_Z   2
loop_
 _symmetry_equiv_pos_site_id
 _symmetry_equiv_pos_as_xyz
  1  'x, y, z'
loop_
 _atom_site_type_symbol
 _atom_site_label
 _atom_site_symmetry_multiplicity
 _atom_site_fract_x
 _atom_site_fract_y
 _atom_site_fract_z
 _atom_site_occupancy
  K  K0  1  0.00001000  0.00001000  0.50000000  1.0
  K  K1  1  0.99999000  0.50000000  0.99999000  1.0
  Co  Co2  1  0.50000000  0.00000000  0.00000000  1.0
  Co  Co3  1  0.50000000  0.50000000  0.50000000  1.0
  H  H4  1  0.85976000  0.01798000  0.11332000  1.0
  H  H5  1  0.85979000  0.48202000  0.61331000  1.0
  H  H6  1  0.14024000  0.98202000  0.88668000  1.0
  H  H7  1  0.14021000  0.51798000  0.38668000  1.0
  H  H8  1  0.36948000  0.05571000  0.73520000  1.0
  H  H9  1  0.36945000  0.44430000  0.23520000  1.0
  H  H10  1  0.63052000  0.94429000  0.26480000  1.0
  H  H11  1  0.63055000  0.55570000  0.76479000  1.0
  H  H12  1  0.52552000  0.91300000  0.71308000  1.0
  H  H13  1  0.52548000  0.58701000  0.21307000  1.0
  H  H14  1  0.47448000  0.08700000  0.28692000  1.0
  H  H15  1  0.47452000  0.41300000  0.78692000  1.0
  H  H16  1  0.95603000  0.71937000  0.70943000  1.0
  H  H17  1  0.95601000  0.78063000  0.20944000  1.0
  H  H18  1  0.04398000  0.28063000  0.29057000  1.0
  H  H19  1  0.04400000  0.21937000  0.79056000  1.0
  H  H20  1  0.67866000  0.23280000  0.19201000  1.0
  H  H21  1  0.67864000  0.26719000  0.69200000  1.0
  H  H22  1  0.32136000  0.76720000  0.80800000  1.0
  H  H23  1  0.32136000  0.73281000  0.30799000  1.0
  H  H24  1  0.89952000  0.20845000  0.06795000  1.0
  H  H25  1  0.89952000  0.29155000  0.56795000  1.0
  H  H26  1  0.10048000  0.79156000  0.93206000  1.0
  H  H27  1  0.10046000  0.70845000  0.43205000  1.0
  H  H28  1  0.80089000  0.74010000  0.61101000  1.0
  H  H29  1  0.80089000  0.75990000  0.11101000  1.0
  H  H30  1  0.19911000  0.25990000  0.38899000  1.0
  H  H31  1  0.19911000  0.24010000  0.88899000  1.0
  C  C32  1  0.74834000  0.03901000  0.79224000  1.0
  C  C33  1  0.74830000  0.46099000  0.29224000  1.0
  C  C34  1  0.25167000  0.96099000  0.20776000  1.0
  C  C35  1  0.25167000  0.53902000  0.70777000  1.0
  C  C36  1  0.51618000  0.01295000  0.22725000  1.0
  C  C37  1  0.51621000  0.48704000  0.72724000  1.0
  C  C38  1  0.48381000  0.98704000  0.77275000  1.0
  C  C39  1  0.48379000  0.51296000  0.27275000  1.0
  C  C40  1  0.30082000  0.81149000  0.88879000  1.0
  C  C41  1  0.30079000  0.68851000  0.38879000  1.0
  C  C42  1  0.69919000  0.18851000  0.11121000  1.0
  C  C43  1  0.69919000  0.31149000  0.61121000  1.0
  C  C44  1  0.50117000  0.75883000  0.95702000  1.0
  C  C45  1  0.50114000  0.74118000  0.45702000  1.0
  C  C46  1  0.49884000  0.24117000  0.04298000  1.0
  C  C47  1  0.49885000  0.25882000  0.54298000  1.0
  N  N48  1  0.67190000  0.05612000  0.12242000  1.0
  N  N49  1  0.67191000  0.44387000  0.62241000  1.0
  N  N50  1  0.32811000  0.94388000  0.87758000  1.0
  N  N51  1  0.32808000  0.55612000  0.37759000  1.0
  O  O52  1  0.79821000  0.03731000  0.89419000  1.0
  O  O53  1  0.79819000  0.46269000  0.39418000  1.0
  O  O54  1  0.20180000  0.96269000  0.10581000  1.0
  O  O55  1  0.20181000  0.53730000  0.60581000  1.0
  O  O56  1  0.91027000  0.08146000  0.71560000  1.0
  O  O57  1  0.91023000  0.41855000  0.21558000  1.0
  O  O58  1  0.08973000  0.91854000  0.28441000  1.0
  O  O59  1  0.08979000  0.58146000  0.78440000  1.0
  O  O60  1  0.62568000  0.83873000  0.01016000  1.0
  O  O61  1  0.62566000  0.66127000  0.51016000  1.0
  O  O62  1  0.37433000  0.16128000  0.98985000  1.0
  O  O63  1  0.37434000  0.33873000  0.48984000  1.0
  O  O64  1  0.46069000  0.35118000  0.03702000  1.0
  O  O65  1  0.46071000  0.14884000  0.53702000  1.0
  O  O66  1  0.53932000  0.64881000  0.96298000  1.0
  O  O67  1  0.53926000  0.85116000  0.46298000  1.0
  O  O68  1  0.88984000  0.78402000  0.66561000  1.0
  O  O69  1  0.88982000  0.71598000  0.16561000  1.0
  O  O70  1  0.11017000  0.21598000  0.33439000  1.0
  O  O71  1  0.11018000  0.28402000  0.83439000  1.0
