# generated using pymatgen
data_Cd2H14C24N4Cl4O9
_symmetry_space_group_name_H-M   'P 1'
_cell_length_a   11.47410000
_cell_length_b   11.47410000
_cell_length_c   15.09580000
_cell_angle_alpha   109.61700000
_cell_angle_beta   109.61700000
_cell_angle_gamma   96.45560000
_symmetry_Int_Tables_number   1
_chemical_formula_structural   Cd2H14C24N4Cl4O9
_chemical_formula_sum   'Cd4 H28 C48 N8 Cl8 O18'
_cell_volume   1705.70527850
_cell_formula_units_Z   2
loop_
 _symmetry_equiv_pos_site_id
 _symmetry_equiv_pos_as_xyz
  1  'x, y, z'
loop_
 _atom_site_type_symbol
 _atom_site_label
 _atom_site_symmetry_multiplicity
 _atom_site_fract_x
 _atom_site_fract_y
 _atom_site_fract_z
 _atom_site_occupancy
  Cd  Cd0  1  0.99790000  0.73340000  0.71531000  1.0
  Cd  Cd1  1  0.00210000  0.26660000  0.28469000  1.0
  Cd  Cd2  1  0.73340000  0.99790000  0.21531000  1.0
  Cd  Cd3  1  0.26660000  0.00210000  0.78469000  1.0
  H  H4  1  0.14556000  0.88242000  0.08041000  1.0
  H  H5  1  0.45482000  0.24677000  0.13996000  1.0
  H  H6  1  0.52778000  0.02808000  0.32109000  1.0
  H  H7  1  0.88242000  0.14556000  0.58040000  1.0
  H  H8  1  0.24677000  0.45482000  0.63996000  1.0
  H  H9  1  0.34204000  0.32302000  0.88684000  1.0
  H  H10  1  0.85444000  0.11759000  0.91960000  1.0
  H  H11  1  0.54519000  0.75323000  0.86004000  1.0
  H  H12  1  0.18135000  0.05464000  0.58611000  1.0
  H  H13  1  0.94537000  0.81865000  0.91389000  1.0
  H  H14  1  0.67698000  0.65796000  0.61316000  1.0
  H  H15  1  0.05463000  0.18135000  0.08610000  1.0
  H  H16  1  0.47222000  0.97192000  0.67891000  1.0
  H  H17  1  0.10296000  0.51331000  0.48223000  1.0
  H  H18  1  0.11758000  0.85443000  0.41959000  1.0
  H  H19  1  0.02808000  0.52778000  0.82109000  1.0
  H  H20  1  0.48669000  0.89704000  0.01777000  1.0
  H  H21  1  0.75323000  0.54518000  0.36004000  1.0
  H  H22  1  0.65796000  0.67698000  0.11317000  1.0
  H  H23  1  0.05187000  0.01629000  0.81679000  1.0
  H  H24  1  0.89704000  0.48669000  0.51777000  1.0
  H  H25  1  0.81865000  0.94536000  0.41390000  1.0
  H  H26  1  0.97192000  0.47222000  0.17891000  1.0
  H  H27  1  0.32301000  0.34204000  0.38683000  1.0
  H  H28  1  0.51331000  0.10296000  0.98223000  1.0
  H  H29  1  0.98371000  0.94813000  0.68321000  1.0
  H  H30  1  0.94813000  0.98371000  0.18321000  1.0
  H  H31  1  0.01629000  0.05187000  0.31679000  1.0
  C  C32  1  0.15543000  0.21514000  0.13749000  1.0
  C  C33  1  0.23014000  0.83464000  0.92072000  1.0
  C  C34  1  0.40499000  0.30092000  0.27222000  1.0
  C  C35  1  0.21514000  0.15543000  0.63749000  1.0
  C  C36  1  0.78996000  0.85073000  0.01640000  1.0
  C  C37  1  0.91275000  0.43936000  0.57086000  1.0
  C  C38  1  0.67018000  0.04153000  0.79004000  1.0
  C  C39  1  0.30092000  0.40499000  0.77222000  1.0
  C  C40  1  0.98531000  0.46243000  0.74037000  1.0
  C  C41  1  0.04153000  0.67018000  0.29004000  1.0
  C  C42  1  0.59501000  0.69908000  0.72778000  1.0
  C  C43  1  0.24939000  0.90420000  0.10565000  1.0
  C  C44  1  0.56064000  0.08725000  0.92914000  1.0
  C  C45  1  0.79197000  0.74993000  0.40153000  1.0
  C  C46  1  0.84457000  0.78486000  0.86251000  1.0
  C  C47  1  0.01468000  0.53756000  0.25963000  1.0
  C  C48  1  0.30564000  0.30504000  0.80552000  1.0
  C  C49  1  0.62175000  0.74812000  0.83257000  1.0
  C  C50  1  0.75061000  0.09580000  0.89435000  1.0
  C  C51  1  0.74993000  0.79197000  0.90153000  1.0
  C  C52  1  0.11744000  0.69389000  0.46530000  1.0
  C  C53  1  0.69436000  0.69496000  0.19448000  1.0
  C  C54  1  0.69389000  0.11744000  0.96530000  1.0
  C  C55  1  0.83464000  0.23014000  0.42072000  1.0
  C  C56  1  0.09580000  0.75060000  0.39435000  1.0
  C  C57  1  0.20803000  0.25007000  0.59847000  1.0
  C  C58  1  0.69908000  0.59501000  0.22778000  1.0
  C  C59  1  0.30610000  0.88256000  0.03470000  1.0
  C  C60  1  0.88256000  0.30610000  0.53470000  1.0
  C  C61  1  0.85073000  0.78996000  0.51640000  1.0
  C  C62  1  0.78486000  0.84457000  0.36251000  1.0
  C  C63  1  0.21005000  0.14927000  0.98360000  1.0
  C  C64  1  0.25188000  0.37825000  0.66743000  1.0
  C  C65  1  0.16535000  0.76986000  0.57928000  1.0
  C  C66  1  0.90420000  0.24939000  0.60565000  1.0
  C  C67  1  0.25007000  0.20803000  0.09847000  1.0
  C  C68  1  0.95847000  0.32982000  0.70996000  1.0
  C  C69  1  0.46244000  0.98531000  0.24037000  1.0
  C  C70  1  0.14927000  0.21005000  0.48360000  1.0
  C  C71  1  0.53756000  0.01468000  0.75963000  1.0
  C  C72  1  0.43936000  0.91274000  0.07086000  1.0
  C  C73  1  0.76986000  0.16536000  0.07928000  1.0
  C  C74  1  0.32982000  0.95847000  0.20996000  1.0
  C  C75  1  0.30504000  0.30564000  0.30552000  1.0
  C  C76  1  0.08725000  0.56064000  0.42914000  1.0
  C  C77  1  0.74812000  0.62175000  0.33258000  1.0
  C  C78  1  0.69496000  0.69436000  0.69448000  1.0
  C  C79  1  0.37825000  0.25188000  0.16743000  1.0
  N  N80  1  0.96122000  0.51490000  0.67106000  1.0
  N  N81  1  0.48510000  0.03878000  0.82894000  1.0
  N  N82  1  0.26327000  0.18247000  0.73837000  1.0
  N  N83  1  0.81753000  0.73673000  0.76163000  1.0
  N  N84  1  0.18247000  0.26327000  0.23837000  1.0
  N  N85  1  0.03878000  0.48510000  0.32894000  1.0
  N  N86  1  0.73673000  0.81753000  0.26163000  1.0
  N  N87  1  0.51490000  0.96122000  0.17106000  1.0
  Cl  Cl88  1  0.99683000  0.26883000  0.80298000  1.0
  Cl  Cl89  1  0.56101000  0.35423000  0.36223000  1.0
  Cl  Cl90  1  0.26883000  0.99683000  0.30298000  1.0
  Cl  Cl91  1  0.00317000  0.73117000  0.19702000  1.0
  Cl  Cl92  1  0.43898000  0.64577000  0.63777000  1.0
  Cl  Cl93  1  0.64576000  0.43898000  0.13777000  1.0
  Cl  Cl94  1  0.73117000  0.00316000  0.69702000  1.0
  Cl  Cl95  1  0.35424000  0.56102000  0.86223000  1.0
  O  O96  1  0.86068000  0.28837000  0.36921000  1.0
  O  O97  1  0.09042000  0.10609000  0.92971000  1.0
  O  O98  1  0.77266000  0.11395000  0.38576000  1.0
  O  O99  1  0.10609000  0.09042000  0.42971000  1.0
  O  O100  1  0.13932000  0.71163000  0.63079000  1.0
  O  O101  1  0.14643000  0.29913000  0.45107000  1.0
  O  O102  1  0.04978000  0.95022000  0.75000000  1.0
  O  O103  1  0.22734000  0.88605000  0.61424000  1.0
  O  O104  1  0.28837000  0.86068000  0.86921000  1.0
  O  O105  1  0.70088000  0.85357000  0.04893000  1.0
  O  O106  1  0.89391000  0.90958000  0.57029000  1.0
  O  O107  1  0.90958000  0.89391000  0.07029000  1.0
  O  O108  1  0.11395000  0.77266000  0.88576000  1.0
  O  O109  1  0.88605000  0.22734000  0.11424000  1.0
  O  O110  1  0.29913000  0.14643000  0.95107000  1.0
  O  O111  1  0.85357000  0.70088000  0.54893000  1.0
  O  O112  1  0.95022000  0.04978000  0.25000000  1.0
  O  O113  1  0.71163000  0.13932000  0.13079000  1.0
