# generated using pymatgen
data_AlH15C16(NO3)2
_symmetry_space_group_name_H-M   'P 1'
_cell_length_a   6.61873000
_cell_length_b   21.69850000
_cell_length_c   23.09760000
_cell_angle_alpha   78.02100000
_cell_angle_beta   90.23410000
_cell_angle_gamma   90.00110000
_symmetry_Int_Tables_number   1
_chemical_formula_structural   AlH15C16(NO3)2
_chemical_formula_sum   'Al4 H60 C64 N8 O24'
_cell_volume   3244.93237447
_cell_formula_units_Z   4
loop_
 _symmetry_equiv_pos_site_id
 _symmetry_equiv_pos_as_xyz
  1  'x, y, z'
loop_
 _atom_site_type_symbol
 _atom_site_label
 _atom_site_symmetry_multiplicity
 _atom_site_fract_x
 _atom_site_fract_y
 _atom_site_fract_z
 _atom_site_occupancy
  Al  Al0  1  0.74060000  0.74682000  0.24957000  1.0
  Al  Al1  1  0.23664000  0.25118000  0.74798000  1.0
  Al  Al2  1  0.24062000  0.75315000  0.25066000  1.0
  Al  Al3  1  0.73660000  0.24893000  0.75231000  1.0
  H  H4  1  0.29546000  0.39754000  0.97389000  1.0
  H  H5  1  0.78690000  0.62350000  0.00127000  1.0
  H  H6  1  0.80090000  0.10183000  0.52837000  1.0
  H  H7  1  0.29076000  0.87714000  0.49837000  1.0
  H  H8  1  0.70605000  0.50167000  0.95031000  1.0
  H  H9  1  0.42444000  0.53564000  0.89841000  1.0
  H  H10  1  0.42707000  0.47268000  0.86033000  1.0
  H  H11  1  0.59410000  0.53801000  0.83808000  1.0
  H  H12  1  0.24988000  0.47627000  0.08432000  1.0
  H  H13  1  0.57468000  0.46853000  0.12624000  1.0
  H  H14  1  0.53533000  0.53901000  0.15288000  1.0
  H  H15  1  0.56486000  0.54311000  0.07593000  1.0
  H  H16  1  0.20139000  0.00481000  0.54314000  1.0
  H  H17  1  0.12276000  0.95333000  0.65174000  1.0
  H  H18  1  0.92613000  0.96554000  0.59722000  1.0
  H  H19  1  0.95361000  0.01884000  0.64532000  1.0
  H  H20  1  0.74957000  0.02483000  0.41477000  1.0
  H  H21  1  0.07497000  0.03214000  0.37334000  1.0
  H  H22  1  0.03641000  0.96051000  0.34852000  1.0
  H  H23  1  0.06528000  0.95858000  0.42523000  1.0
  H  H24  1  0.81953000  0.41321000  0.75078000  1.0
  H  H25  1  0.77575000  0.48342000  0.77774000  1.0
  H  H26  1  0.40015000  0.47195000  0.76097000  1.0
  H  H27  1  0.54103000  0.47717000  0.69456000  1.0
  H  H28  1  0.44862000  0.40317000  0.73207000  1.0
  H  H29  1  0.21564000  0.50052000  0.21755000  1.0
  H  H30  1  0.07681000  0.55391000  0.25195000  1.0
  H  H31  1  0.39973000  0.58525000  0.29667000  1.0
  H  H32  1  0.35737000  0.50271000  0.31846000  1.0
  H  H33  1  0.53785000  0.53183000  0.26264000  1.0
  H  H34  1  0.31827000  0.08578000  0.74738000  1.0
  H  H35  1  0.26851000  0.01623000  0.71979000  1.0
  H  H36  1  0.89292000  0.03152000  0.73533000  1.0
  H  H37  1  0.03543000  0.02237000  0.80214000  1.0
  H  H38  1  0.95045000  0.09816000  0.76658000  1.0
  H  H39  1  0.71516000  0.99956000  0.28229000  1.0
  H  H40  1  0.57689000  0.94593000  0.24777000  1.0
  H  H41  1  0.89985000  0.91481000  0.20366000  1.0
  H  H42  1  0.85667000  0.99732000  0.18177000  1.0
  H  H43  1  0.03763000  0.96830000  0.23795000  1.0
  H  H44  1  0.44437000  0.32744000  0.93184000  1.0
  H  H45  1  0.44459000  0.22093000  0.93024000  1.0
  H  H46  1  0.19718000  0.22542000  0.90060000  1.0
  H  H47  1  0.23509000  0.23181000  0.97578000  1.0
  H  H48  1  0.67100000  0.71220000  0.02261000  1.0
  H  H49  1  0.71341000  0.81190000  0.03241000  1.0
  H  H50  1  0.97262000  0.78853000  0.04011000  1.0
  H  H51  1  0.82017000  0.78926000  0.10366000  1.0
  H  H52  1  0.94761000  0.17133000  0.57104000  1.0
  H  H53  1  0.95051000  0.27790000  0.57178000  1.0
  H  H54  1  0.70228000  0.27460000  0.60023000  1.0
  H  H55  1  0.74167000  0.26757000  0.52538000  1.0
  H  H56  1  0.17601000  0.78795000  0.47739000  1.0
  H  H57  1  0.21876000  0.68824000  0.46772000  1.0
  H  H58  1  0.47776000  0.71160000  0.45997000  1.0
  H  H59  1  0.32336000  0.71085000  0.39646000  1.0
  H  H60  1  0.47445000  0.68308000  0.22000000  1.0
  H  H61  1  0.48480000  0.31043000  0.78674000  1.0
  H  H62  1  0.97535000  0.81684000  0.28029000  1.0
  H  H63  1  0.98363000  0.19031000  0.71304000  1.0
  C  C64  1  0.49217000  0.84335000  0.17036000  1.0
  C  C65  1  0.48428000  0.15785000  0.83165000  1.0
  C  C66  1  0.99421000  0.65666000  0.32992000  1.0
  C  C67  1  0.98354000  0.34231000  0.66865000  1.0
  C  C68  1  0.50076000  0.80479000  0.33085000  1.0
  C  C69  1  0.48497000  0.18932000  0.67320000  1.0
  C  C70  1  0.99865000  0.69521000  0.16938000  1.0
  C  C71  1  0.98579000  0.31080000  0.82697000  1.0
  C  C72  1  0.83012000  0.43823000  0.91060000  1.0
  C  C73  1  0.15354000  0.55777000  0.10087000  1.0
  C  C74  1  0.33031000  0.06332000  0.58744000  1.0
  C  C75  1  0.65487000  0.94281000  0.39886000  1.0
  C  C76  1  0.83151000  0.39699000  0.87052000  1.0
  C  C77  1  0.14761000  0.60294000  0.13690000  1.0
  C  C78  1  0.33125000  0.10376000  0.62818000  1.0
  C  C79  1  0.64928000  0.89737000  0.36311000  1.0
  C  C80  1  0.99206000  0.35366000  0.86971000  1.0
  C  C81  1  0.01236000  0.65460000  0.12497000  1.0
  C  C82  1  0.49225000  0.14665000  0.63033000  1.0
  C  C83  1  0.51513000  0.84552000  0.37519000  1.0
  C  C84  1  0.16168000  0.35297000  0.90822000  1.0
  C  C85  1  0.88156000  0.66334000  0.07498000  1.0
  C  C86  1  0.66361000  0.14694000  0.59281000  1.0
  C  C87  1  0.38513000  0.83690000  0.42504000  1.0
  C  C88  1  0.16495000  0.39639000  0.94512000  1.0
  C  C89  1  0.88399000  0.61762000  0.04034000  1.0
  C  C90  1  0.66822000  0.10356000  0.55585000  1.0
  C  C91  1  0.38726000  0.88289000  0.45942000  1.0
  C  C92  1  0.00607000  0.43863000  0.94666000  1.0
  C  C93  1  0.01475000  0.56555000  0.05263000  1.0
  C  C94  1  0.50800000  0.06224000  0.55277000  1.0
  C  C95  1  0.51702000  0.93512000  0.44695000  1.0
  C  C96  1  0.01589000  0.48185000  0.98456000  1.0
  C  C97  1  0.01287000  0.52107000  0.01584000  1.0
  C  C98  1  0.51803000  0.01918000  0.51468000  1.0
  C  C99  1  0.51524000  0.97989000  0.48347000  1.0
  C  C100  1  0.97728000  0.39319000  0.61731000  1.0
  C  C101  1  0.99664000  0.60693000  0.38223000  1.0
  C  C102  1  0.47900000  0.10707000  0.88308000  1.0
  C  C103  1  0.49366000  0.89322000  0.11817000  1.0
  C  C104  1  0.97949000  0.43499000  0.57249000  1.0
  C  C105  1  0.99345000  0.56592000  0.42761000  1.0
  C  C106  1  0.47990000  0.06533000  0.92796000  1.0
  C  C107  1  0.49062000  0.93438000  0.07286000  1.0
  C  C108  1  0.98360000  0.48016000  0.52311000  1.0
  C  C109  1  0.98897000  0.52123000  0.47733000  1.0
  C  C110  1  0.48260000  0.02021000  0.97737000  1.0
  C  C111  1  0.48679000  0.97914000  0.02318000  1.0
  C  C112  1  0.52233000  0.50679000  0.87639000  1.0
  C  C113  1  0.50045000  0.51478000  0.11692000  1.0
  C  C114  1  0.03672000  0.98950000  0.62042000  1.0
  C  C115  1  0.00104000  0.98590000  0.38356000  1.0
  C  C116  1  0.70872000  0.43806000  0.77313000  1.0
  C  C117  1  0.51234000  0.44787000  0.73860000  1.0
  C  C118  1  0.22575000  0.54440000  0.23429000  1.0
  C  C119  1  0.39009000  0.54116000  0.28057000  1.0
  C  C120  1  0.20511000  0.06197000  0.72459000  1.0
  C  C121  1  0.00878000  0.05335000  0.75871000  1.0
  C  C122  1  0.72575000  0.95563000  0.26568000  1.0
  C  C123  1  0.88989000  0.95889000  0.21972000  1.0
  C  C124  1  0.29754000  0.24428000  0.93048000  1.0
  C  C125  1  0.82017000  0.77906000  0.05918000  1.0
  C  C126  1  0.80271000  0.25515000  0.57099000  1.0
  C  C127  1  0.32475000  0.72108000  0.44092000  1.0
  N  N128  1  0.66813000  0.47543000  0.92014000  1.0
  N  N129  1  0.28201000  0.50544000  0.11251000  1.0
  N  N130  1  0.16485000  0.02799000  0.57578000  1.0
  N  N131  1  0.78246000  0.99530000  0.38702000  1.0
  N  N132  1  0.32693000  0.31206000  0.91007000  1.0
  N  N133  1  0.75276000  0.71487000  0.05924000  1.0
  N  N134  1  0.82954000  0.18733000  0.59185000  1.0
  N  N135  1  0.25737000  0.78526000  0.44088000  1.0
  O  O136  1  0.32531000  0.79507000  0.31127000  1.0
  O  O137  1  0.65191000  0.20333000  0.69489000  1.0
  O  O138  1  0.82366000  0.70486000  0.18893000  1.0
  O  O139  1  0.15228000  0.29793000  0.80464000  1.0
  O  O140  1  0.66360000  0.82110000  0.18932000  1.0
  O  O141  1  0.31386000  0.17786000  0.80966000  1.0
  O  O142  1  0.16515000  0.67882000  0.31096000  1.0
  O  O143  1  0.81397000  0.32290000  0.69124000  1.0
  O  O144  1  0.66382000  0.78372000  0.31382000  1.0
  O  O145  1  0.31473000  0.20978000  0.68659000  1.0
  O  O146  1  0.16207000  0.71631000  0.18647000  1.0
  O  O147  1  0.81595000  0.28920000  0.81436000  1.0
  O  O148  1  0.82080000  0.67287000  0.30834000  1.0
  O  O149  1  0.15932000  0.32262000  0.68556000  1.0
  O  O150  1  0.31928000  0.82712000  0.19187000  1.0
  O  O151  1  0.65954000  0.17685000  0.81403000  1.0
  O  O152  1  0.48660000  0.71317000  0.24581000  1.0
  O  O153  1  0.48730000  0.28669000  0.75517000  1.0
  O  O154  1  0.98673000  0.78678000  0.25446000  1.0
  O  O155  1  0.98710000  0.21352000  0.74501000  1.0
  O  O156  1  0.66960000  0.40085000  0.83194000  1.0
  O  O157  1  0.27380000  0.59643000  0.18548000  1.0
  O  O158  1  0.16783000  0.09983000  0.66580000  1.0
  O  O159  1  0.77470000  0.90374000  0.31468000  1.0
