# generated using pymatgen
data_Nd2Cu3H54C36(NO4)6
_symmetry_space_group_name_H-M   'P 1'
_cell_length_a   7.62642000
_cell_length_b   13.51750000
_cell_length_c   13.51750000
_cell_angle_alpha   60.00000000
_cell_angle_beta   89.99990000
_cell_angle_gamma   90.00000000
_symmetry_Int_Tables_number   1
_chemical_formula_structural   Nd2Cu3H54C36(NO4)6
_chemical_formula_sum   'Nd2 Cu3 H54 C36 N6 O24'
_cell_volume   1206.82446896
_cell_formula_units_Z   1
loop_
 _symmetry_equiv_pos_site_id
 _symmetry_equiv_pos_as_xyz
  1  'x, y, z'
loop_
 _atom_site_type_symbol
 _atom_site_label
 _atom_site_symmetry_multiplicity
 _atom_site_fract_x
 _atom_site_fract_y
 _atom_site_fract_z
 _atom_site_occupancy
  Nd  Nd0  1  0.65764000  0.33333333  0.33333333  1.0
  Nd  Nd1  1  0.34236000  0.66666667  0.66666667  1.0
  Cu  Cu2  1  0.00000000  0.50000000  0.50000000  1.0
  Cu  Cu3  1  0.00000000  0.00000000  0.50000000  1.0
  Cu  Cu4  1  0.00000000  0.50000000  0.00000000  1.0
  H  H5  1  0.14091000  0.35421000  0.68018000  1.0
  H  H6  1  0.05885000  0.17345000  0.66182000  1.0
  H  H7  1  0.24053000  0.26023000  0.53917000  1.0
  H  H8  1  0.38035000  0.20738000  0.72595000  1.0
  H  H9  1  0.45673000  0.35086000  0.66863000  1.0
  H  H10  1  0.53242000  0.26382000  0.61176000  1.0
  H  H11  1  0.95498000  0.18763000  0.82553000  1.0
  H  H12  1  0.78140000  0.14840000  0.76417000  1.0
  H  H13  1  0.79169000  0.29073000  0.73793000  1.0
  H  H14  1  0.14091000  0.96561000  0.35421000  1.0
  H  H15  1  0.05884000  0.16473000  0.17345000  1.0
  H  H16  1  0.24052000  0.20060000  0.26023000  1.0
  H  H17  1  0.38035000  0.06667000  0.20737000  1.0
  H  H18  1  0.45673000  0.98051000  0.35086000  1.0
  H  H19  1  0.53241000  0.12442000  0.26381000  1.0
  H  H20  1  0.95497000  0.98684000  0.18763000  1.0
  H  H21  1  0.78139000  0.08743000  0.14840000  1.0
  H  H22  1  0.79169000  0.97134000  0.29073000  1.0
  H  H23  1  0.14091000  0.68018000  0.96561000  1.0
  H  H24  1  0.05884000  0.66182000  0.16473000  1.0
  H  H25  1  0.24052000  0.53917000  0.20060000  1.0
  H  H26  1  0.38035000  0.72596000  0.06666000  1.0
  H  H27  1  0.45673000  0.66863000  0.98051000  1.0
  H  H28  1  0.53241000  0.61177000  0.12441000  1.0
  H  H29  1  0.95497000  0.82553000  0.98684000  1.0
  H  H30  1  0.78139000  0.76417000  0.08743000  1.0
  H  H31  1  0.79169000  0.73793000  0.97134000  1.0
  H  H32  1  0.85909000  0.64579000  0.31982000  1.0
  H  H33  1  0.94116000  0.82655000  0.33818000  1.0
  H  H34  1  0.75948000  0.73977000  0.46083000  1.0
  H  H35  1  0.61966000  0.79263000  0.27404000  1.0
  H  H36  1  0.54327000  0.64914000  0.33137000  1.0
  H  H37  1  0.46759000  0.73619000  0.38823000  1.0
  H  H38  1  0.04503000  0.81237000  0.17447000  1.0
  H  H39  1  0.21861000  0.85160000  0.23583000  1.0
  H  H40  1  0.20831000  0.70927000  0.26207000  1.0
  H  H41  1  0.85910000  0.03439000  0.64578000  1.0
  H  H42  1  0.94115000  0.83527000  0.82655000  1.0
  H  H43  1  0.75948000  0.79940000  0.73977000  1.0
  H  H44  1  0.61965000  0.93333000  0.79263000  1.0
  H  H45  1  0.54327000  0.01949000  0.64914000  1.0
  H  H46  1  0.46759000  0.87558000  0.73619000  1.0
  H  H47  1  0.04502000  0.01316000  0.81237000  1.0
  H  H48  1  0.21860000  0.91257000  0.85160000  1.0
  H  H49  1  0.20831000  0.02866000  0.70928000  1.0
  H  H50  1  0.85910000  0.31982000  0.03439000  1.0
  H  H51  1  0.94116000  0.33818000  0.83527000  1.0
  H  H52  1  0.75948000  0.46082000  0.79941000  1.0
  H  H53  1  0.61965000  0.27404000  0.93333000  1.0
  H  H54  1  0.54327000  0.33138000  0.01948000  1.0
  H  H55  1  0.46759000  0.38823000  0.87559000  1.0
  H  H56  1  0.04502000  0.17447000  0.01316000  1.0
  H  H57  1  0.21860000  0.23583000  0.91257000  1.0
  H  H58  1  0.20831000  0.26207000  0.02866000  1.0
  C  C59  1  0.86475000  0.27153000  0.54268000  1.0
  C  C60  1  0.98118000  0.24913000  0.64413000  1.0
  C  C61  1  0.26859000  0.32652000  0.56180000  1.0
  C  C62  1  0.31505000  0.43110000  0.44760000  1.0
  C  C63  1  0.41953000  0.28539000  0.64723000  1.0
  C  C64  1  0.87093000  0.21788000  0.74983000  1.0
  C  C65  1  0.86475000  0.18579000  0.27153000  1.0
  C  C66  1  0.98117000  0.10674000  0.24912000  1.0
  C  C67  1  0.26858000  0.11168000  0.32652000  1.0
  C  C68  1  0.31504000  0.12130000  0.43109000  1.0
  C  C69  1  0.41953000  0.06738000  0.28539000  1.0
  C  C70  1  0.87092000  0.03229000  0.21788000  1.0
  C  C71  1  0.86474000  0.54268000  0.18579000  1.0
  C  C72  1  0.98117000  0.64413000  0.10674000  1.0
  C  C73  1  0.26858000  0.56180000  0.11168000  1.0
  C  C74  1  0.31504000  0.44761000  0.12129000  1.0
  C  C75  1  0.41953000  0.64723000  0.06739000  1.0
  C  C76  1  0.87092000  0.74983000  0.03230000  1.0
  C  C77  1  0.13525000  0.72848000  0.45731000  1.0
  C  C78  1  0.01883000  0.75087000  0.35587000  1.0
  C  C79  1  0.73142000  0.67349000  0.43819000  1.0
  C  C80  1  0.68496000  0.56890000  0.55239000  1.0
  C  C81  1  0.58047000  0.71462000  0.35276000  1.0
  C  C82  1  0.12908000  0.78213000  0.25016000  1.0
  C  C83  1  0.13525000  0.81421000  0.72847000  1.0
  C  C84  1  0.01882000  0.89326000  0.75088000  1.0
  C  C85  1  0.73142000  0.88832000  0.67348000  1.0
  C  C86  1  0.68496000  0.87871000  0.56890000  1.0
  C  C87  1  0.58047000  0.93262000  0.71461000  1.0
  C  C88  1  0.12907000  0.96771000  0.78213000  1.0
  C  C89  1  0.13525000  0.45732000  0.81421000  1.0
  C  C90  1  0.01883000  0.35586000  0.89327000  1.0
  C  C91  1  0.73142000  0.43820000  0.88831000  1.0
  C  C92  1  0.68496000  0.55239000  0.87870000  1.0
  C  C93  1  0.58047000  0.35276000  0.93262000  1.0
  C  C94  1  0.12907000  0.25016000  0.96771000  1.0
  N  N95  1  0.10549000  0.34471000  0.61164000  1.0
  N  N96  1  0.10549000  0.04365000  0.34470000  1.0
  N  N97  1  0.10549000  0.61165000  0.04364000  1.0
  N  N98  1  0.89452000  0.65530000  0.38835000  1.0
  N  N99  1  0.89451000  0.95635000  0.65530000  1.0
  N  N100  1  0.89451000  0.38835000  0.95635000  1.0
  O  O101  1  0.75547000  0.19526000  0.55595000  1.0
  O  O102  1  0.88149000  0.36526000  0.44859000  1.0
  O  O103  1  0.21342000  0.51800000  0.40658000  1.0
  O  O104  1  0.44994000  0.42619000  0.39601000  1.0
  O  O105  1  0.75547000  0.24879000  0.19526000  1.0
  O  O106  1  0.88149000  0.18615000  0.36526000  1.0
  O  O107  1  0.21341000  0.07542000  0.51800000  1.0
  O  O108  1  0.44993000  0.17780000  0.42619000  1.0
  O  O109  1  0.75547000  0.55595000  0.24879000  1.0
  O  O110  1  0.88149000  0.44860000  0.18614000  1.0
  O  O111  1  0.21341000  0.40657000  0.07543000  1.0
  O  O112  1  0.44994000  0.39601000  0.17780000  1.0
  O  O113  1  0.24453000  0.80474000  0.44405000  1.0
  O  O114  1  0.11852000  0.63475000  0.55140000  1.0
  O  O115  1  0.78659000  0.48200000  0.59342000  1.0
  O  O116  1  0.55006000  0.57381000  0.60399000  1.0
  O  O117  1  0.24453000  0.75121000  0.80474000  1.0
  O  O118  1  0.11851000  0.81385000  0.63475000  1.0
  O  O119  1  0.78659000  0.92457000  0.48201000  1.0
  O  O120  1  0.55006000  0.82220000  0.57381000  1.0
  O  O121  1  0.24453000  0.44405000  0.75121000  1.0
  O  O122  1  0.11851000  0.55140000  0.81385000  1.0
  O  O123  1  0.78659000  0.59342000  0.92458000  1.0
  O  O124  1  0.55006000  0.60399000  0.82220000  1.0
