# generated using pymatgen
data_CuH26C12N2Cl2O5
_symmetry_space_group_name_H-M   'P 1'
_cell_length_a   5.97813000
_cell_length_b   8.77546098
_cell_length_c   17.80238396
_cell_angle_alpha   84.04181057
_cell_angle_beta   80.51320159
_cell_angle_gamma   70.20109165
_symmetry_Int_Tables_number   1
_chemical_formula_structural   CuH26C12N2Cl2O5
_chemical_formula_sum   'Cu2 H52 C24 N4 Cl4 O10'
_cell_volume   865.54442004
_cell_formula_units_Z   2
loop_
 _symmetry_equiv_pos_site_id
 _symmetry_equiv_pos_as_xyz
  1  'x, y, z'
loop_
 _atom_site_type_symbol
 _atom_site_label
 _atom_site_symmetry_multiplicity
 _atom_site_fract_x
 _atom_site_fract_y
 _atom_site_fract_z
 _atom_site_occupancy
  Cu  Cu0  1  0.43411000  0.74983000  0.24982000  1.0
  Cu  Cu1  1  0.56589000  0.25018000  0.75019000  1.0
  H  H2  1  0.84032000  0.31149000  0.43733000  1.0
  H  H3  1  0.58915000  0.18879000  0.06306000  1.0
  H  H4  1  0.15971000  0.68852000  0.56266000  1.0
  H  H5  1  0.41081000  0.81121000  0.93693000  1.0
  H  H6  1  0.30129000  0.50444000  0.45454000  1.0
  H  H7  1  0.26082000  0.99495000  0.04514000  1.0
  H  H8  1  0.69875000  0.49555000  0.54547000  1.0
  H  H9  1  0.73913000  0.00505000  0.95486000  1.0
  H  H10  1  0.43424000  0.34574000  0.52120000  1.0
  H  H11  1  0.30129000  0.15388000  0.97857000  1.0
  H  H12  1  0.56581000  0.65426000  0.47880000  1.0
  H  H13  1  0.69867000  0.84611000  0.02143000  1.0
  H  H14  1  0.96464000  0.14682000  0.31525000  1.0
  H  H15  1  0.42841000  0.35278000  0.18495000  1.0
  H  H16  1  0.03538000  0.85320000  0.68474000  1.0
  H  H17  1  0.57156000  0.64722000  0.81505000  1.0
  H  H18  1  0.71454000  0.27464000  0.26827000  1.0
  H  H19  1  0.25653000  0.22643000  0.23164000  1.0
  H  H20  1  0.28546000  0.72536000  0.73173000  1.0
  H  H21  1  0.74348000  0.77355000  0.76835000  1.0
  H  H22  1  0.75353000  0.06311000  0.29257000  1.0
  H  H23  1  0.11195000  0.43834000  0.20674000  1.0
  H  H24  1  0.24651000  0.93688000  0.70743000  1.0
  H  H25  1  0.88801000  0.56164000  0.79327000  1.0
  H  H26  1  0.26600000  0.26127000  0.43587000  1.0
  H  H27  1  0.96376000  0.23889000  0.06338000  1.0
  H  H28  1  0.73404000  0.73872000  0.56413000  1.0
  H  H29  1  0.03622000  0.76110000  0.93662000  1.0
  H  H30  1  0.30425000  0.36636000  0.34556000  1.0
  H  H31  1  0.01643000  0.13404000  0.15381000  1.0
  H  H32  1  0.69576000  0.63363000  0.65445000  1.0
  H  H33  1  0.98354000  0.86595000  0.84619000  1.0
  H  H34  1  0.35492000  0.14819000  0.35230000  1.0
  H  H35  1  0.85698000  0.35216000  0.14690000  1.0
  H  H36  1  0.64510000  0.85181000  0.64770000  1.0
  H  H37  1  0.14300000  0.64783000  0.85310000  1.0
  H  H38  1  0.90739000  0.03288000  0.43335000  1.0
  H  H39  1  0.37526000  0.46724000  0.06662000  1.0
  H  H40  1  0.09263000  0.96713000  0.56665000  1.0
  H  H41  1  0.62472000  0.53275000  0.93337000  1.0
  H  H42  1  0.65714000  0.97487000  0.42075000  1.0
  H  H43  1  0.05500000  0.52546000  0.07887000  1.0
  H  H44  1  0.34290000  0.02513000  0.57925000  1.0
  H  H45  1  0.94495000  0.47454000  0.92113000  1.0
  H  H46  1  0.63112000  0.10320000  0.49756000  1.0
  H  H47  1  0.23264000  0.39700000  0.00214000  1.0
  H  H48  1  0.36892000  0.89680000  0.50244000  1.0
  H  H49  1  0.76732000  0.60299000  0.99786000  1.0
  H  H50  1  0.94005000  0.81218000  0.21403000  1.0
  H  H51  1  0.96831000  0.68507000  0.28538000  1.0
  H  H52  1  0.05994000  0.18785000  0.78598000  1.0
  H  H53  1  0.03169000  0.31496000  0.71463000  1.0
  C  C54  1  0.69032000  0.49280000  0.35165000  1.0
  C  C55  1  0.53385000  0.00809000  0.14885000  1.0
  C  C56  1  0.30967000  0.50721000  0.64834000  1.0
  C  C57  1  0.46618000  0.99190000  0.85114000  1.0
  C  C58  1  0.66713000  0.36259000  0.41553000  1.0
  C  C59  1  0.44524000  0.13764000  0.08456000  1.0
  C  C60  1  0.33290000  0.63741000  0.58447000  1.0
  C  C61  1  0.55472000  0.86236000  0.91544000  1.0
  C  C62  1  0.46673000  0.44012000  0.47944000  1.0
  C  C63  1  0.38644000  0.05968000  0.02044000  1.0
  C  C64  1  0.53332000  0.55988000  0.52056000  1.0
  C  C65  1  0.61354000  0.94031000  0.97955000  1.0
  C  C66  1  0.77557000  0.17334000  0.30929000  1.0
  C  C67  1  0.25916000  0.32729000  0.19053000  1.0
  C  C68  1  0.22443000  0.82667000  0.69071000  1.0
  C  C69  1  0.74082000  0.67270000  0.80947000  1.0
  C  C70  1  0.36780000  0.25181000  0.37859000  1.0
  C  C71  1  0.99906000  0.24851000  0.12075000  1.0
  C  C72  1  0.63224000  0.74818000  0.62141000  1.0
  C  C73  1  0.00091000  0.75148000  0.87925000  1.0
  C  C74  1  0.71094000  0.07141000  0.43901000  1.0
  C  C75  1  0.22274000  0.42884000  0.06073000  1.0
  C  C76  1  0.28909000  0.92859000  0.56100000  1.0
  C  C77  1  0.77722000  0.57116000  0.93927000  1.0
  N  N78  1  0.62737000  0.21683000  0.38553000  1.0
  N  N79  1  0.23052000  0.28349000  0.11418000  1.0
  N  N80  1  0.37265000  0.78317000  0.61448000  1.0
  N  N81  1  0.76947000  0.71650000  0.88581000  1.0
  Cl  Cl82  1  0.59446000  0.62216000  0.13714000  1.0
  Cl  Cl83  1  0.34949000  0.87791000  0.36273000  1.0
  Cl  Cl84  1  0.40548000  0.37782000  0.86287000  1.0
  Cl  Cl85  1  0.65058000  0.12210000  0.63727000  1.0
  O  O86  1  0.51900000  0.54035000  0.31084000  1.0
  O  O87  1  0.36949000  0.95932000  0.18877000  1.0
  O  O88  1  0.48098000  0.45966000  0.68917000  1.0
  O  O89  1  0.63052000  0.04067000  0.81124000  1.0
  O  O90  1  0.86514000  0.54164000  0.34892000  1.0
  O  O91  1  0.75365000  0.96109000  0.15295000  1.0
  O  O92  1  0.13490000  0.45835000  0.65106000  1.0
  O  O93  1  0.24636000  0.03889000  0.84702000  1.0
  O  O94  1  0.05411000  0.74476000  0.24818000  1.0
  O  O95  1  0.94582000  0.25535000  0.75187000  1.0
