# generated using pymatgen
data_Sm3PH19C13NO24
_symmetry_space_group_name_H-M   'P 1'
_cell_length_a   10.70320000
_cell_length_b   10.82550000
_cell_length_c   11.64800000
_cell_angle_alpha   90.00000000
_cell_angle_beta   90.00000000
_cell_angle_gamma   106.43800000
_symmetry_Int_Tables_number   1
_chemical_formula_structural   Sm3PH19C13NO24
_chemical_formula_sum   'Sm6 P2 H38 C26 N2 O48'
_cell_volume   1294.46067372
_cell_formula_units_Z   2
loop_
 _symmetry_equiv_pos_site_id
 _symmetry_equiv_pos_as_xyz
  1  'x, y, z'
loop_
 _atom_site_type_symbol
 _atom_site_label
 _atom_site_symmetry_multiplicity
 _atom_site_fract_x
 _atom_site_fract_y
 _atom_site_fract_z
 _atom_site_occupancy
  Sm  Sm0  1  0.69460000  0.03074000  0.89592000  1.0
  Sm  Sm1  1  0.30541000  0.96927000  0.39592000  1.0
  Sm  Sm2  1  0.69274000  0.81086000  0.39439000  1.0
  Sm  Sm3  1  0.30727000  0.18914000  0.89439000  1.0
  Sm  Sm4  1  0.61056000  0.57546000  0.74324000  1.0
  Sm  Sm5  1  0.38944000  0.42454000  0.24323000  1.0
  P  P6  1  0.66934000  0.47976000  0.44168000  1.0
  P  P7  1  0.33067000  0.52024000  0.94168000  1.0
  H  H8  1  0.41598000  0.92523000  0.96832000  1.0
  H  H9  1  0.58402000  0.07477000  0.46832000  1.0
  H  H10  1  0.42376000  0.91057000  0.84021000  1.0
  H  H11  1  0.57624000  0.08942000  0.34022000  1.0
  H  H12  1  0.36752000  0.39527000  0.65514000  1.0
  H  H13  1  0.63248000  0.60473000  0.15514000  1.0
  H  H14  1  0.31405000  0.51412000  0.66242000  1.0
  H  H15  1  0.68594000  0.48588000  0.16242000  1.0
  H  H16  1  0.66982000  0.56275000  0.99275000  1.0
  H  H17  1  0.33018000  0.43724000  0.49275000  1.0
  H  H18  1  0.71597000  0.70761000  0.95904000  1.0
  H  H19  1  0.28403000  0.29239000  0.45904000  1.0
  H  H20  1  0.86375000  0.79198000  0.76952000  1.0
  H  H21  1  0.13625000  0.20801000  0.26951000  1.0
  H  H22  1  0.86548000  0.76174000  0.64024000  1.0
  H  H23  1  0.13452000  0.23826000  0.14024000  1.0
  H  H24  1  0.82932000  0.42810000  0.61230000  1.0
  H  H25  1  0.17068000  0.57190000  0.11230000  1.0
  H  H26  1  0.73244000  0.28319000  0.45214000  1.0
  H  H27  1  0.26755000  0.71681000  0.95214000  1.0
  H  H28  1  0.84321000  0.39472000  0.36011000  1.0
  H  H29  1  0.15679000  0.60528000  0.86011000  1.0
  H  H30  1  0.00953000  0.31627000  0.48178000  1.0
  H  H31  1  0.99047000  0.68373000  0.98178000  1.0
  H  H32  1  0.88479000  0.23140000  0.57993000  1.0
  H  H33  1  0.11520000  0.76860000  0.07993000  1.0
  H  H34  1  0.99417000  0.36502000  0.74154000  1.0
  H  H35  1  0.00583000  0.63498000  0.24154000  1.0
  H  H36  1  0.10968000  0.30087000  0.67078000  1.0
  H  H37  1  0.89032000  0.69912000  0.17078000  1.0
  H  H38  1  0.03534000  0.54309000  0.44272000  1.0
  H  H39  1  0.96467000  0.45691000  0.94272000  1.0
  H  H40  1  0.92473000  0.62071000  0.50413000  1.0
  H  H41  1  0.07527000  0.37929000  0.00413000  1.0
  H  H42  1  0.13988000  0.67988000  0.60848000  1.0
  H  H43  1  0.86012000  0.32012000  0.10848000  1.0
  H  H44  1  0.00926000  0.59588000  0.70006000  1.0
  H  H45  1  0.99074000  0.40412000  0.20006000  1.0
  C  C46  1  0.78813000  0.38444000  0.44064000  1.0
  C  C47  1  0.21187000  0.61556000  0.94064000  1.0
  C  C48  1  0.95648000  0.32398000  0.56097000  1.0
  C  C49  1  0.04352000  0.67602000  0.06098000  1.0
  C  C50  1  0.04952000  0.36716000  0.66162000  1.0
  C  C51  1  0.95047000  0.63284000  0.16162000  1.0
  C  C52  1  0.97966000  0.55113000  0.52008000  1.0
  C  C53  1  0.02034000  0.44887000  0.02008000  1.0
  C  C54  1  0.06763000  0.58694000  0.62407000  1.0
  C  C55  1  0.93237000  0.41306000  0.12407000  1.0
  C  C56  1  0.66683000  0.98196000  0.62179000  1.0
  C  C57  1  0.33316000  0.01803000  0.12178000  1.0
  C  C58  1  0.63451000  0.84332000  0.66607000  1.0
  C  C59  1  0.36549000  0.15667000  0.16606000  1.0
  C  C60  1  0.99999000  0.11190000  0.97190000  1.0
  C  C61  1  0.00002000  0.88812000  0.47191000  1.0
  C  C62  1  0.99856000  0.05280000  0.85044000  1.0
  C  C63  1  0.00144000  0.94721000  0.35045000  1.0
  C  C64  1  0.59466000  0.28879000  0.85712000  1.0
  C  C65  1  0.40534000  0.71122000  0.35712000  1.0
  C  C66  1  0.73819000  0.33316000  0.82038000  1.0
  C  C67  1  0.26181000  0.66685000  0.32039000  1.0
  C  C68  1  0.68467000  0.85316000  0.11764000  1.0
  C  C69  1  0.31534000  0.14684000  0.61764000  1.0
  C  C70  1  0.65593000  0.97622000  0.16417000  1.0
  C  C71  1  0.34407000  0.02378000  0.66417000  1.0
  N  N72  1  0.88300000  0.42143000  0.53835000  1.0
  N  N73  1  0.11700000  0.57857000  0.03835000  1.0
  O  O74  1  0.55801000  0.40613000  0.36513000  1.0
  O  O75  1  0.44199000  0.59387000  0.86514000  1.0
  O  O76  1  0.73859000  0.61550000  0.39589000  1.0
  O  O77  1  0.26141000  0.38450000  0.89589000  1.0
  O  O78  1  0.63859000  0.48167000  0.57030000  1.0
  O  O79  1  0.36141000  0.51833000  0.07030000  1.0
  O  O80  1  0.13728000  0.49345000  0.64403000  1.0
  O  O81  1  0.86272000  0.50655000  0.14404000  1.0
  O  O82  1  0.69695000  0.99848000  0.51631000  1.0
  O  O83  1  0.30303000  0.00151000  0.01631000  1.0
  O  O84  1  0.66131000  0.06829000  0.69239000  1.0
  O  O85  1  0.33868000  0.93171000  0.19238000  1.0
  O  O86  1  0.61180000  0.75134000  0.59331000  1.0
  O  O87  1  0.38820000  0.24865000  0.09331000  1.0
  O  O88  1  0.63571000  0.82549000  0.77306000  1.0
  O  O89  1  0.36429000  0.17450000  0.27306000  1.0
  O  O90  1  0.89295000  0.11173000  0.01580000  1.0
  O  O91  1  0.10706000  0.88829000  0.51582000  1.0
  O  O92  1  0.11269000  0.15899000  0.01614000  1.0
  O  O93  1  0.88731000  0.84103000  0.51614000  1.0
  O  O94  1  0.88808000  0.99185000  0.80996000  1.0
  O  O95  1  0.11193000  0.00815000  0.30997000  1.0
  O  O96  1  0.10698000  0.07108000  0.80092000  1.0
  O  O97  1  0.89302000  0.92892000  0.30092000  1.0
  O  O98  1  0.52410000  0.36389000  0.84072000  1.0
  O  O99  1  0.47591000  0.63611000  0.34072000  1.0
  O  O100  1  0.54984000  0.17723000  0.89965000  1.0
  O  O101  1  0.45016000  0.82277000  0.39966000  1.0
  O  O102  1  0.77348000  0.43888000  0.76651000  1.0
  O  O103  1  0.22652000  0.56112000  0.26651000  1.0
  O  O104  1  0.80633000  0.25902000  0.84619000  1.0
  O  O105  1  0.19367000  0.74098000  0.34620000  1.0
  O  O106  1  0.67585000  0.76208000  0.18843000  1.0
  O  O107  1  0.32416000  0.23792000  0.68844000  1.0
  O  O108  1  0.71251000  0.85045000  0.01239000  1.0
  O  O109  1  0.28750000  0.14955000  0.51239000  1.0
  O  O110  1  0.65432000  0.98638000  0.27213000  1.0
  O  O111  1  0.34568000  0.01362000  0.77213000  1.0
  O  O112  1  0.63298000  0.05401000  0.09206000  1.0
  O  O113  1  0.36703000  0.94599000  0.59207000  1.0
  O  O114  1  0.46857000  0.89475000  0.91110000  1.0
  O  O115  1  0.53143000  0.10525000  0.41110000  1.0
  O  O116  1  0.39171000  0.48948000  0.63711000  1.0
  O  O117  1  0.60828000  0.51052000  0.13710000  1.0
  O  O118  1  0.71667000  0.62052000  0.93089000  1.0
  O  O119  1  0.28333000  0.37948000  0.43089000  1.0
  O  O120  1  0.84179000  0.71856000  0.71671000  1.0
  O  O121  1  0.15820000  0.28143000  0.21671000  1.0
