# generated using pymatgen
data_Al2H18C21(N2O5)2
_symmetry_space_group_name_H-M   'P 1'
_cell_length_a   6.66201000
_cell_length_b   10.98649849
_cell_length_c   11.02840000
_cell_angle_alpha   94.69956514
_cell_angle_beta   106.29450000
_cell_angle_gamma   105.16016439
_symmetry_Int_Tables_number   1
_chemical_formula_structural   Al2H18C21(N2O5)2
_chemical_formula_sum   'Al2 H18 C21 N4 O10'
_cell_volume   737.22351626
_cell_formula_units_Z   1
loop_
 _symmetry_equiv_pos_site_id
 _symmetry_equiv_pos_as_xyz
  1  'x, y, z'
loop_
 _atom_site_type_symbol
 _atom_site_label
 _atom_site_symmetry_multiplicity
 _atom_site_fract_x
 _atom_site_fract_y
 _atom_site_fract_z
 _atom_site_occupancy
  Al  Al0  1  0.00352000  0.49486000  0.50480000  1.0
  Al  Al1  1  0.50078000  0.49459000  0.49929000  1.0
  H  H2  1  0.35242000  0.65660000  0.55218000  1.0
  H  H3  1  0.65278000  0.33286000  0.44076000  1.0
  H  H4  1  0.31471000  0.41431000  0.08956000  1.0
  H  H5  1  0.79640000  0.55242000  0.14750000  1.0
  H  H6  1  0.18192000  0.42967000  0.85606000  1.0
  H  H7  1  0.50052000  0.75264000  0.32048000  1.0
  H  H8  1  0.76973000  0.22085000  0.33941000  1.0
  H  H9  1  0.48352000  0.52928000  0.83622000  1.0
  H  H10  1  0.66985000  0.68086000  0.86343000  1.0
  H  H11  1  0.57261000  0.62628000  0.99066000  1.0
  H  H12  1  0.49447000  0.21063000  0.60677000  1.0
  H  H13  1  0.53734000  0.06661000  0.61641000  1.0
  H  H14  1  0.22066000  0.78421000  0.64580000  1.0
  H  H15  1  0.38640000  0.93450000  0.71267000  1.0
  H  H16  1  0.17311000  0.75656000  0.16307000  1.0
  H  H17  1  0.16497000  0.88817000  0.09584000  1.0
  H  H18  1  0.41534000  0.21065000  0.21024000  1.0
  H  H19  1  0.20176000  0.08187000  0.19116000  1.0
  C  C20  1  0.84461000  0.72052000  0.48621000  1.0
  C  C21  1  0.86242000  0.51362000  0.73354000  1.0
  C  C22  1  0.15144000  0.26709000  0.50789000  1.0
  C  C23  1  0.13338000  0.47333000  0.27033000  1.0
  C  C24  1  0.92376000  0.50505000  0.87293000  1.0
  C  C25  1  0.06100000  0.48199000  0.13136000  1.0
  C  C26  1  0.81021000  0.54156000  0.95373000  1.0
  C  C27  1  0.17335000  0.44790000  0.05069000  1.0
  C  C28  1  0.88075000  0.52670000  0.08224000  1.0
  C  C29  1  0.10122000  0.45771000  0.92201000  1.0
  C  C30  1  0.91812000  0.85936000  0.48462000  1.0
  C  C31  1  0.77325000  0.92282000  0.41198000  1.0
  C  C32  1  0.13604000  0.92689000  0.55467000  1.0
  C  C33  1  0.55968000  0.85621000  0.32949000  1.0
  C  C34  1  0.42287000  0.91786000  0.25781000  1.0
  C  C35  1  0.07430000  0.12607000  0.49234000  1.0
  C  C36  1  0.21837000  0.06091000  0.55288000  1.0
  C  C37  1  0.85158000  0.05847000  0.41780000  1.0
  C  C38  1  0.70998000  0.11928000  0.34209000  1.0
  C  C39  1  0.49850000  0.05347000  0.26627000  1.0
  C  C40  1  0.62409000  0.59738000  0.90949000  1.0
  N  N41  1  0.43667000  0.12052000  0.62374000  1.0
  N  N42  1  0.28499000  0.87405000  0.63089000  1.0
  N  N43  1  0.21033000  0.85349000  0.17884000  1.0
  N  N44  1  0.35949000  0.11341000  0.19036000  1.0
  O  O45  1  0.98516000  0.66050000  0.48485000  1.0
  O  O46  1  0.66477000  0.50796000  0.67655000  1.0
  O  O47  1  0.34402000  0.32160000  0.50311000  1.0
  O  O48  1  0.98974000  0.46381000  0.32741000  1.0
  O  O49  1  0.02240000  0.32884000  0.52675000  1.0
  O  O50  1  0.33250000  0.47641000  0.32067000  1.0
  O  O51  1  0.65332000  0.66663000  0.49134000  1.0
  O  O52  1  0.01373000  0.52489000  0.68146000  1.0
  O  O53  1  0.30794000  0.56497000  0.55317000  1.0
  O  O54  1  0.69817000  0.42557000  0.44956000  1.0
