# generated using pymatgen
data_PrAgH5C9NO9
_symmetry_space_group_name_H-M   'P 1'
_cell_length_a   9.65516000
_cell_length_b   11.16831213
_cell_length_c   13.33790000
_cell_angle_alpha   67.36632711
_cell_angle_beta   90.00200000
_cell_angle_gamma   64.38772974
_symmetry_Int_Tables_number   1
_chemical_formula_structural   PrAgH5C9NO9
_chemical_formula_sum   'Pr4 Ag4 H20 C36 N4 O36'
_cell_volume   1172.87809497
_cell_formula_units_Z   4
loop_
 _symmetry_equiv_pos_site_id
 _symmetry_equiv_pos_as_xyz
  1  'x, y, z'
loop_
 _atom_site_type_symbol
 _atom_site_label
 _atom_site_symmetry_multiplicity
 _atom_site_fract_x
 _atom_site_fract_y
 _atom_site_fract_z
 _atom_site_occupancy
  Pr  Pr0  1  0.80451000  0.26370000  0.81658000  1.0
  Pr  Pr1  1  0.06822000  0.73613000  0.68351000  1.0
  Pr  Pr2  1  0.19549000  0.73630000  0.18342000  1.0
  Pr  Pr3  1  0.93178000  0.26387000  0.31649000  1.0
  Ag  Ag4  1  0.79315000  0.49257000  0.99542000  1.0
  Ag  Ag5  1  0.28586000  0.50723000  0.50461000  1.0
  Ag  Ag6  1  0.20685000  0.50743000  0.00458000  1.0
  Ag  Ag7  1  0.71414000  0.49277000  0.49539000  1.0
  H  H8  1  0.80941000  0.12270000  0.65279000  1.0
  H  H9  1  0.93231000  0.87717000  0.84727000  1.0
  H  H10  1  0.19059000  0.87730000  0.34721000  1.0
  H  H11  1  0.06769000  0.12283000  0.15273000  1.0
  H  H12  1  0.90838000  0.20027000  0.60657000  1.0
  H  H13  1  0.10886000  0.79971000  0.89344000  1.0
  H  H14  1  0.09162000  0.79973000  0.39343000  1.0
  H  H15  1  0.89114000  0.20029000  0.10656000  1.0
  H  H16  1  0.33698000  0.14279000  0.84589000  1.0
  H  H17  1  0.47965000  0.85699000  0.65426000  1.0
  H  H18  1  0.66302000  0.85721000  0.15411000  1.0
  H  H19  1  0.52035000  0.14302000  0.34574000  1.0
  H  H20  1  0.42558000  0.69363000  0.95631000  1.0
  H  H21  1  0.11926000  0.30635000  0.54358000  1.0
  H  H22  1  0.57442000  0.30637000  0.04369000  1.0
  H  H23  1  0.88075000  0.69365000  0.45642000  1.0
  H  H24  1  0.80196000  0.78155000  0.92509000  1.0
  H  H25  1  0.58364000  0.21811000  0.57492000  1.0
  H  H26  1  0.19804000  0.21845000  0.07491000  1.0
  H  H27  1  0.41636000  0.78189000  0.42508000  1.0
  C  C28  1  0.64749000  0.07779000  0.85177000  1.0
  C  C29  1  0.72532000  0.92186000  0.64838000  1.0
  C  C30  1  0.35251000  0.92221000  0.14823000  1.0
  C  C31  1  0.27468000  0.07813000  0.35162000  1.0
  C  C32  1  0.57734000  0.97616000  0.87845000  1.0
  C  C33  1  0.55351000  0.02354000  0.62166000  1.0
  C  C34  1  0.42265000  0.02385000  0.12154000  1.0
  C  C35  1  0.44649000  0.97646000  0.37834000  1.0
  C  C36  1  0.41616000  0.02637000  0.87208000  1.0
  C  C37  1  0.44248000  0.97343000  0.62801000  1.0
  C  C38  1  0.58384000  0.97363000  0.12792000  1.0
  C  C39  1  0.55752000  0.02657000  0.37199000  1.0
  C  C40  1  0.36016000  0.92395000  0.90349000  1.0
  C  C41  1  0.28406000  0.07594000  0.59650000  1.0
  C  C42  1  0.63983000  0.07606000  0.09651000  1.0
  C  C43  1  0.71594000  0.92407000  0.40350000  1.0
  C  C44  1  0.46590000  0.77601000  0.93385000  1.0
  C  C45  1  0.24195000  0.22388000  0.56608000  1.0
  C  C46  1  0.53409000  0.22400000  0.06615000  1.0
  C  C47  1  0.75806000  0.77612000  0.43392000  1.0
  C  C48  1  0.67525000  0.82585000  0.91455000  1.0
  C  C49  1  0.50120000  0.17385000  0.58548000  1.0
  C  C50  1  0.32475000  0.17415000  0.08545000  1.0
  C  C51  1  0.49881000  0.82615000  0.41452000  1.0
  C  C52  1  0.19218000  0.96610000  0.91228000  1.0
  C  C53  1  0.15816000  0.03385000  0.58770000  1.0
  C  C54  1  0.80783000  0.03388000  0.08773000  1.0
  C  C55  1  0.84185000  0.96613000  0.41231000  1.0
  C  C56  1  0.98925000  0.45915000  0.81787000  1.0
  C  C57  1  0.44841000  0.54062000  0.68226000  1.0
  C  C58  1  0.01076000  0.54086000  0.18213000  1.0
  C  C59  1  0.55156000  0.45940000  0.31774000  1.0
  C  C60  1  0.98415000  0.46923000  0.69826000  1.0
  C  C61  1  0.45348000  0.53057000  0.80186000  1.0
  C  C62  1  0.01586000  0.53078000  0.30174000  1.0
  C  C63  1  0.54651000  0.46944000  0.19814000  1.0
  N  N64  1  0.62052000  0.72796000  0.93900000  1.0
  N  N65  1  0.34859000  0.27184000  0.56094000  1.0
  N  N66  1  0.37948000  0.27204000  0.06100000  1.0
  N  N67  1  0.65141000  0.72816000  0.43905000  1.0
  O  O68  1  0.56207000  0.21328000  0.82484000  1.0
  O  O69  1  0.77539000  0.78638000  0.67524000  1.0
  O  O70  1  0.43792000  0.78673000  0.17516000  1.0
  O  O71  1  0.22460000  0.21363000  0.32476000  1.0
  O  O72  1  0.79697000  0.02290000  0.85941000  1.0
  O  O73  1  0.81989000  0.97674000  0.64081000  1.0
  O  O74  1  0.20302000  0.97711000  0.14059000  1.0
  O  O75  1  0.18011000  0.02326000  0.35919000  1.0
  O  O76  1  0.09029000  0.09696000  0.85543000  1.0
  O  O77  1  0.18705000  0.90303000  0.64456000  1.0
  O  O78  1  0.90969000  0.90305000  0.14457000  1.0
  O  O79  1  0.81297000  0.09697000  0.35544000  1.0
  O  O80  1  0.16539000  0.86285000  0.97889000  1.0
  O  O81  1  0.02815000  0.13718000  0.52106000  1.0
  O  O82  1  0.83461000  0.13715000  0.02111000  1.0
  O  O83  1  0.97185000  0.86282000  0.47894000  1.0
  O  O84  1  0.92829000  0.38591000  0.88235000  1.0
  O  O85  1  0.31421000  0.61387000  0.61781000  1.0
  O  O86  1  0.07171000  0.61408000  0.11766000  1.0
  O  O87  1  0.68580000  0.38613000  0.38220000  1.0
  O  O88  1  0.91771000  0.40498000  0.67382000  1.0
  O  O89  1  0.32285000  0.59483000  0.82632000  1.0
  O  O90  1  0.08227000  0.59502000  0.32618000  1.0
  O  O91  1  0.67717000  0.40516000  0.17368000  1.0
  O  O92  1  0.04906000  0.52787000  0.84144000  1.0
  O  O93  1  0.57695000  0.47186000  0.65866000  1.0
  O  O94  1  0.95093000  0.47212000  0.15856000  1.0
  O  O95  1  0.42307000  0.52813000  0.34134000  1.0
  O  O96  1  0.04382000  0.54356000  0.63560000  1.0
  O  O97  1  0.58756000  0.45625000  0.86448000  1.0
  O  O98  1  0.95617000  0.45643000  0.36441000  1.0
  O  O99  1  0.41246000  0.54374000  0.13552000  1.0
  O  O100  1  0.82623000  0.20577000  0.65164000  1.0
  O  O101  1  0.03225000  0.79416000  0.84837000  1.0
  O  O102  1  0.17377000  0.79423000  0.34836000  1.0
  O  O103  1  0.96775000  0.20584000  0.15163000  1.0
