# generated using pymatgen
data_ZnH16C23Br4(NO2)2
_symmetry_space_group_name_H-M   'P 1'
_cell_length_a   10.06640000
_cell_length_b   11.42240000
_cell_length_c   12.75040000
_cell_angle_alpha   103.39100000
_cell_angle_beta   96.21630000
_cell_angle_gamma   96.06140000
_symmetry_Int_Tables_number   1
_chemical_formula_structural   ZnH16C23Br4(NO2)2
_chemical_formula_sum   'Zn2 H32 C46 Br8 N4 O8'
_cell_volume   1404.82496691
_cell_formula_units_Z   2
loop_
 _symmetry_equiv_pos_site_id
 _symmetry_equiv_pos_as_xyz
  1  'x, y, z'
loop_
 _atom_site_type_symbol
 _atom_site_label
 _atom_site_symmetry_multiplicity
 _atom_site_fract_x
 _atom_site_fract_y
 _atom_site_fract_z
 _atom_site_occupancy
  Zn  Zn0  1  0.97232000  0.80175000  0.17403000  1.0
  Zn  Zn1  1  0.02768000  0.19825000  0.82597000  1.0
  H  H2  1  0.79971000  0.99645000  0.21503000  1.0
  H  H3  1  0.20029000  0.00354000  0.78496000  1.0
  H  H4  1  0.65430000  0.10547000  0.10665000  1.0
  H  H5  1  0.34570000  0.89453000  0.89335000  1.0
  H  H6  1  0.79647000  0.90751000  0.81834000  1.0
  H  H7  1  0.20354000  0.09249000  0.18166000  1.0
  H  H8  1  0.93185000  0.80323000  0.93828000  1.0
  H  H9  1  0.06816000  0.19677000  0.06172000  1.0
  H  H10  1  0.71260000  0.21740000  0.69917000  1.0
  H  H11  1  0.28740000  0.78261000  0.30084000  1.0
  H  H12  1  0.39087000  0.93598000  0.69313000  1.0
  H  H13  1  0.60913000  0.06402000  0.30687000  1.0
  H  H14  1  0.25190000  0.99579000  0.54409000  1.0
  H  H15  1  0.74810000  0.00421000  0.45591000  1.0
  H  H16  1  0.69338000  0.34262000  0.56012000  1.0
  H  H17  1  0.30662000  0.65738000  0.43988000  1.0
  H  H18  1  0.33340000  0.28371000  0.32967000  1.0
  H  H19  1  0.66659000  0.71629000  0.67033000  1.0
  H  H20  1  0.23011000  0.12380000  0.41345000  1.0
  H  H21  1  0.76988000  0.87620000  0.58655000  1.0
  H  H22  1  0.93467000  0.52835000  0.10125000  1.0
  H  H23  1  0.06533000  0.47165000  0.89875000  1.0
  H  H24  1  0.81447000  0.35387000  0.15748000  1.0
  H  H25  1  0.18553000  0.64613000  0.84252000  1.0
  H  H26  1  0.62200000  0.61416000  0.37210000  1.0
  H  H27  1  0.37799000  0.38584000  0.62790000  1.0
  H  H28  1  0.74843000  0.77769000  0.30644000  1.0
  H  H29  1  0.25156000  0.22230000  0.69356000  1.0
  H  H30  1  0.70308000  0.46472000  0.93727000  1.0
  H  H31  1  0.29692000  0.53527000  0.06273000  1.0
  H  H32  1  0.56509000  0.43930000  0.82749000  1.0
  H  H33  1  0.43491000  0.56069000  0.17251000  1.0
  C  C34  1  0.79338000  0.97868000  0.12670000  1.0
  C  C35  1  0.20663000  0.02133000  0.87330000  1.0
  C  C36  1  0.71367000  0.03855000  0.06650000  1.0
  C  C37  1  0.28634000  0.96145000  0.93350000  1.0
  C  C38  1  0.71208000  0.01179000  0.95375000  1.0
  C  C39  1  0.28792000  0.98821000  0.04625000  1.0
  C  C40  1  0.79290000  0.92789000  0.90557000  1.0
  C  C41  1  0.20710000  0.07211000  0.09443000  1.0
  C  C42  1  0.86854000  0.87077000  0.97129000  1.0
  C  C43  1  0.13147000  0.12923000  0.02871000  1.0
  C  C44  1  0.62100000  0.07096000  0.88779000  1.0
  C  C45  1  0.37900000  0.92904000  0.11221000  1.0
  C  C46  1  0.61113000  0.17199000  0.66551000  1.0
  C  C47  1  0.38887000  0.82801000  0.33449000  1.0
  C  C48  1  0.55564000  0.07811000  0.70433000  1.0
  C  C49  1  0.44437000  0.92189000  0.29567000  1.0
  C  C50  1  0.42647000  0.01339000  0.66239000  1.0
  C  C51  1  0.57353000  0.98661000  0.33761000  1.0
  C  C52  1  0.35155000  0.04529000  0.57885000  1.0
  C  C53  1  0.64844000  0.95471000  0.42116000  1.0
  C  C54  1  0.40424000  0.14053000  0.53421000  1.0
  C  C55  1  0.59575000  0.85947000  0.46580000  1.0
  C  C56  1  0.53679000  0.20413000  0.57787000  1.0
  C  C57  1  0.46321000  0.79588000  0.42213000  1.0
  C  C58  1  0.59246000  0.29425000  0.52903000  1.0
  C  C59  1  0.40753000  0.70575000  0.47097000  1.0
  C  C60  1  0.51876000  0.31801000  0.44103000  1.0
  C  C61  1  0.48123000  0.68199000  0.55897000  1.0
  C  C62  1  0.38723000  0.25946000  0.39878000  1.0
  C  C63  1  0.61277000  0.74054000  0.60122000  1.0
  C  C64  1  0.33094000  0.17225000  0.44570000  1.0
  C  C65  1  0.66906000  0.82775000  0.55430000  1.0
  C  C66  1  0.64680000  0.36766000  0.30919000  1.0
  C  C67  1  0.35320000  0.63234000  0.69081000  1.0
  C  C68  1  0.86363000  0.54279000  0.16030000  1.0
  C  C69  1  0.13637000  0.45721000  0.83970000  1.0
  C  C70  1  0.79764000  0.44659000  0.19240000  1.0
  C  C71  1  0.20236000  0.55341000  0.80760000  1.0
  C  C72  1  0.71050000  0.47107000  0.27054000  1.0
  C  C73  1  0.28949000  0.52893000  0.72946000  1.0
  C  C74  1  0.68942000  0.59135000  0.31151000  1.0
  C  C75  1  0.31057000  0.40866000  0.68849000  1.0
  C  C76  1  0.75900000  0.68246000  0.27489000  1.0
  C  C77  1  0.24099000  0.31754000  0.72511000  1.0
  C  C78  1  0.64792000  0.50391000  0.87834000  1.0
  C  C79  1  0.35208000  0.49609000  0.12166000  1.0
  Br  Br80  1  0.02928000  0.93340000  0.34931000  1.0
  Br  Br81  1  0.97072000  0.06660000  0.65069000  1.0
  Br  Br82  1  0.12483000  0.70726000  0.06299000  1.0
  Br  Br83  1  0.87518000  0.29274000  0.93701000  1.0
  Br  Br84  1  0.77565000  0.54286000  0.78247000  1.0
  Br  Br85  1  0.22435000  0.45713000  0.21753000  1.0
  Br  Br86  1  0.57464000  0.64432000  0.95484000  1.0
  Br  Br87  1  0.42535000  0.35567000  0.04515000  1.0
  N  N88  1  0.86770000  0.89494000  0.07971000  1.0
  N  N89  1  0.13231000  0.10506000  0.92028000  1.0
  N  N90  1  0.84570000  0.65881000  0.20170000  1.0
  N  N91  1  0.15429000  0.34118000  0.79829000  1.0
  O  O92  1  0.54082000  0.13732000  0.92393000  1.0
  O  O93  1  0.45919000  0.86268000  0.07607000  1.0
  O  O94  1  0.63649000  0.03629000  0.78092000  1.0
  O  O95  1  0.36351000  0.96371000  0.21908000  1.0
  O  O96  1  0.57581000  0.40737000  0.39273000  1.0
  O  O97  1  0.42419000  0.59263000  0.60727000  1.0
  O  O98  1  0.65953000  0.26152000  0.27253000  1.0
  O  O99  1  0.34047000  0.73848000  0.72748000  1.0
