# generated using pymatgen
data_CoH8C13NO5
_symmetry_space_group_name_H-M   'P 1'
_cell_length_a   7.05460000
_cell_length_b   9.84175000
_cell_length_c   12.29080000
_cell_angle_alpha   88.35420000
_cell_angle_beta   74.10480000
_cell_angle_gamma   84.90490000
_symmetry_Int_Tables_number   1
_chemical_formula_structural   CoH8C13NO5
_chemical_formula_sum   'Co2 H16 C26 N2 O10'
_cell_volume   817.46560497
_cell_formula_units_Z   2
loop_
 _symmetry_equiv_pos_site_id
 _symmetry_equiv_pos_as_xyz
  1  'x, y, z'
loop_
 _atom_site_type_symbol
 _atom_site_label
 _atom_site_symmetry_multiplicity
 _atom_site_fract_x
 _atom_site_fract_y
 _atom_site_fract_z
 _atom_site_occupancy
  Co  Co0  1  0.00000000  0.50000000  0.50000000  1.0
  Co  Co1  1  0.49999000  0.50000000  0.50000000  1.0
  H  H2  1  0.89108000  0.15944000  0.63140000  1.0
  H  H3  1  0.50048000  0.09346000  0.62930000  1.0
  H  H4  1  0.41112000  0.28459000  0.08532000  1.0
  H  H5  1  0.30391000  0.29662000  0.29576000  1.0
  H  H6  1  0.47709000  0.84061000  0.63120000  1.0
  H  H7  1  0.86946000  0.90651000  0.62965000  1.0
  H  H8  1  0.50338000  0.71567000  0.08465000  1.0
  H  H9  1  0.40030000  0.70391000  0.29509000  1.0
  H  H10  1  0.10892000  0.84052000  0.36862000  1.0
  H  H11  1  0.49953000  0.90649000  0.37070000  1.0
  H  H12  1  0.58889000  0.71541000  0.91472000  1.0
  H  H13  1  0.69604000  0.70350000  0.70429000  1.0
  H  H14  1  0.52292000  0.15934000  0.36878000  1.0
  H  H15  1  0.13055000  0.09345000  0.37034000  1.0
  H  H16  1  0.49668000  0.28433000  0.91530000  1.0
  H  H17  1  0.59971000  0.29621000  0.70486000  1.0
  C  C18  1  0.19540000  0.14192000  0.63299000  1.0
  C  C19  1  0.01617000  0.08850000  0.63600000  1.0
  C  C20  1  0.36004000  0.05179000  0.63510000  1.0
  C  C21  1  0.21633000  0.29176000  0.61317000  1.0
  C  C22  1  0.41141000  0.38145000  0.12564000  1.0
  C  C23  1  0.35385000  0.38294000  0.24197000  1.0
  C  C24  1  0.17106000  0.85807000  0.63333000  1.0
  C  C25  1  0.34760000  0.91152000  0.63596000  1.0
  C  C26  1  0.00439000  0.94815000  0.63542000  1.0
  C  C27  1  0.17061000  0.70825000  0.61321000  1.0
  C  C28  1  0.46265000  0.61885000  0.12528000  1.0
  C  C29  1  0.40413000  0.61743000  0.24159000  1.0
  C  C30  1  0.80461000  0.85805000  0.36701000  1.0
  C  C31  1  0.98384000  0.91147000  0.36401000  1.0
  C  C32  1  0.63997000  0.94816000  0.36490000  1.0
  C  C33  1  0.78367000  0.70821000  0.38681000  1.0
  C  C34  1  0.58860000  0.61858000  0.87437000  1.0
  C  C35  1  0.64613000  0.61714000  0.75804000  1.0
  C  C36  1  0.82894000  0.14190000  0.36667000  1.0
  C  C37  1  0.65241000  0.08843000  0.36404000  1.0
  C  C38  1  0.99561000  0.05182000  0.36458000  1.0
  C  C39  1  0.82936000  0.29173000  0.38681000  1.0
  C  C40  1  0.53736000  0.38117000  0.87471000  1.0
  C  C41  1  0.59587000  0.38265000  0.75840000  1.0
  C  C42  1  0.46898000  0.50009000  0.06175000  1.0
  C  C43  1  0.53104000  0.49993000  0.93824000  1.0
  N  N44  1  0.35099000  0.50017000  0.29844000  1.0
  N  N45  1  0.64901000  0.49990000  0.70156000  1.0
  O  O46  1  0.05979000  0.36953000  0.61817000  1.0
  O  O47  1  0.39171000  0.32911000  0.58865000  1.0
  O  O48  1  0.32312000  0.63162000  0.61788000  1.0
  O  O49  1  0.01921000  0.67043000  0.58800000  1.0
  O  O50  1  0.94021000  0.63044000  0.38182000  1.0
  O  O51  1  0.60829000  0.67087000  0.41131000  1.0
  O  O52  1  0.67685000  0.36835000  0.38213000  1.0
  O  O53  1  0.98073000  0.32955000  0.41204000  1.0
  O  O54  1  0.29578000  0.49987000  0.41127000  1.0
  O  O55  1  0.70422000  0.50015000  0.58873000  1.0
