# generated using pymatgen
data_ZnH19C22SN5O4
_symmetry_space_group_name_H-M   'P 1'
_cell_length_a   10.72570000
_cell_length_b   14.84313703
_cell_length_c   15.91010000
_cell_angle_alpha   82.30349373
_cell_angle_beta   90.04330000
_cell_angle_gamma   68.81963111
_symmetry_Int_Tables_number   1
_chemical_formula_structural   ZnH19C22SN5O4
_chemical_formula_sum   'Zn4 H76 C88 S4 N20 O16'
_cell_volume   2337.24113393
_cell_formula_units_Z   4
loop_
 _symmetry_equiv_pos_site_id
 _symmetry_equiv_pos_as_xyz
  1  'x, y, z'
loop_
 _atom_site_type_symbol
 _atom_site_label
 _atom_site_symmetry_multiplicity
 _atom_site_fract_x
 _atom_site_fract_y
 _atom_site_fract_z
 _atom_site_occupancy
  Zn  Zn0  1  0.10717000  0.71070000  0.91481000  1.0
  Zn  Zn1  1  0.81819000  0.28908000  0.58508000  1.0
  Zn  Zn2  1  0.89282000  0.28931000  0.08520000  1.0
  Zn  Zn3  1  0.18181000  0.71092000  0.41492000  1.0
  H  H4  1  0.29923000  0.64351000  0.76204000  1.0
  H  H5  1  0.94322000  0.35615000  0.73796000  1.0
  H  H6  1  0.70078000  0.35649000  0.23797000  1.0
  H  H7  1  0.05678000  0.64385000  0.26204000  1.0
  H  H8  1  0.02438000  0.91926000  0.79832000  1.0
  H  H9  1  0.94358000  0.08047000  0.70179000  1.0
  H  H10  1  0.97561000  0.08074000  0.20168000  1.0
  H  H11  1  0.05642000  0.91953000  0.29821000  1.0
  H  H12  1  0.15974000  0.94153000  0.65039000  1.0
  H  H13  1  0.10137000  0.05820000  0.84980000  1.0
  H  H14  1  0.84025000  0.05847000  0.34960000  1.0
  H  H15  1  0.89862000  0.94181000  0.15020000  1.0
  H  H16  1  0.29349000  0.80951000  0.55756000  1.0
  H  H17  1  0.10324000  0.19025000  0.94261000  1.0
  H  H18  1  0.70651000  0.19049000  0.44243000  1.0
  H  H19  1  0.89676000  0.80975000  0.05739000  1.0
  H  H20  1  0.36022000  0.68612000  0.60577000  1.0
  H  H21  1  0.04667000  0.31359000  0.89437000  1.0
  H  H22  1  0.63978000  0.31388000  0.39423000  1.0
  H  H23  1  0.95333000  0.68641000  0.10563000  1.0
  H  H24  1  0.54730000  0.64510000  0.73112000  1.0
  H  H25  1  0.19239000  0.35434000  0.76901000  1.0
  H  H26  1  0.45270000  0.35490000  0.26889000  1.0
  H  H27  1  0.80762000  0.64565000  0.23099000  1.0
  H  H28  1  0.76512000  0.66077000  0.75772000  1.0
  H  H29  1  0.42579000  0.33878000  0.74230000  1.0
  H  H30  1  0.23488000  0.33923000  0.24228000  1.0
  H  H31  1  0.57421000  0.66122000  0.25769000  1.0
  H  H32  1  0.65355000  0.91480000  0.56603000  1.0
  H  H33  1  0.56877000  0.08515000  0.93443000  1.0
  H  H34  1  0.34645000  0.08520000  0.43397000  1.0
  H  H35  1  0.43123000  0.91485000  0.06557000  1.0
  H  H36  1  0.43469000  0.90015000  0.54095000  1.0
  H  H37  1  0.33538000  0.09971000  0.95952000  1.0
  H  H38  1  0.56532000  0.09984000  0.45905000  1.0
  H  H39  1  0.66462000  0.90029000  0.04048000  1.0
  H  H40  1  0.84067000  0.86154000  0.71768000  1.0
  H  H41  1  0.70231000  0.13816000  0.78263000  1.0
  H  H42  1  0.15933000  0.13846000  0.28233000  1.0
  H  H43  1  0.29769000  0.86184000  0.21737000  1.0
  H  H44  1  0.92191000  0.73408000  0.72453000  1.0
  H  H45  1  0.65594000  0.26566000  0.77563000  1.0
  H  H46  1  0.07808000  0.26592000  0.27547000  1.0
  H  H47  1  0.34406000  0.73434000  0.22437000  1.0
  H  H48  1  0.04306000  0.66645000  0.58881000  1.0
  H  H49  1  0.70961000  0.33353000  0.91135000  1.0
  H  H50  1  0.95694000  0.33355000  0.41119000  1.0
  H  H51  1  0.29039000  0.66647000  0.08865000  1.0
  H  H52  1  0.01834000  0.93398000  0.44758000  1.0
  H  H53  1  0.95311000  0.06609000  0.05256000  1.0
  H  H54  1  0.98165000  0.06602000  0.55242000  1.0
  H  H55  1  0.04689000  0.93391000  0.94744000  1.0
  H  H56  1  0.84670000  0.97245000  0.58223000  1.0
  H  H57  1  0.81964000  0.02751000  0.91794000  1.0
  H  H58  1  0.15330000  0.02755000  0.41777000  1.0
  H  H59  1  0.18036000  0.97249000  0.08207000  1.0
  H  H60  1  0.31606000  0.84780000  0.87577000  1.0
  H  H61  1  0.16390000  0.15236000  0.62430000  1.0
  H  H62  1  0.68394000  0.15221000  0.12424000  1.0
  H  H63  1  0.83610000  0.84764000  0.37570000  1.0
  H  H64  1  0.37691000  0.99308000  0.82153000  1.0
  H  H65  1  0.37013000  0.00720000  0.67873000  1.0
  H  H66  1  0.62309000  0.00693000  0.17848000  1.0
  H  H67  1  0.62986000  0.99280000  0.32127000  1.0
  H  H68  1  0.62127000  0.97120000  0.82967000  1.0
  H  H69  1  0.59264000  0.02901000  0.67031000  1.0
  H  H70  1  0.37874000  0.02880000  0.17033000  1.0
  H  H71  1  0.40735000  0.97099000  0.32969000  1.0
  H  H72  1  0.56396000  0.63183000  0.04691000  1.0
  H  H73  1  0.19543000  0.36821000  0.45288000  1.0
  H  H74  1  0.43604000  0.36817000  0.95309000  1.0
  H  H75  1  0.80457000  0.63179000  0.54712000  1.0
  H  H76  1  0.56687000  0.57228000  0.95676000  1.0
  H  H77  1  0.13916000  0.42785000  0.54303000  1.0
  H  H78  1  0.43314000  0.42772000  0.04324000  1.0
  H  H79  1  0.86083000  0.57216000  0.45697000  1.0
  C  C80  1  0.24186000  0.72153000  0.75037000  1.0
  C  C81  1  0.96380000  0.27814000  0.74965000  1.0
  C  C82  1  0.75814000  0.27847000  0.24963000  1.0
  C  C83  1  0.03620000  0.72186000  0.25035000  1.0
  C  C84  1  0.10369000  0.86675000  0.76864000  1.0
  C  C85  1  0.97048000  0.13297000  0.73146000  1.0
  C  C86  1  0.89630000  0.13326000  0.23136000  1.0
  C  C87  1  0.02952000  0.86703000  0.26853000  1.0
  C  C88  1  0.16770000  0.87792000  0.69546000  1.0
  C  C89  1  0.04577000  0.12179000  0.80468000  1.0
  C  C90  1  0.83229000  0.12208000  0.30454000  1.0
  C  C91  1  0.95423000  0.87821000  0.19532000  1.0
  C  C92  1  0.34481000  0.76119000  0.61543000  1.0
  C  C93  1  0.10632000  0.23849000  0.88475000  1.0
  C  C94  1  0.65519000  0.23881000  0.38457000  1.0
  C  C95  1  0.89368000  0.76151000  0.11525000  1.0
  C  C96  1  0.47640000  0.77165000  0.63384000  1.0
  C  C97  1  0.24834000  0.22801000  0.86644000  1.0
  C  C98  1  0.52361000  0.22834000  0.36616000  1.0
  C  C99  1  0.75166000  0.77199000  0.13356000  1.0
  C  C100  1  0.56980000  0.70484000  0.69510000  1.0
  C  C101  1  0.27476000  0.29473000  0.80508000  1.0
  C  C102  1  0.43020000  0.29516000  0.30490000  1.0
  C  C103  1  0.72524000  0.70526000  0.19492000  1.0
  C  C104  1  0.69259000  0.71353000  0.71013000  1.0
  C  C105  1  0.40616000  0.28608000  0.78998000  1.0
  C  C106  1  0.30742000  0.28647000  0.28986000  1.0
  C  C107  1  0.59385000  0.71391000  0.21002000  1.0
  C  C108  1  0.72369000  0.78923000  0.66415000  1.0
  C  C109  1  0.51308000  0.21052000  0.83608000  1.0
  C  C110  1  0.27630000  0.21078000  0.33584000  1.0
  C  C111  1  0.48691000  0.78948000  0.16392000  1.0
  C  C112  1  0.63017000  0.85624000  0.60322000  1.0
  C  C113  1  0.48675000  0.14362000  0.89716000  1.0
  C  C114  1  0.36983000  0.14376000  0.39678000  1.0
  C  C115  1  0.51326000  0.85637000  0.10284000  1.0
  C  C116  1  0.50698000  0.84784000  0.58878000  1.0
  C  C117  1  0.35524000  0.15198000  0.91163000  1.0
  C  C118  1  0.49302000  0.15216000  0.41122000  1.0
  C  C119  1  0.64475000  0.84802000  0.08837000  1.0
  C  C120  1  0.85554000  0.79918000  0.68338000  1.0
  C  C121  1  0.65484000  0.20058000  0.81685000  1.0
  C  C122  1  0.14446000  0.20082000  0.31662000  1.0
  C  C123  1  0.34516000  0.79942000  0.18315000  1.0
  C  C124  1  0.01398000  0.74425000  0.56800000  1.0
  C  C125  1  0.75846000  0.25574000  0.93219000  1.0
  C  C126  1  0.98602000  0.25575000  0.43200000  1.0
  C  C127  1  0.24154000  0.74426000  0.06781000  1.0
  C  C128  1  0.99566000  0.88475000  0.49627000  1.0
  C  C129  1  0.88104000  0.11527000  0.00387000  1.0
  C  C130  1  0.00434000  0.11525000  0.50372000  1.0
  C  C131  1  0.11896000  0.88473000  0.99613000  1.0
  C  C132  1  0.91222000  0.90441000  0.56238000  1.0
  C  C133  1  0.81714000  0.09555000  0.93778000  1.0
  C  C134  1  0.08778000  0.09559000  0.43762000  1.0
  C  C135  1  0.18286000  0.90445000  0.06223000  1.0
  C  C136  1  0.82748000  0.81428000  0.89199000  1.0
  C  C137  1  0.64178000  0.18581000  0.60766000  1.0
  C  C138  1  0.17252000  0.18572000  0.10801000  1.0
  C  C139  1  0.35822000  0.81419000  0.39234000  1.0
  C  C140  1  0.68494000  0.82187000  0.88613000  1.0
  C  C141  1  0.50681000  0.17828000  0.61354000  1.0
  C  C142  1  0.31507000  0.17813000  0.11387000  1.0
  C  C143  1  0.49319000  0.82172000  0.38646000  1.0
  C  C144  1  0.64024000  0.74437000  0.91623000  1.0
  C  C145  1  0.38448000  0.25575000  0.58348000  1.0
  C  C146  1  0.35976000  0.25563000  0.08377000  1.0
  C  C147  1  0.61553000  0.74425000  0.41651000  1.0
  C  C148  1  0.42006000  0.84301000  0.87806000  1.0
  C  C149  1  0.26309000  0.15715000  0.62195000  1.0
  C  C150  1  0.57995000  0.15699000  0.12194000  1.0
  C  C151  1  0.73691000  0.84285000  0.37804000  1.0
  C  C152  1  0.45335000  0.92342000  0.84740000  1.0
  C  C153  1  0.37689000  0.07680000  0.65273000  1.0
  C  C154  1  0.54665000  0.07658000  0.15260000  1.0
  C  C155  1  0.62311000  0.92319000  0.34727000  1.0
  C  C156  1  0.58800000  0.91135000  0.85193000  1.0
  C  C157  1  0.49948000  0.08885000  0.64799000  1.0
  C  C158  1  0.41200000  0.08865000  0.14807000  1.0
  C  C159  1  0.50052000  0.91115000  0.35200000  1.0
  C  C160  1  0.62921000  0.58048000  0.00795000  1.0
  C  C161  1  0.20943000  0.41963000  0.49174000  1.0
  C  C162  1  0.37079000  0.41952000  0.99205000  1.0
  C  C163  1  0.79056000  0.58037000  0.50826000  1.0
  C  C164  1  0.69946000  0.48198000  0.06208000  1.0
  C  C165  1  0.18104000  0.51810000  0.43755000  1.0
  C  C166  1  0.30054000  0.51802000  0.93792000  1.0
  C  C167  1  0.81895000  0.48190000  0.56245000  1.0
  S  S168  1  0.75166000  0.62900000  0.96234000  1.0
  S  S169  1  0.38054000  0.37106000  0.53729000  1.0
  S  S170  1  0.24834000  0.37100000  0.03766000  1.0
  S  S171  1  0.61946000  0.62894000  0.46271000  1.0
  N  N172  1  0.15129000  0.76875000  0.80226000  1.0
  N  N173  1  0.92028000  0.23094000  0.69776000  1.0
  N  N174  1  0.84871000  0.23125000  0.19774000  1.0
  N  N175  1  0.07972000  0.76906000  0.30224000  1.0
  N  N176  1  0.05863000  0.78484000  0.50056000  1.0
  N  N177  1  0.84391000  0.21518000  0.99959000  1.0
  N  N178  1  0.94137000  0.21516000  0.49944000  1.0
  N  N179  1  0.15608000  0.78482000  0.00041000  1.0
  N  N180  1  0.25319000  0.78544000  0.68450000  1.0
  N  N181  1  0.03892000  0.21425000  0.81561000  1.0
  N  N182  1  0.74680000  0.21457000  0.31550000  1.0
  N  N183  1  0.96108000  0.78575000  0.18439000  1.0
  N  N184  1  0.92606000  0.81466000  0.60734000  1.0
  N  N185  1  0.74097000  0.18527000  0.89286000  1.0
  N  N186  1  0.07394000  0.18534000  0.39266000  1.0
  N  N187  1  0.25903000  0.81473000  0.10714000  1.0
  N  N188  1  0.50965000  0.75656000  0.91175000  1.0
  N  N189  1  0.26610000  0.24356000  0.58808000  1.0
  N  N190  1  0.49036000  0.24344000  0.08825000  1.0
  N  N191  1  0.73391000  0.75644000  0.41192000  1.0
  O  O192  1  0.91538000  0.72631000  0.90654000  1.0
  O  O193  1  0.64184000  0.27374000  0.59315000  1.0
  O  O194  1  0.08463000  0.27368000  0.09346000  1.0
  O  O195  1  0.35816000  0.72626000  0.40685000  1.0
  O  O196  1  0.85548000  0.89043000  0.88327000  1.0
  O  O197  1  0.74588000  0.10961000  0.61638000  1.0
  O  O198  1  0.14453000  0.10956000  0.11673000  1.0
  O  O199  1  0.25411000  0.89039000  0.38362000  1.0
  O  O200  1  0.65494000  0.46367000  0.13201000  1.0
  O  O201  1  0.11809000  0.53637000  0.36763000  1.0
  O  O202  1  0.34506000  0.53633000  0.86799000  1.0
  O  O203  1  0.88190000  0.46363000  0.63237000  1.0
  O  O204  1  0.80117000  0.42247000  0.02820000  1.0
  O  O205  1  0.22334000  0.57760000  0.47144000  1.0
  O  O206  1  0.19882000  0.57754000  0.97180000  1.0
  O  O207  1  0.77666000  0.42240000  0.52856000  1.0
