# generated using pymatgen
data_AgH18C20IN2
_symmetry_space_group_name_H-M   'P 1'
_cell_length_a   4.47752000
_cell_length_b   18.22470000
_cell_length_c   25.31030000
_cell_angle_alpha   89.99990000
_cell_angle_beta   89.00570000
_cell_angle_gamma   89.99990000
_symmetry_Int_Tables_number   1
_chemical_formula_structural   AgH18C20IN2
_chemical_formula_sum   'Ag4 H72 C80 I4 N8'
_cell_volume   2065.04641303
_cell_formula_units_Z   4
loop_
 _symmetry_equiv_pos_site_id
 _symmetry_equiv_pos_as_xyz
  1  'x, y, z'
loop_
 _atom_site_type_symbol
 _atom_site_label
 _atom_site_symmetry_multiplicity
 _atom_site_fract_x
 _atom_site_fract_y
 _atom_site_fract_z
 _atom_site_occupancy
  Ag  Ag0  1  0.69617000  0.55318000  0.45523000  1.0
  Ag  Ag1  1  0.69617000  0.94682000  0.95523000  1.0
  Ag  Ag2  1  0.30383000  0.44682000  0.54477000  1.0
  Ag  Ag3  1  0.30383000  0.05318000  0.04477000  1.0
  H  H4  1  0.25676000  0.80232000  0.33422000  1.0
  H  H5  1  0.25676000  0.69768000  0.83422000  1.0
  H  H6  1  0.74324000  0.19768000  0.66578000  1.0
  H  H7  1  0.74324000  0.30232000  0.16578000  1.0
  H  H8  1  0.41741000  0.90859000  0.28216000  1.0
  H  H9  1  0.41742000  0.59140000  0.78217000  1.0
  H  H10  1  0.58258000  0.09140000  0.71783000  1.0
  H  H11  1  0.58259000  0.40860000  0.21783000  1.0
  H  H12  1  0.23248000  0.92791000  0.19063000  1.0
  H  H13  1  0.23249000  0.57209000  0.69063000  1.0
  H  H14  1  0.76751000  0.07209000  0.80937000  1.0
  H  H15  1  0.76752000  0.42791000  0.30937000  1.0
  H  H16  1  0.87878000  0.83986000  0.15224000  1.0
  H  H17  1  0.87878000  0.66014000  0.65224000  1.0
  H  H18  1  0.12121000  0.16014000  0.84776000  1.0
  H  H19  1  0.12122000  0.33986000  0.34775000  1.0
  H  H20  1  0.58770000  0.72787000  0.15857000  1.0
  H  H21  1  0.58771000  0.77213000  0.65857000  1.0
  H  H22  1  0.41229000  0.27213000  0.84143000  1.0
  H  H23  1  0.41229000  0.22787000  0.34143000  1.0
  H  H24  1  0.28438000  0.61769000  0.16314000  1.0
  H  H25  1  0.28437000  0.88231000  0.66314000  1.0
  H  H26  1  0.71563000  0.38231000  0.83686000  1.0
  H  H27  1  0.71563000  0.11769000  0.33686000  1.0
  H  H28  1  0.09450000  0.50915000  0.21339000  1.0
  H  H29  1  0.09450000  0.99085000  0.71339000  1.0
  H  H30  1  0.90549000  0.49085000  0.78661000  1.0
  H  H31  1  0.90550000  0.00915000  0.28661000  1.0
  H  H32  1  0.26770000  0.48725000  0.30531000  1.0
  H  H33  1  0.26770000  0.01276000  0.80531000  1.0
  H  H34  1  0.73229000  0.51276000  0.69469000  1.0
  H  H35  1  0.73230000  0.98724000  0.19469000  1.0
  H  H36  1  0.61625000  0.56962000  0.34709000  1.0
  H  H37  1  0.61625000  0.93038000  0.84709000  1.0
  H  H38  1  0.38375000  0.43039000  0.65291000  1.0
  H  H39  1  0.38375000  0.06962000  0.15291000  1.0
  H  H40  1  0.99979000  0.62120000  0.36611000  1.0
  H  H41  1  0.99979000  0.87880000  0.86611000  1.0
  H  H42  1  0.00021000  0.37880000  0.63389000  1.0
  H  H43  1  0.00021000  0.12120000  0.13389000  1.0
  H  H44  1  0.19810000  0.70413000  0.36326000  1.0
  H  H45  1  0.19811000  0.79587000  0.86326000  1.0
  H  H46  1  0.80190000  0.29587000  0.63674000  1.0
  H  H47  1  0.80190000  0.20414000  0.13674000  1.0
  H  H48  1  0.76375000  0.82316000  0.37401000  1.0
  H  H49  1  0.76375000  0.67684000  0.87401000  1.0
  H  H50  1  0.23626000  0.17684000  0.62599000  1.0
  H  H51  1  0.23625000  0.32316000  0.12599000  1.0
  H  H52  1  0.37036000  0.83322000  0.46038000  1.0
  H  H53  1  0.37036000  0.66678000  0.96038000  1.0
  H  H54  1  0.62965000  0.16678000  0.53962000  1.0
  H  H55  1  0.62965000  0.33322000  0.03962000  1.0
  H  H56  1  0.27020000  0.63765000  0.51245000  1.0
  H  H57  1  0.27020000  0.86234000  0.01245000  1.0
  H  H58  1  0.72980000  0.36235000  0.48755000  1.0
  H  H59  1  0.72980000  0.13765000  0.98755000  1.0
  H  H60  1  0.05480000  0.71789000  0.50406000  1.0
  H  H61  1  0.05480000  0.78211000  0.00406000  1.0
  H  H62  1  0.94521000  0.28211000  0.49594000  1.0
  H  H63  1  0.94521000  0.21789000  0.99594000  1.0
  H  H64  1  0.25835000  0.71179000  0.59550000  1.0
  H  H65  1  0.25836000  0.78821000  0.09550000  1.0
  H  H66  1  0.74165000  0.28821000  0.40450000  1.0
  H  H67  1  0.74165000  0.21179000  0.90450000  1.0
  H  H68  1  0.41748000  0.78852000  0.56161000  1.0
  H  H69  1  0.41748000  0.71148000  0.06161000  1.0
  H  H70  1  0.58252000  0.21148000  0.43839000  1.0
  H  H71  1  0.58252000  0.28852000  0.93839000  1.0
  H  H72  1  0.62722000  0.70563000  0.56943000  1.0
  H  H73  1  0.62722000  0.79437000  0.06943000  1.0
  H  H74  1  0.37278000  0.29437000  0.43057000  1.0
  H  H75  1  0.37278000  0.20563000  0.93057000  1.0
  C  C76  1  0.96927000  0.75602000  0.27383000  1.0
  C  C77  1  0.96928000  0.74398000  0.77384000  1.0
  C  C78  1  0.03072000  0.24398000  0.72617000  1.0
  C  C79  1  0.03073000  0.25602000  0.22616000  1.0
  C  C80  1  0.16989000  0.80940000  0.29463000  1.0
  C  C81  1  0.16989000  0.69060000  0.79463000  1.0
  C  C82  1  0.83010000  0.19060000  0.70537000  1.0
  C  C83  1  0.83011000  0.30940000  0.20537000  1.0
  C  C84  1  0.26129000  0.86926000  0.26549000  1.0
  C  C85  1  0.26129000  0.63074000  0.76549000  1.0
  C  C86  1  0.73870000  0.13074000  0.73451000  1.0
  C  C87  1  0.73871000  0.36926000  0.23451000  1.0
  C  C88  1  0.15814000  0.88030000  0.21334000  1.0
  C  C89  1  0.15814000  0.61970000  0.71334000  1.0
  C  C90  1  0.84185000  0.11970000  0.78666000  1.0
  C  C91  1  0.84186000  0.38030000  0.28666000  1.0
  C  C92  1  0.96439000  0.83076000  0.19184000  1.0
  C  C93  1  0.96439000  0.66924000  0.69184000  1.0
  C  C94  1  0.03560000  0.16924000  0.80816000  1.0
  C  C95  1  0.03561000  0.33076000  0.30816000  1.0
  C  C96  1  0.86548000  0.76790000  0.22067000  1.0
  C  C97  1  0.86549000  0.73210000  0.72067000  1.0
  C  C98  1  0.13451000  0.23210000  0.77933000  1.0
  C  C99  1  0.13451000  0.26790000  0.27933000  1.0
  C  C100  1  0.66768000  0.71789000  0.19839000  1.0
  C  C101  1  0.66769000  0.78211000  0.69839000  1.0
  C  C102  1  0.33231000  0.28211000  0.80161000  1.0
  C  C103  1  0.33232000  0.21789000  0.30161000  1.0
  C  C104  1  0.56521000  0.65638000  0.22618000  1.0
  C  C105  1  0.56522000  0.84362000  0.72618000  1.0
  C  C106  1  0.43478000  0.34362000  0.77382000  1.0
  C  C107  1  0.43478000  0.15638000  0.27382000  1.0
  C  C108  1  0.36069000  0.60623000  0.20303000  1.0
  C  C109  1  0.36069000  0.89377000  0.70303000  1.0
  C  C110  1  0.63931000  0.39377000  0.79697000  1.0
  C  C111  1  0.63931000  0.10623000  0.29697000  1.0
  C  C112  1  0.25633000  0.54647000  0.23065000  1.0
  C  C113  1  0.25633000  0.95354000  0.73065000  1.0
  C  C114  1  0.74366000  0.45353000  0.76934000  1.0
  C  C115  1  0.74366000  0.04647000  0.26935000  1.0
  C  C116  1  0.35370000  0.53406000  0.28302000  1.0
  C  C117  1  0.35370000  0.96595000  0.78302000  1.0
  C  C118  1  0.64629000  0.46595000  0.71698000  1.0
  C  C119  1  0.64629000  0.03405000  0.21698000  1.0
  C  C120  1  0.55171000  0.58093000  0.30654000  1.0
  C  C121  1  0.55171000  0.91907000  0.80654000  1.0
  C  C122  1  0.44828000  0.41907000  0.69346000  1.0
  C  C123  1  0.44829000  0.08093000  0.19346000  1.0
  C  C124  1  0.66574000  0.64395000  0.27946000  1.0
  C  C125  1  0.66575000  0.85605000  0.77945000  1.0
  C  C126  1  0.33425000  0.35605000  0.72055000  1.0
  C  C127  1  0.33426000  0.14395000  0.22054000  1.0
  C  C128  1  0.86859000  0.69374000  0.30245000  1.0
  C  C129  1  0.86859000  0.80626000  0.80245000  1.0
  C  C130  1  0.13141000  0.30626000  0.69755000  1.0
  C  C131  1  0.13141000  0.19374000  0.19755000  1.0
  C  C132  1  0.97702000  0.67992000  0.35773000  1.0
  C  C133  1  0.97703000  0.82008000  0.85773000  1.0
  C  C134  1  0.02298000  0.32008000  0.64227000  1.0
  C  C135  1  0.02297000  0.17992000  0.14226000  1.0
  C  C136  1  0.68668000  0.78222000  0.40212000  1.0
  C  C137  1  0.68669000  0.71778000  0.90212000  1.0
  C  C138  1  0.31331000  0.21778000  0.59789000  1.0
  C  C139  1  0.31332000  0.28222000  0.09788000  1.0
  C  C140  1  0.49352000  0.78693000  0.44430000  1.0
  C  C141  1  0.49352000  0.71306000  0.94430000  1.0
  C  C142  1  0.50650000  0.21306000  0.55570000  1.0
  C  C143  1  0.50648000  0.28693000  0.05570000  1.0
  C  C144  1  0.64086000  0.66772000  0.43755000  1.0
  C  C145  1  0.64087000  0.83228000  0.93755000  1.0
  C  C146  1  0.35914000  0.33228000  0.56245000  1.0
  C  C147  1  0.35913000  0.16772000  0.06245000  1.0
  C  C148  1  0.28184000  0.69777000  0.51110000  1.0
  C  C149  1  0.28184000  0.80223000  0.01110000  1.0
  C  C150  1  0.71817000  0.30223000  0.48890000  1.0
  C  C151  1  0.71817000  0.19777000  0.98890000  1.0
  C  C152  1  0.40426000  0.72826000  0.56227000  1.0
  C  C153  1  0.40426000  0.77174000  0.06227000  1.0
  C  C154  1  0.59574000  0.27174000  0.43773000  1.0
  C  C155  1  0.59575000  0.22826000  0.93773000  1.0
  I  I156  1  0.19315000  0.46289000  0.42699000  1.0
  I  I157  1  0.19315000  0.03711000  0.92699000  1.0
  I  I158  1  0.80685000  0.53712000  0.57301000  1.0
  I  I159  1  0.80685000  0.96288000  0.07301000  1.0
  N  N160  1  0.77304000  0.70926000  0.39876000  1.0
  N  N161  1  0.77305000  0.79074000  0.89876000  1.0
  N  N162  1  0.22696000  0.29075000  0.60124000  1.0
  N  N163  1  0.22696000  0.20926000  0.10124000  1.0
  N  N164  1  0.46817000  0.71680000  0.46506000  1.0
  N  N165  1  0.46817000  0.78320000  0.96506000  1.0
  N  N166  1  0.53183000  0.28320000  0.53494000  1.0
  N  N167  1  0.53183000  0.21680000  0.03494000  1.0
