# generated using pymatgen
data_NaErH16(C3O2)6
_symmetry_space_group_name_H-M   'P 1'
_cell_length_a   6.78697000
_cell_length_b   7.44200000
_cell_length_c   19.82570000
_cell_angle_alpha   90.00050000
_cell_angle_beta   99.86720000
_cell_angle_gamma   89.99990000
_symmetry_Int_Tables_number   1
_chemical_formula_structural   NaErH16(C3O2)6
_chemical_formula_sum   'Na2 Er2 H32 C36 O24'
_cell_volume   986.55629883
_cell_formula_units_Z   2
loop_
 _symmetry_equiv_pos_site_id
 _symmetry_equiv_pos_as_xyz
  1  'x, y, z'
loop_
 _atom_site_type_symbol
 _atom_site_label
 _atom_site_symmetry_multiplicity
 _atom_site_fract_x
 _atom_site_fract_y
 _atom_site_fract_z
 _atom_site_occupancy
  Na  Na0  1  0.83587000  0.25005000  0.67161000  1.0
  Na  Na1  1  0.16413000  0.75004000  0.32839000  1.0
  Er  Er2  1  0.70752000  0.74986000  0.41510000  1.0
  Er  Er3  1  0.29250000  0.24986000  0.58490000  1.0
  H  H4  1  0.76441000  0.14476000  0.93668000  1.0
  H  H5  1  0.23558000  0.64477000  0.06332000  1.0
  H  H6  1  0.17274000  0.35550000  0.93664000  1.0
  H  H7  1  0.82725000  0.85551000  0.06336000  1.0
  H  H8  1  0.70227000  0.14806000  0.80956000  1.0
  H  H9  1  0.29773000  0.64807000  0.19044000  1.0
  H  H10  1  0.10775000  0.35213000  0.80951000  1.0
  H  H11  1  0.89225000  0.85213000  0.19049000  1.0
  H  H12  1  0.21928000  0.14600000  0.03025000  1.0
  H  H13  1  0.78070000  0.64600000  0.96975000  1.0
  H  H14  1  0.81136000  0.35420000  0.03038000  1.0
  H  H15  1  0.18862000  0.85418000  0.96963000  1.0
  H  H16  1  0.28352000  0.14313000  0.15694000  1.0
  H  H17  1  0.71646000  0.64312000  0.84307000  1.0
  H  H18  1  0.87361000  0.35685000  0.15705000  1.0
  H  H19  1  0.12637000  0.85684000  0.84295000  1.0
  H  H20  1  0.49348000  0.26729000  0.43478000  1.0
  H  H21  1  0.50653000  0.76729000  0.56522000  1.0
  H  H22  1  0.94126000  0.23244000  0.43483000  1.0
  H  H23  1  0.05876000  0.73244000  0.56518000  1.0
  H  H24  1  0.56566000  0.11300000  0.34402000  1.0
  H  H25  1  0.43436000  0.61301000  0.65598000  1.0
  H  H26  1  0.77844000  0.38680000  0.34405000  1.0
  H  H27  1  0.22157000  0.88680000  0.65595000  1.0
  H  H28  1  0.75429000  0.59059000  0.73566000  1.0
  H  H29  1  0.24573000  0.09058000  0.26434000  1.0
  H  H30  1  0.98155000  0.90957000  0.73569000  1.0
  H  H31  1  0.01843000  0.40956000  0.26430000  1.0
  H  H32  1  0.98022000  0.60399000  0.72634000  1.0
  H  H33  1  0.01980000  0.10397000  0.27366000  1.0
  H  H34  1  0.74629000  0.89636000  0.72645000  1.0
  H  H35  1  0.25369000  0.39636000  0.27354000  1.0
  C  C36  1  0.47305000  0.25013000  0.94564000  1.0
  C  C37  1  0.52693000  0.75014000  0.05436000  1.0
  C  C38  1  0.51071000  0.25011000  0.02113000  1.0
  C  C39  1  0.48927000  0.75011000  0.97887000  1.0
  C  C40  1  0.62193000  0.19414000  0.90889000  1.0
  C  C41  1  0.37806000  0.69414000  0.09111000  1.0
  C  C42  1  0.28742000  0.30610000  0.90885000  1.0
  C  C43  1  0.71257000  0.80611000  0.09114000  1.0
  C  C44  1  0.58736000  0.19454000  0.83773000  1.0
  C  C45  1  0.41264000  0.69455000  0.16228000  1.0
  C  C46  1  0.25082000  0.30560000  0.83771000  1.0
  C  C47  1  0.74918000  0.80560000  0.16229000  1.0
  C  C48  1  0.36232000  0.19391000  0.05806000  1.0
  C  C49  1  0.63766000  0.69391000  0.94194000  1.0
  C  C50  1  0.69600000  0.30625000  0.05811000  1.0
  C  C51  1  0.30398000  0.80625000  0.94189000  1.0
  C  C52  1  0.58287000  0.25003000  0.16561000  1.0
  C  C53  1  0.41711000  0.75003000  0.83438000  1.0
  C  C54  1  0.39809000  0.19213000  0.12919000  1.0
  C  C55  1  0.60189000  0.69212000  0.87081000  1.0
  C  C56  1  0.73130000  0.30792000  0.12923000  1.0
  C  C57  1  0.26867000  0.80791000  0.87077000  1.0
  C  C58  1  0.62092000  0.24997000  0.24184000  1.0
  C  C59  1  0.37906000  0.74998000  0.75816000  1.0
  C  C60  1  0.63087000  0.18603000  0.44264000  1.0
  C  C61  1  0.36914000  0.68602000  0.55737000  1.0
  C  C62  1  0.81175000  0.31374000  0.44266000  1.0
  C  C63  1  0.18827000  0.81374000  0.55735000  1.0
  C  C64  1  0.64493000  0.08625000  0.51031000  1.0
  C  C65  1  0.35508000  0.58624000  0.48969000  1.0
  C  C66  1  0.86544000  0.41355000  0.51033000  1.0
  C  C67  1  0.13459000  0.91356000  0.48968000  1.0
  C  C68  1  0.40107000  0.25004000  0.80170000  1.0
  C  C69  1  0.59893000  0.75004000  0.19830000  1.0
  C  C70  1  0.36305000  0.24991000  0.72581000  1.0
  C  C71  1  0.63696000  0.74990000  0.27420000  1.0
  O  O72  1  0.87563000  0.51943000  0.73369000  1.0
  O  O73  1  0.12438000  0.01941000  0.26629000  1.0
  O  O74  1  0.85832000  0.98082000  0.73381000  1.0
  O  O75  1  0.14165000  0.48082000  0.26618000  1.0
  O  O76  1  0.47938000  0.20575000  0.27392000  1.0
  O  O77  1  0.52062000  0.70577000  0.72607000  1.0
  O  O78  1  0.79460000  0.29412000  0.27396000  1.0
  O  O79  1  0.20539000  0.79411000  0.72603000  1.0
  O  O80  1  0.70667000  0.92612000  0.51225000  1.0
  O  O81  1  0.29336000  0.42612000  0.48775000  1.0
  O  O82  1  0.80569000  0.57369000  0.51227000  1.0
  O  O83  1  0.19432000  0.07369000  0.48773000  1.0
  O  O84  1  0.59498000  0.16826000  0.56127000  1.0
  O  O85  1  0.40505000  0.66825000  0.43874000  1.0
  O  O86  1  0.96637000  0.33153000  0.56128000  1.0
  O  O87  1  0.03366000  0.83153000  0.43872000  1.0
  O  O88  1  0.62151000  0.05391000  0.38981000  1.0
  O  O89  1  0.37850000  0.55392000  0.61020000  1.0
  O  O90  1  0.76836000  0.44586000  0.38982000  1.0
  O  O91  1  0.23168000  0.94586000  0.61018000  1.0
  O  O92  1  0.50801000  0.23480000  0.69238000  1.0
  O  O93  1  0.49200000  0.73480000  0.30763000  1.0
  O  O94  1  0.18460000  0.26482000  0.69239000  1.0
  O  O95  1  0.81541000  0.76480000  0.30761000  1.0
