# generated using pymatgen
data_ZnH26C23(NO3)2
_symmetry_space_group_name_H-M   'P 1'
_cell_length_a   9.66827000
_cell_length_b   10.90730000
_cell_length_c   17.00580000
_cell_angle_alpha   88.41210000
_cell_angle_beta   80.60570000
_cell_angle_gamma   83.80710000
_symmetry_Int_Tables_number   1
_chemical_formula_structural   ZnH26C23(NO3)2
_chemical_formula_sum   'Zn2 H52 C46 N4 O12'
_cell_volume   1758.87204852
_cell_formula_units_Z   2
loop_
 _symmetry_equiv_pos_site_id
 _symmetry_equiv_pos_as_xyz
  1  'x, y, z'
loop_
 _atom_site_type_symbol
 _atom_site_label
 _atom_site_symmetry_multiplicity
 _atom_site_fract_x
 _atom_site_fract_y
 _atom_site_fract_z
 _atom_site_occupancy
  Zn  Zn0  1  0.33471000  0.51716000  0.51714000  1.0
  Zn  Zn1  1  0.64127000  0.48166000  0.48127000  1.0
  H  H2  1  0.35678000  0.60542000  0.90397000  1.0
  H  H3  1  0.17802000  0.95620000  0.34382000  1.0
  H  H4  1  0.04815000  0.86243000  0.39147000  1.0
  H  H5  1  0.15533000  0.77399000  0.25683000  1.0
  H  H6  1  0.19839000  0.67234000  0.33400000  1.0
  H  H7  1  0.42876000  0.76891000  0.32681000  1.0
  H  H8  1  0.38926000  0.85244000  0.24230000  1.0
  H  H9  1  0.74815000  0.07372000  0.60060000  1.0
  H  H10  1  0.80197000  0.01090000  0.68963000  1.0
  H  H11  1  0.65332000  0.96086000  0.65565000  1.0
  H  H12  1  0.57582000  0.10852000  0.76982000  1.0
  H  H13  1  0.61327000  0.37260000  0.09480000  1.0
  H  H14  1  0.51975000  0.17023000  0.68228000  1.0
  H  H15  1  0.72378000  0.29528000  0.65674000  1.0
  H  H16  1  0.78785000  0.23073000  0.74175000  1.0
  H  H17  1  0.37880000  0.95226000  0.97887000  1.0
  H  H18  1  0.33932000  0.02668000  0.07260000  1.0
  H  H19  1  0.50446000  0.03857000  0.01106000  1.0
  H  H20  1  0.53475000  0.88519000  0.12150000  1.0
  H  H21  1  0.57118000  0.81034000  0.02870000  1.0
  H  H22  1  0.33199000  0.74172000  0.04827000  1.0
  H  H23  1  0.28738000  0.81948000  0.14039000  1.0
  H  H24  1  0.33757000  0.59273000  0.75865000  1.0
  H  H25  1  0.90252000  0.21585000  0.99289000  1.0
  H  H26  1  0.97321000  0.14650000  0.89960000  1.0
  H  H27  1  0.04957000  0.27317000  0.93193000  1.0
  H  H28  1  0.89846000  0.34474000  0.82916000  1.0
  H  H29  1  0.82736000  0.41240000  0.92205000  1.0
  H  H30  1  0.65823000  0.25496000  0.95021000  1.0
  H  H31  1  0.72578000  0.18393000  0.85762000  1.0
  H  H32  1  0.78727000  0.73524000  0.34518000  1.0
  H  H33  1  0.03779000  0.20474000  0.56337000  1.0
  H  H34  1  0.78351000  0.21150000  0.29706000  1.0
  H  H35  1  0.62608000  0.37489000  0.24125000  1.0
  H  H36  1  0.96106000  0.19364000  0.24754000  1.0
  H  H37  1  0.89644000  0.07696000  0.31398000  1.0
  H  H38  1  0.04041000  0.19970000  0.38475000  1.0
  H  H39  1  0.86110000  0.22719000  0.42820000  1.0
  H  H40  1  0.83960000  0.42007000  0.34060000  1.0
  H  H41  1  0.02431000  0.39593000  0.30812000  1.0
  H  H42  1  0.99984000  0.80001000  0.75577000  1.0
  H  H43  1  0.17521000  0.79693000  0.70389000  1.0
  H  H44  1  0.05098000  0.92638000  0.69386000  1.0
  H  H45  1  0.08786000  0.79021000  0.57265000  1.0
  H  H46  1  0.69075000  0.08782000  0.43247000  1.0
  H  H47  1  0.91240000  0.79660000  0.62174000  1.0
  H  H48  1  0.96330000  0.59466000  0.68816000  1.0
  H  H49  1  0.14492000  0.59077000  0.64905000  1.0
  H  H50  1  0.26293000  0.91358000  0.57157000  1.0
  H  H51  1  0.19261000  0.42973000  0.40055000  1.0
  H  H52  1  0.78573000  0.58008000  0.59219000  1.0
  H  H53  1  0.21698000  0.84992000  0.42016000  1.0
  C  C54  1  0.46691000  0.73696000  0.51823000  1.0
  C  C55  1  0.87801000  0.54631000  0.54978000  1.0
  C  C56  1  0.49197000  0.45432000  0.64917000  1.0
  C  C57  1  0.50965000  0.54307000  0.34612000  1.0
  C  C58  1  0.50313000  0.44365000  0.73592000  1.0
  C  C59  1  0.50527000  0.55309000  0.25864000  1.0
  C  C60  1  0.60051000  0.35765000  0.76757000  1.0
  C  C61  1  0.43841000  0.65713000  0.22410000  1.0
  C  C62  1  0.60647000  0.36133000  0.84995000  1.0
  C  C63  1  0.43604000  0.65790000  0.14118000  1.0
  C  C64  1  0.52124000  0.45468000  0.89717000  1.0
  C  C65  1  0.48490000  0.26430000  0.48221000  1.0
  C  C66  1  0.49722000  0.55253000  0.09626000  1.0
  C  C67  1  0.42327000  0.53765000  0.86496000  1.0
  C  C68  1  0.56557000  0.45052000  0.13203000  1.0
  C  C69  1  0.41336000  0.53037000  0.78525000  1.0
  C  C70  1  0.57152000  0.45197000  0.21249000  1.0
  C  C71  1  0.59609000  0.92099000  0.47106000  1.0
  C  C72  1  0.35742000  0.08043000  0.53312000  1.0
  C  C73  1  0.37321000  0.76578000  0.27553000  1.0
  C  C74  1  0.21493000  0.76357000  0.30709000  1.0
  C  C75  1  0.16092000  0.86382000  0.36879000  1.0
  C  C76  1  0.59780000  0.04821000  0.46317000  1.0
  C  C77  1  0.69116000  0.25832000  0.71669000  1.0
  C  C78  1  0.61445000  0.14347000  0.70966000  1.0
  C  C79  1  0.70944000  0.04177000  0.66136000  1.0
  C  C80  1  0.37493000  0.77040000  0.09996000  1.0
  C  C81  1  0.48608000  0.85968000  0.07082000  1.0
  C  C82  1  0.42399000  0.97561000  0.03118000  1.0
  C  C83  1  0.70700000  0.27280000  0.88851000  1.0
  C  C84  1  0.84874000  0.32385000  0.89044000  1.0
  C  C85  1  0.94919000  0.23511000  0.93090000  1.0
  C  C86  1  0.72376000  0.83848000  0.43527000  1.0
  C  C87  1  0.35620000  0.95307000  0.54123000  1.0
  C  C88  1  0.22868000  0.15827000  0.57301000  1.0
  C  C89  1  0.93979000  0.38074000  0.35809000  1.0
  C  C90  1  0.93635000  0.24088000  0.37354000  1.0
  C  C91  1  0.89205000  0.17724000  0.30416000  1.0
  C  C92  1  0.03873000  0.62258000  0.63671000  1.0
  C  C93  1  0.02183000  0.76438000  0.62825000  1.0
  C  C94  1  0.06402000  0.82527000  0.69929000  1.0
  C  C95  1  0.47938000  0.12838000  0.49324000  1.0
  C  C96  1  0.47405000  0.87300000  0.51050000  1.0
  C  C97  1  0.96431000  0.44729000  0.42957000  1.0
  C  C98  1  0.01406000  0.55983000  0.56391000  1.0
  C  C99  1  0.09999000  0.46237000  0.44316000  1.0
  N  N100  1  0.53643000  0.45632000  0.97792000  1.0
  N  N101  1  0.48685000  0.55551000  0.01429000  1.0
  N  N102  1  0.12397000  0.51645000  0.50889000  1.0
  N  N103  1  0.85395000  0.49034000  0.48487000  1.0
  O  O104  1  0.34441000  0.70074000  0.53086000  1.0
  O  O105  1  0.70658000  0.79557000  0.36371000  1.0
  O  O106  1  0.21608000  0.20219000  0.63919000  1.0
  O  O107  1  0.12040000  0.16134000  0.53039000  1.0
  O  O108  1  0.60544000  0.30234000  0.46133000  1.0
  O  O109  1  0.58344000  0.66886000  0.51034000  1.0
  O  O110  1  0.36712000  0.33051000  0.49521000  1.0
  O  O111  1  0.37001000  0.48373000  0.63098000  1.0
  O  O112  1  0.63213000  0.52622000  0.36611000  1.0
  O  O113  1  0.60612000  0.43933000  0.59927000  1.0
  O  O114  1  0.39371000  0.54684000  0.39374000  1.0
  O  O115  1  0.83223000  0.81870000  0.46365000  1.0
