# generated using pymatgen
data_Ag2H9C9S2NO7F6
_symmetry_space_group_name_H-M   'P 1'
_cell_length_a   8.33531000
_cell_length_b   9.77748000
_cell_length_c   11.62160000
_cell_angle_alpha   79.07490000
_cell_angle_beta   78.54290000
_cell_angle_gamma   68.66760000
_symmetry_Int_Tables_number   1
_chemical_formula_structural   Ag2H9C9S2NO7F6
_chemical_formula_sum   'Ag4 H18 C18 S4 N2 O14 F12'
_cell_volume   857.50515365
_cell_formula_units_Z   2
loop_
 _symmetry_equiv_pos_site_id
 _symmetry_equiv_pos_as_xyz
  1  'x, y, z'
loop_
 _atom_site_type_symbol
 _atom_site_label
 _atom_site_symmetry_multiplicity
 _atom_site_fract_x
 _atom_site_fract_y
 _atom_site_fract_z
 _atom_site_occupancy
  Ag  Ag0  1  0.37127000  0.76595000  0.01988000  1.0
  Ag  Ag1  1  0.62873000  0.23405000  0.98012000  1.0
  Ag  Ag2  1  0.85921000  0.75917000  0.02064000  1.0
  Ag  Ag3  1  0.14079000  0.24083000  0.97936000  1.0
  H  H4  1  0.30405000  0.49577000  0.16846000  1.0
  H  H5  1  0.69595000  0.50423000  0.83153000  1.0
  H  H6  1  0.09560000  0.48335000  0.18261000  1.0
  H  H7  1  0.90440000  0.51665000  0.81739000  1.0
  H  H8  1  0.22585000  0.39603000  0.29838000  1.0
  H  H9  1  0.77415000  0.60397000  0.70162000  1.0
  H  H10  1  0.13392000  0.52538000  0.46890000  1.0
  H  H11  1  0.86608000  0.47462000  0.53110000  1.0
  H  H12  1  0.99818000  0.76351000  0.55751000  1.0
  H  H13  1  0.00182000  0.23649000  0.44249000  1.0
  H  H14  1  0.91211000  0.00223000  0.42076000  1.0
  H  H15  1  0.08789000  0.99777000  0.57924000  1.0
  H  H16  1  0.85059000  0.03455000  0.12828000  1.0
  H  H17  1  0.14941000  0.96544000  0.87172000  1.0
  H  H18  1  0.06622000  0.03238000  0.11369000  1.0
  H  H19  1  0.93378000  0.96762000  0.88631000  1.0
  H  H20  1  0.90454000  0.12985000  0.22377000  1.0
  H  H21  1  0.09546000  0.87015000  0.77623000  1.0
  C  C22  1  0.18844000  0.49389000  0.23261000  1.0
  C  C23  1  0.81157000  0.50611000  0.76739000  1.0
  C  C24  1  0.11286000  0.62968000  0.29172000  1.0
  C  C25  1  0.88714000  0.37032000  0.70828000  1.0
  C  C26  1  0.09100000  0.63104000  0.41330000  1.0
  C  C27  1  0.90900000  0.36896000  0.58670000  1.0
  C  C28  1  0.01754000  0.76353000  0.46205000  1.0
  C  C29  1  0.98246000  0.23647000  0.53795000  1.0
  C  C30  1  0.96981000  0.89596000  0.38674000  1.0
  C  C31  1  0.03019000  0.10404000  0.61326000  1.0
  C  C32  1  0.99373000  0.89605000  0.26501000  1.0
  C  C33  1  0.00627000  0.10395000  0.73499000  1.0
  C  C34  1  0.95058000  0.03147000  0.17856000  1.0
  C  C35  1  0.04942000  0.96853000  0.82144000  1.0
  C  C36  1  0.47496000  0.00569000  0.32820000  1.0
  C  C37  1  0.52504000  0.99431000  0.67180000  1.0
  C  C38  1  0.33806000  0.51067000  0.70026000  1.0
  C  C39  1  0.66194000  0.48933000  0.29975000  1.0
  S  S40  1  0.43859000  0.00833000  0.17426000  1.0
  S  S41  1  0.56141000  0.99167000  0.82574000  1.0
  S  S42  1  0.27981000  0.53784000  0.86002000  1.0
  S  S43  1  0.72019000  0.46216000  0.13998000  1.0
  N  N44  1  0.06209000  0.76282000  0.22122000  1.0
  N  N45  1  0.93791000  0.23718000  0.77878000  1.0
  O  O46  1  0.08598000  0.76283000  0.10357000  1.0
  O  O47  1  0.91402000  0.23717000  0.89643000  1.0
  O  O48  1  0.37874000  0.88288000  0.18541000  1.0
  O  O49  1  0.62126000  0.11712000  0.81459000  1.0
  O  O50  1  0.30992000  0.15474000  0.14894000  1.0
  O  O51  1  0.69008000  0.84526000  0.85106000  1.0
  O  O52  1  0.61164000  0.98879000  0.10399000  1.0
  O  O53  1  0.38836000  0.01121000  0.89601000  1.0
  O  O54  1  0.33234000  0.38674000  0.92412000  1.0
  O  O55  1  0.66766000  0.61326000  0.07588000  1.0
  O  O56  1  0.38643000  0.62329000  0.87122000  1.0
  O  O57  1  0.61357000  0.37671000  0.12878000  1.0
  O  O58  1  0.09241000  0.61419000  0.87172000  1.0
  O  O59  1  0.90759000  0.38581000  0.12828000  1.0
  F  F60  1  0.53561000  0.11506000  0.33391000  1.0
  F  F61  1  0.46439000  0.88494000  0.66609000  1.0
  F  F62  1  0.32313000  0.02598000  0.40301000  1.0
  F  F63  1  0.67687000  0.97402000  0.59699000  1.0
  F  F64  1  0.59125000  0.87420000  0.36587000  1.0
  F  F65  1  0.40875000  0.12581000  0.63414000  1.0
  F  F66  1  0.30366000  0.64423000  0.63176000  1.0
  F  F67  1  0.69634000  0.35577000  0.36824000  1.0
  F  F68  1  0.50809000  0.43197000  0.67333000  1.0
  F  F69  1  0.49191000  0.56803000  0.32667000  1.0
  F  F70  1  0.24229000  0.43788000  0.67260000  1.0
  F  F71  1  0.75771000  0.56212000  0.32740000  1.0
