# generated using pymatgen
data_CdH14C28(NO2)4
_symmetry_space_group_name_H-M   'P 1'
_cell_length_a   8.22409000
_cell_length_b   18.82760000
_cell_length_c   22.57700000
_cell_angle_alpha   90.00040000
_cell_angle_beta   90.00030000
_cell_angle_gamma   94.66190000
_symmetry_Int_Tables_number   1
_chemical_formula_structural   CdH14C28(NO2)4
_chemical_formula_sum   'Cd4 H56 C112 N16 O32'
_cell_volume   3484.25451551
_cell_formula_units_Z   4
loop_
 _symmetry_equiv_pos_site_id
 _symmetry_equiv_pos_as_xyz
  1  'x, y, z'
loop_
 _atom_site_type_symbol
 _atom_site_label
 _atom_site_symmetry_multiplicity
 _atom_site_fract_x
 _atom_site_fract_y
 _atom_site_fract_z
 _atom_site_occupancy
  Cd  Cd0  1  0.69091000  0.01086000  0.44437000  1.0
  Cd  Cd1  1  0.30911000  0.48915000  0.94437000  1.0
  Cd  Cd2  1  0.30911000  0.98915000  0.55563000  1.0
  Cd  Cd3  1  0.69089000  0.51086000  0.05564000  1.0
  H  H4  1  0.03170000  0.16629000  0.45403000  1.0
  H  H5  1  0.96962000  0.25900000  0.37836000  1.0
  H  H6  1  0.50031000  0.14314000  0.37340000  1.0
  H  H7  1  0.41832000  0.51522000  0.15570000  1.0
  H  H8  1  0.29768000  0.43996000  0.23916000  1.0
  H  H9  1  0.55937000  0.26735000  0.17054000  1.0
  H  H10  1  0.66857000  0.34934000  0.09166000  1.0
  H  H11  1  0.14211000  0.02175000  0.30775000  1.0
  H  H12  1  0.31981000  0.06766000  0.22141000  1.0
  H  H13  1  0.78165000  0.16655000  0.26498000  1.0
  H  H14  1  0.34349000  0.32462000  0.95649000  1.0
  H  H15  1  0.27905000  0.22286000  0.02618000  1.0
  H  H16  1  0.03201000  0.36854000  0.13674000  1.0
  H  H17  1  0.10303000  0.46247000  0.06277000  1.0
  H  H18  1  0.96828000  0.33371000  0.95402000  1.0
  H  H19  1  0.03036000  0.24099000  0.87836000  1.0
  H  H20  1  0.49967000  0.35684000  0.87340000  1.0
  H  H21  1  0.58166000  0.98477000  0.65569000  1.0
  H  H22  1  0.70229000  0.06003000  0.73916000  1.0
  H  H23  1  0.44062000  0.23264000  0.67054000  1.0
  H  H24  1  0.33140000  0.15066000  0.59166000  1.0
  H  H25  1  0.85788000  0.47825000  0.80775000  1.0
  H  H26  1  0.68018000  0.43234000  0.72141000  1.0
  H  H27  1  0.21835000  0.33345000  0.76498000  1.0
  H  H28  1  0.65652000  0.17537000  0.45649000  1.0
  H  H29  1  0.72097000  0.27714000  0.52618000  1.0
  H  H30  1  0.96801000  0.13147000  0.63674000  1.0
  H  H31  1  0.89698000  0.03753000  0.56277000  1.0
  H  H32  1  0.96831000  0.83370000  0.54597000  1.0
  H  H33  1  0.03038000  0.74099000  0.62164000  1.0
  H  H34  1  0.49970000  0.85685000  0.62660000  1.0
  H  H35  1  0.58168000  0.48478000  0.84431000  1.0
  H  H36  1  0.70233000  0.56004000  0.76084000  1.0
  H  H37  1  0.44064000  0.73264000  0.82946000  1.0
  H  H38  1  0.33142000  0.65066000  0.90833000  1.0
  H  H39  1  0.85790000  0.97825000  0.69225000  1.0
  H  H40  1  0.68020000  0.93235000  0.77859000  1.0
  H  H41  1  0.21835000  0.83345000  0.73502000  1.0
  H  H42  1  0.65653000  0.67538000  0.04352000  1.0
  H  H43  1  0.72096000  0.77714000  0.97382000  1.0
  H  H44  1  0.96801000  0.63147000  0.86326000  1.0
  H  H45  1  0.89700000  0.53754000  0.93723000  1.0
  H  H46  1  0.03170000  0.66630000  0.04597000  1.0
  H  H47  1  0.96962000  0.75901000  0.12164000  1.0
  H  H48  1  0.50030000  0.64315000  0.12659000  1.0
  H  H49  1  0.41833000  0.01522000  0.34431000  1.0
  H  H50  1  0.29770000  0.93996000  0.26084000  1.0
  H  H51  1  0.55936000  0.76735000  0.32947000  1.0
  H  H52  1  0.66857000  0.84934000  0.40834000  1.0
  H  H53  1  0.14211000  0.52175000  0.19225000  1.0
  H  H54  1  0.31981000  0.56766000  0.27859000  1.0
  H  H55  1  0.78166000  0.66656000  0.23502000  1.0
  H  H56  1  0.34349000  0.82463000  0.54351000  1.0
  H  H57  1  0.27905000  0.72286000  0.47382000  1.0
  H  H58  1  0.03200000  0.86854000  0.36326000  1.0
  H  H59  1  0.10301000  0.96247000  0.43723000  1.0
  C  C60  1  0.29617000  0.09299000  0.46346000  1.0
  C  C61  1  0.26723000  0.14991000  0.41869000  1.0
  C  C62  1  0.12004000  0.18303000  0.41993000  1.0
  C  C63  1  0.08562000  0.23480000  0.37829000  1.0
  C  C64  1  0.20491000  0.25378000  0.33626000  1.0
  C  C65  1  0.35249000  0.22167000  0.33564000  1.0
  C  C66  1  0.38637000  0.16899000  0.37569000  1.0
  C  C67  1  0.45592000  0.25333000  0.28737000  1.0
  C  C68  1  0.20597000  0.30607000  0.28697000  1.0
  C  C69  1  0.44493000  0.45979000  0.16096000  1.0
  C  C70  1  0.37908000  0.41825000  0.20722000  1.0
  C  C71  1  0.41965000  0.34754000  0.21159000  1.0
  C  C72  1  0.52319000  0.32139000  0.16911000  1.0
  C  C73  1  0.58429000  0.36717000  0.12475000  1.0
  C  C74  1  0.86056000  0.06525000  0.34497000  1.0
  C  C75  1  0.95506000  0.09110000  0.29076000  1.0
  C  C76  1  0.10455000  0.06317000  0.27826000  1.0
  C  C77  1  0.20212000  0.08811000  0.23069000  1.0
  C  C78  1  0.14471000  0.14163000  0.19595000  1.0
  C  C79  1  0.99402000  0.16862000  0.20747000  1.0
  C  C80  1  0.89652000  0.14425000  0.25463000  1.0
  C  C81  1  0.22348000  0.18066000  0.14515000  1.0
  C  C82  1  0.96881000  0.22529000  0.16359000  1.0
  C  C83  1  0.27509000  0.33163000  0.99713000  1.0
  C  C84  1  0.23829000  0.27513000  0.03558000  1.0
  C  C85  1  0.15039000  0.28768000  0.08729000  1.0
  C  C86  1  0.10031000  0.35595000  0.09743000  1.0
  C  C87  1  0.14141000  0.40902000  0.05607000  1.0
  C  C88  1  0.70380000  0.40700000  0.96345000  1.0
  C  C89  1  0.73274000  0.35008000  0.91868000  1.0
  C  C90  1  0.87994000  0.31697000  0.91992000  1.0
  C  C91  1  0.91436000  0.26519000  0.87829000  1.0
  C  C92  1  0.79507000  0.24621000  0.83627000  1.0
  C  C93  1  0.64749000  0.27832000  0.83564000  1.0
  C  C94  1  0.61361000  0.33100000  0.87569000  1.0
  C  C95  1  0.54406000  0.24666000  0.78737000  1.0
  C  C96  1  0.79401000  0.19392000  0.78697000  1.0
  C  C97  1  0.55505000  0.04020000  0.66095000  1.0
  C  C98  1  0.62090000  0.08174000  0.70722000  1.0
  C  C99  1  0.58033000  0.15245000  0.71159000  1.0
  C  C100  1  0.47680000  0.17861000  0.66911000  1.0
  C  C101  1  0.41569000  0.13282000  0.62475000  1.0
  C  C102  1  0.13944000  0.43476000  0.84497000  1.0
  C  C103  1  0.04494000  0.40890000  0.79077000  1.0
  C  C104  1  0.89544000  0.43683000  0.77826000  1.0
  C  C105  1  0.79787000  0.41188000  0.73070000  1.0
  C  C106  1  0.85528000  0.35836000  0.69595000  1.0
  C  C107  1  0.00597000  0.33137000  0.70747000  1.0
  C  C108  1  0.10347000  0.35575000  0.75464000  1.0
  C  C109  1  0.77653000  0.31934000  0.64516000  1.0
  C  C110  1  0.03119000  0.27471000  0.66360000  1.0
  C  C111  1  0.72491000  0.16837000  0.49713000  1.0
  C  C112  1  0.76172000  0.22487000  0.53558000  1.0
  C  C113  1  0.84963000  0.21232000  0.58730000  1.0
  C  C114  1  0.89971000  0.14405000  0.59743000  1.0
  C  C115  1  0.85860000  0.09098000  0.55607000  1.0
  C  C116  1  0.70384000  0.90701000  0.53654000  1.0
  C  C117  1  0.73278000  0.85008000  0.58131000  1.0
  C  C118  1  0.87997000  0.81697000  0.58007000  1.0
  C  C119  1  0.91438000  0.76519000  0.62171000  1.0
  C  C120  1  0.79509000  0.74622000  0.66374000  1.0
  C  C121  1  0.64752000  0.77832000  0.66436000  1.0
  C  C122  1  0.61364000  0.83101000  0.62431000  1.0
  C  C123  1  0.54408000  0.74666000  0.71263000  1.0
  C  C124  1  0.79404000  0.69393000  0.71303000  1.0
  C  C125  1  0.55507000  0.54020000  0.83904000  1.0
  C  C126  1  0.62093000  0.58175000  0.79278000  1.0
  C  C127  1  0.58035000  0.65245000  0.78841000  1.0
  C  C128  1  0.47682000  0.67861000  0.83089000  1.0
  C  C129  1  0.41571000  0.63283000  0.87525000  1.0
  C  C130  1  0.13945000  0.93476000  0.65503000  1.0
  C  C131  1  0.04495000  0.90891000  0.70924000  1.0
  C  C132  1  0.89545000  0.93683000  0.72174000  1.0
  C  C133  1  0.79788000  0.91189000  0.76931000  1.0
  C  C134  1  0.85529000  0.85836000  0.80405000  1.0
  C  C135  1  0.00597000  0.83137000  0.79253000  1.0
  C  C136  1  0.10348000  0.85575000  0.74536000  1.0
  C  C137  1  0.77653000  0.81935000  0.85485000  1.0
  C  C138  1  0.03119000  0.77471000  0.83640000  1.0
  C  C139  1  0.72491000  0.66837000  0.00287000  1.0
  C  C140  1  0.76172000  0.72487000  0.96443000  1.0
  C  C141  1  0.84962000  0.71233000  0.91271000  1.0
  C  C142  1  0.89970000  0.64406000  0.90257000  1.0
  C  C143  1  0.85861000  0.59099000  0.94393000  1.0
  C  C144  1  0.29617000  0.59300000  0.03654000  1.0
  C  C145  1  0.26723000  0.64992000  0.08131000  1.0
  C  C146  1  0.12004000  0.68304000  0.08007000  1.0
  C  C147  1  0.08563000  0.73482000  0.12171000  1.0
  C  C148  1  0.20492000  0.75378000  0.16373000  1.0
  C  C149  1  0.35249000  0.72168000  0.16436000  1.0
  C  C150  1  0.38636000  0.66900000  0.12430000  1.0
  C  C151  1  0.45593000  0.75334000  0.21263000  1.0
  C  C152  1  0.20597000  0.80608000  0.21303000  1.0
  C  C153  1  0.44494000  0.95980000  0.33904000  1.0
  C  C154  1  0.37909000  0.91825000  0.29278000  1.0
  C  C155  1  0.41966000  0.84754000  0.28841000  1.0
  C  C156  1  0.52319000  0.82139000  0.33089000  1.0
  C  C157  1  0.58429000  0.86717000  0.37525000  1.0
  C  C158  1  0.86056000  0.56525000  0.15503000  1.0
  C  C159  1  0.95507000  0.59110000  0.20923000  1.0
  C  C160  1  0.10455000  0.56317000  0.22174000  1.0
  C  C161  1  0.20213000  0.58812000  0.26931000  1.0
  C  C162  1  0.14472000  0.64164000  0.30405000  1.0
  C  C163  1  0.99404000  0.66863000  0.29253000  1.0
  C  C164  1  0.89653000  0.64425000  0.24536000  1.0
  C  C165  1  0.22347000  0.68066000  0.35485000  1.0
  C  C166  1  0.96882000  0.72529000  0.33640000  1.0
  C  C167  1  0.27510000  0.83164000  0.50287000  1.0
  C  C168  1  0.23829000  0.77513000  0.46443000  1.0
  C  C169  1  0.15038000  0.78768000  0.41271000  1.0
  C  C170  1  0.10030000  0.85595000  0.40257000  1.0
  C  C171  1  0.14140000  0.90902000  0.44393000  1.0
  N  N172  1  0.54635000  0.43506000  0.12049000  1.0
  N  N173  1  0.36088000  0.30361000  0.25875000  1.0
  N  N174  1  0.11570000  0.23308000  0.12911000  1.0
  N  N175  1  0.22849000  0.39751000  0.00710000  1.0
  N  N176  1  0.45363000  0.06494000  0.62049000  1.0
  N  N177  1  0.63910000  0.19638000  0.75875000  1.0
  N  N178  1  0.88431000  0.26692000  0.62911000  1.0
  N  N179  1  0.77151000  0.10249000  0.50710000  1.0
  N  N180  1  0.45365000  0.56494000  0.87951000  1.0
  N  N181  1  0.63913000  0.69639000  0.74125000  1.0
  N  N182  1  0.88430000  0.76692000  0.87089000  1.0
  N  N183  1  0.77152000  0.60249000  0.99290000  1.0
  N  N184  1  0.54637000  0.93506000  0.37951000  1.0
  N  N185  1  0.36088000  0.80362000  0.24125000  1.0
  N  N186  1  0.11570000  0.73308000  0.37089000  1.0
  N  N187  1  0.22849000  0.89751000  0.49290000  1.0
  O  O188  1  0.41991000  0.05735000  0.45740000  1.0
  O  O189  1  0.19374000  0.08279000  0.50554000  1.0
  O  O190  1  0.09939000  0.34355000  0.27129000  1.0
  O  O191  1  0.59522000  0.24237000  0.27398000  1.0
  O  O192  1  0.73013000  0.09395000  0.35763000  1.0
  O  O193  1  0.91774000  0.01627000  0.37580000  1.0
  O  O194  1  0.85026000  0.25858000  0.15490000  1.0
  O  O195  1  0.35424000  0.17228000  0.12152000  1.0
  O  O196  1  0.58006000  0.44265000  0.95739000  1.0
  O  O197  1  0.80622000  0.41722000  0.00554000  1.0
  O  O198  1  0.90058000  0.15644000  0.77129000  1.0
  O  O199  1  0.40476000  0.25762000  0.77398000  1.0
  O  O200  1  0.26988000  0.40606000  0.85763000  1.0
  O  O201  1  0.08225000  0.48373000  0.87580000  1.0
  O  O202  1  0.14975000  0.24142000  0.65491000  1.0
  O  O203  1  0.64577000  0.32772000  0.62151000  1.0
  O  O204  1  0.58010000  0.94265000  0.54261000  1.0
  O  O205  1  0.80626000  0.91722000  0.49446000  1.0
  O  O206  1  0.90061000  0.65644000  0.72871000  1.0
  O  O207  1  0.40479000  0.75762000  0.72602000  1.0
  O  O208  1  0.26990000  0.90606000  0.64238000  1.0
  O  O209  1  0.08226000  0.98373000  0.62420000  1.0
  O  O210  1  0.14975000  0.74142000  0.84510000  1.0
  O  O211  1  0.64578000  0.82773000  0.87849000  1.0
  O  O212  1  0.41992000  0.55735000  0.04261000  1.0
  O  O213  1  0.19375000  0.58278000  0.99446000  1.0
  O  O214  1  0.09941000  0.84356000  0.22871000  1.0
  O  O215  1  0.59522000  0.74238000  0.22602000  1.0
  O  O216  1  0.73011000  0.59394000  0.14238000  1.0
  O  O217  1  0.91775000  0.51628000  0.12420000  1.0
  O  O218  1  0.85026000  0.75858000  0.34509000  1.0
  O  O219  1  0.35423000  0.67227000  0.37849000  1.0
