# generated using pymatgen
data_AgH4C6N3O8
_symmetry_space_group_name_H-M   'P 1'
_cell_length_a   3.77648000
_cell_length_b   11.93150000
_cell_length_c   11.93160000
_cell_angle_alpha   117.09700000
_cell_angle_beta   92.25090000
_cell_angle_gamma   92.25090000
_symmetry_Int_Tables_number   1
_chemical_formula_structural   AgH4C6N3O8
_chemical_formula_sum   'Ag2 H8 C12 N6 O16'
_cell_volume   477.25725992
_cell_formula_units_Z   2
loop_
 _symmetry_equiv_pos_site_id
 _symmetry_equiv_pos_as_xyz
  1  'x, y, z'
loop_
 _atom_site_type_symbol
 _atom_site_label
 _atom_site_symmetry_multiplicity
 _atom_site_fract_x
 _atom_site_fract_y
 _atom_site_fract_z
 _atom_site_occupancy
  Ag  Ag0  1  0.50000000  0.50000000  0.50000000  1.0
  Ag  Ag1  1  0.00001000  0.00000000  0.00000000  1.0
  H  H2  1  0.56624000  0.77505000  0.85091000  1.0
  H  H3  1  0.43377000  0.14909000  0.22496000  1.0
  H  H4  1  0.43378000  0.22496000  0.14909000  1.0
  H  H5  1  0.56624000  0.85091000  0.77505000  1.0
  H  H6  1  0.76208000  0.38488000  0.91850000  1.0
  H  H7  1  0.23791000  0.08150000  0.61511000  1.0
  H  H8  1  0.23790000  0.61511000  0.08150000  1.0
  H  H9  1  0.76211000  0.91851000  0.38489000  1.0
  C  C10  1  0.99999000  0.36801000  0.63199000  1.0
  C  C11  1  0.00000000  0.63199000  0.36801000  1.0
  C  C12  1  0.86593000  0.41471000  0.75797000  1.0
  C  C13  1  0.13406000  0.24203000  0.58529000  1.0
  C  C14  1  0.13407000  0.58529000  0.24203000  1.0
  C  C15  1  0.86593000  0.75797000  0.41470000  1.0
  C  C16  1  0.86663000  0.34622000  0.82551000  1.0
  C  C17  1  0.13335000  0.17449000  0.65378000  1.0
  C  C18  1  0.13335000  0.65378000  0.17449000  1.0
  C  C19  1  0.86665000  0.82551000  0.34622000  1.0
  C  C20  1  0.99998000  0.22697000  0.77303000  1.0
  C  C21  1  0.00000000  0.77303000  0.22697000  1.0
  N  N22  1  0.72060000  0.53781000  0.82024000  1.0
  N  N23  1  0.27940000  0.17976000  0.46219000  1.0
  N  N24  1  0.27940000  0.46219000  0.17976000  1.0
  N  N25  1  0.72061000  0.82024000  0.53781000  1.0
  N  N26  1  0.99999000  0.15568000  0.84432000  1.0
  N  N27  1  0.00000000  0.84432000  0.15569000  1.0
  O  O28  1  0.00000000  0.43013000  0.56987000  1.0
  O  O29  1  0.00000000  0.56987000  0.43013000  1.0
  O  O30  1  0.33157000  0.24020000  0.40113000  1.0
  O  O31  1  0.66844000  0.59887000  0.75980000  1.0
  O  O32  1  0.66845000  0.75980000  0.59887000  1.0
  O  O33  1  0.33156000  0.40113000  0.24020000  1.0
  O  O34  1  0.64792000  0.57766000  0.93225000  1.0
  O  O35  1  0.35208000  0.06775000  0.42234000  1.0
  O  O36  1  0.35207000  0.42234000  0.06775000  1.0
  O  O37  1  0.64793000  0.93225000  0.57766000  1.0
  O  O38  1  0.84525000  0.19815000  0.94426000  1.0
  O  O39  1  0.15474000  0.05574000  0.80185000  1.0
  O  O40  1  0.15475000  0.80185000  0.05574000  1.0
  O  O41  1  0.84527000  0.94426000  0.19815000  1.0
  O  O42  1  0.54240000  0.86080000  0.86080000  1.0
  O  O43  1  0.45761000  0.13920000  0.13921000  1.0
