# generated using pymatgen
data_Zr3H16C45(Br5O4)4
_symmetry_space_group_name_H-M   'P 1'
_cell_length_a   11.60500000
_cell_length_b   20.55510000
_cell_length_c   34.71061745
_cell_angle_alpha   91.07061117
_cell_angle_beta   99.52762257
_cell_angle_gamma   90.20130000
_symmetry_Int_Tables_number   1
_chemical_formula_structural   Zr3H16C45(Br5O4)4
_chemical_formula_sum   'Zr6 H32 C90 Br40 O32'
_cell_volume   8164.11497546
_cell_formula_units_Z   2
loop_
 _symmetry_equiv_pos_site_id
 _symmetry_equiv_pos_as_xyz
  1  'x, y, z'
loop_
 _atom_site_type_symbol
 _atom_site_label
 _atom_site_symmetry_multiplicity
 _atom_site_fract_x
 _atom_site_fract_y
 _atom_site_fract_z
 _atom_site_occupancy
  Zr  Zr0  1  0.05606000  0.89891000  0.04257000  1.0
  Zr  Zr1  1  0.01449000  0.08993000  0.96238000  1.0
  Zr  Zr2  1  0.91414000  0.04878000  0.04907000  1.0
  Zr  Zr3  1  0.16559000  0.94242000  0.95721000  1.0
  Zr  Zr4  1  0.85322000  0.94190000  0.95991000  1.0
  Zr  Zr5  1  0.22602000  0.04487000  0.04223000  1.0
  H  H6  1  0.00788000  0.83704000  0.96900000  1.0
  H  H7  1  0.77824000  0.06982000  0.96566000  1.0
  H  H8  1  0.25659000  0.06988000  0.96279000  1.0
  H  H9  1  0.11058000  0.99603000  0.10353000  1.0
  H  H10  1  0.65725000  0.91678000  0.99463000  1.0
  H  H11  1  0.96812000  0.08920000  0.12406000  1.0
  H  H12  1  0.25531000  0.10399000  0.11494000  1.0
  H  H13  1  0.82069000  0.87538000  0.89176000  1.0
  H  H14  1  0.12453000  0.82893000  0.91315000  1.0
  H  H15  1  0.38766000  0.95848000  0.93832000  1.0
  H  H16  1  0.39139000  0.99545000  0.99638000  1.0
  H  H17  1  0.76945000  0.99001000  0.89010000  1.0
  H  H18  1  0.86969000  0.18071000  0.92001000  1.0
  H  H19  1  0.23495000  0.83164000  0.09241000  1.0
  H  H20  1  0.33140000  0.98024000  0.10635000  1.0
  H  H21  1  0.00012000  0.87054000  0.90741000  1.0
  H  H22  1  0.93565000  0.14030000  0.89033000  1.0
  H  H23  1  0.68679000  0.08045000  0.03684000  1.0
  H  H24  1  0.69428000  0.99066000  0.00864000  1.0
  H  H25  1  0.44150000  0.00449000  0.04313000  1.0
  H  H26  1  0.11387000  0.11393000  0.09872000  1.0
  H  H27  1  0.14206000  0.85372000  0.11909000  1.0
  H  H28  1  0.31901000  0.49242000  0.99923000  1.0
  H  H29  1  0.74932000  0.49619000  0.02112000  1.0
  H  H30  1  0.65388000  0.94077000  0.27528000  1.0
  H  H31  1  0.87578000  0.98146000  0.38497000  1.0
  H  H32  1  0.02889000  0.94595000  0.28239000  1.0
  H  H33  1  0.24862000  0.06516000  0.71071000  1.0
  H  H34  1  0.01950000  0.05545000  0.60001000  1.0
  H  H35  1  0.87485000  0.05898000  0.70607000  1.0
  H  H36  1  0.24105000  0.02126000  0.49607000  1.0
  H  H37  1  0.65993000  0.01946000  0.48792000  1.0
  C  C38  1  0.83965000  0.80357000  0.00937000  1.0
  C  C39  1  0.22907000  0.80302000  0.00233000  1.0
  C  C40  1  0.90560000  0.93144000  0.11297000  1.0
  C  C41  1  0.86013000  0.19120000  0.00889000  1.0
  C  C42  1  0.22748000  0.18473000  0.00027000  1.0
  C  C43  1  0.12152000  0.04562000  0.88357000  1.0
  C  C44  1  0.47137000  0.55337000  0.00724000  1.0
  C  C45  1  0.59502000  0.55416000  0.01299000  1.0
  C  C46  1  0.65425000  0.49519000  0.01618000  1.0
  C  C47  1  0.59702000  0.43487000  0.01230000  1.0
  C  C48  1  0.47310000  0.43383000  0.00596000  1.0
  C  C49  1  0.41402000  0.49323000  0.00382000  1.0
  C  C50  1  0.84010000  0.94145000  0.27424000  1.0
  C  C51  1  0.74080000  0.94778000  0.29220000  1.0
  C  C52  1  0.75404000  0.96415000  0.33191000  1.0
  C  C53  1  0.86598000  0.97004000  0.35379000  1.0
  C  C54  1  0.96536000  0.96227000  0.33654000  1.0
  C  C55  1  0.95205000  0.94976000  0.29651000  1.0
  C  C56  1  0.06351000  0.06232000  0.71294000  1.0
  C  C57  1  0.16088000  0.06396000  0.69377000  1.0
  C  C58  1  0.14496000  0.06314000  0.65301000  1.0
  C  C59  1  0.03185000  0.05840000  0.63182000  1.0
  C  C60  1  0.93446000  0.05602000  0.65047000  1.0
  C  C61  1  0.95026000  0.05977000  0.69114000  1.0
  C  C62  1  0.36679000  0.00849000  0.45789000  1.0
  C  C63  1  0.48681000  0.00953000  0.45543000  1.0
  C  C64  1  0.56712000  0.01988000  0.48976000  1.0
  C  C65  1  0.53425000  0.02988000  0.52637000  1.0
  C  C66  1  0.41404000  0.03193000  0.52848000  1.0
  C  C67  1  0.33384000  0.02079000  0.49424000  1.0
  C  C68  1  0.74803000  0.10055000  0.61293000  1.0
  C  C69  1  0.82080000  0.04745000  0.62390000  1.0
  C  C70  1  0.79542000  0.98778000  0.60357000  1.0
  C  C71  1  0.70392000  0.98239000  0.57174000  1.0
  C  C72  1  0.62985000  0.03572000  0.56074000  1.0
  C  C73  1  0.65492000  0.09499000  0.58157000  1.0
  C  C74  1  0.24025000  0.11109000  0.60050000  1.0
  C  C75  1  0.23781000  0.06200000  0.62821000  1.0
  C  C76  1  0.30529000  0.00614000  0.62515000  1.0
  C  C77  1  0.36660000  0.99763000  0.59380000  1.0
  C  C78  1  0.36308000  0.04469000  0.56460000  1.0
  C  C79  1  0.29711000  0.10145000  0.56824000  1.0
  C  C80  1  0.14610000  0.02661000  0.36401000  1.0
  C  C81  1  0.07863000  0.96970000  0.36329000  1.0
  C  C82  1  0.10984000  0.92440000  0.39312000  1.0
  C  C83  1  0.20156000  0.93739000  0.42406000  1.0
  C  C84  1  0.27110000  0.99410000  0.42451000  1.0
  C  C85  1  0.24042000  0.03872000  0.39422000  1.0
  C  C86  1  0.65242000  0.04027000  0.37141000  1.0
  C  C87  1  0.65992000  0.97727000  0.35528000  1.0
  C  C88  1  0.59869000  0.92662000  0.36953000  1.0
  C  C89  1  0.53807000  0.93761000  0.40083000  1.0
  C  C90  1  0.53688000  0.99961000  0.41887000  1.0
  C  C91  1  0.59690000  0.05080000  0.40388000  1.0
  C  C92  1  0.31742000  0.63150000  0.97352000  1.0
  C  C93  1  0.40203000  0.61443000  0.00584000  1.0
  C  C94  1  0.41736000  0.65749000  0.03854000  1.0
  C  C95  1  0.36973000  0.72005000  0.03604000  1.0
  C  C96  1  0.28827000  0.73741000  0.00355000  1.0
  C  C97  1  0.25771000  0.69090000  0.97345000  1.0
  C  C98  1  0.71443000  0.26476000  0.03634000  1.0
  C  C99  1  0.79754000  0.25585000  0.01107000  1.0
  C  C100  1  0.81969000  0.30973000  0.98830000  1.0
  C  C101  1  0.75205000  0.36649000  0.98760000  1.0
  C  C102  1  0.67086000  0.37556000  0.01341000  1.0
  C  C103  1  0.66290000  0.32585000  0.04014000  1.0
  C  C104  1  0.32214000  0.35990000  0.02822000  1.0
  C  C105  1  0.40258000  0.37267000  0.00264000  1.0
  C  C106  1  0.41557000  0.32422000  0.97435000  1.0
  C  C107  1  0.36587000  0.26231000  0.97577000  1.0
  C  C108  1  0.28592000  0.25066000  0.00080000  1.0
  C  C109  1  0.26102000  0.30050000  0.02615000  1.0
  C  C110  1  0.73729000  0.64068000  0.04605000  1.0
  C  C111  1  0.66464000  0.61513000  0.01270000  1.0
  C  C112  1  0.66502000  0.64753000  0.97724000  1.0
  C  C113  1  0.72780000  0.70561000  0.97583000  1.0
  C  C114  1  0.78244000  0.73711000  0.01065000  1.0
  C  C115  1  0.78671000  0.70326000  0.04589000  1.0
  C  C116  1  0.03436000  0.00771000  0.81510000  1.0
  C  C117  1  0.10637000  0.05198000  0.83934000  1.0
  C  C118  1  0.16130000  0.10152000  0.82168000  1.0
  C  C119  1  0.14352000  0.10690000  0.78084000  1.0
  C  C120  1  0.07888000  0.05951000  0.75625000  1.0
  C  C121  1  0.02718000  0.00865000  0.77439000  1.0
  C  C122  1  0.90346000  0.87831000  0.21891000  1.0
  C  C123  1  0.83388000  0.92780000  0.23179000  1.0
  C  C124  1  0.76677000  0.96504000  0.20265000  1.0
  C  C125  1  0.77362000  0.95520000  0.16294000  1.0
  C  C126  1  0.86535000  0.91747000  0.15169000  1.0
  C  C127  1  0.92576000  0.87662000  0.18031000  1.0
  Br  Br128  1  0.57073000  0.17009000  0.56372000  1.0
  Br  Br129  1  0.78413000  0.18132000  0.63954000  1.0
  Br  Br130  1  0.68540000  0.90341000  0.54189000  1.0
  Br  Br131  1  0.89004000  0.91493000  0.61979000  1.0
  Br  Br132  1  0.27441000  0.16273000  0.52737000  1.0
  Br  Br133  1  0.16103000  0.19016000  0.60713000  1.0
  Br  Br134  1  0.44115000  0.91749000  0.58732000  1.0
  Br  Br135  1  0.30284000  0.93914000  0.66186000  1.0
  Br  Br136  1  0.31886000  0.11978000  0.39721000  1.0
  Br  Br137  1  0.10152000  0.08942000  0.32504000  1.0
  Br  Br138  1  0.22556000  0.88003000  0.46691000  1.0
  Br  Br139  1  0.02353000  0.84536000  0.39076000  1.0
  Br  Br140  1  0.61472000  0.13307000  0.43013000  1.0
  Br  Br141  1  0.72457000  0.11014000  0.34919000  1.0
  Br  Br142  1  0.47135000  0.86622000  0.42289000  1.0
  Br  Br143  1  0.60965000  0.84169000  0.34819000  1.0
  Br  Br144  1  0.12714000  0.70726000  0.93389000  1.0
  Br  Br145  1  0.27985000  0.57325000  0.93019000  1.0
  Br  Br146  1  0.41999000  0.78231000  0.07675000  1.0
  Br  Br147  1  0.48994000  0.62737000  0.08767000  1.0
  Br  Br148  1  0.58724000  0.34447000  0.08345000  1.0
  Br  Br149  1  0.65746000  0.19648000  0.06443000  1.0
  Br  Br150  1  0.76651000  0.43096000  0.94995000  1.0
  Br  Br151  1  0.94294000  0.30956000  0.95834000  1.0
  Br  Br152  1  0.14833000  0.28310000  0.05834000  1.0
  Br  Br153  1  0.29869000  0.42161000  0.06758000  1.0
  Br  Br154  1  0.40975000  0.19189000  0.94532000  1.0
  Br  Br155  1  0.49122000  0.34443000  0.93170000  1.0
  Br  Br156  1  0.85397000  0.74145000  0.09443000  1.0
  Br  Br157  1  0.77711000  0.58801000  0.09070000  1.0
  Br  Br158  1  0.74820000  0.73758000  0.92666000  1.0
  Br  Br159  1  0.58763000  0.60732000  0.93044000  1.0
  Br  Br160  1  0.95233000  0.93776000  0.74405000  1.0
  Br  Br161  1  0.94162000  0.94924000  0.83839000  1.0
  Br  Br162  1  0.20304000  0.18102000  0.75854000  1.0
  Br  Br163  1  0.25916000  0.16111000  0.85433000  1.0
  Br  Br164  1  0.04351000  0.81721000  0.16970000  1.0
  Br  Br165  1  0.96404000  0.81276000  0.25459000  1.0
  Br  Br166  1  0.65545000  0.99003000  0.12503000  1.0
  Br  Br167  1  0.67141000  0.03347000  0.21699000  1.0
  O  O168  1  0.18775000  0.86835000  0.09932000  1.0
  O  O169  1  0.93796000  0.81201000  0.03138000  1.0
  O  O170  1  0.96188000  0.88896000  0.09677000  1.0
  O  O171  1  0.24025000  0.83936000  0.97435000  1.0
  O  O172  1  0.88569000  0.98882000  0.10123000  1.0
  O  O173  1  0.17220000  0.81449000  0.03005000  1.0
  O  O174  1  0.78765000  0.84520000  0.98631000  1.0
  O  O175  1  0.92085000  0.95629000  0.02285000  1.0
  O  O176  1  0.01900000  0.88175000  0.97851000  1.0
  O  O177  1  0.09877000  0.99226000  0.07529000  1.0
  O  O178  1  0.17980000  0.95156000  0.01762000  1.0
  O  O179  1  0.34474000  0.95230000  0.95970000  1.0
  O  O180  1  0.68086000  0.95817000  0.98506000  1.0
  O  O181  1  0.00411000  0.99224000  0.94755000  1.0
  O  O182  1  0.85177000  0.05126000  0.97806000  1.0
  O  O183  1  0.05331000  0.07783000  0.02109000  1.0
  O  O184  1  0.19607000  0.04868000  0.97444000  1.0
  O  O185  1  0.73258000  0.04091000  0.04141000  1.0
  O  O186  1  0.86196000  0.15337000  0.03713000  1.0
  O  O187  1  0.90528000  0.17864000  0.97865000  1.0
  O  O188  1  0.34773000  0.01223000  0.08777000  1.0
  O  O189  1  0.13824000  0.17526000  0.97404000  1.0
  O  O190  1  0.98902000  0.10338000  0.09960000  1.0
  O  O191  1  0.19928000  0.11567000  0.09213000  1.0
  O  O192  1  0.40116000  0.02698000  0.02021000  1.0
  O  O193  1  0.27459000  0.14533000  0.02558000  1.0
  O  O194  1  0.88452000  0.13709000  0.91010000  1.0
  O  O195  1  0.09386000  0.87278000  0.90845000  1.0
  O  O196  1  0.07629000  0.09078000  0.90193000  1.0
  O  O197  1  0.17501000  0.99653000  0.89829000  1.0
  O  O198  1  0.88294000  0.87303000  0.91412000  1.0
  O  O199  1  0.74351000  0.97920000  0.91443000  1.0
