# generated using pymatgen
data_AlH7(C2O)6
_symmetry_space_group_name_H-M   'P 1'
_cell_length_a   6.59976000
_cell_length_b   11.04290000
_cell_length_c   12.94988486
_cell_angle_alpha   100.31964546
_cell_angle_beta   100.46040615
_cell_angle_gamma   105.90490000
_symmetry_Int_Tables_number   1
_chemical_formula_structural   AlH7(C2O)6
_chemical_formula_sum   'Al2 H14 C24 O12'
_cell_volume   866.04187515
_cell_formula_units_Z   2
loop_
 _symmetry_equiv_pos_site_id
 _symmetry_equiv_pos_as_xyz
  1  'x, y, z'
loop_
 _atom_site_type_symbol
 _atom_site_label
 _atom_site_symmetry_multiplicity
 _atom_site_fract_x
 _atom_site_fract_y
 _atom_site_fract_z
 _atom_site_occupancy
  Al  Al0  1  0.99158000  0.48998000  0.48616000  1.0
  Al  Al1  1  0.49242000  0.49043000  0.48853000  1.0
  H  H2  1  0.34118000  0.65262000  0.56576000  1.0
  H  H3  1  0.64666000  0.39897000  0.35442000  1.0
  H  H4  1  0.48952000  0.25785000  0.64181000  1.0
  H  H5  1  0.72100000  0.16696000  0.75452000  1.0
  H  H6  1  0.21692000  0.79860000  0.65725000  1.0
  H  H7  1  0.58226000  0.93413000  0.76277000  1.0
  H  H8  1  0.13151000  0.43522000  0.79610000  1.0
  H  H9  1  0.60294000  0.58811000  0.81554000  1.0
  H  H10  1  0.66412000  0.59632000  0.01306000  1.0
  H  H11  1  0.86081000  0.54845000  0.17586000  1.0
  H  H12  1  0.38683000  0.39298000  0.15602000  1.0
  H  H13  1  0.32937000  0.38774000  0.95967000  1.0
  H  H14  1  0.54632000  0.77281000  0.43097000  1.0
  H  H15  1  0.77730000  0.19957000  0.43257000  1.0
  C  C16  1  0.82846000  0.50801000  0.67822000  1.0
  C  C17  1  0.85062000  0.72536000  0.50328000  1.0
  C  C18  1  0.15814000  0.47141000  0.29364000  1.0
  C  C19  1  0.15022000  0.26562000  0.49838000  1.0
  C  C20  1  0.07626000  0.13502000  0.51793000  1.0
  C  C21  1  0.21987000  0.08028000  0.57927000  1.0
  C  C22  1  0.85679000  0.06137000  0.47342000  1.0
  C  C23  1  0.43043000  0.15636000  0.64273000  1.0
  C  C24  1  0.56048000  0.10500000  0.70630000  1.0
  C  C25  1  0.92564000  0.86753000  0.52091000  1.0
  C  C26  1  0.78223000  0.92607000  0.47356000  1.0
  C  C27  1  0.14296000  0.94643000  0.58197000  1.0
  C  C28  1  0.27840000  0.89785000  0.65015000  1.0
  C  C29  1  0.48341000  0.97474000  0.71067000  1.0
  C  C30  1  0.02922000  0.46886000  0.84426000  1.0
  C  C31  1  0.73082000  0.55619000  0.85664000  1.0
  C  C32  1  0.76451000  0.55983000  0.96527000  1.0
  C  C33  1  0.92912000  0.51523000  0.01720000  1.0
  C  C34  1  0.96275000  0.51404000  0.12792000  1.0
  C  C35  1  0.26014000  0.42625000  0.11563000  1.0
  C  C36  1  0.22849000  0.42398000  0.00727000  1.0
  C  C37  1  0.06403000  0.46858000  0.95519000  1.0
  C  C38  1  0.86503000  0.51091000  0.79550000  1.0
  C  C39  1  0.12508000  0.47067000  0.17672000  1.0
  O  O40  1  0.96724000  0.48116000  0.62934000  1.0
  O  O41  1  0.64242000  0.66567000  0.47584000  1.0
  O  O42  1  0.33097000  0.45205000  0.33960000  1.0
  O  O43  1  0.00128000  0.31591000  0.46509000  1.0
  O  O44  1  0.01115000  0.49126000  0.33999000  1.0
  O  O45  1  0.35015000  0.32459000  0.50979000  1.0
  O  O46  1  0.66052000  0.53319000  0.63401000  1.0
  O  O47  1  0.98929000  0.66530000  0.51277000  1.0
  O  O48  1  0.29145000  0.55927000  0.53719000  1.0
  O  O49  1  0.69093000  0.42356000  0.43292000  1.0
  O  O50  1  0.57415000  0.86336000  0.42124000  1.0
  O  O51  1  0.70445000  0.10437000  0.42383000  1.0
