# generated using pymatgen
data_CuH4C7N5
_symmetry_space_group_name_H-M   'P 1'
_cell_length_a   28.02370000
_cell_length_b   30.86780000
_cell_length_c   31.69330000
_cell_angle_alpha   87.72440000
_cell_angle_beta   83.86520000
_cell_angle_gamma   86.55700000
_symmetry_Int_Tables_number   1
_chemical_formula_structural   CuH4C7N5
_chemical_formula_sum   'Cu12 H48 C84 N60'
_cell_volume   27194.14078266
_cell_formula_units_Z   12
loop_
 _symmetry_equiv_pos_site_id
 _symmetry_equiv_pos_as_xyz
  1  'x, y, z'
loop_
 _atom_site_type_symbol
 _atom_site_label
 _atom_site_symmetry_multiplicity
 _atom_site_fract_x
 _atom_site_fract_y
 _atom_site_fract_z
 _atom_site_occupancy
  Cu  Cu0  1  0.95099000  0.83798000  0.89474000  1.0
  Cu  Cu1  1  0.87997000  0.87718000  0.82953000  1.0
  Cu  Cu2  1  0.83964000  0.85659000  0.92338000  1.0
  Cu  Cu3  1  0.59147000  0.31029000  0.11347000  1.0
  Cu  Cu4  1  0.62875000  0.39388000  0.15019000  1.0
  Cu  Cu5  1  0.68510000  0.35266000  0.06678000  1.0
  Cu  Cu6  1  0.04363000  0.69170000  0.37622000  1.0
  Cu  Cu7  1  0.09249000  0.59724000  0.36502000  1.0
  Cu  Cu8  1  0.15297000  0.67298000  0.38980000  1.0
  Cu  Cu9  1  0.38691000  0.19007000  0.65009000  1.0
  Cu  Cu10  1  0.38311000  0.08793000  0.66621000  1.0
  Cu  Cu11  1  0.36826000  0.12839000  0.57622000  1.0
  H  H12  1  0.40389000  0.31380000  0.38982000  1.0
  H  H13  1  0.31322000  0.41945000  0.44458000  1.0
  H  H14  1  0.38489000  0.43383000  0.31798000  1.0
  H  H15  1  0.07156000  0.84953000  0.61986000  1.0
  H  H16  1  0.18775000  0.88901000  0.52901000  1.0
  H  H17  1  0.18657000  0.91816000  0.66112000  1.0
  H  H18  1  0.56876000  0.17819000  0.89215000  1.0
  H  H19  1  0.68309000  0.08329000  0.91448000  1.0
  H  H20  1  0.58545000  0.05988000  0.82286000  1.0
  H  H21  1  0.84839000  0.55084000  0.18142000  1.0
  H  H22  1  0.84162000  0.62655000  0.06467000  1.0
  H  H23  1  0.92270000  0.66936000  0.16155000  1.0
  H  H24  1  0.05249000  0.85086000  0.83886000  1.0
  H  H25  1  0.95185000  0.88525000  0.74621000  1.0
  H  H26  1  0.82732000  0.79462000  0.00602000  1.0
  H  H27  1  0.98144000  0.77766000  0.97260000  1.0
  H  H28  1  0.79069000  0.93117000  0.79496000  1.0
  H  H29  1  0.74275000  0.91863000  0.92957000  1.0
  H  H30  1  0.50501000  0.28904000  0.18438000  1.0
  H  H31  1  0.55595000  0.40495000  0.23399000  1.0
  H  H32  1  0.71596000  0.28276000  0.99509000  1.0
  H  H33  1  0.58267000  0.23215000  0.05387000  1.0
  H  H34  1  0.68775000  0.47709000  0.15738000  1.0
  H  H35  1  0.76268000  0.42388000  0.04223000  1.0
  H  H36  1  0.95845000  0.68682000  0.31669000  1.0
  H  H37  1  0.01704000  0.55338000  0.31497000  1.0
  H  H38  1  0.17197000  0.75169000  0.44386000  1.0
  H  H39  1  0.01806000  0.77187000  0.43818000  1.0
  H  H40  1  0.16943000  0.51686000  0.37083000  1.0
  H  H41  1  0.25864000  0.62555000  0.38068000  1.0
  H  H42  1  0.43820000  0.21539000  0.73038000  1.0
  H  H43  1  0.43809000  0.07520000  0.74844000  1.0
  H  H44  1  0.35872000  0.19738000  0.50079000  1.0
  H  H45  1  0.36136000  0.28316000  0.60575000  1.0
  H  H46  1  0.33370000  0.99733000  0.66109000  1.0
  H  H47  1  0.33008000  0.04851000  0.53174000  1.0
  H  H48  1  0.02783000  0.86285000  0.69054000  1.0
  H  H49  1  0.46407000  0.40879000  0.27593000  1.0
  H  H50  1  0.94797000  0.65988000  0.23009000  1.0
  H  H51  1  0.51814000  0.08656000  0.78526000  1.0
  H  H52  1  0.84895000  0.70447000  0.03318000  1.0
  H  H53  1  0.38649000  0.27220000  0.45558000  1.0
  H  H54  1  0.58600000  0.20998000  0.96187000  1.0
  H  H55  1  0.16468000  0.81975000  0.49002000  1.0
  H  H56  1  0.71406000  0.00874000  0.90734000  1.0
  H  H57  1  0.24818000  0.47483000  0.41015000  1.0
  H  H58  1  0.24833000  0.96609000  0.64151000  1.0
  H  H59  1  0.77944000  0.51114000  0.15865000  1.0
  C  C60  1  0.39826000  0.37165000  0.35042000  1.0
  C  C61  1  0.38753000  0.34666000  0.38775000  1.0
  C  C62  1  0.35723000  0.36394000  0.42183000  1.0
  C  C63  1  0.33644000  0.40621000  0.41778000  1.0
  C  C64  1  0.34635000  0.43120000  0.38034000  1.0
  C  C65  1  0.37784000  0.41405000  0.34701000  1.0
  C  C66  1  0.12664000  0.88429000  0.64543000  1.0
  C  C67  1  0.10516000  0.86576000  0.61305000  1.0
  C  C68  1  0.12730000  0.86650000  0.57124000  1.0
  C  C69  1  0.17073000  0.88682000  0.56156000  1.0
  C  C70  1  0.19227000  0.90589000  0.59365000  1.0
  C  C71  1  0.17032000  0.90403000  0.63551000  1.0
  C  C72  1  0.57193000  0.12067000  0.85576000  1.0
  C  C73  1  0.58734000  0.14658000  0.88646000  1.0
  C  C74  1  0.62716000  0.13287000  0.90778000  1.0
  C  C75  1  0.65133000  0.09279000  0.89850000  1.0
  C  C76  1  0.63598000  0.06633000  0.86823000  1.0
  C  C77  1  0.59622000  0.08043000  0.84698000  1.0
  C  C78  1  0.88618000  0.60968000  0.17682000  1.0
  C  C79  1  0.85690000  0.57971000  0.16175000  1.0
  C  C80  1  0.84070000  0.58601000  0.12145000  1.0
  C  C81  1  0.85366000  0.62270000  0.09626000  1.0
  C  C82  1  0.88301000  0.65277000  0.11098000  1.0
  C  C83  1  0.89904000  0.64605000  0.15120000  1.0
  C  C84  1  0.02121000  0.85812000  0.82190000  1.0
  C  C85  1  0.01867000  0.87031000  0.77920000  1.0
  C  C86  1  0.96973000  0.87555000  0.77408000  1.0
  C  C87  1  0.86416000  0.79534000  0.99156000  1.0
  C  C88  1  0.90581000  0.77327000  0.00364000  1.0
  C  C89  1  0.94334000  0.78685000  0.97445000  1.0
  C  C90  1  0.78608000  0.92302000  0.82869000  1.0
  C  C91  1  0.75019000  0.93748000  0.85981000  1.0
  C  C92  1  0.76151000  0.91690000  0.89786000  1.0
  C  C93  1  0.52339000  0.31781000  0.19010000  1.0
  C  C94  1  0.51540000  0.34591000  0.22397000  1.0
  C  C95  1  0.54928000  0.37743000  0.21565000  1.0
  C  C96  1  0.68263000  0.27651000  0.01445000  1.0
  C  C97  1  0.65119000  0.24345000  0.01192000  1.0
  C  C98  1  0.61403000  0.25059000  0.04437000  1.0
  C  C99  1  0.70106000  0.45781000  0.13027000  1.0
  C  C100  1  0.73826000  0.46519000  0.09824000  1.0
  C  C101  1  0.73931000  0.43050000  0.07104000  1.0
  C  C102  1  0.97878000  0.65618000  0.32080000  1.0
  C  C103  1  0.97405000  0.61578000  0.30369000  1.0
  C  C104  1  0.00877000  0.58761000  0.32030000  1.0
  C  C105  1  0.13487000  0.75143000  0.43704000  1.0
  C  C106  1  0.09402000  0.77573000  0.45376000  1.0
  C  C107  1  0.05582000  0.76142000  0.43400000  1.0
  C  C108  1  0.18392000  0.54825000  0.37402000  1.0
  C  C109  1  0.23141000  0.55907000  0.37567000  1.0
  C  C110  1  0.22971000  0.60417000  0.37875000  1.0
  C  C111  1  0.43358000  0.18092000  0.72850000  1.0
  C  C112  1  0.45009000  0.14625000  0.75381000  1.0
  C  C113  1  0.43383000  0.10891000  0.73783000  1.0
  C  C114  1  0.36122000  0.21207000  0.53094000  1.0
  C  C115  1  0.35661000  0.25567000  0.54178000  1.0
  C  C116  1  0.36229000  0.25590000  0.58508000  1.0
  C  C117  1  0.33673000  0.01624000  0.63143000  1.0
  C  C118  1  0.32132000  0.00782000  0.59218000  1.0
  C  C119  1  0.33534000  0.04250000  0.56491000  1.0
  C  C120  1  0.10440000  0.88299000  0.68931000  1.0
  C  C121  1  0.05840000  0.87256000  0.70533000  1.0
  C  C122  1  0.43047000  0.35352000  0.31534000  1.0
  C  C123  1  0.45864000  0.37478000  0.28332000  1.0
  C  C124  1  0.90510000  0.60242000  0.21794000  1.0
  C  C125  1  0.93334000  0.62861000  0.23829000  1.0
  C  C126  1  0.53250000  0.13699000  0.83170000  1.0
  C  C127  1  0.51172000  0.11774000  0.79993000  1.0
  C  C128  1  0.89854000  0.69038000  0.08467000  1.0
  C  C129  1  0.87945000  0.71056000  0.04992000  1.0
  C  C130  1  0.34883000  0.33913000  0.46195000  1.0
  C  C131  1  0.36490000  0.29724000  0.47293000  1.0
  C  C132  1  0.64504000  0.16063000  0.93826000  1.0
  C  C133  1  0.62205000  0.19499000  0.96056000  1.0
  C  C134  1  0.10553000  0.84438000  0.53877000  1.0
  C  C135  1  0.12749000  0.82359000  0.50327000  1.0
  C  C136  1  0.66259000  0.02527000  0.85777000  1.0
  C  C137  1  0.69787000  0.00284000  0.87874000  1.0
  C  C138  1  0.32274000  0.47429000  0.37467000  1.0
  C  C139  1  0.27686000  0.48944000  0.38989000  1.0
  C  C140  1  0.23562000  0.92985000  0.58334000  1.0
  C  C141  1  0.25692000  0.95674000  0.60891000  1.0
  C  C142  1  0.81207000  0.55387000  0.10463000  1.0
  C  C143  1  0.78602000  0.52119000  0.12553000  1.0
  N  N144  1  0.94434000  0.86684000  0.81177000  1.0
  N  N145  1  0.97602000  0.85626000  0.84120000  1.0
  N  N146  1  0.92492000  0.81538000  0.94628000  1.0
  N  N147  1  0.87613000  0.82053000  0.95673000  1.0
  N  N148  1  0.80232000  0.89176000  0.88990000  1.0
  N  N149  1  0.81736000  0.89546000  0.84729000  1.0
  N  N150  1  0.57606000  0.36859000  0.17870000  1.0
  N  N151  1  0.56020000  0.33186000  0.16308000  1.0
  N  N152  1  0.62270000  0.28618000  0.06505000  1.0
  N  N153  1  0.66501000  0.30210000  0.04670000  1.0
  N  N154  1  0.70452000  0.40383000  0.08615000  1.0
  N  N155  1  0.68107000  0.42057000  0.12269000  1.0
  N  N156  1  0.03319000  0.61009000  0.34574000  1.0
  N  N157  1  0.01485000  0.65239000  0.34598000  1.0
  N  N158  1  0.07303000  0.72996000  0.40713000  1.0
  N  N159  1  0.12170000  0.72387000  0.40889000  1.0
  N  N160  1  0.18358000  0.61942000  0.37890000  1.0
  N  N161  1  0.15531000  0.58500000  0.37619000  1.0
  N  N162  1  0.40921000  0.12064000  0.70443000  1.0
  N  N163  1  0.40894000  0.16496000  0.69879000  1.0
  N  N164  1  0.36993000  0.21452000  0.59926000  1.0
  N  N165  1  0.36944000  0.18755000  0.56591000  1.0
  N  N166  1  0.35771000  0.07034000  0.58686000  1.0
  N  N167  1  0.35844000  0.05429000  0.62782000  1.0
  N  N168  1  0.10045000  0.88874000  0.75845000  1.0
  N  N169  1  0.12854000  0.89259000  0.72304000  1.0
  N  N170  1  0.05718000  0.87640000  0.74803000  1.0
  N  N171  1  0.46793000  0.30269000  0.27571000  1.0
  N  N172  1  0.43749000  0.30965000  0.30924000  1.0
  N  N173  1  0.48127000  0.34250000  0.25942000  1.0
  N  N174  1  0.92199000  0.56644000  0.27618000  1.0
  N  N175  1  0.89918000  0.56498000  0.24245000  1.0
  N  N176  1  0.94314000  0.60549000  0.27404000  1.0
  N  N177  1  0.47895000  0.18519000  0.80964000  1.0
  N  N178  1  0.51116000  0.17808000  0.83637000  1.0
  N  N179  1  0.47891000  0.14833000  0.78702000  1.0
  N  N180  1  0.94520000  0.74345000  0.06345000  1.0
  N  N181  1  0.93855000  0.71177000  0.09158000  1.0
  N  N182  1  0.90904000  0.74315000  0.03762000  1.0
  N  N183  1  0.32358000  0.32849000  0.52941000  1.0
  N  N184  1  0.32378000  0.35666000  0.49756000  1.0
  N  N185  1  0.34885000  0.29179000  0.51473000  1.0
  N  N186  1  0.69855000  0.18546000  0.97558000  1.0
  N  N187  1  0.69155000  0.15618000  0.94863000  1.0
  N  N188  1  0.65603000  0.20963000  0.98322000  1.0
  N  N189  1  0.04814000  0.81478000  0.50994000  1.0
  N  N190  1  0.05710000  0.83817000  0.54131000  1.0
  N  N191  1  0.09114000  0.80545000  0.48629000  1.0
  N  N192  1  0.68732000  0.96894000  0.81937000  1.0
  N  N193  1  0.65742000  0.00311000  0.82188000  1.0
  N  N194  1  0.71242000  0.96836000  0.85422000  1.0
  N  N195  1  0.31366000  0.54087000  0.34861000  1.0
  N  N196  1  0.34368000  0.50690000  0.34972000  1.0
  N  N197  1  0.27232000  0.53053000  0.37314000  1.0
  N  N198  1  0.29491000  0.95864000  0.54293000  1.0
  N  N199  1  0.26026000  0.93205000  0.54345000  1.0
  N  N200  1  0.29323000  0.97408000  0.58302000  1.0
  N  N201  1  0.78194000  0.51917000  0.05530000  1.0
  N  N202  1  0.80834000  0.55117000  0.06188000  1.0
  N  N203  1  0.76795000  0.50038000  0.09422000  1.0
