# generated using pymatgen
data_CdH10C11(N2Cl)2
_symmetry_space_group_name_H-M   'P 1'
_cell_length_a   8.71771000
_cell_length_b   9.43493000
_cell_length_c   11.06500000
_cell_angle_alpha   74.65830000
_cell_angle_beta   86.65210000
_cell_angle_gamma   70.84860000
_symmetry_Int_Tables_number   1
_chemical_formula_structural   CdH10C11(N2Cl)2
_chemical_formula_sum   'Cd2 H20 C22 N8 Cl4'
_cell_volume   828.69763768
_cell_formula_units_Z   2
loop_
 _symmetry_equiv_pos_site_id
 _symmetry_equiv_pos_as_xyz
  1  'x, y, z'
loop_
 _atom_site_type_symbol
 _atom_site_label
 _atom_site_symmetry_multiplicity
 _atom_site_fract_x
 _atom_site_fract_y
 _atom_site_fract_z
 _atom_site_occupancy
  Cd  Cd0  1  0.36502000  0.99889000  0.36515000  1.0
  Cd  Cd1  1  0.63499000  0.00110000  0.63485000  1.0
  H  H2  1  0.72321000  0.56723000  0.49297000  1.0
  H  H3  1  0.27679000  0.43276000  0.50704000  1.0
  H  H4  1  0.01532000  0.25432000  0.45385000  1.0
  H  H5  1  0.98469000  0.74566000  0.54616000  1.0
  H  H6  1  0.04573000  0.95392000  0.22463000  1.0
  H  H7  1  0.95428000  0.04609000  0.77536000  1.0
  H  H8  1  0.71945000  0.12287000  0.24139000  1.0
  H  H9  1  0.28056000  0.87714000  0.75861000  1.0
  H  H10  1  0.66608000  0.45382000  0.31809000  1.0
  H  H11  1  0.33392000  0.54618000  0.68192000  1.0
  H  H12  1  0.57551000  0.30531000  0.36746000  1.0
  H  H13  1  0.42450000  0.69467000  0.63255000  1.0
  H  H14  1  0.60527000  0.13327000  0.87777000  1.0
  H  H15  1  0.39472000  0.86674000  0.12224000  1.0
  H  H16  1  0.63404000  0.27784000  0.02807000  1.0
  H  H17  1  0.36593000  0.72218000  0.97192000  1.0
  H  H18  1  0.70859000  0.51951000  0.95664000  1.0
  H  H19  1  0.29137000  0.48052000  0.04335000  1.0
  H  H20  1  0.75377000  0.62572000  0.73265000  1.0
  H  H21  1  0.24622000  0.37430000  0.26735000  1.0
  C  C22  1  0.98140000  0.19666000  0.39212000  1.0
  C  C23  1  0.01861000  0.80332000  0.60789000  1.0
  C  C24  1  0.99106000  0.04241000  0.27415000  1.0
  C  C25  1  0.00895000  0.95759000  0.72585000  1.0
  C  C26  1  0.82999000  0.12556000  0.28024000  1.0
  C  C27  1  0.17002000  0.87445000  0.71975000  1.0
  C  C28  1  0.68004000  0.33949000  0.38329000  1.0
  C  C29  1  0.31998000  0.66049000  0.61672000  1.0
  C  C30  1  0.68248000  0.34890000  0.51572000  1.0
  C  C31  1  0.31753000  0.65109000  0.48429000  1.0
  C  C32  1  0.66666667  0.29784000  0.71962000  1.0
  C  C33  1  0.33333333  0.70216000  0.28038000  1.0
  C  C34  1  0.64040000  0.23788000  0.84626000  1.0
  C  C35  1  0.35960000  0.76213000  0.15374000  1.0
  C  C36  1  0.65717000  0.32010000  0.92945000  1.0
  C  C37  1  0.34281000  0.67991000  0.07055000  1.0
  C  C38  1  0.69923000  0.45702000  0.88893000  1.0
  C  C39  1  0.30074000  0.54300000  0.11106000  1.0
  C  C40  1  0.72569000  0.51781000  0.76341000  1.0
  C  C41  1  0.27428000  0.48221000  0.23659000  1.0
  C  C42  1  0.70765000  0.43615000  0.67976000  1.0
  C  C43  1  0.29236000  0.56384000  0.32024000  1.0
  N  N44  1  0.08370000  0.08743000  0.34444000  1.0
  N  N45  1  0.91631000  0.91256000  0.65556000  1.0
  N  N46  1  0.82623000  0.22298000  0.35515000  1.0
  N  N47  1  0.17378000  0.77701000  0.64486000  1.0
  N  N48  1  0.65396000  0.24625000  0.61492000  1.0
  N  N49  1  0.34605000  0.75373000  0.38509000  1.0
  N  N50  1  0.71686000  0.46443000  0.55029000  1.0
  N  N51  1  0.28314000  0.53555000  0.44972000  1.0
  Cl  Cl52  1  0.33691000  0.16545000  0.52493000  1.0
  Cl  Cl53  1  0.66310000  0.83455000  0.47507000  1.0
  Cl  Cl54  1  0.45070000  0.11882000  0.16057000  1.0
  Cl  Cl55  1  0.54931000  0.88118000  0.83943000  1.0
