# generated using pymatgen
data_ZnH6C2SeN
_symmetry_space_group_name_H-M   'P 1'
_cell_length_a   6.43179000
_cell_length_b   6.55828000
_cell_length_c   22.05170000
_cell_angle_alpha   89.99980000
_cell_angle_beta   89.99960000
_cell_angle_gamma   89.99970000
_symmetry_Int_Tables_number   1
_chemical_formula_structural   ZnH6C2SeN
_chemical_formula_sum   'Zn8 H48 C16 Se8 N8'
_cell_volume   930.17333633
_cell_formula_units_Z   8
loop_
 _symmetry_equiv_pos_site_id
 _symmetry_equiv_pos_as_xyz
  1  'x, y, z'
loop_
 _atom_site_type_symbol
 _atom_site_label
 _atom_site_symmetry_multiplicity
 _atom_site_fract_x
 _atom_site_fract_y
 _atom_site_fract_z
 _atom_site_occupancy
  Zn  Zn0  1  0.23043000  0.59164000  0.71240000  1.0
  Zn  Zn1  1  0.73043000  0.90836000  0.71240000  1.0
  Zn  Zn2  1  0.26957000  0.59164000  0.21240000  1.0
  Zn  Zn3  1  0.23043000  0.09164000  0.78760000  1.0
  Zn  Zn4  1  0.76958000  0.40835000  0.28760000  1.0
  Zn  Zn5  1  0.26958000  0.09165000  0.28760000  1.0
  Zn  Zn6  1  0.73043000  0.40836000  0.78760000  1.0
  Zn  Zn7  1  0.76957000  0.90836000  0.21240000  1.0
  H  H8  1  0.92818000  0.45520000  0.65072000  1.0
  H  H9  1  0.42817000  0.04481000  0.65072000  1.0
  H  H10  1  0.57183000  0.45520000  0.15072000  1.0
  H  H11  1  0.92817000  0.95520000  0.84928000  1.0
  H  H12  1  0.07184000  0.54479000  0.34928000  1.0
  H  H13  1  0.57183000  0.95520000  0.34928000  1.0
  H  H14  1  0.42817000  0.54480000  0.84929000  1.0
  H  H15  1  0.07183000  0.04478000  0.15071000  1.0
  H  H16  1  0.11367000  0.28359000  0.64250000  1.0
  H  H17  1  0.61368000  0.21642000  0.64250000  1.0
  H  H18  1  0.38634000  0.28359000  0.14250000  1.0
  H  H19  1  0.11367000  0.78358000  0.85750000  1.0
  H  H20  1  0.88634000  0.71640000  0.35750000  1.0
  H  H21  1  0.38633000  0.78360000  0.35750000  1.0
  H  H22  1  0.61367000  0.71641000  0.85750000  1.0
  H  H23  1  0.88634000  0.21641000  0.14250000  1.0
  H  H24  1  0.28930000  0.49129000  0.56849000  1.0
  H  H25  1  0.78929000  0.00872000  0.56849000  1.0
  H  H26  1  0.21070000  0.49128000  0.06849000  1.0
  H  H27  1  0.28929000  0.99127000  0.93151000  1.0
  H  H28  1  0.71072000  0.50871000  0.43151000  1.0
  H  H29  1  0.21071000  0.99131000  0.43151000  1.0
  H  H30  1  0.78930000  0.50871000  0.93151000  1.0
  H  H31  1  0.71069000  0.00872000  0.06849000  1.0
  H  H32  1  0.11290000  0.69089000  0.58415000  1.0
  H  H33  1  0.61289000  0.80912000  0.58415000  1.0
  H  H34  1  0.38711000  0.69088000  0.08415000  1.0
  H  H35  1  0.11290000  0.19088000  0.91585000  1.0
  H  H36  1  0.88712000  0.30911000  0.41585000  1.0
  H  H37  1  0.38713000  0.19091000  0.41585000  1.0
  H  H38  1  0.61289000  0.30911000  0.91585000  1.0
  H  H39  1  0.88709000  0.80911000  0.08415000  1.0
  H  H40  1  0.81825000  0.47589000  0.54492000  1.0
  H  H41  1  0.31824000  0.02414000  0.54492000  1.0
  H  H42  1  0.68175000  0.47585000  0.04492000  1.0
  H  H43  1  0.81824000  0.97587000  0.95508000  1.0
  H  H44  1  0.18177000  0.52413000  0.45508000  1.0
  H  H45  1  0.68176000  0.97587000  0.45508000  1.0
  H  H46  1  0.31824000  0.52412000  0.95508000  1.0
  H  H47  1  0.18174000  0.02412000  0.04491000  1.0
  H  H48  1  0.99653000  0.28141000  0.52528000  1.0
  H  H49  1  0.49653000  0.21861000  0.52528000  1.0
  H  H50  1  0.50345000  0.28139000  0.02528000  1.0
  H  H51  1  0.99652000  0.78139000  0.97472000  1.0
  H  H52  1  0.00347000  0.71860000  0.47472000  1.0
  H  H53  1  0.50345000  0.78142000  0.47472000  1.0
  H  H54  1  0.49653000  0.71859000  0.97472000  1.0
  H  H55  1  0.00346000  0.21859000  0.02528000  1.0
  C  C56  1  0.12609000  0.52395000  0.58004000  1.0
  C  C57  1  0.62608000  0.97606000  0.58004000  1.0
  C  C58  1  0.37391000  0.52394000  0.08004000  1.0
  C  C59  1  0.12608000  0.02394000  0.91996000  1.0
  C  C60  1  0.87393000  0.47604000  0.41996000  1.0
  C  C61  1  0.37393000  0.02397000  0.41996000  1.0
  C  C62  1  0.62609000  0.47605000  0.91996000  1.0
  C  C63  1  0.87390000  0.97605000  0.08004000  1.0
  C  C64  1  0.98011000  0.44797000  0.53043000  1.0
  C  C65  1  0.48010000  0.05205000  0.53043000  1.0
  C  C66  1  0.51989000  0.44795000  0.03043000  1.0
  C  C67  1  0.98009000  0.94795000  0.96957000  1.0
  C  C68  1  0.01991000  0.55204000  0.46957000  1.0
  C  C69  1  0.51990000  0.94798000  0.46957000  1.0
  C  C70  1  0.48010000  0.55203000  0.96957000  1.0
  C  C71  1  0.01988000  0.05203000  0.03043000  1.0
  Se  Se72  1  0.10432000  0.94127000  0.69342000  1.0
  Se  Se73  1  0.60432000  0.55873000  0.69342000  1.0
  Se  Se74  1  0.39568000  0.94127000  0.19342000  1.0
  Se  Se75  1  0.10432000  0.44127000  0.80658000  1.0
  Se  Se76  1  0.89568000  0.05873000  0.30658000  1.0
  Se  Se77  1  0.39569000  0.44127000  0.30658000  1.0
  Se  Se78  1  0.60432000  0.05873000  0.80658000  1.0
  Se  Se79  1  0.89568000  0.55873000  0.19342000  1.0
  N  N80  1  0.08406000  0.43793000  0.64038000  1.0
  N  N81  1  0.58406000  0.06207000  0.64038000  1.0
  N  N82  1  0.41594000  0.43793000  0.14038000  1.0
  N  N83  1  0.08406000  0.93793000  0.85962000  1.0
  N  N84  1  0.91594000  0.56206000  0.35962000  1.0
  N  N85  1  0.41594000  0.93794000  0.35962000  1.0
  N  N86  1  0.58406000  0.56207000  0.85962000  1.0
  N  N87  1  0.91594000  0.06206000  0.14038000  1.0
