# generated using pymatgen
data_ZnH2C2O5
_symmetry_space_group_name_H-M   'P 1'
_cell_length_a   6.17208000
_cell_length_b   8.87561000
_cell_length_c   15.41000000
_cell_angle_alpha   90.00080000
_cell_angle_beta   89.99980000
_cell_angle_gamma   89.99950000
_symmetry_Int_Tables_number   1
_chemical_formula_structural   ZnH2C2O5
_chemical_formula_sum   'Zn8 H16 C16 O40'
_cell_volume   844.17482415
_cell_formula_units_Z   8
loop_
 _symmetry_equiv_pos_site_id
 _symmetry_equiv_pos_as_xyz
  1  'x, y, z'
loop_
 _atom_site_type_symbol
 _atom_site_label
 _atom_site_symmetry_multiplicity
 _atom_site_fract_x
 _atom_site_fract_y
 _atom_site_fract_z
 _atom_site_occupancy
  Zn  Zn0  1  0.52474000  0.55134000  0.33633000  1.0
  Zn  Zn1  1  0.97526000  0.44867000  0.83634000  1.0
  Zn  Zn2  1  0.47527000  0.05134000  0.16367000  1.0
  Zn  Zn3  1  0.02473000  0.94866000  0.66366000  1.0
  Zn  Zn4  1  0.47526000  0.44866000  0.66366000  1.0
  Zn  Zn5  1  0.02474000  0.55133000  0.16366000  1.0
  Zn  Zn6  1  0.52473000  0.94867000  0.83634000  1.0
  Zn  Zn7  1  0.97527000  0.05134000  0.33634000  1.0
  H  H8  1  0.86118000  0.41241000  0.40916000  1.0
  H  H9  1  0.63881000  0.58760000  0.90916000  1.0
  H  H10  1  0.13883000  0.91239000  0.09084000  1.0
  H  H11  1  0.36118000  0.08759000  0.59085000  1.0
  H  H12  1  0.13881000  0.58759000  0.59084000  1.0
  H  H13  1  0.36119000  0.41240000  0.09084000  1.0
  H  H14  1  0.86118000  0.08760000  0.90916000  1.0
  H  H15  1  0.63881000  0.91240000  0.40916000  1.0
  H  H16  1  0.76691000  0.53626000  0.47375000  1.0
  H  H17  1  0.73308000  0.46374000  0.97375000  1.0
  H  H18  1  0.23309000  0.03626000  0.02625000  1.0
  H  H19  1  0.26691000  0.96373000  0.52625000  1.0
  H  H20  1  0.23308000  0.46375000  0.52625000  1.0
  H  H21  1  0.26692000  0.53626000  0.02625000  1.0
  H  H22  1  0.76692000  0.96374000  0.97375000  1.0
  H  H23  1  0.73308000  0.03626000  0.47375000  1.0
  C  C24  1  0.34862000  0.25849000  0.30501000  1.0
  C  C25  1  0.15138000  0.74152000  0.80501000  1.0
  C  C26  1  0.65140000  0.75848000  0.19499000  1.0
  C  C27  1  0.84862000  0.24152000  0.69500000  1.0
  C  C28  1  0.65138000  0.74151000  0.69499000  1.0
  C  C29  1  0.84862000  0.25848000  0.19499000  1.0
  C  C30  1  0.34861000  0.24152000  0.80500000  1.0
  C  C31  1  0.15139000  0.75848000  0.30501000  1.0
  C  C32  1  0.22238000  0.31049000  0.38622000  1.0
  C  C33  1  0.27762000  0.68953000  0.88622000  1.0
  C  C34  1  0.77765000  0.81048000  0.11377000  1.0
  C  C35  1  0.72236000  0.18952000  0.61378000  1.0
  C  C36  1  0.77763000  0.68952000  0.61378000  1.0
  C  C37  1  0.72237000  0.31048000  0.11378000  1.0
  C  C38  1  0.22236000  0.18952000  0.88622000  1.0
  C  C39  1  0.27764000  0.81048000  0.38622000  1.0
  O  O40  1  0.48642000  0.34926000  0.27484000  1.0
  O  O41  1  0.01358000  0.65075000  0.77485000  1.0
  O  O42  1  0.51359000  0.84925000  0.22515000  1.0
  O  O43  1  0.98641000  0.15075000  0.72516000  1.0
  O  O44  1  0.51358000  0.65074000  0.72516000  1.0
  O  O45  1  0.98642000  0.34925000  0.22515000  1.0
  O  O46  1  0.48640000  0.15075000  0.77484000  1.0
  O  O47  1  0.01360000  0.84926000  0.27485000  1.0
  O  O48  1  0.29871000  0.42360000  0.42528000  1.0
  O  O49  1  0.20128000  0.57642000  0.92528000  1.0
  O  O50  1  0.70131000  0.92358000  0.07472000  1.0
  O  O51  1  0.79871000  0.07641000  0.57472000  1.0
  O  O52  1  0.70128000  0.57641000  0.57472000  1.0
  O  O53  1  0.79872000  0.42358000  0.07472000  1.0
  O  O54  1  0.29871000  0.07642000  0.92528000  1.0
  O  O55  1  0.20129000  0.92359000  0.42528000  1.0
  O  O56  1  0.30497000  0.12913000  0.27395000  1.0
  O  O57  1  0.19501000  0.87088000  0.77395000  1.0
  O  O58  1  0.69504000  0.62913000  0.22605000  1.0
  O  O59  1  0.80497000  0.37086000  0.72606000  1.0
  O  O60  1  0.69502000  0.87086000  0.72606000  1.0
  O  O61  1  0.80497000  0.12912000  0.22606000  1.0
  O  O62  1  0.30498000  0.37086000  0.77394000  1.0
  O  O63  1  0.19504000  0.62913000  0.27394000  1.0
  O  O64  1  0.04927000  0.24146000  0.40700000  1.0
  O  O65  1  0.45071000  0.75855000  0.90700000  1.0
  O  O66  1  0.95072000  0.74145000  0.09300000  1.0
  O  O67  1  0.54929000  0.25855000  0.59300000  1.0
  O  O68  1  0.95071000  0.75854000  0.59300000  1.0
  O  O69  1  0.54929000  0.24145000  0.09300000  1.0
  O  O70  1  0.04929000  0.25856000  0.90700000  1.0
  O  O71  1  0.45072000  0.74146000  0.40700000  1.0
  O  O72  1  0.79354000  0.51285000  0.41088000  1.0
  O  O73  1  0.70645000  0.48715000  0.91088000  1.0
  O  O74  1  0.20647000  0.01285000  0.08913000  1.0
  O  O75  1  0.29353000  0.98714000  0.58913000  1.0
  O  O76  1  0.20645000  0.48715000  0.58912000  1.0
  O  O77  1  0.29354000  0.51284000  0.08912000  1.0
  O  O78  1  0.79354000  0.98715000  0.91088000  1.0
  O  O79  1  0.70647000  0.01285000  0.41088000  1.0
