# generated using pymatgen
data_CaH4C5N2O5
_symmetry_space_group_name_H-M   'P 1'
_cell_length_a   6.63081000
_cell_length_b   8.78440000
_cell_length_c   12.71960000
_cell_angle_alpha   89.99970000
_cell_angle_beta   89.99960000
_cell_angle_gamma   105.46600000
_symmetry_Int_Tables_number   1
_chemical_formula_structural   CaH4C5N2O5
_chemical_formula_sum   'Ca4 H16 C20 N8 O20'
_cell_volume   714.05891542
_cell_formula_units_Z   4
loop_
 _symmetry_equiv_pos_site_id
 _symmetry_equiv_pos_as_xyz
  1  'x, y, z'
loop_
 _atom_site_type_symbol
 _atom_site_label
 _atom_site_symmetry_multiplicity
 _atom_site_fract_x
 _atom_site_fract_y
 _atom_site_fract_z
 _atom_site_occupancy
  Ca  Ca0  1  0.73993000  0.89363000  0.33061000  1.0
  Ca  Ca1  1  0.73993000  0.39363000  0.16939000  1.0
  Ca  Ca2  1  0.26007000  0.10637000  0.66939000  1.0
  Ca  Ca3  1  0.26007000  0.60637000  0.83062000  1.0
  H  H4  1  0.73579000  0.20921000  0.42130000  1.0
  H  H5  1  0.73578000  0.70920000  0.07870000  1.0
  H  H6  1  0.26422000  0.79079000  0.57870000  1.0
  H  H7  1  0.26422000  0.29079000  0.92130000  1.0
  H  H8  1  0.71168000  0.10650000  0.52468000  1.0
  H  H9  1  0.71169000  0.60649000  0.97532000  1.0
  H  H10  1  0.28832000  0.89351000  0.47532000  1.0
  H  H11  1  0.28831000  0.39350000  0.02468000  1.0
  H  H12  1  0.77101000  0.86950000  0.63091000  1.0
  H  H13  1  0.77101000  0.36950000  0.86908000  1.0
  H  H14  1  0.22898000  0.13050000  0.36909000  1.0
  H  H15  1  0.22899000  0.63050000  0.13092000  1.0
  H  H16  1  0.77521000  0.39215000  0.59306000  1.0
  H  H17  1  0.77519000  0.89215000  0.90694000  1.0
  H  H18  1  0.22479000  0.60785000  0.40694000  1.0
  H  H19  1  0.22479000  0.10785000  0.09306000  1.0
  C  C20  1  0.74565000  0.52376000  0.37356000  1.0
  C  C21  1  0.74565000  0.02376000  0.12643000  1.0
  C  C22  1  0.25436000  0.47624000  0.62644000  1.0
  C  C23  1  0.25435000  0.97624000  0.87357000  1.0
  C  C24  1  0.75568000  0.58586000  0.48164000  1.0
  C  C25  1  0.75567000  0.08586000  0.01835000  1.0
  C  C26  1  0.24433000  0.41414000  0.51836000  1.0
  C  C27  1  0.24432000  0.91414000  0.98165000  1.0
  C  C28  1  0.76989000  0.51233000  0.57836000  1.0
  C  C29  1  0.76988000  0.01233000  0.92164000  1.0
  C  C30  1  0.23011000  0.48767000  0.42164000  1.0
  C  C31  1  0.23011000  0.98767000  0.07836000  1.0
  C  C32  1  0.76516000  0.62637000  0.65347000  1.0
  C  C33  1  0.76514000  0.12636000  0.84652000  1.0
  C  C34  1  0.23484000  0.37363000  0.34653000  1.0
  C  C35  1  0.23485000  0.87364000  0.15348000  1.0
  C  C36  1  0.76253000  0.61336000  0.77012000  1.0
  C  C37  1  0.76253000  0.11336000  0.72988000  1.0
  C  C38  1  0.23747000  0.38663000  0.22989000  1.0
  C  C39  1  0.23746000  0.88664000  0.27012000  1.0
  N  N40  1  0.74730000  0.73666000  0.49619000  1.0
  N  N41  1  0.74730000  0.23665000  0.00381000  1.0
  N  N42  1  0.25270000  0.26334000  0.50381000  1.0
  N  N43  1  0.25270000  0.76335000  0.99619000  1.0
  N  N44  1  0.74854000  0.75684000  0.60009000  1.0
  N  N45  1  0.74854000  0.25684000  0.89991000  1.0
  N  N46  1  0.25146000  0.24316000  0.39991000  1.0
  N  N47  1  0.25146000  0.74316000  0.10009000  1.0
  O  O48  1  0.74628000  0.61935000  0.29711000  1.0
  O  O49  1  0.74628000  0.11934000  0.20289000  1.0
  O  O50  1  0.25372000  0.38066000  0.70290000  1.0
  O  O51  1  0.25372000  0.88066000  0.79711000  1.0
  O  O52  1  0.73594000  0.37895000  0.35812000  1.0
  O  O53  1  0.73594000  0.87894000  0.14188000  1.0
  O  O54  1  0.26406000  0.62105000  0.64188000  1.0
  O  O55  1  0.26406000  0.12106000  0.85812000  1.0
  O  O56  1  0.63124000  0.66408000  0.82256000  1.0
  O  O57  1  0.63124000  0.16408000  0.67743000  1.0
  O  O58  1  0.36876000  0.33592000  0.17744000  1.0
  O  O59  1  0.36876000  0.83592000  0.32257000  1.0
  O  O60  1  0.89076000  0.54510000  0.81147000  1.0
  O  O61  1  0.89076000  0.04510000  0.68852000  1.0
  O  O62  1  0.10924000  0.45490000  0.18853000  1.0
  O  O63  1  0.10924000  0.95490000  0.31148000  1.0
  O  O64  1  0.73487000  0.10269000  0.44871000  1.0
  O  O65  1  0.73487000  0.60269000  0.05129000  1.0
  O  O66  1  0.26513000  0.89731000  0.55129000  1.0
  O  O67  1  0.26513000  0.39731000  0.94871000  1.0
