# generated using pymatgen
data_Zn3H32C32(NO6)2
_symmetry_space_group_name_H-M   'P 1'
_cell_length_a   8.61931000
_cell_length_b   10.80210000
_cell_length_c   10.87250000
_cell_angle_alpha   101.77400000
_cell_angle_beta   111.50900000
_cell_angle_gamma   108.82400000
_symmetry_Int_Tables_number   1
_chemical_formula_structural   Zn3H32C32(NO6)2
_chemical_formula_sum   'Zn3 H32 C32 N2 O12'
_cell_volume   829.55769003
_cell_formula_units_Z   1
loop_
 _symmetry_equiv_pos_site_id
 _symmetry_equiv_pos_as_xyz
  1  'x, y, z'
loop_
 _atom_site_type_symbol
 _atom_site_label
 _atom_site_symmetry_multiplicity
 _atom_site_fract_x
 _atom_site_fract_y
 _atom_site_fract_z
 _atom_site_occupancy
  Zn  Zn0  1  0.00000000  0.00000000  0.00000000  1.0
  Zn  Zn1  1  0.67031000  0.97352000  0.10447000  1.0
  Zn  Zn2  1  0.32969000  0.02648000  0.89553000  1.0
  H  H3  1  0.32373000  0.18513000  0.32261000  1.0
  H  H4  1  0.67627000  0.81487000  0.67739000  1.0
  H  H5  1  0.48575000  0.28907000  0.59072000  1.0
  H  H6  1  0.51425000  0.71093000  0.40928000  1.0
  H  H7  1  0.29329000  0.27420000  0.71912000  1.0
  H  H8  1  0.70672000  0.72580000  0.28088000  1.0
  H  H9  1  0.00287000  0.15113000  0.70461000  1.0
  H  H10  1  0.99714000  0.84888000  0.29539000  1.0
  H  H11  1  0.79860000  0.09815000  0.54423000  1.0
  H  H12  1  0.20140000  0.90185000  0.45577000  1.0
  H  H13  1  0.77616000  0.31019000  0.45388000  1.0
  H  H14  1  0.22384000  0.68981000  0.54612000  1.0
  H  H15  1  0.77855000  0.54320000  0.54105000  1.0
  H  H16  1  0.22144000  0.45680000  0.45895000  1.0
  H  H17  1  0.94703000  0.68533000  0.80103000  1.0
  H  H18  1  0.05297000  0.31467000  0.19896000  1.0
  H  H19  1  0.11822000  0.59661000  0.97126000  1.0
  H  H20  1  0.88178000  0.40340000  0.02874000  1.0
  H  H21  1  0.11337000  0.36303000  0.88399000  1.0
  H  H22  1  0.88663000  0.63697000  0.11601000  1.0
  H  H23  1  0.39646000  0.53602000  0.79911000  1.0
  H  H24  1  0.60355000  0.46398000  0.20089000  1.0
  H  H25  1  0.57067000  0.50946000  0.92352000  1.0
  H  H26  1  0.42933000  0.49054000  0.07649000  1.0
  H  H27  1  0.59233000  0.54048000  0.77350000  1.0
  H  H28  1  0.40767000  0.45952000  0.22650000  1.0
  H  H29  1  0.56573000  0.23597000  0.83499000  1.0
  H  H30  1  0.43427000  0.76403000  0.16501000  1.0
  H  H31  1  0.49465000  0.08897000  0.68626000  1.0
  H  H32  1  0.50535000  0.91103000  0.31373000  1.0
  H  H33  1  0.71831000  0.23336000  0.75841000  1.0
  H  H34  1  0.28170000  0.76664000  0.24159000  1.0
  C  C35  1  0.94841000  0.12056000  0.38595000  1.0
  C  C36  1  0.05159000  0.87943000  0.61405000  1.0
  C  C37  1  0.05328000  0.11963000  0.30799000  1.0
  C  C38  1  0.94672000  0.88037000  0.69201000  1.0
  C  C39  1  0.24543000  0.18137000  0.38190000  1.0
  C  C40  1  0.75457000  0.81863000  0.61810000  1.0
  C  C41  1  0.33525000  0.24005000  0.53155000  1.0
  C  C42  1  0.66475000  0.75995000  0.46845000  1.0
  C  C43  1  0.23390000  0.23518000  0.60401000  1.0
  C  C44  1  0.76610000  0.76482000  0.39599000  1.0
  C  C45  1  0.94065000  0.17961000  0.61369000  1.0
  C  C46  1  0.05936000  0.82039000  0.38631000  1.0
  C  C47  1  0.94568000  0.32237000  0.66379000  1.0
  C  C48  1  0.05431000  0.67763000  0.33621000  1.0
  C  C49  1  0.85148000  0.37360000  0.56727000  1.0
  C  C50  1  0.14852000  0.62639000  0.43273000  1.0
  C  C51  1  0.85326000  0.50427000  0.61637000  1.0
  C  C52  1  0.14673000  0.49573000  0.38363000  1.0
  C  C53  1  0.94872000  0.58483000  0.76188000  1.0
  C  C54  1  0.05128000  0.41517000  0.23812000  1.0
  C  C55  1  0.04457000  0.53482000  0.85781000  1.0
  C  C56  1  0.95543000  0.46518000  0.14219000  1.0
  C  C57  1  0.04328000  0.40434000  0.80901000  1.0
  C  C58  1  0.95672000  0.59566000  0.19098000  1.0
  C  C59  1  0.64645000  0.72425000  0.93637000  1.0
  C  C60  1  0.35355000  0.27575000  0.06363000  1.0
  C  C61  1  0.54641000  0.56780000  0.85221000  1.0
  C  C62  1  0.45359000  0.43220000  0.14779000  1.0
  C  C63  1  0.69539000  0.10013000  0.87911000  1.0
  C  C64  1  0.30461000  0.89987000  0.12089000  1.0
  C  C65  1  0.61561000  0.17047000  0.78402000  1.0
  C  C66  1  0.38439000  0.82953000  0.21598000  1.0
  N  N67  1  0.04383000  0.17596000  0.53129000  1.0
  N  N68  1  0.95617000  0.82404000  0.46871000  1.0
  O  O69  1  0.77087000  0.07024000  0.32033000  1.0
  O  O70  1  0.22913000  0.92976000  0.67967000  1.0
  O  O71  1  0.95000000  0.06037000  0.16846000  1.0
  O  O72  1  0.05000000  0.93963000  0.83154000  1.0
  O  O73  1  0.75968000  0.80106000  0.90519000  1.0
  O  O74  1  0.24031000  0.19894000  0.09481000  1.0
  O  O75  1  0.60475000  0.76849000  0.03402000  1.0
  O  O76  1  0.39526000  0.23151000  0.96598000  1.0
  O  O77  1  0.84532000  0.09672000  0.89496000  1.0
  O  O78  1  0.15468000  0.90328000  0.10504000  1.0
  O  O79  1  0.59957000  0.04491000  0.93920000  1.0
  O  O80  1  0.40043000  0.95509000  0.06080000  1.0
