# generated using pymatgen
data_Cd2H10C16O11
_symmetry_space_group_name_H-M   'P 1'
_cell_length_a   7.46705000
_cell_length_b   10.89750000
_cell_length_c   11.11990000
_cell_angle_alpha   89.98620000
_cell_angle_beta   85.20840000
_cell_angle_gamma   71.89300000
_symmetry_Int_Tables_number   1
_chemical_formula_structural   Cd2H10C16O11
_chemical_formula_sum   'Cd4 H20 C32 O22'
_cell_volume   856.71847109
_cell_formula_units_Z   2
loop_
 _symmetry_equiv_pos_site_id
 _symmetry_equiv_pos_as_xyz
  1  'x, y, z'
loop_
 _atom_site_type_symbol
 _atom_site_label
 _atom_site_symmetry_multiplicity
 _atom_site_fract_x
 _atom_site_fract_y
 _atom_site_fract_z
 _atom_site_occupancy
  Cd  Cd0  1  0.51412000  0.19696000  0.70684000  1.0
  Cd  Cd1  1  0.48588000  0.80304000  0.29316000  1.0
  Cd  Cd2  1  0.91174000  0.05392000  0.34930000  1.0
  Cd  Cd3  1  0.08826000  0.94608000  0.65070000  1.0
  H  H4  1  0.68667000  0.93484000  0.79147000  1.0
  H  H5  1  0.31333000  0.06516000  0.20853000  1.0
  H  H6  1  0.48330000  0.94219000  0.75600000  1.0
  H  H7  1  0.51670000  0.05781000  0.24400000  1.0
  H  H8  1  0.04769000  0.25755000  0.23784000  1.0
  H  H9  1  0.95231000  0.74245000  0.76216000  1.0
  H  H10  1  0.02135000  0.17744000  0.12787000  1.0
  H  H11  1  0.97866000  0.82256000  0.87213000  1.0
  H  H12  1  0.35249000  0.64994000  0.81530000  1.0
  H  H13  1  0.64751000  0.35006000  0.18470000  1.0
  H  H14  1  0.23521000  0.84080000  0.95513000  1.0
  H  H15  1  0.76479000  0.15919000  0.04488000  1.0
  H  H16  1  0.19962000  0.41239000  0.08777000  1.0
  H  H17  1  0.80038000  0.58761000  0.91223000  1.0
  H  H18  1  0.40111000  0.46283000  0.29258000  1.0
  H  H19  1  0.59889000  0.53718000  0.70742000  1.0
  H  H20  1  0.80563000  0.50945000  0.34923000  1.0
  H  H21  1  0.19437000  0.49055000  0.65077000  1.0
  H  H22  1  0.87666000  0.31182000  0.47315000  1.0
  H  H23  1  0.12334000  0.68818000  0.52685000  1.0
  C  C24  1  0.35635000  0.40236000  0.86112000  1.0
  C  C25  1  0.64365000  0.59764000  0.13888000  1.0
  C  C26  1  0.28276000  0.51913000  0.94341000  1.0
  C  C27  1  0.71724000  0.48087000  0.05659000  1.0
  C  C28  1  0.29215000  0.63963000  0.90554000  1.0
  C  C29  1  0.70786000  0.36037000  0.09446000  1.0
  C  C30  1  0.22436000  0.74723000  0.98363000  1.0
  C  C31  1  0.77564000  0.25277000  0.01637000  1.0
  C  C32  1  0.14784000  0.73579000  0.10081000  1.0
  C  C33  1  0.85216000  0.26421000  0.89919000  1.0
  C  C34  1  0.07285000  0.85214000  0.18334000  1.0
  C  C35  1  0.92714000  0.14785000  0.81666000  1.0
  C  C36  1  0.14096000  0.61420000  0.13853000  1.0
  C  C37  1  0.85904000  0.38580000  0.86147000  1.0
  C  C38  1  0.20632000  0.50683000  0.06026000  1.0
  C  C39  1  0.79368000  0.49317000  0.93974000  1.0
  C  C40  1  0.10090000  0.49495000  0.31389000  1.0
  C  C41  1  0.89910000  0.50505000  0.68611000  1.0
  C  C42  1  0.28843000  0.42676000  0.33140000  1.0
  C  C43  1  0.71157000  0.57324000  0.66860000  1.0
  C  C44  1  0.32825000  0.31519000  0.40006000  1.0
  C  C45  1  0.67175000  0.68481000  0.59994000  1.0
  C  C46  1  0.53285000  0.23783000  0.40893000  1.0
  C  C47  1  0.46716000  0.76217000  0.59107000  1.0
  C  C48  1  0.95106000  0.45473000  0.36393000  1.0
  C  C49  1  0.04895000  0.54527000  0.63607000  1.0
  C  C50  1  0.99165000  0.34413000  0.43217000  1.0
  C  C51  1  0.00834000  0.65587000  0.56783000  1.0
  C  C52  1  0.17915000  0.27289000  0.45027000  1.0
  C  C53  1  0.82085000  0.72711000  0.54973000  1.0
  C  C54  1  0.20861000  0.15137000  0.51793000  1.0
  C  C55  1  0.79138000  0.84863000  0.48207000  1.0
  O  O56  1  0.43388000  0.41536000  0.75569000  1.0
  O  O57  1  0.56612000  0.58464000  0.24431000  1.0
  O  O58  1  0.34240000  0.29470000  0.89563000  1.0
  O  O59  1  0.65760000  0.70530000  0.10436000  1.0
  O  O60  1  0.55866000  0.99457000  0.78398000  1.0
  O  O61  1  0.44134000  0.00543000  0.21602000  1.0
  O  O62  1  0.92467000  0.93967000  0.16079000  1.0
  O  O63  1  0.07533000  0.06033000  0.83921000  1.0
  O  O64  1  0.16155000  0.85983000  0.27650000  1.0
  O  O65  1  0.83846000  0.14017000  0.72349000  1.0
  O  O66  1  0.05431000  0.60940000  0.25253000  1.0
  O  O67  1  0.94569000  0.39060000  0.74747000  1.0
  O  O68  1  0.61364000  0.23542000  0.50433000  1.0
  O  O69  1  0.38636000  0.76458000  0.49567000  1.0
  O  O70  1  0.61929000  0.17762000  0.31077000  1.0
  O  O71  1  0.38072000  0.82238000  0.68923000  1.0
  O  O72  1  0.31947000  0.11993000  0.60011000  1.0
  O  O73  1  0.68053000  0.88007000  0.39989000  1.0
  O  O74  1  0.10897000  0.07917000  0.49091000  1.0
  O  O75  1  0.89103000  0.92084000  0.50909000  1.0
  O  O76  1  0.07465000  0.16899000  0.20637000  1.0
  O  O77  1  0.92535000  0.83101000  0.79363000  1.0
