# generated using pymatgen
data_CuH7C9N7
_symmetry_space_group_name_H-M   'P 1'
_cell_length_a   5.66925000
_cell_length_b   12.74560000
_cell_length_c   14.57010000
_cell_angle_alpha   90.00000000
_cell_angle_beta   90.00040000
_cell_angle_gamma   92.80550000
_symmetry_Int_Tables_number   1
_chemical_formula_structural   CuH7C9N7
_chemical_formula_sum   'Cu4 H28 C36 N28'
_cell_volume   1051.54433318
_cell_formula_units_Z   4
loop_
 _symmetry_equiv_pos_site_id
 _symmetry_equiv_pos_as_xyz
  1  'x, y, z'
loop_
 _atom_site_type_symbol
 _atom_site_label
 _atom_site_symmetry_multiplicity
 _atom_site_fract_x
 _atom_site_fract_y
 _atom_site_fract_z
 _atom_site_occupancy
  Cu  Cu0  1  0.22778000  0.78983000  0.30281000  1.0
  Cu  Cu1  1  0.27221000  0.21018000  0.80281000  1.0
  Cu  Cu2  1  0.77221000  0.21017000  0.69719000  1.0
  Cu  Cu3  1  0.72778000  0.78982000  0.19719000  1.0
  H  H4  1  0.84732000  0.66254000  0.39243000  1.0
  H  H5  1  0.65267000  0.33748000  0.89243000  1.0
  H  H6  1  0.15267000  0.33745000  0.60756000  1.0
  H  H7  1  0.34733000  0.66253000  0.10756000  1.0
  H  H8  1  0.79537000  0.56886000  0.54360000  1.0
  H  H9  1  0.70464000  0.43115000  0.04360000  1.0
  H  H10  1  0.20463000  0.43112000  0.45640000  1.0
  H  H11  1  0.29538000  0.56886000  0.95639000  1.0
  H  H12  1  0.09822000  0.60169000  0.66633000  1.0
  H  H13  1  0.40180000  0.39831000  0.16634000  1.0
  H  H14  1  0.90177000  0.39830000  0.33366000  1.0
  H  H15  1  0.59824000  0.60170000  0.83366000  1.0
  H  H16  1  0.45967000  0.70647000  0.71987000  1.0
  H  H17  1  0.04035000  0.29354000  0.21988000  1.0
  H  H18  1  0.54033000  0.29352000  0.28012000  1.0
  H  H19  1  0.95969000  0.70648000  0.78012000  1.0
  H  H20  1  0.77749000  0.84361000  0.68862000  1.0
  H  H21  1  0.72252000  0.15640000  0.18863000  1.0
  H  H22  1  0.22249000  0.15639000  0.31138000  1.0
  H  H23  1  0.27751000  0.84362000  0.81138000  1.0
  H  H24  1  0.79852000  0.93299000  0.53672000  1.0
  H  H25  1  0.70148000  0.06703000  0.03671000  1.0
  H  H26  1  0.20146000  0.06701000  0.46328000  1.0
  H  H27  1  0.29853000  0.93298000  0.96330000  1.0
  H  H28  1  0.50375000  0.88750000  0.41625000  1.0
  H  H29  1  0.99624000  0.11251000  0.91625000  1.0
  H  H30  1  0.49623000  0.11249000  0.58375000  1.0
  H  H31  1  0.00376000  0.88749000  0.08376000  1.0
  C  C32  1  0.97318000  0.67643000  0.44823000  1.0
  C  C33  1  0.52682000  0.32358000  0.94823000  1.0
  C  C34  1  0.02681000  0.32356000  0.55177000  1.0
  C  C35  1  0.47319000  0.67642000  0.05176000  1.0
  C  C36  1  0.94573000  0.62391000  0.53280000  1.0
  C  C37  1  0.55429000  0.37610000  0.03279000  1.0
  C  C38  1  0.05427000  0.37608000  0.46720000  1.0
  C  C39  1  0.44574000  0.62391000  0.96720000  1.0
  C  C40  1  0.11089000  0.64349000  0.60091000  1.0
  C  C41  1  0.38912000  0.35652000  0.10091000  1.0
  C  C42  1  0.88911000  0.35650000  0.39909000  1.0
  C  C43  1  0.61091000  0.64348000  0.89908000  1.0
  C  C44  1  0.29823000  0.71920000  0.58636000  1.0
  C  C45  1  0.20178000  0.28081000  0.08635000  1.0
  C  C46  1  0.70176000  0.28079000  0.41364000  1.0
  C  C47  1  0.79824000  0.71920000  0.91365000  1.0
  C  C48  1  0.46972000  0.74699000  0.65407000  1.0
  C  C49  1  0.03028000  0.25301000  0.15407000  1.0
  C  C50  1  0.53026000  0.25300000  0.34593000  1.0
  C  C51  1  0.96976000  0.74701000  0.84593000  1.0
  C  C52  1  0.64585000  0.82270000  0.63641000  1.0
  C  C53  1  0.85417000  0.17732000  0.13641000  1.0
  C  C54  1  0.35412000  0.17729000  0.36359000  1.0
  C  C55  1  0.14584000  0.82269000  0.86359000  1.0
  C  C56  1  0.65836000  0.87335000  0.55010000  1.0
  C  C57  1  0.84163000  0.12666000  0.05011000  1.0
  C  C58  1  0.34162000  0.12664000  0.44990000  1.0
  C  C59  1  0.15839000  0.87336000  0.94990000  1.0
  C  C60  1  0.49569000  0.84770000  0.48251000  1.0
  C  C61  1  0.00431000  0.15232000  0.98250000  1.0
  C  C62  1  0.50428000  0.15230000  0.51749000  1.0
  C  C63  1  0.99570000  0.84768000  0.01750000  1.0
  C  C64  1  0.31316000  0.77061000  0.49902000  1.0
  C  C65  1  0.18683000  0.22941000  0.99902000  1.0
  C  C66  1  0.68682000  0.22939000  0.50098000  1.0
  C  C67  1  0.81318000  0.77060000  0.00098000  1.0
  N  N68  1  0.15157000  0.74541000  0.43122000  1.0
  N  N69  1  0.34844000  0.25460000  0.93122000  1.0
  N  N70  1  0.84842000  0.25458000  0.56878000  1.0
  N  N71  1  0.65157000  0.74540000  0.06877000  1.0
  N  N72  1  0.98739000  0.68778000  0.20511000  1.0
  N  N73  1  0.51259000  0.31222000  0.70510000  1.0
  N  N74  1  0.01260000  0.31222000  0.79489000  1.0
  N  N75  1  0.48740000  0.68778000  0.29489000  1.0
  N  N76  1  0.94903000  0.59525000  0.18994000  1.0
  N  N77  1  0.55096000  0.40475000  0.68992000  1.0
  N  N78  1  0.05097000  0.40476000  0.81007000  1.0
  N  N79  1  0.44903000  0.59525000  0.31008000  1.0
  N  N80  1  0.91833000  0.50560000  0.17504000  1.0
  N  N81  1  0.58167000  0.49439000  0.67503000  1.0
  N  N82  1  0.08167000  0.49440000  0.82496000  1.0
  N  N83  1  0.41833000  0.50560000  0.32498000  1.0
  N  N84  1  0.95112000  0.87774000  0.27862000  1.0
  N  N85  1  0.54886000  0.12225000  0.77862000  1.0
  N  N86  1  0.04886000  0.12225000  0.72139000  1.0
  N  N87  1  0.45113000  0.87774000  0.22138000  1.0
  N  N88  1  0.89688000  0.95509000  0.32110000  1.0
  N  N89  1  0.60311000  0.04491000  0.82111000  1.0
  N  N90  1  0.10311000  0.04491000  0.67890000  1.0
  N  N91  1  0.39689000  0.95509000  0.17890000  1.0
  N  N92  1  0.84175000  0.02928000  0.36029000  1.0
  N  N93  1  0.65825000  0.97073000  0.86030000  1.0
  N  N94  1  0.15824000  0.97072000  0.63971000  1.0
  N  N95  1  0.34176000  0.02928000  0.13971000  1.0
