# generated using pymatgen
data_HgH11C10N(ClO)2
_symmetry_space_group_name_H-M   'P 1'
_cell_length_a   7.11999000
_cell_length_b   7.48625000
_cell_length_c   25.96400000
_cell_angle_alpha   90.00000000
_cell_angle_beta   90.00000000
_cell_angle_gamma   118.26300000
_symmetry_Int_Tables_number   1
_chemical_formula_structural   HgH11C10N(ClO)2
_chemical_formula_sum   'Hg4 H44 C40 N4 Cl8 O8'
_cell_volume   1218.94579374
_cell_formula_units_Z   4
loop_
 _symmetry_equiv_pos_site_id
 _symmetry_equiv_pos_as_xyz
  1  'x, y, z'
loop_
 _atom_site_type_symbol
 _atom_site_label
 _atom_site_symmetry_multiplicity
 _atom_site_fract_x
 _atom_site_fract_y
 _atom_site_fract_z
 _atom_site_occupancy
  Hg  Hg0  1  0.58432000  0.29984000  0.00462000  1.0
  Hg  Hg1  1  0.91567000  0.20015000  0.50462000  1.0
  Hg  Hg2  1  0.41566000  0.70014000  0.99538000  1.0
  Hg  Hg3  1  0.08433000  0.79986000  0.49538000  1.0
  H  H4  1  0.46991000  0.14015000  0.23174000  1.0
  H  H5  1  0.03009000  0.35985000  0.73174000  1.0
  H  H6  1  0.53009000  0.85985000  0.76826000  1.0
  H  H7  1  0.96992000  0.64015000  0.26826000  1.0
  H  H8  1  0.61090000  0.71631000  0.19750000  1.0
  H  H9  1  0.88909000  0.78368000  0.69751000  1.0
  H  H10  1  0.38910000  0.28369000  0.80249000  1.0
  H  H11  1  0.11091000  0.21631000  0.30249000  1.0
  H  H12  1  0.43218000  0.65186000  0.14332000  1.0
  H  H13  1  0.06781000  0.84813000  0.64332000  1.0
  H  H14  1  0.56782000  0.34814000  0.85668000  1.0
  H  H15  1  0.93219000  0.15187000  0.35668000  1.0
  H  H16  1  0.33312000  0.55584000  0.20552000  1.0
  H  H17  1  0.16687000  0.94416000  0.70552000  1.0
  H  H18  1  0.66688000  0.44416000  0.79448000  1.0
  H  H19  1  0.83313000  0.05584000  0.29448000  1.0
  H  H20  1  0.98806000  0.14850000  0.20587000  1.0
  H  H21  1  0.51195000  0.35150000  0.70587000  1.0
  H  H22  1  0.01193000  0.85149000  0.79413000  1.0
  H  H23  1  0.48807000  0.64851000  0.29413000  1.0
  H  H24  1  0.91952000  0.96681000  0.15499000  1.0
  H  H25  1  0.58048000  0.53319000  0.65499000  1.0
  H  H26  1  0.08047000  0.03318000  0.84501000  1.0
  H  H27  1  0.41954000  0.46682000  0.34501000  1.0
  H  H28  1  0.11215000  0.22293000  0.14434000  1.0
  H  H29  1  0.38785000  0.27708000  0.64434000  1.0
  H  H30  1  0.88785000  0.77707000  0.85566000  1.0
  H  H31  1  0.61216000  0.72293000  0.35566000  1.0
  H  H32  1  0.19639000  0.98176000  0.07561000  1.0
  H  H33  1  0.30360000  0.51824000  0.57561000  1.0
  H  H34  1  0.80360000  0.01823000  0.92439000  1.0
  H  H35  1  0.69640000  0.48177000  0.42439000  1.0
  H  H36  1  0.94628000  0.73955000  0.01097000  1.0
  H  H37  1  0.55371000  0.76045000  0.51097000  1.0
  H  H38  1  0.05371000  0.26044000  0.98903000  1.0
  H  H39  1  0.44628000  0.23956000  0.48903000  1.0
  H  H40  1  0.73398000  0.26122000  0.11480000  1.0
  H  H41  1  0.76602000  0.23879000  0.61480000  1.0
  H  H42  1  0.26600000  0.73877000  0.88521000  1.0
  H  H43  1  0.23398000  0.76122000  0.38520000  1.0
  H  H44  1  0.97434000  0.48384000  0.18375000  1.0
  H  H45  1  0.52566000  0.01617000  0.68375000  1.0
  H  H46  1  0.02565000  0.51614000  0.81625000  1.0
  H  H47  1  0.47434000  0.98385000  0.31625000  1.0
  C  C48  1  0.45305000  0.68894000  0.18458000  1.0
  C  C49  1  0.04694000  0.81106000  0.68458000  1.0
  C  C50  1  0.54695000  0.31106000  0.81542000  1.0
  C  C51  1  0.95306000  0.18894000  0.31542000  1.0
  C  C52  1  0.42305000  0.86884000  0.19710000  1.0
  C  C53  1  0.07695000  0.63116000  0.69710000  1.0
  C  C54  1  0.57695000  0.13116000  0.80290000  1.0
  C  C55  1  0.92305000  0.36884000  0.30290000  1.0
  C  C56  1  0.25283000  0.89544000  0.17475000  1.0
  C  C57  1  0.24718000  0.60456000  0.67476000  1.0
  C  C58  1  0.74718000  0.10455000  0.82525000  1.0
  C  C59  1  0.75282000  0.39544000  0.32524000  1.0
  C  C60  1  0.22569000  0.06108000  0.19043000  1.0
  C  C61  1  0.27431000  0.43892000  0.69043000  1.0
  C  C62  1  0.77430000  0.93891000  0.80957000  1.0
  C  C63  1  0.72570000  0.56109000  0.30957000  1.0
  C  C64  1  0.04937000  0.09981000  0.17304000  1.0
  C  C65  1  0.45063000  0.40019000  0.67304000  1.0
  C  C66  1  0.95062000  0.90018000  0.82696000  1.0
  C  C67  1  0.54938000  0.59982000  0.32696000  1.0
  C  C68  1  0.10885000  0.75331000  0.13556000  1.0
  C  C69  1  0.39116000  0.74670000  0.63556000  1.0
  C  C70  1  0.89115000  0.24668000  0.86444000  1.0
  C  C71  1  0.60885000  0.25332000  0.36444000  1.0
  C  C72  1  0.09847000  0.82294000  0.08599000  1.0
  C  C73  1  0.40153000  0.67707000  0.58599000  1.0
  C  C74  1  0.90153000  0.17706000  0.91401000  1.0
  C  C75  1  0.59847000  0.32294000  0.41401000  1.0
  C  C76  1  0.96031000  0.69006000  0.04962000  1.0
  C  C77  1  0.53969000  0.80994000  0.54962000  1.0
  C  C78  1  0.03969000  0.30994000  0.95038000  1.0
  C  C79  1  0.46031000  0.19007000  0.45038000  1.0
  C  C80  1  0.84064000  0.42157000  0.10786000  1.0
  C  C81  1  0.65935000  0.07843000  0.60786000  1.0
  C  C82  1  0.15935000  0.57842000  0.89214000  1.0
  C  C83  1  0.34065000  0.92158000  0.39214000  1.0
  C  C84  1  0.97571000  0.54675000  0.14586000  1.0
  C  C85  1  0.52429000  0.95326000  0.64586000  1.0
  C  C86  1  0.02428000  0.45325000  0.85414000  1.0
  C  C87  1  0.47571000  0.04675000  0.35414000  1.0
  N  N88  1  0.83416000  0.49252000  0.06054000  1.0
  N  N89  1  0.66585000  0.00748000  0.56054000  1.0
  N  N90  1  0.16584000  0.50747000  0.93946000  1.0
  N  N91  1  0.33415000  0.99253000  0.43946000  1.0
  Cl  Cl92  1  0.69052000  0.61987000  0.93779000  1.0
  Cl  Cl93  1  0.80946000  0.88013000  0.43779000  1.0
  Cl  Cl94  1  0.30946000  0.38012000  0.06221000  1.0
  Cl  Cl95  1  0.19054000  0.11988000  0.56221000  1.0
  Cl  Cl96  1  0.34679000  0.04043000  0.94683000  1.0
  Cl  Cl97  1  0.15321000  0.45956000  0.44683000  1.0
  Cl  Cl98  1  0.65320000  0.95956000  0.05317000  1.0
  Cl  Cl99  1  0.84679000  0.54045000  0.55317000  1.0
  O  O100  1  0.55262000  0.00072000  0.22880000  1.0
  O  O101  1  0.94739000  0.49928000  0.72880000  1.0
  O  O102  1  0.44738000  0.99928000  0.77120000  1.0
  O  O103  1  0.05262000  0.50072000  0.27120000  1.0
  O  O104  1  0.35880000  0.19408000  0.22373000  1.0
  O  O105  1  0.14120000  0.30592000  0.72374000  1.0
  O  O106  1  0.64119000  0.80591000  0.77626000  1.0
  O  O107  1  0.85882000  0.69409000  0.27626000  1.0
