# generated using pymatgen
data_AgH11C19N3O4F3
_symmetry_space_group_name_H-M   'P 1'
_cell_length_a   8.17432000
_cell_length_b   8.26046000
_cell_length_c   13.84100000
_cell_angle_alpha   93.76230000
_cell_angle_beta   100.59500000
_cell_angle_gamma   102.47300000
_symmetry_Int_Tables_number   1
_chemical_formula_structural   AgH11C19N3O4F3
_chemical_formula_sum   'Ag2 H22 C38 N6 O8 F6'
_cell_volume   891.56085931
_cell_formula_units_Z   2
loop_
 _symmetry_equiv_pos_site_id
 _symmetry_equiv_pos_as_xyz
  1  'x, y, z'
loop_
 _atom_site_type_symbol
 _atom_site_label
 _atom_site_symmetry_multiplicity
 _atom_site_fract_x
 _atom_site_fract_y
 _atom_site_fract_z
 _atom_site_occupancy
  Ag  Ag0  1  0.62629000  0.91731000  0.55477000  1.0
  Ag  Ag1  1  0.37372000  0.08270000  0.44523000  1.0
  H  H2  1  0.31988000  0.70124000  0.62114000  1.0
  H  H3  1  0.68012000  0.29876000  0.37886000  1.0
  H  H4  1  0.24128000  0.61263000  0.77899000  1.0
  H  H5  1  0.75872000  0.38736000  0.22100000  1.0
  H  H6  1  0.70345000  0.95802000  0.93539000  1.0
  H  H7  1  0.29654000  0.04198000  0.06462000  1.0
  H  H8  1  0.75943000  0.03938000  0.77077000  1.0
  H  H9  1  0.24057000  0.96063000  0.22923000  1.0
  H  H10  1  0.28792000  0.69049000  0.12873000  1.0
  H  H11  1  0.71208000  0.30951000  0.87127000  1.0
  H  H12  1  0.09159000  0.43112000  0.15777000  1.0
  H  H13  1  0.90841000  0.56888000  0.84224000  1.0
  H  H14  1  0.02056000  0.17984000  0.02963000  1.0
  H  H15  1  0.97943000  0.82016000  0.97037000  1.0
  H  H16  1  0.09725000  0.90343000  0.54654000  1.0
  H  H17  1  0.90276000  0.09656000  0.45346000  1.0
  H  H18  1  0.99740000  0.93071000  0.70654000  1.0
  H  H19  1  0.00259000  0.06929000  0.29346000  1.0
  H  H20  1  0.40099000  0.37510000  0.79556000  1.0
  H  H21  1  0.59900000  0.62490000  0.20444000  1.0
  H  H22  1  0.47788000  0.33659000  0.63123000  1.0
  H  H23  1  0.52212000  0.66341000  0.36878000  1.0
  C  C24  1  0.40119000  0.75424000  0.69265000  1.0
  C  C25  1  0.59881000  0.24576000  0.30735000  1.0
  C  C26  1  0.35838000  0.70570000  0.78098000  1.0
  C  C27  1  0.64162000  0.29431000  0.21902000  1.0
  C  C28  1  0.46841000  0.77702000  0.87068000  1.0
  C  C29  1  0.53158000  0.22298000  0.12932000  1.0
  C  C30  1  0.61589000  0.89837000  0.86729000  1.0
  C  C31  1  0.38410000  0.10163000  0.13271000  1.0
  C  C32  1  0.64905000  0.94223000  0.77662000  1.0
  C  C33  1  0.35095000  0.05778000  0.22338000  1.0
  C  C34  1  0.43560000  0.73892000  0.97059000  1.0
  C  C35  1  0.56439000  0.26108000  0.02941000  1.0
  C  C36  1  0.30925000  0.58574000  0.98485000  1.0
  C  C37  1  0.69075000  0.41426000  0.01515000  1.0
  C  C38  1  0.24993000  0.58156000  0.07393000  1.0
  C  C39  1  0.75006000  0.41844000  0.92607000  1.0
  C  C40  1  0.14175000  0.43560000  0.09012000  1.0
  C  C41  1  0.85824000  0.56439000  0.90988000  1.0
  C  C42  1  0.10073000  0.29818000  0.01901000  1.0
  C  C43  1  0.89927000  0.70181000  0.98099000  1.0
  C  C44  1  0.16770000  0.31257000  0.93257000  1.0
  C  C45  1  0.83230000  0.68743000  0.06743000  1.0
  C  C46  1  0.12897000  0.15956000  0.85961000  1.0
  C  C47  1  0.87102000  0.84044000  0.14039000  1.0
  C  C48  1  0.15683000  0.00856000  0.60275000  1.0
  C  C49  1  0.84317000  0.99144000  0.39726000  1.0
  C  C50  1  0.10362000  0.02367000  0.69169000  1.0
  C  C51  1  0.89638000  0.97633000  0.30831000  1.0
  C  C52  1  0.18949000  0.15718000  0.76364000  1.0
  C  C53  1  0.81050000  0.84282000  0.23636000  1.0
  C  C54  1  0.32809000  0.27111000  0.74200000  1.0
  C  C55  1  0.67190000  0.72889000  0.25800000  1.0
  C  C56  1  0.37209000  0.24891000  0.65047000  1.0
  C  C57  1  0.62790000  0.75109000  0.34953000  1.0
  C  C58  1  0.83189000  0.51423000  0.61395000  1.0
  C  C59  1  0.16812000  0.48578000  0.38605000  1.0
  C  C60  1  0.81061000  0.32468000  0.62902000  1.0
  C  C61  1  0.18941000  0.67532000  0.37097000  1.0
  N  N62  1  0.54458000  0.86963000  0.69035000  1.0
  N  N63  1  0.45542000  0.13038000  0.30965000  1.0
  N  N64  1  0.26725000  0.45486000  0.91502000  1.0
  N  N65  1  0.73274000  0.54514000  0.08498000  1.0
  N  N66  1  0.28882000  0.12034000  0.58171000  1.0
  N  N67  1  0.71118000  0.87966000  0.41829000  1.0
  O  O68  1  0.51732000  0.83373000  0.04455000  1.0
  O  O69  1  0.48267000  0.16626000  0.95545000  1.0
  O  O70  1  0.04284000  0.02844000  0.87964000  1.0
  O  O71  1  0.95715000  0.97156000  0.12035000  1.0
  O  O72  1  0.75283000  0.22606000  0.55055000  1.0
  O  O73  1  0.24719000  0.77394000  0.44945000  1.0
  O  O74  1  0.85128000  0.29772000  0.71709000  1.0
  O  O75  1  0.14874000  0.70229000  0.28291000  1.0
  F  F76  1  0.99672000  0.60365000  0.64900000  1.0
  F  F77  1  0.00329000  0.39637000  0.35099000  1.0
  F  F78  1  0.78881000  0.54482000  0.51819000  1.0
  F  F79  1  0.21119000  0.45518000  0.48181000  1.0
  F  F80  1  0.73098000  0.58499000  0.66538000  1.0
  F  F81  1  0.26903000  0.41501000  0.33462000  1.0
