# generated using pymatgen
data_CuH7C10N3O4
_symmetry_space_group_name_H-M   'P 1'
_cell_length_a   5.27870000
_cell_length_b   11.89560000
_cell_length_c   16.41990000
_cell_angle_alpha   89.99960000
_cell_angle_beta   89.99910000
_cell_angle_gamma   89.99730000
_symmetry_Int_Tables_number   1
_chemical_formula_structural   CuH7C10N3O4
_chemical_formula_sum   'Cu4 H28 C40 N12 O16'
_cell_volume   1031.05976645
_cell_formula_units_Z   4
loop_
 _symmetry_equiv_pos_site_id
 _symmetry_equiv_pos_as_xyz
  1  'x, y, z'
loop_
 _atom_site_type_symbol
 _atom_site_label
 _atom_site_symmetry_multiplicity
 _atom_site_fract_x
 _atom_site_fract_y
 _atom_site_fract_z
 _atom_site_occupancy
  Cu  Cu0  1  0.29452000  0.93459000  0.45240000  1.0
  Cu  Cu1  1  0.20557000  0.06538000  0.95239000  1.0
  Cu  Cu2  1  0.79454000  0.56542000  0.54760000  1.0
  Cu  Cu3  1  0.70544000  0.43457000  0.04759000  1.0
  H  H4  1  0.38879000  0.56365000  0.32209000  1.0
  H  H5  1  0.11113000  0.43635000  0.82214000  1.0
  H  H6  1  0.88883000  0.93637000  0.67787000  1.0
  H  H7  1  0.61123000  0.06365000  0.17792000  1.0
  H  H8  1  0.76956000  0.61938000  0.23702000  1.0
  H  H9  1  0.73039000  0.38063000  0.73708000  1.0
  H  H10  1  0.26960000  0.88064000  0.76294000  1.0
  H  H11  1  0.23043000  0.11937000  0.26298000  1.0
  H  H12  1  0.92605000  0.81915000  0.24467000  1.0
  H  H13  1  0.57399000  0.18085000  0.74468000  1.0
  H  H14  1  0.42603000  0.68086000  0.75534000  1.0
  H  H15  1  0.07392000  0.31913000  0.25533000  1.0
  H  H16  1  0.45235000  0.05912000  0.60653000  1.0
  H  H17  1  0.04772000  0.94088000  0.10654000  1.0
  H  H18  1  0.95231000  0.44089000  0.39345000  1.0
  H  H19  1  0.54766000  0.55909000  0.89346000  1.0
  H  H20  1  0.19814000  0.24810000  0.66376000  1.0
  H  H21  1  0.30193000  0.75190000  0.16377000  1.0
  H  H22  1  0.69806000  0.25194000  0.33622000  1.0
  H  H23  1  0.80185000  0.74808000  0.83621000  1.0
  H  H24  1  0.77160000  0.25688000  0.56730000  1.0
  H  H25  1  0.72842000  0.74310000  0.06730000  1.0
  H  H26  1  0.27155000  0.24317000  0.43270000  1.0
  H  H27  1  0.22840000  0.75685000  0.93268000  1.0
  H  H28  1  0.80362000  0.09032000  0.46938000  1.0
  H  H29  1  0.69644000  0.90965000  0.96938000  1.0
  H  H30  1  0.30363000  0.40972000  0.53063000  1.0
  H  H31  1  0.19634000  0.59029000  0.03062000  1.0
  C  C32  1  0.12782000  0.71340000  0.42844000  1.0
  C  C33  1  0.37215000  0.28659000  0.92845000  1.0
  C  C34  1  0.62785000  0.78661000  0.57156000  1.0
  C  C35  1  0.87219000  0.21338000  0.07157000  1.0
  C  C36  1  0.34654000  0.72993000  0.37080000  1.0
  C  C37  1  0.15346000  0.27008000  0.87080000  1.0
  C  C38  1  0.84653000  0.77008000  0.62920000  1.0
  C  C39  1  0.65349000  0.22992000  0.12920000  1.0
  C  C40  1  0.46186000  0.64916000  0.32191000  1.0
  C  C41  1  0.03808000  0.35086000  0.82194000  1.0
  C  C42  1  0.96190000  0.85087000  0.67807000  1.0
  C  C43  1  0.53810000  0.14914000  0.17808000  1.0
  C  C44  1  0.67159000  0.68065000  0.27506000  1.0
  C  C45  1  0.82844000  0.31937000  0.77509000  1.0
  C  C46  1  0.17157000  0.81938000  0.72492000  1.0
  C  C47  1  0.32835000  0.18065000  0.22494000  1.0
  C  C48  1  0.76057000  0.79129000  0.27872000  1.0
  C  C49  1  0.73949000  0.20871000  0.77874000  1.0
  C  C50  1  0.26052000  0.70872000  0.72127000  1.0
  C  C51  1  0.23939000  0.29127000  0.22127000  1.0
  C  C52  1  0.63804000  0.86719000  0.32987000  1.0
  C  C53  1  0.86201000  0.13281000  0.82987000  1.0
  C  C54  1  0.13798000  0.63281000  0.67015000  1.0
  C  C55  1  0.36198000  0.36717000  0.17015000  1.0
  C  C56  1  0.72194000  0.98506000  0.34928000  1.0
  C  C57  1  0.77815000  0.01494000  0.84928000  1.0
  C  C58  1  0.22186000  0.51495000  0.65076000  1.0
  C  C59  1  0.27806000  0.48503000  0.15073000  1.0
  C  C60  1  0.27619000  0.09693000  0.58659000  1.0
  C  C61  1  0.22384000  0.90308000  0.08659000  1.0
  C  C62  1  0.77617000  0.40309000  0.41340000  1.0
  C  C63  1  0.72381000  0.59692000  0.91339000  1.0
  C  C64  1  0.14362000  0.19064000  0.61574000  1.0
  C  C65  1  0.35638000  0.80937000  0.11573000  1.0
  C  C66  1  0.64356000  0.30939000  0.38425000  1.0
  C  C67  1  0.85639000  0.69062000  0.88423000  1.0
  C  C68  1  0.92813000  0.19790000  0.56714000  1.0
  C  C69  1  0.57189000  0.80209000  0.06713000  1.0
  C  C70  1  0.42808000  0.30215000  0.43285000  1.0
  C  C71  1  0.07188000  0.69787000  0.93283000  1.0
  N  N72  1  0.15013000  0.05023000  0.52368000  1.0
  N  N73  1  0.34994000  0.94978000  0.02368000  1.0
  N  N74  1  0.65015000  0.44978000  0.47631000  1.0
  N  N75  1  0.84984000  0.55022000  0.97631000  1.0
  N  N76  1  0.43548000  0.83509000  0.37268000  1.0
  N  N77  1  0.06457000  0.16493000  0.87269000  1.0
  N  N78  1  0.93545000  0.66492000  0.62732000  1.0
  N  N79  1  0.56451000  0.33509000  0.12733000  1.0
  N  N80  1  0.93923000  0.11301000  0.51270000  1.0
  N  N81  1  0.56080000  0.88699000  0.01269000  1.0
  N  N82  1  0.43922000  0.38703000  0.48730000  1.0
  N  N83  1  0.06075000  0.61298000  0.98729000  1.0
  O  O84  1  0.58331000  0.03539000  0.40428000  1.0
  O  O85  1  0.91673000  0.96460000  0.90429000  1.0
  O  O86  1  0.08333000  0.46461000  0.59573000  1.0
  O  O87  1  0.41670000  0.53540000  0.09573000  1.0
  O  O88  1  0.03946000  0.61681000  0.43835000  1.0
  O  O89  1  0.46056000  0.38317000  0.93836000  1.0
  O  O90  1  0.53943000  0.88318000  0.56164000  1.0
  O  O91  1  0.96057000  0.11680000  0.06166000  1.0
  O  O92  1  0.04713000  0.80360000  0.46368000  1.0
  O  O93  1  0.45293000  0.19640000  0.96369000  1.0
  O  O94  1  0.54709000  0.69643000  0.53631000  1.0
  O  O95  1  0.95290000  0.30358000  0.03632000  1.0
  O  O96  1  0.91345000  0.02643000  0.31700000  1.0
  O  O97  1  0.58670000  0.97354000  0.81700000  1.0
  O  O98  1  0.41326000  0.47352000  0.68306000  1.0
  O  O99  1  0.08654000  0.52642000  0.18299000  1.0
