# generated using pymatgen
data_CuSiH28C28(N2F3)2
_symmetry_space_group_name_H-M   'P 1'
_cell_length_a   7.97331000
_cell_length_b   13.73690000
_cell_length_c   13.73690000
_cell_angle_alpha   89.62960000
_cell_angle_beta   85.51370000
_cell_angle_gamma   85.51310000
_symmetry_Int_Tables_number   1
_chemical_formula_structural   CuSiH28C28(N2F3)2
_chemical_formula_sum   'Cu1 Si1 H28 C28 N4 F6'
_cell_volume   1495.37582413
_cell_formula_units_Z   1
loop_
 _symmetry_equiv_pos_site_id
 _symmetry_equiv_pos_as_xyz
  1  'x, y, z'
loop_
 _atom_site_type_symbol
 _atom_site_label
 _atom_site_symmetry_multiplicity
 _atom_site_fract_x
 _atom_site_fract_y
 _atom_site_fract_z
 _atom_site_occupancy
  Cu  Cu0  1  0.49999000  0.50000000  0.50000000  1.0
  Si  Si1  1  0.99998000  0.50000000  0.50000000  1.0
  H  H2  1  0.26027000  0.49999000  0.34340000  1.0
  H  H3  1  0.26628000  0.49999000  0.17057000  1.0
  H  H4  1  0.81244000  0.50038000  0.16501000  1.0
  H  H5  1  0.78164000  0.50024000  0.33916000  1.0
  H  H6  1  0.18754000  0.49965000  0.83498000  1.0
  H  H7  1  0.73367000  0.50029000  0.82942000  1.0
  H  H8  1  0.73970000  0.50013000  0.65659000  1.0
  H  H9  1  0.21834000  0.49975000  0.66083000  1.0
  H  H10  1  0.26029000  0.34341000  0.49987000  1.0
  H  H11  1  0.26632000  0.17058000  0.49971000  1.0
  H  H12  1  0.81245000  0.16501000  0.50035000  1.0
  H  H13  1  0.78165000  0.33916000  0.50024000  1.0
  H  H14  1  0.18755000  0.83498000  0.49961000  1.0
  H  H15  1  0.73371000  0.82942000  0.50002000  1.0
  H  H16  1  0.73972000  0.65659000  0.50001000  1.0
  H  H17  1  0.21835000  0.66083000  0.49975000  1.0
  H  H18  1  0.76679000  0.56493000  0.94490000  1.0
  H  H19  1  0.83623000  0.49929000  0.04544000  1.0
  H  H20  1  0.78350000  0.43494000  0.94437000  1.0
  H  H21  1  0.21619000  0.56502000  0.05540000  1.0
  H  H22  1  0.16381000  0.50018000  0.95454000  1.0
  H  H23  1  0.23348000  0.43502000  0.05531000  1.0
  H  H24  1  0.78379000  0.94459000  0.43499000  1.0
  H  H25  1  0.83617000  0.04545000  0.49982000  1.0
  H  H26  1  0.76650000  0.94469000  0.56498000  1.0
  H  H27  1  0.23317000  0.05510000  0.43507000  1.0
  H  H28  1  0.16375000  0.95455000  0.50072000  1.0
  H  H29  1  0.21649000  0.05562000  0.56507000  1.0
  C  C30  1  0.38143000  0.50005000  0.30096000  1.0
  C  C31  1  0.38783000  0.50006000  0.19960000  1.0
  C  C32  1  0.54209000  0.50009000  0.14062000  1.0
  C  C33  1  0.68383000  0.50023000  0.19720000  1.0
  C  C34  1  0.66965000  0.50018000  0.29854000  1.0
  C  C35  1  0.56480000  0.49998000  0.03108000  1.0
  C  C36  1  0.43519000  0.49999000  0.96891000  1.0
  C  C37  1  0.31615000  0.49979000  0.80279000  1.0
  C  C38  1  0.45789000  0.49994000  0.85937000  1.0
  C  C39  1  0.61213000  0.50009000  0.80039000  1.0
  C  C40  1  0.61854000  0.50004000  0.69903000  1.0
  C  C41  1  0.33033000  0.49982000  0.70145000  1.0
  C  C42  1  0.38144000  0.30096000  0.49996000  1.0
  C  C43  1  0.38785000  0.19961000  0.49992000  1.0
  C  C44  1  0.54209000  0.14062000  0.50006000  1.0
  C  C45  1  0.68383000  0.19720000  0.50021000  1.0
  C  C46  1  0.66965000  0.29854000  0.50017000  1.0
  C  C47  1  0.56479000  0.03109000  0.50002000  1.0
  C  C48  1  0.43518000  0.96891000  0.50002000  1.0
  C  C49  1  0.31616000  0.80279000  0.49976000  1.0
  C  C50  1  0.45790000  0.85938000  0.49990000  1.0
  C  C51  1  0.61215000  0.80039000  0.49994000  1.0
  C  C52  1  0.61856000  0.69903000  0.49995000  1.0
  C  C53  1  0.33034000  0.70146000  0.49981000  1.0
  C  C54  1  0.74654000  0.49978000  0.98971000  1.0
  C  C55  1  0.25345000  0.50006000  0.01027000  1.0
  C  C56  1  0.74653000  0.98972000  0.49994000  1.0
  C  C57  1  0.25344000  0.01028000  0.50022000  1.0
  N  N58  1  0.51975000  0.50006000  0.35088000  1.0
  N  N59  1  0.48023000  0.49994000  0.64911000  1.0
  N  N60  1  0.51976000  0.35089000  0.50005000  1.0
  N  N61  1  0.48024000  0.64911000  0.49994000  1.0
  F  F62  1  0.21623000  0.50155000  0.50154000  1.0
  F  F63  1  0.78373000  0.49845000  0.49845000  1.0
  F  F64  1  0.99997000  0.58847000  0.41152000  1.0
  F  F65  1  0.99998000  0.41153000  0.58847000  1.0
  F  F66  1  0.02722000  0.41158000  0.41158000  1.0
  F  F67  1  0.97273000  0.58842000  0.58842000  1.0
