# generated using pymatgen
data_CdH24(C14N9)2
_symmetry_space_group_name_H-M   'P 1'
_cell_length_a   8.52383000
_cell_length_b   9.32189000
_cell_length_c   9.73818000
_cell_angle_alpha   94.79060000
_cell_angle_beta   95.45740000
_cell_angle_gamma   97.37890000
_symmetry_Int_Tables_number   1
_chemical_formula_structural   CdH24(C14N9)2
_chemical_formula_sum   'Cd1 H24 C28 N18'
_cell_volume   760.29211496
_cell_formula_units_Z   1
loop_
 _symmetry_equiv_pos_site_id
 _symmetry_equiv_pos_as_xyz
  1  'x, y, z'
loop_
 _atom_site_type_symbol
 _atom_site_label
 _atom_site_symmetry_multiplicity
 _atom_site_fract_x
 _atom_site_fract_y
 _atom_site_fract_z
 _atom_site_occupancy
  Cd  Cd0  1  0.00000000  0.00000000  0.00000000  1.0
  H  H1  1  0.67447000  0.58096000  0.25486000  1.0
  H  H2  1  0.32553000  0.41904000  0.74514000  1.0
  H  H3  1  0.85321000  0.75152000  0.43008000  1.0
  H  H4  1  0.14678000  0.24848000  0.56992000  1.0
  H  H5  1  0.92413000  0.67402000  0.66510000  1.0
  H  H6  1  0.07587000  0.32598000  0.33490000  1.0
  H  H7  1  0.81839000  0.42901000  0.72115000  1.0
  H  H8  1  0.18161000  0.57099000  0.27885000  1.0
  H  H9  1  0.52771000  0.23620000  0.63796000  1.0
  H  H10  1  0.47229000  0.76380000  0.36204000  1.0
  H  H11  1  0.55274000  0.14761000  0.47416000  1.0
  H  H12  1  0.44726000  0.85239000  0.52584000  1.0
  H  H13  1  0.43273000  0.25531000  0.31318000  1.0
  H  H14  1  0.56727000  0.74469000  0.68682000  1.0
  H  H15  1  0.50372000  0.37100000  0.19086000  1.0
  H  H16  1  0.49628000  0.62900000  0.80914000  1.0
  H  H17  1  0.01631000  0.95580000  0.63042000  1.0
  H  H18  1  0.98369000  0.04420000  0.36958000  1.0
  H  H19  1  0.69535000  0.17378000  0.84446000  1.0
  H  H20  1  0.30465000  0.82622000  0.15554000  1.0
  H  H21  1  0.63871000  0.86160000  0.12689000  1.0
  H  H22  1  0.36129000  0.13840000  0.87311000  1.0
  H  H23  1  0.83354000  0.30325000  0.15015000  1.0
  H  H24  1  0.16646000  0.69675000  0.84985000  1.0
  C  C25  1  0.68473000  0.36577000  0.52115000  1.0
  C  C26  1  0.31528000  0.63423000  0.47885000  1.0
  C  C27  1  0.64556000  0.40910000  0.38858000  1.0
  C  C28  1  0.35444000  0.59090000  0.61142000  1.0
  C  C29  1  0.70697000  0.54801000  0.35744000  1.0
  C  C30  1  0.29303000  0.45199000  0.64256000  1.0
  C  C31  1  0.80649000  0.64382000  0.45587000  1.0
  C  C32  1  0.19351000  0.35618000  0.54413000  1.0
  C  C33  1  0.84669000  0.60041000  0.58687000  1.0
  C  C34  1  0.15331000  0.39959000  0.41313000  1.0
  C  C35  1  0.78596000  0.46237000  0.61868000  1.0
  C  C36  1  0.21404000  0.53763000  0.38132000  1.0
  C  C37  1  0.61385000  0.22008000  0.56281000  1.0
  C  C38  1  0.38616000  0.77992000  0.43719000  1.0
  C  C39  1  0.54075000  0.30942000  0.27671000  1.0
  C  C40  1  0.45924000  0.69059000  0.72329000  1.0
  C  C41  1  0.92076000  0.01743000  0.65417000  1.0
  C  C42  1  0.07924000  0.98257000  0.34583000  1.0
  C  C43  1  0.76193000  0.12800000  0.76615000  1.0
  C  C44  1  0.23807000  0.87200000  0.23385000  1.0
  C  C45  1  0.65812000  0.97904000  0.15030000  1.0
  C  C46  1  0.34188000  0.02096000  0.84970000  1.0
  C  C47  1  0.75923000  0.20194000  0.16065000  1.0
  C  C48  1  0.24077000  0.79806000  0.83935000  1.0
  C  C49  1  0.83193000  0.63476000  0.97979000  1.0
  C  C50  1  0.16807000  0.36524000  0.02021000  1.0
  C  C51  1  0.65097000  0.42602000  0.94848000  1.0
  C  C52  1  0.34902000  0.57398000  0.05152000  1.0
  N  N53  1  0.73227000  0.14218000  0.63037000  1.0
  N  N54  1  0.26773000  0.85782000  0.36963000  1.0
  N  N55  1  0.83264000  0.07206000  0.55653000  1.0
  N  N56  1  0.16736000  0.92794000  0.44347000  1.0
  N  N57  1  0.88119000  0.04953000  0.78470000  1.0
  N  N58  1  0.11881000  0.95047000  0.21530000  1.0
  N  N59  1  0.62249000  0.19201000  0.21981000  1.0
  N  N60  1  0.37751000  0.80799000  0.78019000  1.0
  N  N61  1  0.55646000  0.05042000  0.21460000  1.0
  N  N62  1  0.44354000  0.94958000  0.78540000  1.0
  N  N63  1  0.78492000  0.06845000  0.11520000  1.0
  N  N64  1  0.21508000  0.93155000  0.88480000  1.0
  N  N65  1  0.78499000  0.50183000  0.00127000  1.0
  N  N66  1  0.21501000  0.49816000  0.99873000  1.0
  N  N67  1  0.88730000  0.75448000  0.96534000  1.0
  N  N68  1  0.11270000  0.24552000  0.03466000  1.0
  N  N69  1  0.53556000  0.34349000  0.90712000  1.0
  N  N70  1  0.46444000  0.65651000  0.09288000  1.0
