# generated using pymatgen
data_UH6Pb(C2O3)4
_symmetry_space_group_name_H-M   'P 1'
_cell_length_a   8.74596000
_cell_length_b   9.00183000
_cell_length_c   9.05488000
_cell_angle_alpha   105.78200000
_cell_angle_beta   108.86000000
_cell_angle_gamma   103.95700000
_symmetry_Int_Tables_number   1
_chemical_formula_structural   UH6Pb(C2O3)4
_chemical_formula_sum   'U2 H12 Pb2 C16 O24'
_cell_volume   605.30309306
_cell_formula_units_Z   2
loop_
 _symmetry_equiv_pos_site_id
 _symmetry_equiv_pos_as_xyz
  1  'x, y, z'
loop_
 _atom_site_type_symbol
 _atom_site_label
 _atom_site_symmetry_multiplicity
 _atom_site_fract_x
 _atom_site_fract_y
 _atom_site_fract_z
 _atom_site_occupancy
  U  U0  1  0.15657000  0.36540000  0.25105000  1.0
  U  U1  1  0.84342000  0.63459000  0.74894000  1.0
  H  H2  1  0.64524000  0.26591000  0.99395000  1.0
  H  H3  1  0.35477000  0.73410000  0.00605000  1.0
  H  H4  1  0.75785000  0.25471000  0.88743000  1.0
  H  H5  1  0.24217000  0.74531000  0.11259000  1.0
  H  H6  1  0.01570000  0.08324000  0.76124000  1.0
  H  H7  1  0.98429000  0.91675000  0.23876000  1.0
  H  H8  1  0.07353000  0.16781000  0.49722000  1.0
  H  H9  1  0.92646000  0.83218000  0.50277000  1.0
  H  H10  1  0.42730000  0.38411000  0.78630000  1.0
  H  H11  1  0.57268000  0.61588000  0.21369000  1.0
  H  H12  1  0.31086000  0.39667000  0.98083000  1.0
  H  H13  1  0.68912000  0.60331000  0.01915000  1.0
  Pb  Pb14  1  0.44919000  0.92547000  0.72764000  1.0
  Pb  Pb15  1  0.55087000  0.07453000  0.27244000  1.0
  C  C16  1  0.15648000  0.13940000  0.80281000  1.0
  C  C17  1  0.84351000  0.86060000  0.19718000  1.0
  C  C18  1  0.20685000  0.18920000  0.58225000  1.0
  C  C19  1  0.79314000  0.81079000  0.41774000  1.0
  C  C20  1  0.28796000  0.36061000  0.72591000  1.0
  C  C21  1  0.71203000  0.63938000  0.27408000  1.0
  C  C22  1  0.21132000  0.33066000  0.85075000  1.0
  C  C23  1  0.78867000  0.66933000  0.14924000  1.0
  C  C24  1  0.24357000  0.10292000  0.95566000  1.0
  C  C25  1  0.75643000  0.89709000  0.04434000  1.0
  C  C26  1  0.30620000  0.15452000  0.47501000  1.0
  C  C27  1  0.69382000  0.84549000  0.52500000  1.0
  C  C28  1  0.28350000  0.51467000  0.68676000  1.0
  C  C29  1  0.71648000  0.48533000  0.31322000  1.0
  C  C30  1  0.05369000  0.37379000  0.85047000  1.0
  C  C31  1  0.94631000  0.62621000  0.14953000  1.0
  O  O32  1  0.34430000  0.50823000  0.25551000  1.0
  O  O33  1  0.65570000  0.49176000  0.74449000  1.0
  O  O34  1  0.96822000  0.21746000  0.24094000  1.0
  O  O35  1  0.03176000  0.78253000  0.75904000  1.0
  O  O36  1  0.19279000  0.14134000  0.07237000  1.0
  O  O37  1  0.80720000  0.85866000  0.92762000  1.0
  O  O38  1  0.36335000  0.04573000  0.96632000  1.0
  O  O39  1  0.63666000  0.95429000  0.03370000  1.0
  O  O40  1  0.34212000  0.25913000  0.40797000  1.0
  O  O41  1  0.65786000  0.74086000  0.59202000  1.0
  O  O42  1  0.34656000  0.02801000  0.45308000  1.0
  O  O43  1  0.65350000  0.97203000  0.54697000  1.0
  O  O44  1  0.22721000  0.50468000  0.53360000  1.0
  O  O45  1  0.77279000  0.49532000  0.46640000  1.0
  O  O46  1  0.34886000  0.65147000  0.80987000  1.0
  O  O47  1  0.65114000  0.34853000  0.19012000  1.0
  O  O48  1  0.99584000  0.33815000  0.95465000  1.0
  O  O49  1  0.00415000  0.66185000  0.04534000  1.0
  O  O50  1  0.98568000  0.43496000  0.74817000  1.0
  O  O51  1  0.01431000  0.56504000  0.25184000  1.0
  O  O52  1  0.20274000  0.07552000  0.66806000  1.0
  O  O53  1  0.79726000  0.92447000  0.33194000  1.0
  O  O54  1  0.63780000  0.21761000  0.87773000  1.0
  O  O55  1  0.36222000  0.78240000  0.12228000  1.0
