# generated using pymatgen
data_CoH16C16(NO2)2
_symmetry_space_group_name_H-M   'P 1'
_cell_length_a   8.03242000
_cell_length_b   9.46391000
_cell_length_c   10.45520000
_cell_angle_alpha   110.72800000
_cell_angle_beta   92.30110000
_cell_angle_gamma   102.69500000
_symmetry_Int_Tables_number   1
_chemical_formula_structural   CoH16C16(NO2)2
_chemical_formula_sum   'Co2 H32 C32 N4 O8'
_cell_volume   719.08414734
_cell_formula_units_Z   2
loop_
 _symmetry_equiv_pos_site_id
 _symmetry_equiv_pos_as_xyz
  1  'x, y, z'
loop_
 _atom_site_type_symbol
 _atom_site_label
 _atom_site_symmetry_multiplicity
 _atom_site_fract_x
 _atom_site_fract_y
 _atom_site_fract_z
 _atom_site_occupancy
  Co  Co0  1  0.15659000  0.98355000  0.14106000  1.0
  Co  Co1  1  0.84341000  0.01645000  0.85894000  1.0
  H  H2  1  0.36130000  0.91730000  0.90024000  1.0
  H  H3  1  0.63870000  0.08270000  0.09976000  1.0
  H  H4  1  0.36023000  0.71392000  0.68140000  1.0
  H  H5  1  0.63977000  0.28609000  0.31859000  1.0
  H  H6  1  0.93848000  0.41591000  0.78565000  1.0
  H  H7  1  0.06152000  0.58409000  0.21434000  1.0
  H  H8  1  0.95867000  0.63772000  0.00444000  1.0
  H  H9  1  0.04134000  0.36228000  0.99556000  1.0
  H  H10  1  0.32636000  0.32653000  0.27749000  1.0
  H  H11  1  0.67364000  0.67347000  0.72251000  1.0
  H  H12  1  0.33160000  0.54958000  0.49363000  1.0
  H  H13  1  0.66840000  0.45042000  0.50636000  1.0
  H  H14  1  0.94446000  0.23501000  0.61064000  1.0
  H  H15  1  0.05553000  0.76499000  0.38936000  1.0
  H  H16  1  0.95842000  0.02866000  0.38967000  1.0
  H  H17  1  0.04158000  0.97134000  0.61034000  1.0
  H  H18  1  0.54335000  0.89353000  0.43019000  1.0
  H  H19  1  0.45665000  0.10647000  0.56982000  1.0
  H  H20  1  0.66421000  0.00098000  0.34069000  1.0
  H  H21  1  0.33579000  0.99902000  0.65931000  1.0
  H  H22  1  0.73547000  0.75444000  0.28186000  1.0
  H  H23  1  0.26453000  0.24556000  0.71815000  1.0
  H  H24  1  0.62604000  0.61642000  0.02523000  1.0
  H  H25  1  0.37395000  0.38358000  0.97478000  1.0
  H  H26  1  0.50339000  0.75249000  0.04096000  1.0
  H  H27  1  0.49661000  0.24751000  0.95904000  1.0
  H  H28  1  0.47303000  0.61458000  0.34878000  1.0
  H  H29  1  0.52697000  0.38542000  0.65122000  1.0
  H  H30  1  0.52562000  0.49806000  0.18860000  1.0
  H  H31  1  0.47438000  0.50194000  0.81141000  1.0
  H  H32  1  0.35187000  0.58858000  0.19337000  1.0
  H  H33  1  0.64813000  0.41142000  0.80663000  1.0
  C  C34  1  0.26605000  0.80634000  0.87151000  1.0
  C  C35  1  0.73395000  0.19366000  0.12849000  1.0
  C  C36  1  0.26436000  0.68829000  0.74598000  1.0
  C  C37  1  0.73563000  0.31171000  0.25402000  1.0
  C  C38  1  0.14496000  0.54285000  0.70801000  1.0
  C  C39  1  0.85503000  0.45715000  0.29199000  1.0
  C  C40  1  0.03371000  0.52536000  0.80509000  1.0
  C  C41  1  0.96630000  0.47464000  0.19491000  1.0
  C  C42  1  0.04364000  0.64981000  0.92830000  1.0
  C  C43  1  0.95636000  0.35019000  0.07170000  1.0
  C  C44  1  0.24536000  0.31243000  0.35546000  1.0
  C  C45  1  0.75464000  0.68757000  0.64454000  1.0
  C  C46  1  0.24684000  0.43615000  0.47704000  1.0
  C  C47  1  0.75315000  0.56385000  0.52296000  1.0
  C  C48  1  0.14034000  0.41460000  0.57548000  1.0
  C  C49  1  0.85966000  0.58540000  0.42451000  1.0
  C  C50  1  0.03292000  0.26397000  0.54191000  1.0
  C  C51  1  0.96707000  0.73603000  0.45809000  1.0
  C  C52  1  0.03942000  0.14642000  0.41781000  1.0
  C  C53  1  0.96057000  0.85358000  0.58219000  1.0
  C  C54  1  0.39689000  0.92122000  0.26781000  1.0
  C  C55  1  0.60311000  0.07879000  0.73219000  1.0
  C  C56  1  0.55934000  0.89870000  0.32791000  1.0
  C  C57  1  0.44066000  0.10130000  0.67210000  1.0
  C  C58  1  0.60674000  0.74832000  0.23679000  1.0
  C  C59  1  0.39326000  0.25168000  0.76322000  1.0
  C  C60  1  0.61917000  0.73597000  0.08765000  1.0
  C  C61  1  0.38083000  0.26404000  0.91235000  1.0
  C  C62  1  0.77631000  0.84109000  0.06242000  1.0
  C  C63  1  0.22369000  0.15891000  0.93759000  1.0
  C  C64  1  0.48192000  0.60357000  0.24136000  1.0
  C  C65  1  0.51808000  0.39644000  0.75864000  1.0
  N  N66  1  0.15581000  0.79044000  0.96217000  1.0
  N  N67  1  0.84419000  0.20955000  0.03782000  1.0
  N  N68  1  0.14374000  0.16816000  0.32497000  1.0
  N  N69  1  0.85626000  0.83184000  0.67503000  1.0
  O  O70  1  0.24740000  0.84010000  0.26655000  1.0
  O  O71  1  0.75261000  0.15990000  0.73345000  1.0
  O  O72  1  0.41500000  0.02418000  0.21268000  1.0
  O  O73  1  0.58501000  0.97582000  0.78733000  1.0
  O  O74  1  0.76766000  0.86021000  0.94790000  1.0
  O  O75  1  0.23234000  0.13979000  0.05210000  1.0
  O  O76  1  0.90869000  0.89425000  0.15212000  1.0
  O  O77  1  0.09132000  0.10575000  0.84788000  1.0
