# generated using pymatgen
data_Zn2H9C29N8(O2F)2
_symmetry_space_group_name_H-M   'P 1'
_cell_length_a   18.59380000
_cell_length_b   19.15050000
_cell_length_c   19.52140000
_cell_angle_alpha   111.08200000
_cell_angle_beta   103.40500000
_cell_angle_gamma   109.12700000
_symmetry_Int_Tables_number   1
_chemical_formula_structural   Zn2H9C29N8(O2F)2
_chemical_formula_sum   'Zn4 H18 C58 N16 O8 F4'
_cell_volume   5625.12136561
_cell_formula_units_Z   2
loop_
 _symmetry_equiv_pos_site_id
 _symmetry_equiv_pos_as_xyz
  1  'x, y, z'
loop_
 _atom_site_type_symbol
 _atom_site_label
 _atom_site_symmetry_multiplicity
 _atom_site_fract_x
 _atom_site_fract_y
 _atom_site_fract_z
 _atom_site_occupancy
  Zn  Zn0  1  0.99368000  0.10066000  0.60340000  1.0
  Zn  Zn1  1  0.98662000  0.87592000  0.37104000  1.0
  Zn  Zn2  1  0.87697000  0.86920000  0.49961000  1.0
  Zn  Zn3  1  0.10229000  0.11202000  0.48072000  1.0
  H  H4  1  0.04605000  0.11899000  0.79758000  1.0
  H  H5  1  0.69834000  0.71273000  0.34546000  1.0
  H  H6  1  0.13601000  0.19785000  0.76643000  1.0
  H  H7  1  0.82423000  0.83650000  0.23055000  1.0
  H  H8  1  0.27088000  0.11613000  0.54876000  1.0
  H  H9  1  0.70189000  0.86199000  0.41257000  1.0
  H  H10  1  0.02270000  0.71318000  0.27425000  1.0
  H  H11  1  0.96393000  0.25557000  0.73987000  1.0
  H  H12  1  0.81400000  0.73219000  0.63494000  1.0
  H  H13  1  0.23966000  0.22891000  0.36068000  1.0
  H  H14  1  0.94540000  0.86859000  0.18520000  1.0
  H  H15  1  0.55798000  0.52646000  0.02659000  1.0
  H  H16  1  0.33086000  0.60255000  0.97197000  1.0
  H  H17  1  0.15695000  0.86421000  0.35113000  1.0
  H  H18  1  0.84983000  0.13161000  0.52987000  1.0
  H  H19  1  0.00695000  0.83690000  0.62106000  1.0
  H  H20  1  0.06556000  0.25495000  0.44576000  1.0
  H  H21  1  0.26038000  0.29058000  0.63295000  1.0
  C  C22  1  0.00335000  0.05647000  0.74884000  1.0
  C  C23  1  0.38099000  0.58510000  0.98380000  1.0
  C  C24  1  0.41840000  0.49485000  0.00913000  1.0
  C  C25  1  0.46979000  0.63247000  0.98857000  1.0
  C  C26  1  0.27055000  0.35651000  0.79997000  1.0
  C  C27  1  0.65091000  0.72369000  0.19493000  1.0
  C  C28  1  0.46716000  0.54638000  0.93640000  1.0
  C  C29  1  0.42085000  0.58081000  0.06097000  1.0
  C  C30  1  0.37644000  0.49708000  0.92971000  1.0
  C  C31  1  0.51182000  0.62940000  0.06765000  1.0
  C  C32  1  0.31342000  0.42496000  0.85933000  1.0
  C  C33  1  0.98628000  0.93136000  0.23457000  1.0
  C  C34  1  0.58472000  0.68783000  0.13769000  1.0
  C  C35  1  0.32652000  0.00135000  0.45112000  1.0
  C  C36  1  0.67026000  0.00937000  0.44818000  1.0
  C  C37  1  0.17076000  0.92455000  0.39801000  1.0
  C  C38  1  0.82639000  0.06425000  0.50556000  1.0
  C  C39  1  0.39317000  0.00671000  0.44737000  1.0
  C  C40  1  0.60395000  0.01200000  0.44243000  1.0
  C  C41  1  0.46547000  0.01093000  0.44381000  1.0
  C  C42  1  0.53193000  0.01291000  0.44127000  1.0
  C  C43  1  0.04923000  0.38810000  0.56500000  1.0
  C  C44  1  0.24909000  0.99368000  0.45102000  1.0
  C  C45  1  0.06248000  0.71423000  0.54397000  1.0
  C  C46  1  0.06094000  0.45720000  0.57003000  1.0
  C  C47  1  0.07158000  0.65924000  0.55802000  1.0
  C  C48  1  0.06993000  0.52998000  0.57144000  1.0
  C  C49  1  0.07425000  0.59433000  0.56777000  1.0
  C  C50  1  0.98854000  0.97335000  0.82281000  1.0
  C  C51  1  0.05826000  0.99920000  0.16601000  1.0
  C  C52  1  0.01019000  0.97395000  0.88770000  1.0
  C  C53  1  0.05685000  0.99183000  0.10031000  1.0
  C  C54  1  0.03122000  0.97762000  0.95968000  1.0
  C  C55  1  0.74363000  0.00117000  0.46237000  1.0
  C  C56  1  0.04739000  0.98446000  0.02764000  1.0
  C  C57  1  0.01100000  0.82299000  0.56350000  1.0
  C  C58  1  0.04687000  0.24894000  0.49284000  1.0
  C  C59  1  0.22064000  0.25456000  0.65332000  1.0
  C  C60  1  0.74261000  0.74797000  0.32802000  1.0
  C  C61  1  0.03112000  0.77579000  0.45137000  1.0
  C  C62  1  0.01384000  0.26665000  0.59805000  1.0
  C  C63  1  0.15702000  0.20684000  0.72148000  1.0
  C  C64  1  0.80663000  0.81129000  0.26904000  1.0
  C  C65  1  0.22952000  0.05338000  0.49965000  1.0
  C  C66  1  0.04070000  0.76912000  0.52302000  1.0
  C  C67  1  0.75069000  0.92611000  0.44560000  1.0
  C  C68  1  0.91756000  0.92073000  0.67211000  1.0
  C  C69  1  0.08021000  0.06385000  0.31424000  1.0
  C  C70  1  0.96994000  0.98142000  0.75347000  1.0
  C  C71  1  0.04543000  0.99931000  0.23359000  1.0
  C  C72  1  0.04391000  0.73039000  0.38120000  1.0
  C  C73  1  0.99569000  0.29462000  0.66910000  1.0
  C  C74  1  0.86197000  0.83142000  0.62816000  1.0
  C  C75  1  0.15140000  0.14568000  0.36146000  1.0
  C  C76  1  0.03698000  0.30819000  0.55342000  1.0
  C  C77  1  0.22034000  0.27872000  0.73068000  1.0
  C  C78  1  0.72714000  0.75983000  0.25963000  1.0
  C  C79  1  0.50608000  0.54090000  0.01251000  1.0
  N  N80  1  0.97384000  0.04061000  0.67184000  1.0
  N  N81  1  0.01105000  0.19019000  0.56505000  1.0
  N  N82  1  0.12144000  0.14533000  0.64462000  1.0
  N  N83  1  0.86368000  0.82741000  0.33681000  1.0
  N  N84  1  0.14665000  0.02261000  0.47625000  1.0
  N  N85  1  0.83056000  0.94414000  0.47796000  1.0
  N  N86  1  0.92261000  0.95856000  0.62571000  1.0
  N  N87  1  0.04148000  0.03468000  0.35613000  1.0
  N  N88  1  0.98554000  0.95403000  0.30841000  1.0
  N  N89  1  0.11093000  0.94326000  0.41358000  1.0
  N  N90  1  0.87756000  0.02913000  0.51522000  1.0
  N  N91  1  0.98469000  0.85678000  0.51880000  1.0
  N  N92  1  0.03135000  0.17916000  0.50129000  1.0
  N  N93  1  0.16180000  0.17562000  0.60329000  1.0
  N  N94  1  0.82423000  0.78841000  0.37383000  1.0
  N  N95  1  0.99780000  0.82850000  0.45141000  1.0
  O  O96  1  0.07431000  0.68211000  0.37255000  1.0
  O  O97  1  0.01355000  0.74724000  0.31936000  1.0
  O  O98  1  0.99626000  0.36170000  0.70496000  1.0
  O  O99  1  0.97644000  0.23293000  0.69301000  1.0
  O  O100  1  0.82611000  0.79338000  0.55347000  1.0
  O  O101  1  0.85155000  0.79178000  0.67193000  1.0
  O  O102  1  0.17626000  0.18532000  0.43596000  1.0
  O  O103  1  0.19082000  0.17560000  0.32134000  1.0
  F  F104  1  0.39704000  0.59825000  0.12350000  1.0
  F  F105  1  0.49003000  0.52893000  0.87327000  1.0
  F  F106  1  0.39213000  0.42568000  0.01959000  1.0
  F  F107  1  0.49448000  0.70117000  0.97722000  1.0
