# generated using pymatgen
data_NiH20C21(NO3)2
_symmetry_space_group_name_H-M   'P 1'
_cell_length_a   8.19142000
_cell_length_b   11.37790000
_cell_length_c   11.71830000
_cell_angle_alpha   109.98100000
_cell_angle_beta   99.70010000
_cell_angle_gamma   104.30000000
_symmetry_Int_Tables_number   1
_chemical_formula_structural   NiH20C21(NO3)2
_chemical_formula_sum   'Ni2 H40 C42 N4 O12'
_cell_volume   955.49610243
_cell_formula_units_Z   2
loop_
 _symmetry_equiv_pos_site_id
 _symmetry_equiv_pos_as_xyz
  1  'x, y, z'
loop_
 _atom_site_type_symbol
 _atom_site_label
 _atom_site_symmetry_multiplicity
 _atom_site_fract_x
 _atom_site_fract_y
 _atom_site_fract_z
 _atom_site_occupancy
  Ni  Ni0  1  0.25115000  0.27563000  0.93193000  1.0
  Ni  Ni1  1  0.74884000  0.72437000  0.06807000  1.0
  H  H2  1  0.15884000  0.37380000  0.12996000  1.0
  H  H3  1  0.84116000  0.62620000  0.87005000  1.0
  H  H4  1  0.25792000  0.48767000  0.08774000  1.0
  H  H5  1  0.74208000  0.51233000  0.91227000  1.0
  H  H6  1  0.97557000  0.13033000  0.01557000  1.0
  H  H7  1  0.02445000  0.86966000  0.98441000  1.0
  H  H8  1  0.96426000  0.01859000  0.88722000  1.0
  H  H9  1  0.03577000  0.98140000  0.11276000  1.0
  H  H10  1  0.54642000  0.09760000  0.67363000  1.0
  H  H11  1  0.45358000  0.90241000  0.32637000  1.0
  H  H12  1  0.70240000  0.25605000  0.71415000  1.0
  H  H13  1  0.29759000  0.74395000  0.28585000  1.0
  H  H14  1  0.33674000  0.00244000  0.47733000  1.0
  H  H15  1  0.66326000  0.99756000  0.52267000  1.0
  H  H16  1  0.16021000  0.01742000  0.29285000  1.0
  H  H17  1  0.83979000  0.98257000  0.70715000  1.0
  H  H18  1  0.36204000  0.44119000  0.47639000  1.0
  H  H19  1  0.63793000  0.55881000  0.52359000  1.0
  H  H20  1  0.54940000  0.42787000  0.65828000  1.0
  H  H21  1  0.45057000  0.57212000  0.34171000  1.0
  H  H22  1  0.52923000  0.45796000  0.15059000  1.0
  H  H23  1  0.47076000  0.54204000  0.84941000  1.0
  H  H24  1  0.73174000  0.44263000  0.32282000  1.0
  H  H25  1  0.26826000  0.55737000  0.67718000  1.0
  H  H26  1  0.47660000  0.01702000  0.14825000  1.0
  H  H27  1  0.52343000  0.98298000  0.85176000  1.0
  H  H28  1  0.28139000  0.05071000  0.98367000  1.0
  H  H29  1  0.71864000  0.94929000  0.01633000  1.0
  H  H30  1  0.73448000  0.11202000  0.33503000  1.0
  H  H31  1  0.26553000  0.88799000  0.66498000  1.0
  H  H32  1  0.80938000  0.41114000  0.48485000  1.0
  H  H33  1  0.19065000  0.58887000  0.51516000  1.0
  H  H34  1  0.93903000  0.10655000  0.47917000  1.0
  H  H35  1  0.06096000  0.89345000  0.52084000  1.0
  H  H36  1  0.10753000  0.10521000  0.67441000  1.0
  H  H37  1  0.89245000  0.89479000  0.32560000  1.0
  H  H38  1  0.11199000  0.48056000  0.89225000  1.0
  H  H39  1  0.88801000  0.51944000  0.10776000  1.0
  H  H40  1  0.94567000  0.49971000  0.70524000  1.0
  H  H41  1  0.05433000  0.50030000  0.29477000  1.0
  C  C42  1  0.50196000  0.26149000  0.80891000  1.0
  C  C43  1  0.49804000  0.73851000  0.19109000  1.0
  C  C44  1  0.56287000  0.20182000  0.69338000  1.0
  C  C45  1  0.43712000  0.79819000  0.30661000  1.0
  C  C46  1  0.45482000  0.21318000  0.58167000  1.0
  C  C47  1  0.54516000  0.78681000  0.41832000  1.0
  C  C48  1  0.34323000  0.09942000  0.47758000  1.0
  C  C49  1  0.65676000  0.90057000  0.52241000  1.0
  C  C50  1  0.24126000  0.10761000  0.37429000  1.0
  C  C51  1  0.75873000  0.89239000  0.62570000  1.0
  C  C52  1  0.24604000  0.23118000  0.37340000  1.0
  C  C53  1  0.75394000  0.76882000  0.62660000  1.0
  C  C54  1  0.35698000  0.34522000  0.47789000  1.0
  C  C55  1  0.64299000  0.65478000  0.52211000  1.0
  C  C56  1  0.46090000  0.33709000  0.58021000  1.0
  C  C57  1  0.53908000  0.66291000  0.41978000  1.0
  C  C58  1  0.14159000  0.24322000  0.26112000  1.0
  C  C59  1  0.85840000  0.75677000  0.73887000  1.0
  C  C60  1  0.52154000  0.36299000  0.15565000  1.0
  C  C61  1  0.47848000  0.63702000  0.84435000  1.0
  C  C62  1  0.63383000  0.35249000  0.25080000  1.0
  C  C63  1  0.36618000  0.64752000  0.74920000  1.0
  C  C64  1  0.62155000  0.22765000  0.25252000  1.0
  C  C65  1  0.37847000  0.77236000  0.74749000  1.0
  C  C66  1  0.49355000  0.11687000  0.15306000  1.0
  C  C67  1  0.50647000  0.88314000  0.84694000  1.0
  C  C68  1  0.38346000  0.13423000  0.06091000  1.0
  C  C69  1  0.61656000  0.86577000  0.93909000  1.0
  C  C70  1  0.73255000  0.21248000  0.35348000  1.0
  C  C71  1  0.26746000  0.78753000  0.64653000  1.0
  C  C72  1  0.82171000  0.31340000  0.46674000  1.0
  C  C73  1  0.17831000  0.68660000  0.53326000  1.0
  C  C74  1  0.92554000  0.30396000  0.57435000  1.0
  C  C75  1  0.07447000  0.69604000  0.42566000  1.0
  C  C76  1  0.97284000  0.19179000  0.56817000  1.0
  C  C77  1  0.02715000  0.80821000  0.43185000  1.0
  C  C78  1  0.06690000  0.18963000  0.67645000  1.0
  C  C79  1  0.93308000  0.81036000  0.32356000  1.0
  C  C80  1  0.07243000  0.40051000  0.79895000  1.0
  C  C81  1  0.92757000  0.59949000  0.20106000  1.0
  C  C82  1  0.97942000  0.41002000  0.69374000  1.0
  C  C83  1  0.02059000  0.58999000  0.30627000  1.0
  N  N84  1  0.39639000  0.25558000  0.06267000  1.0
  N  N85  1  0.60362000  0.74441000  0.93733000  1.0
  N  N86  1  0.11728000  0.29205000  0.79118000  1.0
  N  N87  1  0.88272000  0.70796000  0.20883000  1.0
  O  O88  1  0.36524000  0.18144000  0.81746000  1.0
  O  O89  1  0.63476000  0.81856000  0.18254000  1.0
  O  O90  1  0.57268000  0.38072000  0.88342000  1.0
  O  O91  1  0.42732000  0.61928000  0.11658000  1.0
  O  O92  1  0.02563000  0.13997000  0.17492000  1.0
  O  O93  1  0.97436000  0.86001000  0.82506000  1.0
  O  O94  1  0.17915000  0.35828000  0.25927000  1.0
  O  O95  1  0.82083000  0.64171000  0.74073000  1.0
  O  O96  1  0.16526000  0.39818000  0.05367000  1.0
  O  O97  1  0.83474000  0.60182000  0.94634000  1.0
  O  O98  1  0.96019000  0.10997000  0.92435000  1.0
  O  O99  1  0.03985000  0.89002000  0.07563000  1.0
