# generated using pymatgen
data_PrH7C7(NO4)2
_symmetry_space_group_name_H-M   'P 1'
_cell_length_a   7.94592000
_cell_length_b   8.69740000
_cell_length_c   8.73801000
_cell_angle_alpha   115.75500000
_cell_angle_beta   96.78760000
_cell_angle_gamma   100.49400000
_symmetry_Int_Tables_number   1
_chemical_formula_structural   PrH7C7(NO4)2
_chemical_formula_sum   'Pr2 H14 C14 N4 O16'
_cell_volume   521.34312168
_cell_formula_units_Z   2
loop_
 _symmetry_equiv_pos_site_id
 _symmetry_equiv_pos_as_xyz
  1  'x, y, z'
loop_
 _atom_site_type_symbol
 _atom_site_label
 _atom_site_symmetry_multiplicity
 _atom_site_fract_x
 _atom_site_fract_y
 _atom_site_fract_z
 _atom_site_occupancy
  Pr  Pr0  1  0.83947000  0.82516000  0.08383000  1.0
  Pr  Pr1  1  0.16053000  0.17484000  0.91617000  1.0
  H  H2  1  0.82455000  0.54304000  0.43086000  1.0
  H  H3  1  0.17545000  0.45696000  0.56914000  1.0
  H  H4  1  0.47225000  0.25414000  0.58622000  1.0
  H  H5  1  0.52775000  0.74586000  0.41378000  1.0
  H  H6  1  0.51072000  0.96956000  0.35120000  1.0
  H  H7  1  0.48928000  0.03044000  0.64880000  1.0
  H  H8  1  0.15965000  0.66249000  0.12136000  1.0
  H  H9  1  0.84035000  0.33751000  0.87864000  1.0
  H  H10  1  0.02335000  0.61119000  0.21133000  1.0
  H  H11  1  0.97665000  0.38881000  0.78867000  1.0
  H  H12  1  0.67399000  0.62192000  0.68942000  1.0
  H  H13  1  0.32602000  0.37808000  0.31058000  1.0
  H  H14  1  0.77458000  0.81569000  0.73002000  1.0
  H  H15  1  0.22542000  0.18432000  0.26998000  1.0
  C  C16  1  0.89458000  0.25726000  0.16644000  1.0
  C  C17  1  0.10542000  0.74274000  0.83356000  1.0
  C  C18  1  0.77484000  0.25810000  0.28643000  1.0
  C  C19  1  0.22516000  0.74190000  0.71357000  1.0
  C  C20  1  0.75497000  0.41509000  0.41553000  1.0
  C  C21  1  0.24503000  0.58491000  0.58447000  1.0
  C  C22  1  0.56268000  0.25598000  0.50184000  1.0
  C  C23  1  0.43733000  0.74402000  0.49817000  1.0
  C  C24  1  0.58287000  0.09868000  0.37225000  1.0
  C  C25  1  0.41713000  0.90132000  0.62775000  1.0
  C  C26  1  0.55717000  0.43310000  0.97444000  1.0
  C  C27  1  0.44283000  0.56691000  0.02556000  1.0
  C  C28  1  0.92777000  0.92864000  0.50490000  1.0
  C  C29  1  0.07222000  0.07136000  0.49509000  1.0
  N  N30  1  0.69216000  0.09974000  0.26780000  1.0
  N  N31  1  0.30784000  0.90026000  0.73220000  1.0
  N  N32  1  0.65136000  0.41373000  0.52535000  1.0
  N  N33  1  0.34864000  0.58627000  0.47465000  1.0
  O  O34  1  0.89576000  0.10523000  0.04594000  1.0
  O  O35  1  0.10424000  0.89477000  0.95406000  1.0
  O  O36  1  0.99169000  0.39965000  0.18895000  1.0
  O  O37  1  0.00831000  0.60035000  0.81106000  1.0
  O  O38  1  0.71543000  0.49468000  0.97518000  1.0
  O  O39  1  0.28456000  0.50532000  0.02483000  1.0
  O  O40  1  0.48578000  0.27531000  0.93580000  1.0
  O  O41  1  0.51422000  0.72468000  0.06419000  1.0
  O  O42  1  0.80896000  0.82751000  0.36925000  1.0
  O  O43  1  0.19103000  0.17249000  0.63075000  1.0
  O  O44  1  0.94114000  0.92413000  0.64916000  1.0
  O  O45  1  0.05886000  0.07588000  0.35084000  1.0
  O  O46  1  0.07611000  0.71229000  0.19294000  1.0
  O  O47  1  0.92389000  0.28771000  0.80706000  1.0
  O  O48  1  0.70314000  0.75076000  0.77926000  1.0
  O  O49  1  0.29686000  0.24924000  0.22074000  1.0
