# generated using pymatgen
data_CuH7C7INO
_symmetry_space_group_name_H-M   'P 1'
_cell_length_a   4.01800000
_cell_length_b   8.11542000
_cell_length_c   26.19320000
_cell_angle_alpha   89.99940000
_cell_angle_beta   90.00170000
_cell_angle_gamma   89.99940000
_symmetry_Int_Tables_number   1
_chemical_formula_structural   CuH7C7INO
_chemical_formula_sum   'Cu4 H28 C28 I4 N4 O4'
_cell_volume   854.10151485
_cell_formula_units_Z   4
loop_
 _symmetry_equiv_pos_site_id
 _symmetry_equiv_pos_as_xyz
  1  'x, y, z'
loop_
 _atom_site_type_symbol
 _atom_site_label
 _atom_site_symmetry_multiplicity
 _atom_site_fract_x
 _atom_site_fract_y
 _atom_site_fract_z
 _atom_site_occupancy
  Cu  Cu0  1  0.46252000  0.73304000  0.96506000  1.0
  Cu  Cu1  1  0.03748000  0.26696000  0.46506000  1.0
  Cu  Cu2  1  0.96251000  0.76694000  0.03494000  1.0
  Cu  Cu3  1  0.53750000  0.23307000  0.53494000  1.0
  H  H4  1  0.66779000  0.38358000  0.95299000  1.0
  H  H5  1  0.83218000  0.61642000  0.45298000  1.0
  H  H6  1  0.16775000  0.11641000  0.04702000  1.0
  H  H7  1  0.33221000  0.88361000  0.54702000  1.0
  H  H8  1  0.59616000  0.16028000  0.88976000  1.0
  H  H9  1  0.90381000  0.83971000  0.38975000  1.0
  H  H10  1  0.09614000  0.33970000  0.11025000  1.0
  H  H11  1  0.40381000  0.66031000  0.61025000  1.0
  H  H12  1  0.07341000  0.51026000  0.79378000  1.0
  H  H13  1  0.42661000  0.48973000  0.29378000  1.0
  H  H14  1  0.57342000  0.98972000  0.20622000  1.0
  H  H15  1  0.92662000  0.01028000  0.70622000  1.0
  H  H16  1  0.16258000  0.71793000  0.86180000  1.0
  H  H17  1  0.33744000  0.28207000  0.36181000  1.0
  H  H18  1  0.66258000  0.78205000  0.13819000  1.0
  H  H19  1  0.83748000  0.21794000  0.63820000  1.0
  H  H20  1  0.36598000  0.97380000  0.84393000  1.0
  H  H21  1  0.13409000  0.02619000  0.34392000  1.0
  H  H22  1  0.86602000  0.52618000  0.15607000  1.0
  H  H23  1  0.63396000  0.47383000  0.65607000  1.0
  H  H24  1  0.66061000  0.01387000  0.79536000  1.0
  H  H25  1  0.83940000  0.98614000  0.29536000  1.0
  H  H26  1  0.16066000  0.48611000  0.20464000  1.0
  H  H27  1  0.33932000  0.51391000  0.70464000  1.0
  H  H28  1  0.26853000  0.92830000  0.77842000  1.0
  H  H29  1  0.23147000  0.07169000  0.27841000  1.0
  H  H30  1  0.76859000  0.57168000  0.22158000  1.0
  H  H31  1  0.73138000  0.42832000  0.72158000  1.0
  C  C32  1  0.53867000  0.40660000  0.91705000  1.0
  C  C33  1  0.96131000  0.59339000  0.41704000  1.0
  C  C34  1  0.03866000  0.09338000  0.08296000  1.0
  C  C35  1  0.46133000  0.90663000  0.58296000  1.0
  C  C36  1  0.49648000  0.28199000  0.88123000  1.0
  C  C37  1  0.00350000  0.71800000  0.38122000  1.0
  C  C38  1  0.99646000  0.21799000  0.11877000  1.0
  C  C39  1  0.50352000  0.78202000  0.61877000  1.0
  C  C40  1  0.32641000  0.31528000  0.83573000  1.0
  C  C41  1  0.17358000  0.68471000  0.33573000  1.0
  C  C42  1  0.82641000  0.18470000  0.16427000  1.0
  C  C43  1  0.67358000  0.81531000  0.66427000  1.0
  C  C44  1  0.20758000  0.47593000  0.82829000  1.0
  C  C45  1  0.29243000  0.52406000  0.32829000  1.0
  C  C46  1  0.70758000  0.02405000  0.17171000  1.0
  C  C47  1  0.79245000  0.97595000  0.67171000  1.0
  C  C48  1  0.25886000  0.59311000  0.86595000  1.0
  C  C49  1  0.24115000  0.40689000  0.36595000  1.0
  C  C50  1  0.75885000  0.90688000  0.13405000  1.0
  C  C51  1  0.74118000  0.09313000  0.63405000  1.0
  C  C52  1  0.25941000  0.18597000  0.79631000  1.0
  C  C53  1  0.24059000  0.81402000  0.29630000  1.0
  C  C54  1  0.75944000  0.31401000  0.20370000  1.0
  C  C55  1  0.74055000  0.68599000  0.70370000  1.0
  C  C56  1  0.39308000  0.01487000  0.80418000  1.0
  C  C57  1  0.10695000  0.98511000  0.30417000  1.0
  C  C58  1  0.89312000  0.48510000  0.19582000  1.0
  C  C59  1  0.60686000  0.51490000  0.69582000  1.0
  I  I60  1  0.95943000  0.94011000  0.94976000  1.0
  I  I61  1  0.54056000  0.05989000  0.44976000  1.0
  I  I62  1  0.45943000  0.55987000  0.05024000  1.0
  I  I63  1  0.04058000  0.44014000  0.55024000  1.0
  N  N64  1  0.42039000  0.56058000  0.91014000  1.0
  N  N65  1  0.07961000  0.43941000  0.41013000  1.0
  N  N66  1  0.92037000  0.93941000  0.08986000  1.0
  N  N67  1  0.57963000  0.06060000  0.58986000  1.0
  O  O68  1  0.09260000  0.22149000  0.75816000  1.0
  O  O69  1  0.40739000  0.77850000  0.25815000  1.0
  O  O70  1  0.59264000  0.27850000  0.24185000  1.0
  O  O71  1  0.90737000  0.72150000  0.74185000  1.0
