# generated using pymatgen
data_HgH10C7(SCl)2
_symmetry_space_group_name_H-M   'P 1'
_cell_length_a   4.90208000
_cell_length_b   8.70772000
_cell_length_c   12.05640000
_cell_angle_alpha   89.99950000
_cell_angle_beta   89.99970000
_cell_angle_gamma   89.99980000
_symmetry_Int_Tables_number   1
_chemical_formula_structural   HgH10C7(SCl)2
_chemical_formula_sum   'Hg2 H20 C14 S4 Cl4'
_cell_volume   514.63876768
_cell_formula_units_Z   2
loop_
 _symmetry_equiv_pos_site_id
 _symmetry_equiv_pos_as_xyz
  1  'x, y, z'
loop_
 _atom_site_type_symbol
 _atom_site_label
 _atom_site_symmetry_multiplicity
 _atom_site_fract_x
 _atom_site_fract_y
 _atom_site_fract_z
 _atom_site_occupancy
  Hg  Hg0  1  0.19423000  0.74999000  0.75001000  1.0
  Hg  Hg1  1  0.80575000  0.25001000  0.25000000  1.0
  H  H2  1  0.31841000  0.45526000  0.58570000  1.0
  H  H3  1  0.31830000  0.45523000  0.91430000  1.0
  H  H4  1  0.31826000  0.04475000  0.58571000  1.0
  H  H5  1  0.31822000  0.04474000  0.91427000  1.0
  H  H6  1  0.68172000  0.54475000  0.41428000  1.0
  H  H7  1  0.68170000  0.54476000  0.08571000  1.0
  H  H8  1  0.68174000  0.95524000  0.41429000  1.0
  H  H9  1  0.68171000  0.95527000  0.08573000  1.0
  H  H10  1  0.65932000  0.38318000  0.58430000  1.0
  H  H11  1  0.65924000  0.38315000  0.91572000  1.0
  H  H12  1  0.65920000  0.11680000  0.58428000  1.0
  H  H13  1  0.65915000  0.11679000  0.91572000  1.0
  H  H14  1  0.34077000  0.61679000  0.41571000  1.0
  H  H15  1  0.34077000  0.61681000  0.08428000  1.0
  H  H16  1  0.34081000  0.88319000  0.41573000  1.0
  H  H17  1  0.34078000  0.88321000  0.08429000  1.0
  H  H18  1  0.00016000  0.14390000  0.74998000  1.0
  H  H19  1  0.00022000  0.35616000  0.75000000  1.0
  H  H20  1  0.99979000  0.85613000  0.25000000  1.0
  H  H21  1  0.99978000  0.64388000  0.25000000  1.0
  C  C22  1  0.38339000  0.25001000  0.68683000  1.0
  C  C23  1  0.38338000  0.24999000  0.81315000  1.0
  C  C24  1  0.61659000  0.75000000  0.31315000  1.0
  C  C25  1  0.61660000  0.75000000  0.18684000  1.0
  C  C26  1  0.47692000  0.39969000  0.63583000  1.0
  C  C27  1  0.47686000  0.39967000  0.86417000  1.0
  C  C28  1  0.47683000  0.10030000  0.63582000  1.0
  C  C29  1  0.47680000  0.10030000  0.86417000  1.0
  C  C30  1  0.52314000  0.60030000  0.36417000  1.0
  C  C31  1  0.52315000  0.60031000  0.13581000  1.0
  C  C32  1  0.52316000  0.89969000  0.36419000  1.0
  C  C33  1  0.52315000  0.89971000  0.13583000  1.0
  C  C34  1  0.11865000  0.25001000  0.74999000  1.0
  C  C35  1  0.88135000  0.75001000  0.25000000  1.0
  S  S36  1  0.56970000  0.52890000  0.75001000  1.0
  S  S37  1  0.56966000  0.97110000  0.74999000  1.0
  S  S38  1  0.43032000  0.47110000  0.25000000  1.0
  S  S39  1  0.43032000  0.02890000  0.25002000  1.0
  Cl  Cl40  1  0.98264000  0.75001000  0.93584000  1.0
  Cl  Cl41  1  0.98263000  0.74999000  0.56416000  1.0
  Cl  Cl42  1  0.01735000  0.24999000  0.06416000  1.0
  Cl  Cl43  1  0.01738000  0.25001000  0.43584000  1.0
