# generated using pymatgen
data_Pr2Cu3H24(C4O5)6
_symmetry_space_group_name_H-M   'P 1'
_cell_length_a   14.32010000
_cell_length_b   15.17730000
_cell_length_c   15.17730000
_cell_angle_alpha   60.00000000
_cell_angle_beta   90.00000000
_cell_angle_gamma   89.99990000
_symmetry_Int_Tables_number   1
_chemical_formula_structural   Pr2Cu3H24(C4O5)6
_chemical_formula_sum   'Pr4 Cu6 H48 C48 O60'
_cell_volume   2856.70713640
_cell_formula_units_Z   2
loop_
 _symmetry_equiv_pos_site_id
 _symmetry_equiv_pos_as_xyz
  1  'x, y, z'
loop_
 _atom_site_type_symbol
 _atom_site_label
 _atom_site_symmetry_multiplicity
 _atom_site_fract_x
 _atom_site_fract_y
 _atom_site_fract_z
 _atom_site_occupancy
  Pr  Pr0  1  0.75000000  0.33333333  0.33333333  1.0
  Pr  Pr1  1  0.75000000  0.66666667  0.66666667  1.0
  Pr  Pr2  1  0.25000000  0.66666667  0.66666667  1.0
  Pr  Pr3  1  0.25000000  0.33333333  0.33333333  1.0
  Cu  Cu4  1  0.00000000  0.50000000  0.50000000  1.0
  Cu  Cu5  1  0.00000000  1.00000000  0.50000000  1.0
  Cu  Cu6  1  0.00000000  0.50000000  0.00000000  1.0
  Cu  Cu7  1  0.50000000  1.00000000  0.50000000  1.0
  Cu  Cu8  1  0.50000000  0.50000000  0.50000000  1.0
  Cu  Cu9  1  0.50000000  0.50000000  0.00000000  1.0
  H  H10  1  0.15458000  0.79310000  0.84999000  1.0
  H  H11  1  0.24974000  0.70999000  0.91949000  1.0
  H  H12  1  0.15458000  0.35691000  0.79310000  1.0
  H  H13  1  0.24974000  0.37052000  0.70999000  1.0
  H  H14  1  0.15458000  0.84999000  0.35691000  1.0
  H  H15  1  0.24974000  0.91949000  0.37052000  1.0
  H  H16  1  0.15458000  0.20690000  0.15001000  1.0
  H  H17  1  0.24974000  0.29001000  0.08051000  1.0
  H  H18  1  0.15458000  0.64309000  0.20690000  1.0
  H  H19  1  0.24974000  0.62948000  0.29001000  1.0
  H  H20  1  0.15458000  0.15001000  0.64309000  1.0
  H  H21  1  0.24974000  0.08051000  0.62948000  1.0
  H  H22  1  0.34542000  0.64309000  0.15001000  1.0
  H  H23  1  0.25026000  0.62948000  0.08051000  1.0
  H  H24  1  0.34542000  0.15001000  0.20690000  1.0
  H  H25  1  0.25026000  0.08051000  0.29001000  1.0
  H  H26  1  0.34542000  0.20690000  0.64309000  1.0
  H  H27  1  0.25026000  0.29001000  0.62948000  1.0
  H  H28  1  0.34542000  0.35691000  0.84999000  1.0
  H  H29  1  0.25026000  0.37052000  0.91949000  1.0
  H  H30  1  0.34542000  0.84999000  0.79310000  1.0
  H  H31  1  0.25026000  0.91949000  0.70999000  1.0
  H  H32  1  0.34542000  0.79310000  0.35691000  1.0
  H  H33  1  0.25026000  0.70999000  0.37052000  1.0
  H  H34  1  0.84542000  0.20690000  0.15001000  1.0
  H  H35  1  0.75026000  0.29001000  0.08051000  1.0
  H  H36  1  0.84542000  0.64309000  0.20690000  1.0
  H  H37  1  0.75026000  0.62948000  0.29001000  1.0
  H  H38  1  0.84542000  0.15001000  0.64309000  1.0
  H  H39  1  0.75026000  0.08051000  0.62948000  1.0
  H  H40  1  0.84542000  0.79310000  0.84999000  1.0
  H  H41  1  0.75026000  0.70999000  0.91949000  1.0
  H  H42  1  0.84542000  0.35691000  0.79310000  1.0
  H  H43  1  0.75026000  0.37052000  0.70999000  1.0
  H  H44  1  0.84542000  0.84999000  0.35691000  1.0
  H  H45  1  0.75026000  0.91949000  0.37052000  1.0
  H  H46  1  0.65458000  0.35691000  0.84999000  1.0
  H  H47  1  0.74974000  0.37052000  0.91949000  1.0
  H  H48  1  0.65458000  0.84999000  0.79310000  1.0
  H  H49  1  0.74974000  0.91949000  0.70999000  1.0
  H  H50  1  0.65458000  0.79310000  0.35691000  1.0
  H  H51  1  0.74974000  0.70999000  0.37052000  1.0
  H  H52  1  0.65458000  0.64309000  0.15001000  1.0
  H  H53  1  0.74974000  0.62948000  0.08051000  1.0
  H  H54  1  0.65458000  0.15001000  0.20690000  1.0
  H  H55  1  0.74974000  0.08051000  0.29001000  1.0
  H  H56  1  0.65458000  0.20690000  0.64309000  1.0
  H  H57  1  0.74974000  0.29001000  0.62948000  1.0
  C  C58  1  0.64014000  0.12293000  0.35920000  1.0
  C  C59  1  0.29968000  0.85610000  0.73174000  1.0
  C  C60  1  0.64014000  0.51787000  0.12293000  1.0
  C  C61  1  0.29968000  0.41216000  0.85610000  1.0
  C  C62  1  0.64014000  0.35920000  0.51787000  1.0
  C  C63  1  0.29968000  0.73174000  0.41216000  1.0
  C  C64  1  0.64013000  0.87708000  0.64079000  1.0
  C  C65  1  0.29968000  0.14390000  0.26826000  1.0
  C  C66  1  0.64013000  0.48213000  0.87707000  1.0
  C  C67  1  0.29968000  0.58784000  0.14390000  1.0
  C  C68  1  0.64013000  0.64080000  0.48213000  1.0
  C  C69  1  0.29968000  0.26826000  0.58784000  1.0
  C  C70  1  0.85986000  0.48213000  0.64079000  1.0
  C  C71  1  0.20032000  0.58784000  0.26826000  1.0
  C  C72  1  0.85987000  0.64080000  0.87707000  1.0
  C  C73  1  0.20032000  0.26826000  0.14390000  1.0
  C  C74  1  0.85986000  0.87707000  0.48213000  1.0
  C  C75  1  0.20032000  0.14390000  0.58784000  1.0
  C  C76  1  0.85987000  0.51787000  0.35920000  1.0
  C  C77  1  0.20032000  0.41216000  0.73174000  1.0
  C  C78  1  0.85986000  0.35920000  0.12293000  1.0
  C  C79  1  0.20032000  0.73174000  0.85610000  1.0
  C  C80  1  0.85986000  0.12293000  0.51787000  1.0
  C  C81  1  0.20032000  0.85610000  0.41216000  1.0
  C  C82  1  0.35986000  0.87708000  0.64079000  1.0
  C  C83  1  0.70032000  0.14390000  0.26826000  1.0
  C  C84  1  0.35986000  0.48213000  0.87707000  1.0
  C  C85  1  0.70032000  0.58784000  0.14390000  1.0
  C  C86  1  0.35986000  0.64080000  0.48213000  1.0
  C  C87  1  0.70032000  0.26826000  0.58784000  1.0
  C  C88  1  0.35986000  0.12292000  0.35921000  1.0
  C  C89  1  0.70032000  0.85610000  0.73174000  1.0
  C  C90  1  0.35987000  0.51787000  0.12293000  1.0
  C  C91  1  0.70032000  0.41216000  0.85610000  1.0
  C  C92  1  0.35986000  0.35920000  0.51787000  1.0
  C  C93  1  0.70032000  0.73174000  0.41216000  1.0
  C  C94  1  0.14014000  0.51787000  0.35921000  1.0
  C  C95  1  0.79968000  0.41216000  0.73174000  1.0
  C  C96  1  0.14013000  0.35920000  0.12293000  1.0
  C  C97  1  0.79968000  0.73174000  0.85610000  1.0
  C  C98  1  0.14014000  0.12293000  0.51787000  1.0
  C  C99  1  0.79968000  0.85610000  0.41216000  1.0
  C  C100  1  0.14013000  0.48213000  0.64080000  1.0
  C  C101  1  0.79968000  0.58784000  0.26826000  1.0
  C  C102  1  0.14013000  0.64080000  0.87707000  1.0
  C  C103  1  0.79968000  0.26826000  0.14390000  1.0
  C  C104  1  0.14014000  0.87707000  0.48213000  1.0
  C  C105  1  0.79968000  0.14390000  0.58784000  1.0
  O  O106  1  0.63961000  0.18548000  0.39082000  1.0
  O  O107  1  0.59430000  0.04011000  0.39410000  1.0
  O  O108  1  0.63961000  0.42370000  0.18548000  1.0
  O  O109  1  0.59430000  0.56579000  0.04012000  1.0
  O  O110  1  0.63961000  0.39082000  0.42370000  1.0
  O  O111  1  0.59430000  0.39409000  0.56580000  1.0
  O  O112  1  0.63961000  0.81452000  0.60918000  1.0
  O  O113  1  0.59430000  0.95989000  0.60590000  1.0
  O  O114  1  0.63961000  0.57630000  0.81452000  1.0
  O  O115  1  0.59430000  0.43421000  0.95988000  1.0
  O  O116  1  0.63961000  0.60918000  0.57630000  1.0
  O  O117  1  0.59430000  0.60591000  0.43420000  1.0
  O  O118  1  0.86039000  0.57630000  0.60918000  1.0
  O  O119  1  0.90570000  0.43421000  0.60590000  1.0
  O  O120  1  0.86039000  0.60918000  0.81451000  1.0
  O  O121  1  0.90569000  0.60591000  0.95988000  1.0
  O  O122  1  0.86039000  0.81452000  0.57630000  1.0
  O  O123  1  0.90570000  0.95989000  0.43420000  1.0
  O  O124  1  0.86039000  0.42370000  0.39082000  1.0
  O  O125  1  0.90570000  0.56579000  0.39410000  1.0
  O  O126  1  0.86039000  0.39082000  0.18548000  1.0
  O  O127  1  0.90570000  0.39409000  0.04012000  1.0
  O  O128  1  0.86039000  0.18548000  0.42370000  1.0
  O  O129  1  0.90570000  0.04011000  0.56580000  1.0
  O  O130  1  0.36039000  0.81452000  0.60918000  1.0
  O  O131  1  0.40570000  0.95989000  0.60590000  1.0
  O  O132  1  0.36039000  0.57630000  0.81452000  1.0
  O  O133  1  0.40570000  0.43421000  0.95988000  1.0
  O  O134  1  0.36039000  0.60918000  0.57630000  1.0
  O  O135  1  0.40570000  0.60591000  0.43420000  1.0
  O  O136  1  0.36039000  0.18548000  0.39082000  1.0
  O  O137  1  0.40570000  0.04011000  0.39410000  1.0
  O  O138  1  0.36039000  0.42370000  0.18548000  1.0
  O  O139  1  0.40570000  0.56579000  0.04012000  1.0
  O  O140  1  0.36039000  0.39082000  0.42370000  1.0
  O  O141  1  0.40570000  0.39409000  0.56580000  1.0
  O  O142  1  0.13961000  0.42370000  0.39082000  1.0
  O  O143  1  0.09430000  0.56579000  0.39410000  1.0
  O  O144  1  0.13961000  0.39082000  0.18548000  1.0
  O  O145  1  0.09431000  0.39409000  0.04012000  1.0
  O  O146  1  0.13961000  0.18548000  0.42370000  1.0
  O  O147  1  0.09430000  0.04012000  0.56579000  1.0
  O  O148  1  0.13961000  0.57630000  0.60918000  1.0
  O  O149  1  0.09430000  0.43421000  0.60590000  1.0
  O  O150  1  0.13961000  0.60918000  0.81452000  1.0
  O  O151  1  0.09430000  0.60591000  0.95988000  1.0
  O  O152  1  0.13961000  0.81452000  0.57630000  1.0
  O  O153  1  0.09430000  0.95989000  0.43420000  1.0
  O  O154  1  0.25000000  0.76415000  0.76416000  1.0
  O  O155  1  0.25000000  0.47169000  0.76416000  1.0
  O  O156  1  0.25000000  0.76415000  0.47170000  1.0
  O  O157  1  0.25000000  0.23585000  0.23584000  1.0
  O  O158  1  0.25000000  0.52831000  0.23584000  1.0
  O  O159  1  0.25000000  0.23585000  0.52830000  1.0
  O  O160  1  0.75000000  0.23585000  0.23584000  1.0
  O  O161  1  0.75000000  0.52831000  0.23585000  1.0
  O  O162  1  0.75000000  0.23585000  0.52830000  1.0
  O  O163  1  0.75000000  0.76415000  0.76416000  1.0
  O  O164  1  0.75000000  0.47169000  0.76416000  1.0
  O  O165  1  0.75000000  0.76415000  0.47170000  1.0
