# generated using pymatgen
data_ZnH10C12(NO)4
_symmetry_space_group_name_H-M   'P 1'
_cell_length_a   7.37564000
_cell_length_b   8.87449000
_cell_length_c   12.62611006
_cell_angle_alpha   108.28102091
_cell_angle_beta   104.29700155
_cell_angle_gamma   97.36270000
_symmetry_Int_Tables_number   1
_chemical_formula_structural   ZnH10C12(NO)4
_chemical_formula_sum   'Zn2 H20 C24 N8 O8'
_cell_volume   741.19815167
_cell_formula_units_Z   2
loop_
 _symmetry_equiv_pos_site_id
 _symmetry_equiv_pos_as_xyz
  1  'x, y, z'
loop_
 _atom_site_type_symbol
 _atom_site_label
 _atom_site_symmetry_multiplicity
 _atom_site_fract_x
 _atom_site_fract_y
 _atom_site_fract_z
 _atom_site_occupancy
  Zn  Zn0  1  0.24586000  0.30873000  0.75107000  1.0
  Zn  Zn1  1  0.99454000  0.55760000  0.24907000  1.0
  H  H2  1  0.39551000  0.76852000  0.28558000  1.0
  H  H3  1  0.61041000  0.48314000  0.71428000  1.0
  H  H4  1  0.23019000  0.24349000  0.13267000  1.0
  H  H5  1  0.59757000  0.11091000  0.86756000  1.0
  H  H6  1  0.57160000  0.61942000  0.15164000  1.0
  H  H7  1  0.92053000  0.46835000  0.84827000  1.0
  H  H8  1  0.95221000  0.78362000  0.49580000  1.0
  H  H9  1  0.95653000  0.28724000  0.50405000  1.0
  H  H10  1  0.71306000  0.95323000  0.61436000  1.0
  H  H11  1  0.59887000  0.33823000  0.38539000  1.0
  H  H12  1  0.32950000  0.94131000  0.44079000  1.0
  H  H13  1  0.38932000  0.50043000  0.55910000  1.0
  H  H14  1  0.27683000  0.43262000  0.02607000  1.0
  H  H15  1  0.75012000  0.40674000  0.97421000  1.0
  H  H16  1  0.13207000  0.95968000  0.77263000  1.0
  H  H17  1  0.85985000  0.18688000  0.22754000  1.0
  H  H18  1  0.06047000  0.78421000  0.91602000  1.0
  H  H19  1  0.64491000  0.86799000  0.08409000  1.0
  H  H20  1  0.22199000  0.99663000  0.17871000  1.0
  H  H21  1  0.54451000  0.81799000  0.82137000  1.0
  C  C22  1  0.62994000  0.67529000  0.24646000  1.0
  C  C23  1  0.88404000  0.42925000  0.75343000  1.0
  C  C24  1  0.82257000  0.76423000  0.42538000  1.0
  C  C25  1  0.89748000  0.33865000  0.57447000  1.0
  C  C26  1  0.65582000  0.81911000  0.43044000  1.0
  C  C27  1  0.72567000  0.38847000  0.56937000  1.0
  C  C28  1  0.60614000  0.91659000  0.52849000  1.0
  C  C29  1  0.57793000  0.38774000  0.47127000  1.0
  C  C30  1  0.44194000  0.96981000  0.52323000  1.0
  C  C31  1  0.41906000  0.44628000  0.47659000  1.0
  C  C32  1  0.41037000  0.07769000  0.62934000  1.0
  C  C33  1  0.28125000  0.44816000  0.37054000  1.0
  C  C34  1  0.23897000  0.30126000  0.98641000  1.0
  C  C35  1  0.75231000  0.31497000  0.01384000  1.0
  C  C36  1  0.16161000  0.05539000  0.85711000  1.0
  C  C37  1  0.80481000  0.19821000  0.14309000  1.0
  C  C38  1  0.16363000  0.04093000  0.96384000  1.0
  C  C39  1  0.70035000  0.07704000  0.03635000  1.0
  C  C40  1  0.12372000  0.89778000  0.99111000  1.0
  C  C41  1  0.63336000  0.90657000  0.00901000  1.0
  C  C42  1  0.15417000  0.88990000  0.09901000  1.0
  C  C43  1  0.55619000  0.79089000  0.90107000  1.0
  C  C44  1  0.09047000  0.73406000  0.11237000  1.0
  C  C45  1  0.47871000  0.62171000  0.88761000  1.0
  N  N46  1  0.80411000  0.67547000  0.31094000  1.0
  N  N47  1  0.99364000  0.36472000  0.68898000  1.0
  N  N48  1  0.53775000  0.76101000  0.31532000  1.0
  N  N49  1  0.72286000  0.44583000  0.68451000  1.0
  N  N50  1  0.21066000  0.21737000  0.87282000  1.0
  N  N51  1  0.83767000  0.34456000  0.12741000  1.0
  N  N52  1  0.21354000  0.19960000  0.04334000  1.0
  N  N53  1  0.67040000  0.15634000  0.95686000  1.0
  O  O54  1  0.52575000  0.10917000  0.72981000  1.0
  O  O55  1  0.29618000  0.37933000  0.27006000  1.0
  O  O56  1  0.26000000  0.13897000  0.61036000  1.0
  O  O57  1  0.14991000  0.52840000  0.38961000  1.0
  O  O58  1  0.15055000  0.73290000  0.21941000  1.0
  O  O59  1  0.43170000  0.51361000  0.78057000  1.0
  O  O60  1  0.98273000  0.61379000  0.02770000  1.0
  O  O61  1  0.45534000  0.58601000  0.97221000  1.0
