# generated using pymatgen
data_CuH7C8NO5
_symmetry_space_group_name_H-M   'P 1'
_cell_length_a   7.64586000
_cell_length_b   11.08600000
_cell_length_c   11.21680000
_cell_angle_alpha   102.76100000
_cell_angle_beta   105.15600000
_cell_angle_gamma   107.03600000
_symmetry_Int_Tables_number   1
_chemical_formula_structural   CuH7C8NO5
_chemical_formula_sum   'Cu4 H28 C32 N4 O20'
_cell_volume   830.58627400
_cell_formula_units_Z   4
loop_
 _symmetry_equiv_pos_site_id
 _symmetry_equiv_pos_as_xyz
  1  'x, y, z'
loop_
 _atom_site_type_symbol
 _atom_site_label
 _atom_site_symmetry_multiplicity
 _atom_site_fract_x
 _atom_site_fract_y
 _atom_site_fract_z
 _atom_site_occupancy
  Cu  Cu0  1  0.05039000  0.65546000  0.73757000  1.0
  Cu  Cu1  1  0.94966000  0.34456000  0.26244000  1.0
  Cu  Cu2  1  0.52214000  0.43533000  0.26631000  1.0
  Cu  Cu3  1  0.47768000  0.56468000  0.73364000  1.0
  H  H4  1  0.85737000  0.42270000  0.55909000  1.0
  H  H5  1  0.14266000  0.57735000  0.44092000  1.0
  H  H6  1  0.80668000  0.43780000  0.69583000  1.0
  H  H7  1  0.19325000  0.56225000  0.30414000  1.0
  H  H8  1  0.35595000  0.36034000  0.42511000  1.0
  H  H9  1  0.64394000  0.63967000  0.57485000  1.0
  H  H10  1  0.28991000  0.24095000  0.28373000  1.0
  H  H11  1  0.70995000  0.75906000  0.71623000  1.0
  H  H12  1  0.50897000  0.22059000  0.91068000  1.0
  H  H13  1  0.49118000  0.77940000  0.08936000  1.0
  H  H14  1  0.12058000  0.88763000  0.96924000  1.0
  H  H15  1  0.87942000  0.11239000  0.03075000  1.0
  H  H16  1  0.60423000  0.03361000  0.65588000  1.0
  H  H17  1  0.39584000  0.96642000  0.34412000  1.0
  H  H18  1  0.60567000  0.19413000  0.73369000  1.0
  H  H19  1  0.39443000  0.80589000  0.26636000  1.0
  H  H20  1  0.41314000  0.08203000  0.58879000  1.0
  H  H21  1  0.58694000  0.91803000  0.41126000  1.0
  H  H22  1  0.04730000  0.81140000  0.11085000  1.0
  H  H23  1  0.95277000  0.18854000  0.88919000  1.0
  H  H24  1  0.63382000  0.41562000  0.02319000  1.0
  H  H25  1  0.36582000  0.58444000  0.97668000  1.0
  H  H26  1  0.93944000  0.95663000  0.38658000  1.0
  H  H27  1  0.06063000  0.04333000  0.61346000  1.0
  H  H28  1  0.09656000  0.97977000  0.29425000  1.0
  H  H29  1  0.90350000  0.02018000  0.70580000  1.0
  H  H30  1  0.15229000  0.92224000  0.43067000  1.0
  H  H31  1  0.84775000  0.07768000  0.56936000  1.0
  C  C32  1  0.29635000  0.89489000  0.73005000  1.0
  C  C33  1  0.70371000  0.10512000  0.26997000  1.0
  C  C34  1  0.40839000  0.03098000  0.76274000  1.0
  C  C35  1  0.59170000  0.96903000  0.23729000  1.0
  C  C36  1  0.41871000  0.11521000  0.87965000  1.0
  C  C37  1  0.58137000  0.88479000  0.12038000  1.0
  C  C38  1  0.31864000  0.06737000  0.95730000  1.0
  C  C39  1  0.68140000  0.93264000  0.04270000  1.0
  C  C40  1  0.20463000  0.93157000  0.91472000  1.0
  C  C41  1  0.79540000  0.06844000  0.08528000  1.0
  C  C42  1  0.27940000  0.78689000  0.61430000  1.0
  C  C43  1  0.72069000  0.21313000  0.38573000  1.0
  C  C44  1  0.51468000  0.08858000  0.68176000  1.0
  C  C45  1  0.48541000  0.91145000  0.31827000  1.0
  C  C46  1  0.33681000  0.15794000  0.08542000  1.0
  C  C47  1  0.66317000  0.84207000  0.91457000  1.0
  C  C48  1  0.80120000  0.67630000  0.28867000  1.0
  C  C49  1  0.19876000  0.32366000  0.71132000  1.0
  C  C50  1  0.92732000  0.77575000  0.25859000  1.0
  C  C51  1  0.07270000  0.22420000  0.74143000  1.0
  C  C52  1  0.94928000  0.73767000  0.13751000  1.0
  C  C53  1  0.05075000  0.26229000  0.86251000  1.0
  C  C54  1  0.84620000  0.60888000  0.05033000  1.0
  C  C55  1  0.15374000  0.39111000  0.94966000  1.0
  C  C56  1  0.71958000  0.51738000  0.08695000  1.0
  C  C57  1  0.28022000  0.48263000  0.91298000  1.0
  C  C58  1  0.76832000  0.69554000  0.41672000  1.0
  C  C59  1  0.23174000  0.30439000  0.58329000  1.0
  C  C60  1  0.03388000  0.91632000  0.34656000  1.0
  C  C61  1  0.96617000  0.08362000  0.65348000  1.0
  C  C62  1  0.86208000  0.56957000  0.91756000  1.0
  C  C63  1  0.13784000  0.43045000  0.08241000  1.0
  N  N64  1  0.19750000  0.84931000  0.80508000  1.0
  N  N65  1  0.80255000  0.15070000  0.19493000  1.0
  N  N66  1  0.70012000  0.55173000  0.20314000  1.0
  N  N67  1  0.29971000  0.44827000  0.79681000  1.0
  O  O68  1  0.90783000  0.46485000  0.65555000  1.0
  O  O69  1  0.09214000  0.53520000  0.34446000  1.0
  O  O70  1  0.32679000  0.33874000  0.32827000  1.0
  O  O71  1  0.67302000  0.66127000  0.67169000  1.0
  O  O72  1  0.17307000  0.66510000  0.60402000  1.0
  O  O73  1  0.82707000  0.33492000  0.39603000  1.0
  O  O74  1  0.36228000  0.81062000  0.53649000  1.0
  O  O75  1  0.63780000  0.18940000  0.46353000  1.0
  O  O76  1  0.44926000  0.28040000  0.11280000  1.0
  O  O77  1  0.55067000  0.71962000  0.88718000  1.0
  O  O78  1  0.24812000  0.11088000  0.15453000  1.0
  O  O79  1  0.75187000  0.88913000  0.84546000  1.0
  O  O80  1  0.86334000  0.79901000  0.51035000  1.0
  O  O81  1  0.13698000  0.20084000  0.48973000  1.0
  O  O82  1  0.63396000  0.59311000  0.42212000  1.0
  O  O83  1  0.36595000  0.40688000  0.57785000  1.0
  O  O84  1  0.73893000  0.46156000  0.83301000  1.0
  O  O85  1  0.26096000  0.53848000  0.16695000  1.0
  O  O86  1  0.00307000  0.65488000  0.90207000  1.0
  O  O87  1  0.99685000  0.34515000  0.09792000  1.0
