# generated using pymatgen
data_NaH6C7SNO5
_symmetry_space_group_name_H-M   'P 1'
_cell_length_a   6.95010000
_cell_length_b   10.80260000
_cell_length_c   12.02530000
_cell_angle_alpha   90.00010000
_cell_angle_beta   90.00010000
_cell_angle_gamma   89.99990000
_symmetry_Int_Tables_number   1
_chemical_formula_structural   NaH6C7SNO5
_chemical_formula_sum   'Na4 H24 C28 S4 N4 O20'
_cell_volume   902.84930562
_cell_formula_units_Z   4
loop_
 _symmetry_equiv_pos_site_id
 _symmetry_equiv_pos_as_xyz
  1  'x, y, z'
loop_
 _atom_site_type_symbol
 _atom_site_label
 _atom_site_symmetry_multiplicity
 _atom_site_fract_x
 _atom_site_fract_y
 _atom_site_fract_z
 _atom_site_occupancy
  Na  Na0  1  0.75000000  0.90287000  0.36767000  1.0
  Na  Na1  1  0.25000000  0.59713000  0.86767000  1.0
  Na  Na2  1  0.75000000  0.40287000  0.13233000  1.0
  Na  Na3  1  0.25000000  0.09713000  0.63233000  1.0
  H  H4  1  0.86100000  0.90689000  0.59064000  1.0
  H  H5  1  0.36100000  0.59312000  0.09064000  1.0
  H  H6  1  0.86100000  0.40689000  0.90936000  1.0
  H  H7  1  0.36099000  0.09311000  0.40936000  1.0
  H  H8  1  0.13901000  0.09311000  0.40936000  1.0
  H  H9  1  0.63900000  0.40689000  0.90936000  1.0
  H  H10  1  0.13900000  0.59311000  0.09064000  1.0
  H  H11  1  0.63900000  0.90689000  0.59064000  1.0
  H  H12  1  0.75000000  0.10446000  0.21425000  1.0
  H  H13  1  0.25000000  0.39554000  0.71425000  1.0
  H  H14  1  0.75000000  0.60446000  0.28575000  1.0
  H  H15  1  0.25000000  0.89554000  0.78575000  1.0
  H  H16  1  0.75000000  0.16446000  0.02662000  1.0
  H  H17  1  0.25000000  0.33554000  0.52662000  1.0
  H  H18  1  0.75000000  0.66446000  0.47338000  1.0
  H  H19  1  0.25000000  0.83554000  0.97338000  1.0
  H  H20  1  0.75000000  0.10302000  0.83121000  1.0
  H  H21  1  0.25000000  0.39698000  0.33121000  1.0
  H  H22  1  0.75000000  0.60302000  0.66880000  1.0
  H  H23  1  0.25000000  0.89698000  0.16879000  1.0
  H  H24  1  0.75000000  0.87716000  0.77709000  1.0
  H  H25  1  0.25000000  0.62284000  0.27709000  1.0
  H  H26  1  0.75000000  0.37716000  0.72291000  1.0
  H  H27  1  0.25000000  0.12284000  0.22291000  1.0
  C  C28  1  0.75000000  0.73818000  0.13356000  1.0
  C  C29  1  0.25000000  0.76182000  0.63356000  1.0
  C  C30  1  0.75000000  0.23818000  0.36644000  1.0
  C  C31  1  0.25000000  0.26182000  0.86644000  1.0
  C  C32  1  0.75000000  0.85184000  0.06298000  1.0
  C  C33  1  0.25000000  0.64816000  0.56298000  1.0
  C  C34  1  0.75000000  0.35184000  0.43702000  1.0
  C  C35  1  0.25000000  0.14816000  0.93702000  1.0
  C  C36  1  0.75000000  0.97798000  0.09282000  1.0
  C  C37  1  0.25000000  0.52202000  0.59282000  1.0
  C  C38  1  0.75000000  0.47798000  0.40718000  1.0
  C  C39  1  0.25000000  0.02202000  0.90718000  1.0
  C  C40  1  0.75000000  0.06627000  0.00630000  1.0
  C  C41  1  0.25000000  0.43373000  0.50630000  1.0
  C  C42  1  0.75000000  0.56627000  0.49370000  1.0
  C  C43  1  0.25000000  0.93373000  0.99370000  1.0
  C  C44  1  0.75000000  0.03136000  0.89499000  1.0
  C  C45  1  0.25000000  0.46864000  0.39499000  1.0
  C  C46  1  0.75000000  0.53136000  0.60501000  1.0
  C  C47  1  0.25000000  0.96864000  0.10501000  1.0
  C  C48  1  0.75000000  0.90607000  0.86376000  1.0
  C  C49  1  0.25000000  0.59393000  0.36376000  1.0
  C  C50  1  0.75000000  0.40607000  0.63625000  1.0
  C  C51  1  0.25000000  0.09393000  0.13624000  1.0
  C  C52  1  0.75000000  0.82125000  0.94973000  1.0
  C  C53  1  0.25000000  0.67875000  0.44972000  1.0
  C  C54  1  0.75000000  0.32125000  0.55028000  1.0
  C  C55  1  0.25000000  0.17875000  0.05027000  1.0
  S  S56  1  0.75000000  0.65786000  0.94214000  1.0
  S  S57  1  0.25000000  0.84214000  0.44214000  1.0
  S  S58  1  0.75000000  0.15786000  0.55786000  1.0
  S  S59  1  0.25000000  0.34214000  0.05786000  1.0
  N  N60  1  0.75000000  0.63064000  0.07458000  1.0
  N  N61  1  0.25000000  0.86936000  0.57458000  1.0
  N  N62  1  0.75000000  0.13064000  0.42542000  1.0
  N  N63  1  0.25000000  0.36936000  0.92541000  1.0
  O  O64  1  0.92439000  0.61051000  0.88954000  1.0
  O  O65  1  0.42439000  0.88949000  0.38954000  1.0
  O  O66  1  0.92439000  0.11051000  0.61046000  1.0
  O  O67  1  0.42439000  0.38949000  0.11046000  1.0
  O  O68  1  0.07561000  0.38949000  0.11046000  1.0
  O  O69  1  0.57561000  0.11051000  0.61046000  1.0
  O  O70  1  0.07561000  0.88949000  0.38954000  1.0
  O  O71  1  0.57561000  0.61051000  0.88954000  1.0
  O  O72  1  0.75000000  0.73925000  0.23880000  1.0
  O  O73  1  0.25000000  0.76074000  0.73880000  1.0
  O  O74  1  0.75000000  0.23926000  0.26120000  1.0
  O  O75  1  0.25000000  0.26075000  0.76120000  1.0
  O  O76  1  0.75000000  0.01047000  0.20041000  1.0
  O  O77  1  0.24999000  0.48953000  0.70041000  1.0
  O  O78  1  0.75001000  0.51047000  0.29959000  1.0
  O  O79  1  0.25000000  0.98953000  0.79959000  1.0
  O  O80  1  0.75000000  0.85677000  0.56882000  1.0
  O  O81  1  0.25000000  0.64323000  0.06881000  1.0
  O  O82  1  0.75000000  0.35677000  0.93118000  1.0
  O  O83  1  0.25000000  0.14323000  0.43118000  1.0
