# generated using pymatgen
data_NiH30C30(NO)6
_symmetry_space_group_name_H-M   'P 1'
_cell_length_a   8.40250000
_cell_length_b   9.56767928
_cell_length_c   9.65870000
_cell_angle_alpha   118.99730360
_cell_angle_beta   94.31620000
_cell_angle_gamma   90.47828687
_symmetry_Int_Tables_number   1
_chemical_formula_structural   NiH30C30(NO)6
_chemical_formula_sum   'Ni1 H30 C30 N6 O6'
_cell_volume   676.32652843
_cell_formula_units_Z   1
loop_
 _symmetry_equiv_pos_site_id
 _symmetry_equiv_pos_as_xyz
  1  'x, y, z'
loop_
 _atom_site_type_symbol
 _atom_site_label
 _atom_site_symmetry_multiplicity
 _atom_site_fract_x
 _atom_site_fract_y
 _atom_site_fract_z
 _atom_site_occupancy
  Ni  Ni0  1  0.50000000  0.50000000  0.00000000  1.0
  H  H1  1  0.21023000  0.36452000  0.31666000  1.0
  H  H2  1  0.78977000  0.63550000  0.68336000  1.0
  H  H3  1  0.23701000  0.56589000  0.45997000  1.0
  H  H4  1  0.76299000  0.43414000  0.54004000  1.0
  H  H5  1  0.40660000  0.36044000  0.49863000  1.0
  H  H6  1  0.59340000  0.63959000  0.50139000  1.0
  H  H7  1  0.51908000  0.34653000  0.34425000  1.0
  H  H8  1  0.48092000  0.65350000  0.65577000  1.0
  H  H9  1  0.38664000  0.79062000  0.02489000  1.0
  H  H10  1  0.61337000  0.20939000  0.97511000  1.0
  H  H11  1  0.43749000  0.08309000  0.22481000  1.0
  H  H12  1  0.56251000  0.91692000  0.77520000  1.0
  H  H13  1  0.63159000  0.16079000  0.46206000  1.0
  H  H14  1  0.36842000  0.83921000  0.53794000  1.0
  H  H15  1  0.70281000  0.65662000  0.28341000  1.0
  H  H16  1  0.29718000  0.34337000  0.71659000  1.0
  H  H17  1  0.06907000  0.28581000  0.92903000  1.0
  H  H18  1  0.93093000  0.71418000  0.07097000  1.0
  H  H19  1  0.24020000  0.15688000  0.05185000  1.0
  H  H20  1  0.75981000  0.84309000  0.94813000  1.0
  H  H21  1  0.23366000  0.86143000  0.93413000  1.0
  H  H22  1  0.76634000  0.13854000  0.06584000  1.0
  H  H23  1  0.06672000  0.68477000  0.68748000  1.0
  H  H24  1  0.93327000  0.31521000  0.31250000  1.0
  H  H25  1  0.95270000  0.49264000  0.14760000  1.0
  H  H26  1  0.04730000  0.50735000  0.85239000  1.0
  H  H27  1  0.82739000  0.43794000  0.99910000  1.0
  H  H28  1  0.17261000  0.56205000  0.00089000  1.0
  H  H29  1  0.83070000  0.19825000  0.66677000  1.0
  H  H30  1  0.16930000  0.80174000  0.33323000  1.0
  C  C31  1  0.31806000  0.50688000  0.23526000  1.0
  C  C32  1  0.68194000  0.49313000  0.76474000  1.0
  C  C33  1  0.29825000  0.46698000  0.36788000  1.0
  C  C34  1  0.70175000  0.53305000  0.63214000  1.0
  C  C35  1  0.44739000  0.42670000  0.44015000  1.0
  C  C36  1  0.55262000  0.57333000  0.55987000  1.0
  C  C37  1  0.46845000  0.83200000  0.13132000  1.0
  C  C38  1  0.53155000  0.16801000  0.86868000  1.0
  C  C39  1  0.49861000  0.99237000  0.24252000  1.0
  C  C40  1  0.50139000  0.00763000  0.75748000  1.0
  C  C41  1  0.60672000  0.03507000  0.37509000  1.0
  C  C42  1  0.39329000  0.96493000  0.62491000  1.0
  C  C43  1  0.68230000  0.91427000  0.39327000  1.0
  C  C44  1  0.31770000  0.08573000  0.60673000  1.0
  C  C45  1  0.64448000  0.75471000  0.27692000  1.0
  C  C46  1  0.35551000  0.24529000  0.72308000  1.0
  C  C47  1  0.79934000  0.93913000  0.52313000  1.0
  C  C48  1  0.20066000  0.06087000  0.47687000  1.0
  C  C49  1  0.96853000  0.05577000  0.74013000  1.0
  C  C50  1  0.03146000  0.94421000  0.25985000  1.0
  C  C51  1  0.06731000  0.15643000  0.87682000  1.0
  C  C52  1  0.93269000  0.84356000  0.12318000  1.0
  C  C53  1  0.16271000  0.08270000  0.94401000  1.0
  C  C54  1  0.83729000  0.91729000  0.05599000  1.0
  C  C55  1  0.16122000  0.91504000  0.87634000  1.0
  C  C56  1  0.83878000  0.08494000  0.12365000  1.0
  C  C57  1  0.06612000  0.81433000  0.73825000  1.0
  C  C58  1  0.93388000  0.18566000  0.26174000  1.0
  C  C59  1  0.96743000  0.88587000  0.66928000  1.0
  C  C60  1  0.03256000  0.11412000  0.33071000  1.0
  N  N61  1  0.54056000  0.71612000  0.15035000  1.0
  N  N62  1  0.45943000  0.28388000  0.84965000  1.0
  N  N63  1  0.86049000  0.08547000  0.64370000  1.0
  N  N64  1  0.13951000  0.91452000  0.35629000  1.0
  N  N65  1  0.86107000  0.81705000  0.53524000  1.0
  N  N66  1  0.13893000  0.18294000  0.46475000  1.0
  O  O67  1  0.44435000  0.45623000  0.16043000  1.0
  O  O68  1  0.55565000  0.54377000  0.83957000  1.0
  O  O69  1  0.21006000  0.58063000  0.20235000  1.0
  O  O70  1  0.78994000  0.41938000  0.79765000  1.0
  O  O71  1  0.84418000  0.44645000  0.10535000  1.0
  O  O72  1  0.15582000  0.55353000  0.89464000  1.0
