# generated using pymatgen
data_CuH16C12S(NO3)2
_symmetry_space_group_name_H-M   'P 1'
_cell_length_a   7.16460000
_cell_length_b   10.07440000
_cell_length_c   10.07440000
_cell_angle_alpha   76.28340000
_cell_angle_beta   84.91940000
_cell_angle_gamma   84.91970000
_symmetry_Int_Tables_number   1
_chemical_formula_structural   CuH16C12S(NO3)2
_chemical_formula_sum   'Cu2 H32 C24 S2 N4 O12'
_cell_volume   701.93012741
_cell_formula_units_Z   2
loop_
 _symmetry_equiv_pos_site_id
 _symmetry_equiv_pos_as_xyz
  1  'x, y, z'
loop_
 _atom_site_type_symbol
 _atom_site_label
 _atom_site_symmetry_multiplicity
 _atom_site_fract_x
 _atom_site_fract_y
 _atom_site_fract_z
 _atom_site_occupancy
  Cu  Cu0  1  0.25000000  0.78037000  0.21963000  1.0
  Cu  Cu1  1  0.75000000  0.21963000  0.78037000  1.0
  H  H2  1  0.11513000  0.93724000  0.43628000  1.0
  H  H3  1  0.38487000  0.56371000  0.06276000  1.0
  H  H4  1  0.88487000  0.06277000  0.56371000  1.0
  H  H5  1  0.61514000  0.43630000  0.93723000  1.0
  H  H6  1  0.20085000  0.45357000  0.67780000  1.0
  H  H7  1  0.29916000  0.32221000  0.54643000  1.0
  H  H8  1  0.79915000  0.54642000  0.32221000  1.0
  H  H9  1  0.70084000  0.67780000  0.45358000  1.0
  H  H10  1  0.05607000  0.87429000  0.69210000  1.0
  H  H11  1  0.44393000  0.30790000  0.12571000  1.0
  H  H12  1  0.94392000  0.12571000  0.30789000  1.0
  H  H13  1  0.55607000  0.69211000  0.87428000  1.0
  H  H14  1  0.19498000  0.65950000  0.90711000  1.0
  H  H15  1  0.30502000  0.09289000  0.34050000  1.0
  H  H16  1  0.80502000  0.34049000  0.09289000  1.0
  H  H17  1  0.69498000  0.90712000  0.65950000  1.0
  H  H18  1  0.10307000  0.50389000  0.89308000  1.0
  H  H19  1  0.39692000  0.10692000  0.49612000  1.0
  H  H20  1  0.89693000  0.49611000  0.10691000  1.0
  H  H21  1  0.60307000  0.89309000  0.50388000  1.0
  H  H22  1  0.95418000  0.65655000  0.89220000  1.0
  H  H23  1  0.54582000  0.10779000  0.34346000  1.0
  H  H24  1  0.04582000  0.34345000  0.10779000  1.0
  H  H25  1  0.45418000  0.89221000  0.65654000  1.0
  H  H26  1  0.02473000  0.98158000  0.17404000  1.0
  H  H27  1  0.47527000  0.82596000  0.01842000  1.0
  H  H28  1  0.97527000  0.01842000  0.82596000  1.0
  H  H29  1  0.52473000  0.17403000  0.98158000  1.0
  H  H30  1  0.22416000  0.04158000  0.11202000  1.0
  H  H31  1  0.27584000  0.88798000  0.95841000  1.0
  H  H32  1  0.77584000  0.95842000  0.88798000  1.0
  H  H33  1  0.72416000  0.11202000  0.04159000  1.0
  C  C34  1  0.13304000  0.83181000  0.49467000  1.0
  C  C35  1  0.36696000  0.50533000  0.16818000  1.0
  C  C36  1  0.86697000  0.16817000  0.50534000  1.0
  C  C37  1  0.63304000  0.49467000  0.83183000  1.0
  C  C38  1  0.21721000  0.60562000  0.48572000  1.0
  C  C39  1  0.28280000  0.51428000  0.39437000  1.0
  C  C40  1  0.78280000  0.39437000  0.51429000  1.0
  C  C41  1  0.71721000  0.48571000  0.60563000  1.0
  C  C42  1  0.18393000  0.56200000  0.62731000  1.0
  C  C43  1  0.31608000  0.37269000  0.43801000  1.0
  C  C44  1  0.81607000  0.43801000  0.37269000  1.0
  C  C45  1  0.68393000  0.62732000  0.56198000  1.0
  C  C46  1  0.12530000  0.65783000  0.70552000  1.0
  C  C47  1  0.37471000  0.29448000  0.34216000  1.0
  C  C48  1  0.87471000  0.34215000  0.29447000  1.0
  C  C49  1  0.62529000  0.70552000  0.65785000  1.0
  C  C50  1  0.10027000  0.79557000  0.63599000  1.0
  C  C51  1  0.39973000  0.36401000  0.20444000  1.0
  C  C52  1  0.89972000  0.20445000  0.36400000  1.0
  C  C53  1  0.60028000  0.63601000  0.79554000  1.0
  C  C54  1  0.09248000  0.61563000  0.85767000  1.0
  C  C55  1  0.40751000  0.14232000  0.38437000  1.0
  C  C56  1  0.90751000  0.38437000  0.14232000  1.0
  C  C57  1  0.59249000  0.85768000  0.61562000  1.0
  S  S58  1  0.74999000  0.84134000  0.15866000  1.0
  S  S59  1  0.25000000  0.15865000  0.84134000  1.0
  N  N60  1  0.19090000  0.73944000  0.42112000  1.0
  N  N61  1  0.30909000  0.57889000  0.26057000  1.0
  N  N62  1  0.80909000  0.26058000  0.57889000  1.0
  N  N63  1  0.69092000  0.42111000  0.73942000  1.0
  O  O64  1  0.81049000  0.98341000  0.15443000  1.0
  O  O65  1  0.68950000  0.84557000  0.01660000  1.0
  O  O66  1  0.18951000  0.01659000  0.84557000  1.0
  O  O67  1  0.31049000  0.15442000  0.98341000  1.0
  O  O68  1  0.91157000  0.74069000  0.18982000  1.0
  O  O69  1  0.58841000  0.81020000  0.25932000  1.0
  O  O70  1  0.08842000  0.25931000  0.81019000  1.0
  O  O71  1  0.41159000  0.18981000  0.74069000  1.0
  O  O72  1  0.16246000  0.97795000  0.19391000  1.0
  O  O73  1  0.33753000  0.80609000  0.02205000  1.0
  O  O74  1  0.83754000  0.02205000  0.80610000  1.0
  O  O75  1  0.66246000  0.19391000  0.97795000  1.0
