# generated using pymatgen
data_AlH19C20N2O11F2
_symmetry_space_group_name_H-M   'P 1'
_cell_length_a   7.03487000
_cell_length_b   22.79790000
_cell_length_c   24.96900000
_cell_angle_alpha   90.00020000
_cell_angle_beta   89.99990000
_cell_angle_gamma   90.00000000
_symmetry_Int_Tables_number   1
_chemical_formula_structural   AlH19C20N2O11F2
_chemical_formula_sum   'Al4 H76 C80 N8 O44 F8'
_cell_volume   4004.53478115
_cell_formula_units_Z   4
loop_
 _symmetry_equiv_pos_site_id
 _symmetry_equiv_pos_as_xyz
  1  'x, y, z'
loop_
 _atom_site_type_symbol
 _atom_site_label
 _atom_site_symmetry_multiplicity
 _atom_site_fract_x
 _atom_site_fract_y
 _atom_site_fract_z
 _atom_site_occupancy
  Al  Al0  1  0.23929000  0.75222000  0.25075000  1.0
  Al  Al1  1  0.76071000  0.24778000  0.75075000  1.0
  Al  Al2  1  0.73929000  0.74778000  0.24925000  1.0
  Al  Al3  1  0.26071000  0.25222000  0.74925000  1.0
  H  H4  1  0.24489000  0.55874000  0.62158000  1.0
  H  H5  1  0.47139000  0.54762000  0.58957000  1.0
  H  H6  1  0.40397000  0.50291000  0.64548000  1.0
  H  H7  1  0.57702000  0.52144000  0.47169000  1.0
  H  H8  1  0.49451000  0.47546000  0.41814000  1.0
  H  H9  1  0.50839000  0.55334000  0.40845000  1.0
  H  H10  1  0.75511000  0.44127000  0.12158000  1.0
  H  H11  1  0.52862000  0.45238000  0.08957000  1.0
  H  H12  1  0.59604000  0.49709000  0.14549000  1.0
  H  H13  1  0.42297000  0.47856000  0.97170000  1.0
  H  H14  1  0.50548000  0.52454000  0.91814000  1.0
  H  H15  1  0.49161000  0.44666000  0.90846000  1.0
  H  H16  1  0.74489000  0.94126000  0.87842000  1.0
  H  H17  1  0.97138000  0.95238000  0.91044000  1.0
  H  H18  1  0.90397000  0.99709000  0.85452000  1.0
  H  H19  1  0.07703000  0.97856000  0.02830000  1.0
  H  H20  1  0.99452000  0.02454000  0.08186000  1.0
  H  H21  1  0.00839000  0.94666000  0.09154000  1.0
  H  H22  1  0.25513000  0.05873000  0.37842000  1.0
  H  H23  1  0.02862000  0.04763000  0.41043000  1.0
  H  H24  1  0.09604000  0.00291000  0.35451000  1.0
  H  H25  1  0.92298000  0.02145000  0.52830000  1.0
  H  H26  1  0.00551000  0.97547000  0.58186000  1.0
  H  H27  1  0.99162000  0.05335000  0.59154000  1.0
  H  H28  1  0.11575000  0.63847000  0.55352000  1.0
  H  H29  1  0.23558000  0.69493000  0.51608000  1.0
  H  H30  1  0.36819000  0.64829000  0.55998000  1.0
  H  H31  1  0.45382000  0.36244000  0.56912000  1.0
  H  H32  1  0.59849000  0.35056000  0.51055000  1.0
  H  H33  1  0.39921000  0.39992000  0.50760000  1.0
  H  H34  1  0.88426000  0.36153000  0.05352000  1.0
  H  H35  1  0.76442000  0.30507000  0.01608000  1.0
  H  H36  1  0.63182000  0.35171000  0.05999000  1.0
  H  H37  1  0.54620000  0.63756000  0.06912000  1.0
  H  H38  1  0.40153000  0.64944000  0.01055000  1.0
  H  H39  1  0.60079000  0.60008000  0.00760000  1.0
  H  H40  1  0.61573000  0.86153000  0.94648000  1.0
  H  H41  1  0.73557000  0.80506000  0.98392000  1.0
  H  H42  1  0.86817000  0.85170000  0.94002000  1.0
  H  H43  1  0.95380000  0.13756000  0.93088000  1.0
  H  H44  1  0.09847000  0.14943000  0.98945000  1.0
  H  H45  1  0.89920000  0.10008000  0.99240000  1.0
  H  H46  1  0.38431000  0.13847000  0.44648000  1.0
  H  H47  1  0.26448000  0.19494000  0.48392000  1.0
  H  H48  1  0.13187000  0.14830000  0.44001000  1.0
  H  H49  1  0.04618000  0.86244000  0.43088000  1.0
  H  H50  1  0.90152000  0.85056000  0.48945000  1.0
  H  H51  1  0.10079000  0.89992000  0.49240000  1.0
  H  H52  1  0.07607000  0.75491000  0.45178000  1.0
  H  H53  1  0.13433000  0.77042000  0.38301000  1.0
  H  H54  1  0.30856000  0.78113000  0.43390000  1.0
  H  H55  1  0.58777000  0.44939000  0.69059000  1.0
  H  H56  1  0.75003000  0.39849000  0.72057000  1.0
  H  H57  1  0.50375000  0.38062000  0.71742000  1.0
  H  H58  1  0.92395000  0.24509000  0.95179000  1.0
  H  H59  1  0.86569000  0.22958000  0.88302000  1.0
  H  H60  1  0.69146000  0.21886000  0.93391000  1.0
  H  H61  1  0.41223000  0.55061000  0.19060000  1.0
  H  H62  1  0.24998000  0.60152000  0.22058000  1.0
  H  H63  1  0.49625000  0.61938000  0.21742000  1.0
  H  H64  1  0.57604000  0.74509000  0.04821000  1.0
  H  H65  1  0.63430000  0.72958000  0.11699000  1.0
  H  H66  1  0.80853000  0.71886000  0.06610000  1.0
  H  H67  1  0.08777000  0.05061000  0.80940000  1.0
  H  H68  1  0.25002000  0.10152000  0.77942000  1.0
  H  H69  1  0.00374000  0.11938000  0.78258000  1.0
  H  H70  1  0.42396000  0.25491000  0.54821000  1.0
  H  H71  1  0.36570000  0.27043000  0.61699000  1.0
  H  H72  1  0.19146000  0.28114000  0.56610000  1.0
  H  H73  1  0.91223000  0.94939000  0.30942000  1.0
  H  H74  1  0.74997000  0.89849000  0.27943000  1.0
  H  H75  1  0.99625000  0.88063000  0.28258000  1.0
  H  H76  1  0.48478000  0.68614000  0.28498000  1.0
  H  H77  1  0.51522000  0.31386000  0.78498000  1.0
  H  H78  1  0.98478000  0.81386000  0.21502000  1.0
  H  H79  1  0.01523000  0.18614000  0.71502000  1.0
  C  C80  1  0.49511000  0.82905000  0.31452000  1.0
  C  C81  1  0.50858000  0.18810000  0.67394000  1.0
  C  C82  1  0.50490000  0.17095000  0.81452000  1.0
  C  C83  1  0.49144000  0.81190000  0.17394000  1.0
  C  C84  1  0.99510000  0.67095000  0.18548000  1.0
  C  C85  1  0.00855000  0.31190000  0.82606000  1.0
  C  C86  1  0.00489000  0.32905000  0.68548000  1.0
  C  C87  1  0.99142000  0.68810000  0.32606000  1.0
  C  C88  1  0.99667000  0.64628000  0.37184000  1.0
  C  C89  1  0.98225000  0.37787000  0.64509000  1.0
  C  C90  1  0.00334000  0.35371000  0.87184000  1.0
  C  C91  1  0.01775000  0.62213000  0.14509000  1.0
  C  C92  1  0.49666000  0.85372000  0.12816000  1.0
  C  C93  1  0.48224000  0.12213000  0.85491000  1.0
  C  C94  1  0.50335000  0.14628000  0.62816000  1.0
  C  C95  1  0.51775000  0.87787000  0.35491000  1.0
  C  C96  1  0.87221000  0.59819000  0.37296000  1.0
  C  C97  1  0.13243000  0.41326000  0.62792000  1.0
  C  C98  1  0.12779000  0.40181000  0.87297000  1.0
  C  C99  1  0.86757000  0.58674000  0.12792000  1.0
  C  C100  1  0.37222000  0.90181000  0.12704000  1.0
  C  C101  1  0.63242000  0.08674000  0.87208000  1.0
  C  C102  1  0.62779000  0.09819000  0.62704000  1.0
  C  C103  1  0.36757000  0.91326000  0.37208000  1.0
  C  C104  1  0.88126000  0.55367000  0.41149000  1.0
  C  C105  1  0.12383000  0.45284000  0.58516000  1.0
  C  C106  1  0.11874000  0.44633000  0.91149000  1.0
  C  C107  1  0.87618000  0.54716000  0.08517000  1.0
  C  C108  1  0.38127000  0.94633000  0.08851000  1.0
  C  C109  1  0.62382000  0.04716000  0.91484000  1.0
  C  C110  1  0.61874000  0.05367000  0.58851000  1.0
  C  C111  1  0.37617000  0.95284000  0.41484000  1.0
  C  C112  1  0.02528000  0.55759000  0.45064000  1.0
  C  C113  1  0.95271000  0.45561000  0.55543000  1.0
  C  C114  1  0.97472000  0.44241000  0.95064000  1.0
  C  C115  1  0.04729000  0.54439000  0.05543000  1.0
  C  C116  1  0.52527000  0.94241000  0.04935000  1.0
  C  C117  1  0.45270000  0.04439000  0.94457000  1.0
  C  C118  1  0.47473000  0.05759000  0.54936000  1.0
  C  C119  1  0.54729000  0.95561000  0.44457000  1.0
  C  C120  1  0.15077000  0.60577000  0.45134000  1.0
  C  C121  1  0.79234000  0.42333000  0.57348000  1.0
  C  C122  1  0.84924000  0.39422000  0.95134000  1.0
  C  C123  1  0.20766000  0.57667000  0.07348000  1.0
  C  C124  1  0.65076000  0.89422000  0.04866000  1.0
  C  C125  1  0.29233000  0.07666000  0.92652000  1.0
  C  C126  1  0.34925000  0.10578000  0.54866000  1.0
  C  C127  1  0.70765000  0.92333000  0.42653000  1.0
  C  C128  1  0.13618000  0.65025000  0.41265000  1.0
  C  C129  1  0.80343000  0.38985000  0.62073000  1.0
  C  C130  1  0.86382000  0.34975000  0.91265000  1.0
  C  C131  1  0.19657000  0.61015000  0.12073000  1.0
  C  C132  1  0.63617000  0.84975000  0.08735000  1.0
  C  C133  1  0.30342000  0.11015000  0.87927000  1.0
  C  C134  1  0.36384000  0.15025000  0.58735000  1.0
  C  C135  1  0.69657000  0.88985000  0.37927000  1.0
  C  C136  1  0.35241000  0.52607000  0.60986000  1.0
  C  C137  1  0.57413000  0.51527000  0.42812000  1.0
  C  C138  1  0.64759000  0.47393000  0.10986000  1.0
  C  C139  1  0.42586000  0.48474000  0.92813000  1.0
  C  C140  1  0.85241000  0.97393000  0.89014000  1.0
  C  C141  1  0.07413000  0.98474000  0.07188000  1.0
  C  C142  1  0.14759000  0.02607000  0.39014000  1.0
  C  C143  1  0.92587000  0.01527000  0.57187000  1.0
  C  C144  1  0.24774000  0.65024000  0.53223000  1.0
  C  C145  1  0.51323000  0.38278000  0.53303000  1.0
  C  C146  1  0.75226000  0.34976000  0.03223000  1.0
  C  C147  1  0.48678000  0.61722000  0.03303000  1.0
  C  C148  1  0.74772000  0.84976000  0.96777000  1.0
  C  C149  1  0.01322000  0.11722000  0.96697000  1.0
  C  C150  1  0.25231000  0.15024000  0.46777000  1.0
  C  C151  1  0.98677000  0.88278000  0.46697000  1.0
  C  C152  1  0.18883000  0.75365000  0.42121000  1.0
  C  C153  1  0.62003000  0.40271000  0.69693000  1.0
  C  C154  1  0.81119000  0.24635000  0.92122000  1.0
  C  C155  1  0.37997000  0.59729000  0.19693000  1.0
  C  C156  1  0.68881000  0.74635000  0.07879000  1.0
  C  C157  1  0.12002000  0.09729000  0.80307000  1.0
  C  C158  1  0.31119000  0.25365000  0.57879000  1.0
  C  C159  1  0.87996000  0.90271000  0.30307000  1.0
  N  N160  1  0.05960000  0.51160000  0.48726000  1.0
  N  N161  1  0.91880000  0.49837000  0.51625000  1.0
  N  N162  1  0.94039000  0.48841000  0.98726000  1.0
  N  N163  1  0.08119000  0.50164000  0.01625000  1.0
  N  N164  1  0.55960000  0.98840000  0.01274000  1.0
  N  N165  1  0.41879000  0.00163000  0.98375000  1.0
  N  N166  1  0.44040000  0.01159000  0.51274000  1.0
  N  N167  1  0.58119000  0.99836000  0.48375000  1.0
  O  O168  1  0.65259000  0.79484000  0.19154000  1.0
  O  O169  1  0.35075000  0.19403000  0.79846000  1.0
  O  O170  1  0.34741000  0.20516000  0.69154000  1.0
  O  O171  1  0.64923000  0.80597000  0.29846000  1.0
  O  O172  1  0.15260000  0.70515000  0.30846000  1.0
  O  O173  1  0.85076000  0.30597000  0.70155000  1.0
  O  O174  1  0.84741000  0.29484000  0.80847000  1.0
  O  O175  1  0.14924000  0.69403000  0.20154000  1.0
  O  O176  1  0.32721000  0.81323000  0.30068000  1.0
  O  O177  1  0.67068000  0.20251000  0.69225000  1.0
  O  O178  1  0.67277000  0.18676000  0.80068000  1.0
  O  O179  1  0.32931000  0.79749000  0.19225000  1.0
  O  O180  1  0.82723000  0.68676000  0.19932000  1.0
  O  O181  1  0.17068000  0.29749000  0.80775000  1.0
  O  O182  1  0.17278000  0.31324000  0.69932000  1.0
  O  O183  1  0.82932000  0.70251000  0.30775000  1.0
  O  O184  1  0.48689000  0.71413000  0.25557000  1.0
  O  O185  1  0.51310000  0.28587000  0.75557000  1.0
  O  O186  1  0.98689000  0.78587000  0.24443000  1.0
  O  O187  1  0.01310000  0.21413000  0.74442000  1.0
  O  O188  1  0.27455000  0.48657000  0.57071000  1.0
  O  O189  1  0.76522000  0.50579000  0.40814000  1.0
  O  O190  1  0.72544000  0.51343000  0.07071000  1.0
  O  O191  1  0.23476000  0.49421000  0.90814000  1.0
  O  O192  1  0.77455000  0.01343000  0.92929000  1.0
  O  O193  1  0.26523000  0.99421000  0.09186000  1.0
  O  O194  1  0.22545000  0.98657000  0.42929000  1.0
  O  O195  1  0.73479000  0.00579000  0.59186000  1.0
  O  O196  1  0.28737000  0.60848000  0.49069000  1.0
  O  O197  1  0.62812000  0.43276000  0.54627000  1.0
  O  O198  1  0.71264000  0.39152000  0.99070000  1.0
  O  O199  1  0.37188000  0.56724000  0.04627000  1.0
  O  O200  1  0.78736000  0.89151000  0.00930000  1.0
  O  O201  1  0.12810000  0.06724000  0.95373000  1.0
  O  O202  1  0.21267000  0.10849000  0.50930000  1.0
  O  O203  1  0.87188000  0.93276000  0.45373000  1.0
  O  O204  1  0.26435000  0.69514000  0.41678000  1.0
  O  O205  1  0.63813000  0.37423000  0.64504000  1.0
  O  O206  1  0.73566000  0.30485000  0.91679000  1.0
  O  O207  1  0.36188000  0.62577000  0.14504000  1.0
  O  O208  1  0.76433000  0.80485000  0.08322000  1.0
  O  O209  1  0.13812000  0.12577000  0.85496000  1.0
  O  O210  1  0.23567000  0.19515000  0.58321000  1.0
  O  O211  1  0.86187000  0.87422000  0.35496000  1.0
  F  F212  1  0.29809000  0.41106000  0.65464000  1.0
  F  F213  1  0.74002000  0.59165000  0.33366000  1.0
  F  F214  1  0.70192000  0.58893000  0.15465000  1.0
  F  F215  1  0.25998000  0.40835000  0.83366000  1.0
  F  F216  1  0.79808000  0.08893000  0.84535000  1.0
  F  F217  1  0.24004000  0.90836000  0.16634000  1.0
  F  F218  1  0.20191000  0.91106000  0.34535000  1.0
  F  F219  1  0.75998000  0.09165000  0.66634000  1.0
