# generated using pymatgen
data_CuH13C20NO5
_symmetry_space_group_name_H-M   'P 1'
_cell_length_a   8.01720000
_cell_length_b   11.67820000
_cell_length_c   23.49620000
_cell_angle_alpha   90.92200000
_cell_angle_beta   90.03120000
_cell_angle_gamma   110.05000000
_symmetry_Int_Tables_number   1
_chemical_formula_structural   CuH13C20NO5
_chemical_formula_sum   'Cu4 H52 C80 N4 O20'
_cell_volume   2066.23002375
_cell_formula_units_Z   4
loop_
 _symmetry_equiv_pos_site_id
 _symmetry_equiv_pos_as_xyz
  1  'x, y, z'
loop_
 _atom_site_type_symbol
 _atom_site_label
 _atom_site_symmetry_multiplicity
 _atom_site_fract_x
 _atom_site_fract_y
 _atom_site_fract_z
 _atom_site_occupancy
  Cu  Cu0  1  0.42975000  0.08389000  0.00539000  1.0
  Cu  Cu1  1  0.34469000  0.91534000  0.49460000  1.0
  Cu  Cu2  1  0.57025000  0.91611000  0.99461000  1.0
  Cu  Cu3  1  0.65530000  0.08466000  0.50540000  1.0
  H  H4  1  0.11955000  0.13287000  0.94955000  1.0
  H  H5  1  0.98671000  0.86709000  0.55041000  1.0
  H  H6  1  0.88045000  0.86713000  0.05045000  1.0
  H  H7  1  0.01329000  0.13291000  0.44959000  1.0
  H  H8  1  0.88129000  0.94568000  0.64671000  1.0
  H  H9  1  0.93550000  0.05434000  0.85331000  1.0
  H  H10  1  0.11872000  0.05432000  0.35330000  1.0
  H  H11  1  0.06449000  0.94566000  0.14669000  1.0
  H  H12  1  0.37410000  0.50393000  0.06697000  1.0
  H  H13  1  0.87019000  0.49603000  0.43301000  1.0
  H  H14  1  0.62590000  0.49607000  0.93303000  1.0
  H  H15  1  0.12981000  0.50397000  0.56699000  1.0
  H  H16  1  0.50536000  0.33772000  0.06261000  1.0
  H  H17  1  0.16760000  0.66221000  0.43740000  1.0
  H  H18  1  0.49463000  0.66228000  0.93739000  1.0
  H  H19  1  0.83240000  0.33779000  0.56260000  1.0
  H  H20  1  0.94664000  0.91904000  0.91314000  1.0
  H  H21  1  0.02765000  0.08100000  0.58692000  1.0
  H  H22  1  0.05336000  0.08096000  0.08686000  1.0
  H  H23  1  0.97235000  0.91900000  0.41308000  1.0
  H  H24  1  0.33799000  0.70499000  0.64403000  1.0
  H  H25  1  0.63291000  0.29503000  0.85599000  1.0
  H  H26  1  0.66201000  0.29501000  0.35597000  1.0
  H  H27  1  0.36709000  0.70497000  0.14401000  1.0
  H  H28  1  0.16212000  0.59089000  0.03145000  1.0
  H  H29  1  0.57120000  0.40914000  0.46852000  1.0
  H  H30  1  0.83788000  0.40911000  0.96855000  1.0
  H  H31  1  0.42880000  0.59086000  0.53148000  1.0
  H  H32  1  0.71132000  0.81769000  0.84202000  1.0
  H  H33  1  0.89379000  0.18245000  0.65801000  1.0
  H  H34  1  0.28868000  0.18231000  0.15799000  1.0
  H  H35  1  0.10622000  0.81754000  0.34199000  1.0
  H  H36  1  0.97350000  0.28890000  0.94761000  1.0
  H  H37  1  0.68472000  0.71103000  0.55239000  1.0
  H  H38  1  0.02650000  0.71110000  0.05239000  1.0
  H  H39  1  0.31529000  0.28897000  0.44761000  1.0
  H  H40  1  0.94695000  0.83209000  0.72700000  1.0
  H  H41  1  0.11483000  0.16798000  0.77302000  1.0
  H  H42  1  0.05305000  0.16791000  0.27300000  1.0
  H  H43  1  0.88517000  0.83202000  0.22698000  1.0
  H  H44  1  0.23787000  0.68695000  0.86156000  1.0
  H  H45  1  0.55082000  0.31296000  0.63843000  1.0
  H  H46  1  0.76213000  0.31304000  0.13844000  1.0
  H  H47  1  0.44918000  0.68704000  0.36157000  1.0
  H  H48  1  0.40018000  0.59381000  0.72703000  1.0
  H  H49  1  0.80622000  0.40632000  0.77296000  1.0
  H  H50  1  0.59983000  0.40619000  0.27297000  1.0
  H  H51  1  0.19378000  0.59368000  0.22704000  1.0
  H  H52  1  0.00160000  0.58457000  0.78936000  1.0
  H  H53  1  0.41715000  0.41541000  0.71062000  1.0
  H  H54  1  0.99840000  0.41543000  0.21064000  1.0
  H  H55  1  0.58284000  0.58459000  0.28938000  1.0
  C  C56  1  0.10794000  0.81026000  0.89127000  1.0
  C  C57  1  0.29761000  0.18973000  0.60874000  1.0
  C  C58  1  0.89206000  0.18974000  0.10873000  1.0
  C  C59  1  0.70239000  0.81027000  0.39125000  1.0
  C  C60  1  0.17110000  0.21661000  0.97501000  1.0
  C  C61  1  0.95445000  0.78332000  0.52498000  1.0
  C  C62  1  0.82890000  0.78339000  0.02499000  1.0
  C  C63  1  0.04555000  0.21668000  0.47502000  1.0
  C  C64  1  0.25014000  0.87503000  0.93306000  1.0
  C  C65  1  0.37510000  0.12488000  0.56694000  1.0
  C  C66  1  0.74986000  0.12497000  0.06694000  1.0
  C  C67  1  0.62490000  0.87512000  0.43306000  1.0
  C  C68  1  0.77635000  0.86793000  0.66384000  1.0
  C  C69  1  0.90850000  0.13215000  0.83609000  1.0
  C  C70  1  0.22366000  0.13207000  0.33616000  1.0
  C  C71  1  0.09150000  0.86785000  0.16391000  1.0
  C  C72  1  0.56972000  0.89520000  0.58875000  1.0
  C  C73  1  0.67494000  0.10510000  0.91100000  1.0
  C  C74  1  0.43028000  0.10480000  0.41125000  1.0
  C  C75  1  0.32506000  0.89490000  0.08900000  1.0
  C  C76  1  0.60600000  0.83153000  0.63949000  1.0
  C  C77  1  0.77466000  0.16868000  0.86037000  1.0
  C  C78  1  0.39400000  0.16847000  0.36051000  1.0
  C  C79  1  0.22534000  0.83132000  0.13963000  1.0
  C  C80  1  0.31332000  0.42302000  0.04026000  1.0
  C  C81  1  0.89028000  0.57692000  0.45973000  1.0
  C  C82  1  0.68668000  0.57698000  0.95975000  1.0
  C  C83  1  0.10972000  0.42308000  0.54027000  1.0
  C  C84  1  0.38643000  0.33096000  0.03819000  1.0
  C  C85  1  0.05540000  0.66892000  0.46179000  1.0
  C  C86  1  0.61357000  0.66904000  0.96181000  1.0
  C  C87  1  0.94459000  0.33109000  0.53821000  1.0
  C  C88  1  0.95983000  0.84700000  0.88552000  1.0
  C  C89  1  0.11287000  0.15302000  0.61454000  1.0
  C  C90  1  0.04017000  0.15300000  0.11448000  1.0
  C  C91  1  0.88713000  0.84698000  0.38546000  1.0
  C  C92  1  0.47095000  0.73198000  0.66242000  1.0
  C  C93  1  0.73896000  0.26824000  0.83752000  1.0
  C  C94  1  0.52906000  0.26802000  0.33758000  1.0
  C  C95  1  0.26104000  0.73176000  0.16248000  1.0
  C  C96  1  0.15954000  0.41036000  0.00828000  1.0
  C  C97  1  0.74924000  0.58960000  0.49172000  1.0
  C  C98  1  0.84046000  0.58964000  0.99172000  1.0
  C  C99  1  0.25076000  0.41040000  0.50828000  1.0
  C  C100  1  0.08076000  0.50547000  0.01065000  1.0
  C  C101  1  0.57528000  0.49456000  0.48934000  1.0
  C  C102  1  0.91924000  0.49453000  0.98935000  1.0
  C  C103  1  0.42472000  0.50544000  0.51067000  1.0
  C  C104  1  0.82721000  0.78968000  0.84611000  1.0
  C  C105  1  0.03765000  0.21041000  0.65392000  1.0
  C  C106  1  0.17279000  0.21032000  0.15389000  1.0
  C  C107  1  0.96235000  0.78958000  0.34608000  1.0
  C  C108  1  0.08954000  0.30370000  0.97463000  1.0
  C  C109  1  0.78595000  0.69623000  0.52540000  1.0
  C  C110  1  0.91046000  0.69630000  0.02537000  1.0
  C  C111  1  0.21405000  0.30377000  0.47460000  1.0
  C  C112  1  0.81351000  0.80476000  0.70893000  1.0
  C  C113  1  0.00873000  0.19530000  0.79105000  1.0
  C  C114  1  0.18650000  0.19524000  0.29107000  1.0
  C  C115  1  0.99127000  0.80470000  0.20895000  1.0
  C  C116  1  0.84400000  0.69510000  0.81212000  1.0
  C  C117  1  0.14897000  0.30502000  0.68792000  1.0
  C  C118  1  0.15600000  0.30490000  0.18788000  1.0
  C  C119  1  0.85103000  0.69498000  0.31208000  1.0
  C  C120  1  0.12186000  0.71455000  0.85713000  1.0
  C  C121  1  0.40728000  0.28539000  0.64288000  1.0
  C  C122  1  0.87814000  0.28545000  0.14287000  1.0
  C  C123  1  0.59272000  0.71461000  0.35712000  1.0
  C  C124  1  0.50539000  0.66934000  0.70825000  1.0
  C  C125  1  0.83604000  0.33085000  0.79174000  1.0
  C  C126  1  0.49461000  0.33066000  0.29175000  1.0
  C  C127  1  0.16396000  0.66915000  0.20826000  1.0
  C  C128  1  0.67769000  0.70463000  0.73068000  1.0
  C  C129  1  0.97292000  0.29545000  0.76932000  1.0
  C  C130  1  0.32231000  0.29537000  0.26932000  1.0
  C  C131  1  0.02708000  0.70454000  0.23068000  1.0
  C  C132  1  0.99032000  0.65709000  0.81708000  1.0
  C  C133  1  0.33325000  0.34287000  0.68293000  1.0
  C  C134  1  0.00968000  0.34290000  0.18292000  1.0
  C  C135  1  0.66675000  0.65713000  0.31707000  1.0
  N  N136  1  0.31704000  0.22883000  0.00643000  1.0
  N  N137  1  0.08801000  0.77102000  0.49355000  1.0
  N  N138  1  0.68296000  0.77117000  0.99357000  1.0
  N  N139  1  0.91198000  0.22898000  0.50645000  1.0
  O  O140  1  0.24388000  0.97469000  0.95448000  1.0
  O  O141  1  0.26899000  0.02535000  0.54563000  1.0
  O  O142  1  0.75612000  0.02531000  0.04552000  1.0
  O  O143  1  0.73101000  0.97465000  0.45437000  1.0
  O  O144  1  0.42141000  0.84403000  0.56339000  1.0
  O  O145  1  0.57780000  0.15618000  0.93645000  1.0
  O  O146  1  0.57860000  0.15597000  0.43661000  1.0
  O  O147  1  0.42220000  0.84382000  0.06355000  1.0
  O  O148  1  0.36748000  0.82698000  0.94389000  1.0
  O  O149  1  0.54035000  0.17312000  0.55636000  1.0
  O  O150  1  0.63252000  0.17301000  0.05611000  1.0
  O  O151  1  0.45965000  0.82688000  0.44364000  1.0
  O  O152  1  0.69069000  0.99382000  0.57415000  1.0
  O  O153  1  0.69704000  0.00630000  0.92565000  1.0
  O  O154  1  0.30931000  0.00618000  0.42585000  1.0
  O  O155  1  0.30296000  0.99370000  0.07435000  1.0
  O  O156  1  0.70936000  0.63449000  0.77344000  1.0
  O  O157  1  0.07485000  0.36562000  0.72660000  1.0
  O  O158  1  0.29064000  0.36551000  0.22655000  1.0
  O  O159  1  0.92514000  0.63438000  0.27340000  1.0
