# generated using pymatgen
data_Zn4H6C12N6O7
_symmetry_space_group_name_H-M   'P 1'
_cell_length_a   14.30860000
_cell_length_b   14.30849186
_cell_length_c   14.30853512
_cell_angle_alpha   60.00000000
_cell_angle_beta   60.00015000
_cell_angle_gamma   60.00025000
_symmetry_Int_Tables_number   1
_chemical_formula_structural   Zn4H6C12N6O7
_chemical_formula_sum   'Zn16 H24 C48 N24 O28'
_cell_volume   2071.44064085
_cell_formula_units_Z   4
loop_
 _symmetry_equiv_pos_site_id
 _symmetry_equiv_pos_as_xyz
  1  'x, y, z'
loop_
 _atom_site_type_symbol
 _atom_site_label
 _atom_site_symmetry_multiplicity
 _atom_site_fract_x
 _atom_site_fract_y
 _atom_site_fract_z
 _atom_site_occupancy
  Zn  Zn0  1  0.81920000  0.81919000  0.31919000  1.0
  Zn  Zn1  1  0.18080000  0.95758000  0.68081000  1.0
  Zn  Zn2  1  0.04242000  0.81919000  0.31919000  1.0
  Zn  Zn3  1  0.18080000  0.18081000  0.45758000  1.0
  Zn  Zn4  1  0.81920000  0.81919000  0.54242000  1.0
  Zn  Zn5  1  0.95759000  0.18080000  0.68081000  1.0
  Zn  Zn6  1  0.81920000  0.04242000  0.31919000  1.0
  Zn  Zn7  1  0.18080000  0.18081000  0.68081000  1.0
  Zn  Zn8  1  0.20688000  0.43104000  0.93104000  1.0
  Zn  Zn9  1  0.56896000  0.56896000  0.29312000  1.0
  Zn  Zn10  1  0.43104000  0.43104000  0.93104000  1.0
  Zn  Zn11  1  0.56896000  0.79312000  0.06896000  1.0
  Zn  Zn12  1  0.56896000  0.56896000  0.06896000  1.0
  Zn  Zn13  1  0.43104000  0.20688000  0.93104000  1.0
  Zn  Zn14  1  0.43104000  0.43104000  0.70688000  1.0
  Zn  Zn15  1  0.79312000  0.56896000  0.06896000  1.0
  H  H16  1  0.94337000  0.65520000  0.15520000  1.0
  H  H17  1  0.34481000  0.75377000  0.55662000  1.0
  H  H18  1  0.24622000  0.65520000  0.15520000  1.0
  H  H19  1  0.34481000  0.05662000  0.25377000  1.0
  H  H20  1  0.34481000  0.75377000  0.84480000  1.0
  H  H21  1  0.65519000  0.94338000  0.74623000  1.0
  H  H22  1  0.75378000  0.34480000  0.55662000  1.0
  H  H23  1  0.34481000  0.34480000  0.25377000  1.0
  H  H24  1  0.65519000  0.24623000  0.44338000  1.0
  H  H25  1  0.75378000  0.05662000  0.84480000  1.0
  H  H26  1  0.24622000  0.94338000  0.15520000  1.0
  H  H27  1  0.65519000  0.24623000  0.15520000  1.0
  H  H28  1  0.94337000  0.65520000  0.74623000  1.0
  H  H29  1  0.94338000  0.24622000  0.15520000  1.0
  H  H30  1  0.65519000  0.94338000  0.15520000  1.0
  H  H31  1  0.65519000  0.65520000  0.44338000  1.0
  H  H32  1  0.65519000  0.65520000  0.74623000  1.0
  H  H33  1  0.24622000  0.65520000  0.44338000  1.0
  H  H34  1  0.05663000  0.34480000  0.84480000  1.0
  H  H35  1  0.75378000  0.34480000  0.84480000  1.0
  H  H36  1  0.05662000  0.34480000  0.25378000  1.0
  H  H37  1  0.34481000  0.05662000  0.84480000  1.0
  H  H38  1  0.34481000  0.34480000  0.55662000  1.0
  H  H39  1  0.05662000  0.75378000  0.84480000  1.0
  C  C40  1  0.00424000  0.66805000  0.16805000  1.0
  C  C41  1  0.33196000  0.84034000  0.49575000  1.0
  C  C42  1  0.15965000  0.66805000  0.16805000  1.0
  C  C43  1  0.33196000  0.99575000  0.34034000  1.0
  C  C44  1  0.33196000  0.84034000  0.83195000  1.0
  C  C45  1  0.66805000  0.00425000  0.65965000  1.0
  C  C46  1  0.84035000  0.33195000  0.49575000  1.0
  C  C47  1  0.33196000  0.33195000  0.34034000  1.0
  C  C48  1  0.66804000  0.15966000  0.50425000  1.0
  C  C49  1  0.84035000  0.99575000  0.83195000  1.0
  C  C50  1  0.15965000  0.00425000  0.16805000  1.0
  C  C51  1  0.66804000  0.15966000  0.16805000  1.0
  C  C52  1  0.00424000  0.66805000  0.65966000  1.0
  C  C53  1  0.00424000  0.15966000  0.16805000  1.0
  C  C54  1  0.66804000  0.00425000  0.16805000  1.0
  C  C55  1  0.66804000  0.66805000  0.50425000  1.0
  C  C56  1  0.66804000  0.66805000  0.65966000  1.0
  C  C57  1  0.15965000  0.66805000  0.50425000  1.0
  C  C58  1  0.99576000  0.33195000  0.83195000  1.0
  C  C59  1  0.84035000  0.33195000  0.83195000  1.0
  C  C60  1  0.99576000  0.33195000  0.34034000  1.0
  C  C61  1  0.33196000  0.99575000  0.83195000  1.0
  C  C62  1  0.33196000  0.33195000  0.49575000  1.0
  C  C63  1  0.99576000  0.84034000  0.83195000  1.0
  C  C64  1  0.12434000  0.62566000  0.12566000  1.0
  C  C65  1  0.37434000  0.87566000  0.37566000  1.0
  C  C66  1  0.37434000  0.87566000  0.87434000  1.0
  C  C67  1  0.62566000  0.12434000  0.62434000  1.0
  C  C68  1  0.87566000  0.37434000  0.37566000  1.0
  C  C69  1  0.37434000  0.37434000  0.37566000  1.0
  C  C70  1  0.87566000  0.87566000  0.87434000  1.0
  C  C71  1  0.12434000  0.12434000  0.12566000  1.0
  C  C72  1  0.62566000  0.12434000  0.12566000  1.0
  C  C73  1  0.12434000  0.62566000  0.62434000  1.0
  C  C74  1  0.62566000  0.62566000  0.62434000  1.0
  C  C75  1  0.87566000  0.37434000  0.87434000  1.0
  C  C76  1  0.19641000  0.55359000  0.05359000  1.0
  C  C77  1  0.44640000  0.80359000  0.30360000  1.0
  C  C78  1  0.44641000  0.80358000  0.94641000  1.0
  C  C79  1  0.55359000  0.19642000  0.69640000  1.0
  C  C80  1  0.80358000  0.44641000  0.30360000  1.0
  C  C81  1  0.44641000  0.44641000  0.30359000  1.0
  C  C82  1  0.80359000  0.80359000  0.94641000  1.0
  C  C83  1  0.19641000  0.19641000  0.05359000  1.0
  C  C84  1  0.55359000  0.19642000  0.05359000  1.0
  C  C85  1  0.19641000  0.55359000  0.69641000  1.0
  C  C86  1  0.55359000  0.55359000  0.69641000  1.0
  C  C87  1  0.80359000  0.44641000  0.94641000  1.0
  N  N88  1  0.97081000  0.73088000  0.23088000  1.0
  N  N89  1  0.26912000  0.93257000  0.52919000  1.0
  N  N90  1  0.06743000  0.73088000  0.23088000  1.0
  N  N91  1  0.26912000  0.02919000  0.43257000  1.0
  N  N92  1  0.26912000  0.93257000  0.76912000  1.0
  N  N93  1  0.73088000  0.97081000  0.56743000  1.0
  N  N94  1  0.93257000  0.26912000  0.52919000  1.0
  N  N95  1  0.26912000  0.26912000  0.43257000  1.0
  N  N96  1  0.73088000  0.06743000  0.47081000  1.0
  N  N97  1  0.93257000  0.02919000  0.76912000  1.0
  N  N98  1  0.06743000  0.97081000  0.23088000  1.0
  N  N99  1  0.73088000  0.06743000  0.23088000  1.0
  N  N100  1  0.97081000  0.73088000  0.56743000  1.0
  N  N101  1  0.97081000  0.06743000  0.23088000  1.0
  N  N102  1  0.73088000  0.97081000  0.23088000  1.0
  N  N103  1  0.73088000  0.73088000  0.47081000  1.0
  N  N104  1  0.73088000  0.73088000  0.56743000  1.0
  N  N105  1  0.06743000  0.73088000  0.47081000  1.0
  N  N106  1  0.02919000  0.26912000  0.76912000  1.0
  N  N107  1  0.93257000  0.26912000  0.76912000  1.0
  N  N108  1  0.02919000  0.26912000  0.43257000  1.0
  N  N109  1  0.26912000  0.02919000  0.76912000  1.0
  N  N110  1  0.26912000  0.26912000  0.52919000  1.0
  N  N111  1  0.02919000  0.93257000  0.76912000  1.0
  O  O112  1  0.14500000  0.52507000  0.02507000  1.0
  O  O113  1  0.47492000  0.69515000  0.35500000  1.0
  O  O114  1  0.30486000  0.52507000  0.02507000  1.0
  O  O115  1  0.47493000  0.85500000  0.19514000  1.0
  O  O116  1  0.47493000  0.69514000  0.97493000  1.0
  O  O117  1  0.52507000  0.14500000  0.80486000  1.0
  O  O118  1  0.69514000  0.47493000  0.35500000  1.0
  O  O119  1  0.47493000  0.47493000  0.19514000  1.0
  O  O120  1  0.52507000  0.30486000  0.64500000  1.0
  O  O121  1  0.69514000  0.85500000  0.97493000  1.0
  O  O122  1  0.30486000  0.14500000  0.02507000  1.0
  O  O123  1  0.52507000  0.30486000  0.02507000  1.0
  O  O124  1  0.14500000  0.52507000  0.80486000  1.0
  O  O125  1  0.14500000  0.30486000  0.02507000  1.0
  O  O126  1  0.52507000  0.14500000  0.02507000  1.0
  O  O127  1  0.52507000  0.52507000  0.64500000  1.0
  O  O128  1  0.52507000  0.52507000  0.80486000  1.0
  O  O129  1  0.30486000  0.52507000  0.64500000  1.0
  O  O130  1  0.85500000  0.47493000  0.97493000  1.0
  O  O131  1  0.69514000  0.47493000  0.97493000  1.0
  O  O132  1  0.85500000  0.47493000  0.19514000  1.0
  O  O133  1  0.47493000  0.85500000  0.97493000  1.0
  O  O134  1  0.47493000  0.47493000  0.35500000  1.0
  O  O135  1  0.85500000  0.69514000  0.97493000  1.0
  O  O136  1  0.87500000  0.87500000  0.37500000  1.0
  O  O137  1  0.12500000  0.12500000  0.62500000  1.0
  O  O138  1  0.37500000  0.37500000  0.87500000  1.0
  O  O139  1  0.62500000  0.62500000  0.12500000  1.0
