# generated using pymatgen
data_CdH13C19NCl2O5
_symmetry_space_group_name_H-M   'P 1'
_cell_length_a   7.50756000
_cell_length_b   9.73688000
_cell_length_c   14.35082435
_cell_angle_alpha   109.83976878
_cell_angle_beta   90.00019998
_cell_angle_gamma   90.00000000
_symmetry_Int_Tables_number   1
_chemical_formula_structural   CdH13C19NCl2O5
_chemical_formula_sum   'Cd2 H26 C38 N2 Cl4 O10'
_cell_volume   986.78247110
_cell_formula_units_Z   2
loop_
 _symmetry_equiv_pos_site_id
 _symmetry_equiv_pos_as_xyz
  1  'x, y, z'
loop_
 _atom_site_type_symbol
 _atom_site_label
 _atom_site_symmetry_multiplicity
 _atom_site_fract_x
 _atom_site_fract_y
 _atom_site_fract_z
 _atom_site_occupancy
  Cd  Cd0  1  0.50000000  0.50000000  0.00000000  1.0
  Cd  Cd1  1  0.00000000  0.50000000  0.00000000  1.0
  H  H2  1  0.96495000  0.87521000  0.27343000  1.0
  H  H3  1  0.46495000  0.12479000  0.72657000  1.0
  H  H4  1  0.03509000  0.39888000  0.27366000  1.0
  H  H5  1  0.53507000  0.60113000  0.72635000  1.0
  H  H6  1  0.03505000  0.12479000  0.72657000  1.0
  H  H7  1  0.53505000  0.87521000  0.27343000  1.0
  H  H8  1  0.96491000  0.60112000  0.72634000  1.0
  H  H9  1  0.46493000  0.39888000  0.27366000  1.0
  H  H10  1  0.96311000  0.07895000  0.43747000  1.0
  H  H11  1  0.46311000  0.92105000  0.56254000  1.0
  H  H12  1  0.03691000  0.35886000  0.43756000  1.0
  H  H13  1  0.53690000  0.64115000  0.56245000  1.0
  H  H14  1  0.03689000  0.92105000  0.56253000  1.0
  H  H15  1  0.53689000  0.07895000  0.43746000  1.0
  H  H16  1  0.96309000  0.64114000  0.56244000  1.0
  H  H17  1  0.46310000  0.35884000  0.43755000  1.0
  H  H18  1  0.25000000  0.30206000  0.15221000  1.0
  H  H19  1  0.74999000  0.69794000  0.84779000  1.0
  H  H20  1  0.74999000  0.84990000  0.15197000  1.0
  H  H21  1  0.25000000  0.15011000  0.84803000  1.0
  H  H22  1  0.25000000  0.04483000  0.16025000  1.0
  H  H23  1  0.74999000  0.95517000  0.83975000  1.0
  H  H24  1  0.74999000  0.11525000  0.16019000  1.0
  H  H25  1  0.25000000  0.88476000  0.83981000  1.0
  H  H26  1  0.25000000  0.83231000  0.99995000  1.0
  H  H27  1  0.74999000  0.16768000  0.00004000  1.0
  C  C28  1  0.24999000  0.74614000  0.16284000  1.0
  C  C29  1  0.75001000  0.25386000  0.83716000  1.0
  C  C30  1  0.75001000  0.41698000  0.16296000  1.0
  C  C31  1  0.24999000  0.58302000  0.83704000  1.0
  C  C32  1  0.25000000  0.86606000  0.26247000  1.0
  C  C33  1  0.75000000  0.13394000  0.73753000  1.0
  C  C34  1  0.75001000  0.39713000  0.26270000  1.0
  C  C35  1  0.24999000  0.60287000  0.73730000  1.0
  C  C36  1  0.08909000  0.92263000  0.30928000  1.0
  C  C37  1  0.58909000  0.07736000  0.69072000  1.0
  C  C38  1  0.91093000  0.38739000  0.30952000  1.0
  C  C39  1  0.41092000  0.61261000  0.69048000  1.0
  C  C40  1  0.91091000  0.07736000  0.69072000  1.0
  C  C41  1  0.41091000  0.92263000  0.30928000  1.0
  C  C42  1  0.08907000  0.61261000  0.69048000  1.0
  C  C43  1  0.58908000  0.38739000  0.30952000  1.0
  C  C44  1  0.08766000  0.03537000  0.40033000  1.0
  C  C45  1  0.58766000  0.96462000  0.59967000  1.0
  C  C46  1  0.91235000  0.36560000  0.40051000  1.0
  C  C47  1  0.41234000  0.63440000  0.59949000  1.0
  C  C48  1  0.91234000  0.96462000  0.59967000  1.0
  C  C49  1  0.41234000  0.03538000  0.40033000  1.0
  C  C50  1  0.08765000  0.63440000  0.59949000  1.0
  C  C51  1  0.58766000  0.36560000  0.40051000  1.0
  C  C52  1  0.25000000  0.09139000  0.44494000  1.0
  C  C53  1  0.75000000  0.90860000  0.55506000  1.0
  C  C54  1  0.75000000  0.35409000  0.44508000  1.0
  C  C55  1  0.25000000  0.64591000  0.55492000  1.0
  C  C56  1  0.25000000  0.20324000  0.08776000  1.0
  C  C57  1  0.75000000  0.79676000  0.91224000  1.0
  C  C58  1  0.74999000  0.88430000  0.08758000  1.0
  C  C59  1  0.25000000  0.11570000  0.91242000  1.0
  C  C60  1  0.25000000  0.06178000  0.08903000  1.0
  C  C61  1  0.74999000  0.93823000  0.91097000  1.0
  C  C62  1  0.74999000  0.02714000  0.08894000  1.0
  C  C63  1  0.25000000  0.97286000  0.91105000  1.0
  C  C64  1  0.25000000  0.94415000  0.00001000  1.0
  C  C65  1  0.74999000  0.05586000  0.99999000  1.0
  N  N66  1  0.25000000  0.22761000  0.00013000  1.0
  N  N67  1  0.74999000  0.77239000  0.99986000  1.0
  Cl  Cl68  1  0.25000000  0.23288000  0.55793000  1.0
  Cl  Cl69  1  0.75000000  0.76712000  0.44207000  1.0
  Cl  Cl70  1  0.75000000  0.32503000  0.55787000  1.0
  Cl  Cl71  1  0.25000000  0.67497000  0.44213000  1.0
  O  O72  1  0.40171000  0.70244000  0.12493000  1.0
  O  O73  1  0.90171000  0.29756000  0.87507000  1.0
  O  O74  1  0.59831000  0.42255000  0.12498000  1.0
  O  O75  1  0.09829000  0.57746000  0.87502000  1.0
  O  O76  1  0.59830000  0.29757000  0.87508000  1.0
  O  O77  1  0.09829000  0.70244000  0.12493000  1.0
  O  O78  1  0.40170000  0.57746000  0.87502000  1.0
  O  O79  1  0.90171000  0.42254000  0.12498000  1.0
  O  O80  1  0.25000000  0.36382000  0.00020000  1.0
  O  O81  1  0.75000000  0.63618000  0.99980000  1.0
