# generated using pymatgen
data_GdCuH24C34NO10
_symmetry_space_group_name_H-M   'P 1'
_cell_length_a   11.20730000
_cell_length_b   11.54560000
_cell_length_c   12.15410000
_cell_angle_alpha   81.58250000
_cell_angle_beta   84.99170000
_cell_angle_gamma   83.00330000
_symmetry_Int_Tables_number   1
_chemical_formula_structural   GdCuH24C34NO10
_chemical_formula_sum   'Gd2 Cu2 H48 C68 N2 O20'
_cell_volume   1540.28331942
_cell_formula_units_Z   2
loop_
 _symmetry_equiv_pos_site_id
 _symmetry_equiv_pos_as_xyz
  1  'x, y, z'
loop_
 _atom_site_type_symbol
 _atom_site_label
 _atom_site_symmetry_multiplicity
 _atom_site_fract_x
 _atom_site_fract_y
 _atom_site_fract_z
 _atom_site_occupancy
  Gd  Gd0  1  0.41817000  0.98135000  0.66917000  1.0
  Gd  Gd1  1  0.58183000  0.01864000  0.33083000  1.0
  Cu  Cu2  1  0.50000000  0.00000000  0.00000000  1.0
  Cu  Cu3  1  0.00000000  0.00000000  0.00000000  1.0
  H  H4  1  0.27622000  0.64783000  0.60226000  1.0
  H  H5  1  0.72378000  0.35217000  0.39774000  1.0
  H  H6  1  0.23167000  0.45342000  0.55497000  1.0
  H  H7  1  0.76833000  0.54658000  0.44503000  1.0
  H  H8  1  0.32990000  0.38133000  0.38229000  1.0
  H  H9  1  0.67011000  0.61867000  0.61771000  1.0
  H  H10  1  0.46913000  0.50143000  0.25728000  1.0
  H  H11  1  0.53087000  0.49857000  0.74272000  1.0
  H  H12  1  0.50756000  0.69764000  0.30285000  1.0
  H  H13  1  0.49244000  0.30236000  0.69716000  1.0
  H  H14  1  0.27259000  0.22144000  0.21846000  1.0
  H  H15  1  0.72741000  0.77856000  0.78154000  1.0
  H  H16  1  0.09601000  0.35597000  0.14310000  1.0
  H  H17  1  0.90399000  0.64403000  0.85690000  1.0
  H  H18  1  0.92024000  0.41187000  0.27033000  1.0
  H  H19  1  0.07976000  0.58813000  0.72967000  1.0
  H  H20  1  0.92065000  0.33919000  0.47429000  1.0
  H  H21  1  0.07935000  0.66081000  0.52571000  1.0
  H  H22  1  0.09862000  0.20798000  0.54798000  1.0
  H  H23  1  0.90138000  0.79201000  0.45202000  1.0
  H  H24  1  0.35569000  0.69565000  0.76504000  1.0
  H  H25  1  0.64431000  0.30435000  0.23496000  1.0
  H  H26  1  0.28446000  0.49531000  0.78833000  1.0
  H  H27  1  0.71554000  0.50468000  0.21167000  1.0
  H  H28  1  0.26650000  0.37937000  0.97655000  1.0
  H  H29  1  0.73350000  0.62063000  0.02346000  1.0
  H  H30  1  0.31660000  0.46222000  0.14264000  1.0
  H  H31  1  0.68340000  0.53778000  0.85736000  1.0
  H  H32  1  0.38469000  0.66322000  0.11887000  1.0
  H  H33  1  0.61531000  0.33678000  0.88113000  1.0
  H  H34  1  0.23067000  0.24521000  0.69301000  1.0
  H  H35  1  0.76933000  0.75479000  0.30699000  1.0
  H  H36  1  0.03199000  0.36642000  0.66440000  1.0
  H  H37  1  0.96801000  0.63358000  0.33560000  1.0
  H  H38  1  0.88573000  0.39469000  0.82696000  1.0
  H  H39  1  0.11427000  0.60531000  0.17304000  1.0
  H  H40  1  0.93716000  0.30479000  0.01762000  1.0
  H  H41  1  0.06284000  0.69521000  0.98238000  1.0
  H  H42  1  0.13873000  0.18767000  0.04562000  1.0
  H  H43  1  0.86127000  0.81233000  0.95437000  1.0
  H  H44  1  0.04790000  0.00395000  0.59629000  1.0
  H  H45  1  0.95210000  0.99605000  0.40371000  1.0
  H  H46  1  0.83319000  0.08868000  0.55403000  1.0
  H  H47  1  0.16681000  0.91132000  0.44597000  1.0
  H  H48  1  0.68640000  0.13403000  0.71445000  1.0
  H  H49  1  0.31360000  0.86597000  0.28555000  1.0
  H  H50  1  0.75616000  0.09730000  0.90774000  1.0
  H  H51  1  0.24384000  0.90270000  0.09226000  1.0
  C  C52  1  0.41929000  0.79824000  0.48510000  1.0
  C  C53  1  0.58071000  0.20176000  0.51490000  1.0
  C  C54  1  0.39347000  0.68326000  0.45523000  1.0
  C  C55  1  0.60653000  0.31674000  0.54477000  1.0
  C  C56  1  0.31608000  0.61457000  0.52637000  1.0
  C  C57  1  0.68392000  0.38543000  0.47363000  1.0
  C  C58  1  0.29198000  0.50687000  0.49961000  1.0
  C  C59  1  0.70802000  0.49313000  0.50039000  1.0
  C  C60  1  0.34693000  0.46640000  0.40251000  1.0
  C  C61  1  0.65307000  0.53360000  0.59748000  1.0
  C  C62  1  0.42472000  0.53436000  0.33176000  1.0
  C  C63  1  0.57528000  0.46565000  0.66823000  1.0
  C  C64  1  0.44729000  0.64315000  0.35719000  1.0
  C  C65  1  0.55271000  0.35685000  0.64281000  1.0
  C  C66  1  0.30011000  0.12822000  0.43357000  1.0
  C  C67  1  0.69989000  0.87178000  0.56643000  1.0
  C  C68  1  0.19466000  0.20699000  0.38747000  1.0
  C  C69  1  0.80534000  0.79301000  0.61253000  1.0
  C  C70  1  0.19457000  0.24820000  0.27299000  1.0
  C  C71  1  0.80543000  0.75180000  0.72701000  1.0
  C  C72  1  0.09599000  0.32229000  0.23169000  1.0
  C  C73  1  0.90401000  0.67771000  0.76831000  1.0
  C  C74  1  0.99709000  0.35453000  0.30373000  1.0
  C  C75  1  0.00291000  0.64547000  0.69627000  1.0
  C  C76  1  0.99736000  0.31390000  0.41787000  1.0
  C  C77  1  0.00264000  0.68610000  0.58213000  1.0
  C  C78  1  0.09609000  0.24061000  0.45942000  1.0
  C  C79  1  0.90391000  0.75939000  0.54058000  1.0
  C  C80  1  0.41988000  0.80819000  0.92716000  1.0
  C  C81  1  0.58012000  0.19181000  0.07284000  1.0
  C  C82  1  0.37399000  0.69062000  0.94092000  1.0
  C  C83  1  0.62601000  0.30938000  0.05908000  1.0
  C  C84  1  0.34565000  0.64403000  0.84735000  1.0
  C  C85  1  0.65435000  0.35597000  0.15265000  1.0
  C  C86  1  0.30577000  0.53261000  0.86084000  1.0
  C  C87  1  0.69423000  0.46739000  0.13916000  1.0
  C  C88  1  0.29559000  0.46713000  0.96689000  1.0
  C  C89  1  0.70441000  0.53287000  0.03311000  1.0
  C  C90  1  0.32382000  0.51365000  0.06007000  1.0
  C  C91  1  0.67618000  0.48635000  0.93993000  1.0
  C  C92  1  0.36204000  0.62549000  0.04733000  1.0
  C  C93  1  0.63796000  0.37451000  0.95267000  1.0
  C  C94  1  0.31432000  0.13532000  0.88673000  1.0
  C  C95  1  0.68568000  0.86468000  0.11327000  1.0
  C  C96  1  0.19609000  0.20949000  0.87106000  1.0
  C  C97  1  0.80391000  0.79051000  0.12894000  1.0
  C  C98  1  0.16619000  0.25997000  0.76353000  1.0
  C  C99  1  0.83381000  0.74003000  0.23647000  1.0
  C  C100  1  0.05497000  0.32678000  0.74804000  1.0
  C  C101  1  0.94503000  0.67322000  0.25196000  1.0
  C  C102  1  0.97277000  0.34307000  0.83927000  1.0
  C  C103  1  0.02723000  0.65693000  0.16073000  1.0
  C  C104  1  0.00202000  0.29288000  0.94673000  1.0
  C  C105  1  0.99798000  0.70712000  0.05327000  1.0
  C  C106  1  0.11342000  0.22642000  0.96254000  1.0
  C  C107  1  0.88658000  0.77358000  0.03746000  1.0
  C  C108  1  0.13349000  0.95779000  0.80617000  1.0
  C  C109  1  0.86651000  0.04221000  0.19383000  1.0
  C  C110  1  0.00996000  0.00625000  0.77100000  1.0
  C  C111  1  0.99004000  0.99375000  0.22900000  1.0
  C  C112  1  0.97892000  0.02554000  0.66114000  1.0
  C  C113  1  0.02108000  0.97446000  0.33886000  1.0
  C  C114  1  0.86122000  0.07262000  0.63918000  1.0
  C  C115  1  0.13878000  0.92738000  0.36082000  1.0
  C  C116  1  0.77929000  0.09859000  0.72778000  1.0
  C  C117  1  0.22071000  0.90141000  0.27222000  1.0
  C  C118  1  0.81678000  0.07802000  0.83605000  1.0
  C  C119  1  0.18322000  0.92198000  0.16395000  1.0
  N  N120  1  0.92992000  0.03245000  0.85593000  1.0
  N  N121  1  0.07008000  0.96755000  0.14407000  1.0
  O  O122  1  0.38109000  0.82359000  0.58138000  1.0
  O  O123  1  0.61891000  0.17641000  0.41862000  1.0
  O  O124  1  0.47696000  0.86515000  0.41214000  1.0
  O  O125  1  0.52304000  0.13485000  0.58786000  1.0
  O  O126  1  0.29195000  0.08777000  0.53684000  1.0
  O  O127  1  0.70805000  0.91223000  0.46316000  1.0
  O  O128  1  0.39051000  0.10711000  0.36610000  1.0
  O  O129  1  0.60949000  0.89289000  0.63390000  1.0
  O  O130  1  0.45563000  0.85490000  0.83100000  1.0
  O  O131  1  0.54437000  0.14510000  0.16900000  1.0
  O  O132  1  0.42295000  0.85509000  0.01620000  1.0
  O  O133  1  0.57705000  0.14491000  0.98380000  1.0
  O  O134  1  0.37995000  0.11165000  0.80029000  1.0
  O  O135  1  0.62004000  0.88834000  0.19971000  1.0
  O  O136  1  0.34273000  0.10004000  0.98656000  1.0
  O  O137  1  0.65727000  0.89996000  0.01344000  1.0
  O  O138  1  0.21732000  0.94094000  0.73329000  1.0
  O  O139  1  0.78268000  0.05906000  0.26671000  1.0
  O  O140  1  0.14461000  0.93792000  0.91207000  1.0
  O  O141  1  0.85539000  0.06208000  0.08793000  1.0
