# generated using pymatgen
data_Cr2CuH6C8N4O7
_symmetry_space_group_name_H-M   'P 1'
_cell_length_a   8.13490000
_cell_length_b   8.60167000
_cell_length_c   9.99363000
_cell_angle_alpha   114.64600000
_cell_angle_beta   92.36330000
_cell_angle_gamma   90.76750000
_symmetry_Int_Tables_number   1
_chemical_formula_structural   Cr2CuH6C8N4O7
_chemical_formula_sum   'Cr4 Cu2 H12 C16 N8 O14'
_cell_volume   634.68618581
_cell_formula_units_Z   2
loop_
 _symmetry_equiv_pos_site_id
 _symmetry_equiv_pos_as_xyz
  1  'x, y, z'
loop_
 _atom_site_type_symbol
 _atom_site_label
 _atom_site_symmetry_multiplicity
 _atom_site_fract_x
 _atom_site_fract_y
 _atom_site_fract_z
 _atom_site_occupancy
  Cr  Cr0  1  0.61736000  0.73296000  0.49866000  1.0
  Cr  Cr1  1  0.38266000  0.26702000  0.50132000  1.0
  Cr  Cr2  1  0.22604000  0.26152000  0.20415000  1.0
  Cr  Cr3  1  0.77398000  0.73847000  0.79584000  1.0
  Cu  Cu4  1  0.05262000  0.35059000  0.70564000  1.0
  Cu  Cu5  1  0.94740000  0.64940000  0.29436000  1.0
  H  H6  1  0.69591000  0.17289000  0.71188000  1.0
  H  H7  1  0.30411000  0.82716000  0.28817000  1.0
  H  H8  1  0.50460000  0.23434000  0.92329000  1.0
  H  H9  1  0.49540000  0.76569000  0.07675000  1.0
  H  H10  1  0.60329000  0.44911000  0.17621000  1.0
  H  H11  1  0.39669000  0.55091000  0.82383000  1.0
  H  H12  1  0.83041000  0.41064000  0.48518000  1.0
  H  H13  1  0.16958000  0.58935000  0.51482000  1.0
  H  H14  1  0.70984000  0.22196000  0.23074000  1.0
  H  H15  1  0.29014000  0.77804000  0.76924000  1.0
  H  H16  1  0.76752000  0.90387000  0.12879000  1.0
  H  H17  1  0.23246000  0.09610000  0.87118000  1.0
  C  C18  1  0.72920000  0.26522000  0.82405000  1.0
  C  C19  1  0.27082000  0.73480000  0.17599000  1.0
  C  C20  1  0.62524000  0.29758000  0.93996000  1.0
  C  C21  1  0.37476000  0.70243000  0.06006000  1.0
  C  C22  1  0.67845000  0.41519000  0.08054000  1.0
  C  C23  1  0.32153000  0.58482000  0.91948000  1.0
  C  C24  1  0.91924000  0.45710000  0.98676000  1.0
  C  C25  1  0.08077000  0.54291000  0.01326000  1.0
  C  C26  1  0.84547000  0.27292000  0.43532000  1.0
  C  C27  1  0.15451000  0.72708000  0.56468000  1.0
  C  C28  1  0.78084000  0.16808000  0.29447000  1.0
  C  C29  1  0.21915000  0.83193000  0.70552000  1.0
  C  C30  1  0.81056000  0.99447000  0.23968000  1.0
  C  C31  1  0.18942000  0.00553000  0.76030000  1.0
  C  C32  1  0.95296000  0.03618000  0.45537000  1.0
  C  C33  1  0.04703000  0.96381000  0.54463000  1.0
  N  N34  1  0.87536000  0.34905000  0.84883000  1.0
  N  N35  1  0.12466000  0.65096000  0.15121000  1.0
  N  N36  1  0.82838000  0.49218000  0.10313000  1.0
  N  N37  1  0.17160000  0.50783000  0.89688000  1.0
  N  N38  1  0.93196000  0.20626000  0.51482000  1.0
  N  N39  1  0.06801000  0.79373000  0.48518000  1.0
  N  N40  1  0.89485000  0.92913000  0.32159000  1.0
  N  N41  1  0.10515000  0.07087000  0.67840000  1.0
  O  O42  1  0.76519000  0.61107000  0.39817000  1.0
  O  O43  1  0.23483000  0.38892000  0.60178000  1.0
  O  O44  1  0.44328000  0.67597000  0.40629000  1.0
  O  O45  1  0.55674000  0.32400000  0.59370000  1.0
  O  O46  1  0.66164000  0.93113000  0.53910000  1.0
  O  O47  1  0.33835000  0.06886000  0.46089000  1.0
  O  O48  1  0.60553000  0.70585000  0.66363000  1.0
  O  O49  1  0.39448000  0.29413000  0.33634000  1.0
  O  O50  1  0.29383000  0.30107000  0.06993000  1.0
  O  O51  1  0.70617000  0.69895000  0.93007000  1.0
  O  O52  1  0.07963000  0.39148000  0.28359000  1.0
  O  O53  1  0.92037000  0.60851000  0.71640000  1.0
  O  O54  1  0.15856000  0.06556000  0.14270000  1.0
  O  O55  1  0.84145000  0.93443000  0.85727000  1.0
