# generated using pymatgen
data_Zr3H23C45N5O26
_symmetry_space_group_name_H-M   'P 1'
_cell_length_a   19.05460000
_cell_length_b   19.06850000
_cell_length_c   19.05562518
_cell_angle_alpha   60.07267032
_cell_angle_beta   89.50515324
_cell_angle_gamma   119.92660000
_symmetry_Int_Tables_number   1
_chemical_formula_structural   Zr3H23C45N5O26
_chemical_formula_sum   'Zr6 H46 C90 N10 O52'
_cell_volume   4885.18644760
_cell_formula_units_Z   2
loop_
 _symmetry_equiv_pos_site_id
 _symmetry_equiv_pos_as_xyz
  1  'x, y, z'
loop_
 _atom_site_type_symbol
 _atom_site_label
 _atom_site_symmetry_multiplicity
 _atom_site_fract_x
 _atom_site_fract_y
 _atom_site_fract_z
 _atom_site_occupancy
  Zr  Zr0  1  0.40802000  0.50048000  0.59400000  1.0
  Zr  Zr1  1  0.59369000  0.49919000  0.40838000  1.0
  Zr  Zr2  1  0.40645000  0.31395000  0.59538000  1.0
  Zr  Zr3  1  0.59508000  0.68574000  0.40677000  1.0
  Zr  Zr4  1  0.59320000  0.49985000  0.59355000  1.0
  Zr  Zr5  1  0.40839000  0.49987000  0.40871000  1.0
  H  H6  1  0.42592000  0.35416000  0.72124000  1.0
  H  H7  1  0.72094000  0.64551000  0.42630000  1.0
  H  H8  1  0.42699000  0.35248000  0.42930000  1.0
  H  H9  1  0.42901000  0.64729000  0.42727000  1.0
  H  H10  1  0.59202000  0.46970000  0.06004000  1.0
  H  H11  1  0.38997000  0.49988000  0.95690000  1.0
  H  H12  1  0.63539000  0.55234000  0.79224000  1.0
  H  H13  1  0.64551000  0.56722000  0.91463000  1.0
  H  H14  1  0.43557000  0.57330000  0.14792000  1.0
  H  H15  1  0.44394000  0.59189000  0.00903000  1.0
  H  H16  1  0.95672000  0.50003000  0.39036000  1.0
  H  H17  1  0.05930000  0.52913000  0.59308000  1.0
  H  H18  1  0.14775000  0.42685000  0.43559000  1.0
  H  H19  1  0.00884000  0.40824000  0.44397000  1.0
  H  H20  1  0.79164000  0.44687000  0.63604000  1.0
  H  H21  1  0.91408000  0.43207000  0.64614000  1.0
  H  H22  1  0.04857000  0.15579000  0.38964000  1.0
  H  H23  1  0.96787000  0.84773000  0.59517000  1.0
  H  H24  1  0.78148000  0.92107000  0.43584000  1.0
  H  H25  1  0.90183000  0.05097000  0.44452000  1.0
  H  H26  1  0.15201000  0.07266000  0.63835000  1.0
  H  H27  1  0.01409000  0.94046000  0.64853000  1.0
  H  H28  1  0.59483000  0.15192000  0.96822000  1.0
  H  H29  1  0.38916000  0.84403000  0.04915000  1.0
  H  H30  1  0.63824000  0.92704000  0.15210000  1.0
  H  H31  1  0.64837000  0.05915000  0.01415000  1.0
  H  H32  1  0.43569000  0.07874000  0.78167000  1.0
  H  H33  1  0.44426000  0.94876000  0.90210000  1.0
  H  H34  1  0.81704000  0.70807000  0.17212000  1.0
  H  H35  1  0.92694000  0.75703000  0.05626000  1.0
  H  H36  1  0.81081000  0.92947000  0.17302000  1.0
  H  H37  1  0.17159000  0.29142000  0.81720000  1.0
  H  H38  1  0.05553000  0.24238000  0.92698000  1.0
  H  H39  1  0.17256000  0.07006000  0.81096000  1.0
  H  H40  1  0.38229000  0.93448000  0.60426000  1.0
  H  H41  1  0.60422000  0.06535000  0.38267000  1.0
  H  H42  1  0.42382000  0.71201000  0.63621000  1.0
  H  H43  1  0.42856000  0.83903000  0.64594000  1.0
  H  H44  1  0.63592000  0.28776000  0.42424000  1.0
  H  H45  1  0.64574000  0.16079000  0.42897000  1.0
  H  H46  1  0.03541000  0.79672000  0.95527000  1.0
  H  H47  1  0.13549000  0.91606000  0.89942000  1.0
  H  H48  1  0.05572000  0.89470000  0.85066000  1.0
  H  H49  1  0.95324000  0.20299000  0.03380000  1.0
  H  H50  1  0.90218000  0.08583000  0.13540000  1.0
  H  H51  1  0.84856000  0.10092000  0.05948000  1.0
  C  C52  1  0.50523000  0.51057000  0.73099000  1.0
  C  C53  1  0.73058000  0.48897000  0.50575000  1.0
  C  C54  1  0.50481000  0.50555000  0.26326000  1.0
  C  C55  1  0.26285000  0.49405000  0.50523000  1.0
  C  C56  1  0.26025000  0.26518000  0.73319000  1.0
  C  C57  1  0.50728000  0.73699000  0.50312000  1.0
  C  C58  1  0.73294000  0.73435000  0.26067000  1.0
  C  C59  1  0.50277000  0.26276000  0.50755000  1.0
  C  C60  1  0.50408000  0.26456000  0.73314000  1.0
  C  C61  1  0.25951000  0.26453000  0.50713000  1.0
  C  C62  1  0.50686000  0.73524000  0.25985000  1.0
  C  C63  1  0.73282000  0.73519000  0.50436000  1.0
  C  C64  1  0.50886000  0.51242000  0.18175000  1.0
  C  C65  1  0.50917000  0.52006000  0.80413000  1.0
  C  C66  1  0.55338000  0.48515000  0.15444000  1.0
  C  C67  1  0.55908000  0.49499000  0.07705000  1.0
  C  C68  1  0.44198000  0.50797000  0.85081000  1.0
  C  C69  1  0.44546000  0.51426000  0.92029000  1.0
  C  C70  1  0.58251000  0.54195000  0.82866000  1.0
  C  C71  1  0.58730000  0.54915000  0.89772000  1.0
  C  C72  1  0.46978000  0.55111000  0.12761000  1.0
  C  C73  1  0.47437000  0.56079000  0.05011000  1.0
  C  C74  1  0.51825000  0.53185000  0.02401000  1.0
  C  C75  1  0.51817000  0.53369000  0.94566000  1.0
  C  C76  1  0.80372000  0.47946000  0.50970000  1.0
  C  C77  1  0.18131000  0.48713000  0.50935000  1.0
  C  C78  1  0.85049000  0.49170000  0.44246000  1.0
  C  C79  1  0.92002000  0.48550000  0.44590000  1.0
  C  C80  1  0.15385000  0.51404000  0.55416000  1.0
  C  C81  1  0.07646000  0.50417000  0.55986000  1.0
  C  C82  1  0.12731000  0.44876000  0.47002000  1.0
  C  C83  1  0.04981000  0.43908000  0.47460000  1.0
  C  C84  1  0.82817000  0.45745000  0.58310000  1.0
  C  C85  1  0.89723000  0.45024000  0.58790000  1.0
  C  C86  1  0.94526000  0.46587000  0.51870000  1.0
  C  C87  1  0.02358000  0.46767000  0.51878000  1.0
  C  C88  1  0.17704000  0.18760000  0.51055000  1.0
  C  C89  1  0.80637000  0.81212000  0.50982000  1.0
  C  C90  1  0.14505000  0.20885000  0.44221000  1.0
  C  C91  1  0.06886000  0.13631000  0.44582000  1.0
  C  C92  1  0.85917000  0.79346000  0.55567000  1.0
  C  C93  1  0.92674000  0.86477000  0.56146000  1.0
  C  C94  1  0.82311000  0.90625000  0.47037000  1.0
  C  C95  1  0.89082000  0.97875000  0.47520000  1.0
  C  C96  1  0.12783000  0.08941000  0.58477000  1.0
  C  C97  1  0.05135000  0.01585000  0.58959000  1.0
  C  C98  1  0.02128000  0.03785000  0.51954000  1.0
  C  C99  1  0.94452000  0.95966000  0.51977000  1.0
  C  C100  1  0.50954000  0.18763000  0.80669000  1.0
  C  C101  1  0.51024000  0.81216000  0.17742000  1.0
  C  C102  1  0.55537000  0.20625000  0.85950000  1.0
  C  C103  1  0.56117000  0.13492000  0.92705000  1.0
  C  C104  1  0.44180000  0.79098000  0.14556000  1.0
  C  C105  1  0.44540000  0.86348000  0.06935000  1.0
  C  C106  1  0.58456000  0.91027000  0.12805000  1.0
  C  C107  1  0.58937000  0.98381000  0.05154000  1.0
  C  C108  1  0.47015000  0.09352000  0.82337000  1.0
  C  C109  1  0.47492000  0.02097000  0.89111000  1.0
  C  C110  1  0.51945000  0.04002000  0.94485000  1.0
  C  C111  1  0.51921000  0.96185000  0.02164000  1.0
  C  C112  1  0.84423000  0.78633000  0.14132000  1.0
  C  C113  1  0.91653000  0.86026000  0.06568000  1.0
  C  C114  1  0.95593000  0.83573000  0.02591000  1.0
  C  C115  1  0.84164000  0.91272000  0.14139000  1.0
  C  C116  1  0.91429000  0.98909000  0.06622000  1.0
  C  C117  1  0.95235000  0.09300000  0.02767000  1.0
  C  C118  1  0.14081000  0.21315000  0.84443000  1.0
  C  C119  1  0.06520000  0.13919000  0.91675000  1.0
  C  C120  1  0.02532000  0.16369000  0.95608000  1.0
  C  C121  1  0.14092000  0.08675000  0.84185000  1.0
  C  C122  1  0.06584000  0.01033000  0.91460000  1.0
  C  C123  1  0.02741000  0.90640000  0.95283000  1.0
  C  C124  1  0.80762000  0.81277000  0.17885000  1.0
  C  C125  1  0.95258000  0.96248000  0.02789000  1.0
  C  C126  1  0.17836000  0.18672000  0.80782000  1.0
  C  C127  1  0.02751000  0.03697000  0.95288000  1.0
  C  C128  1  0.50573000  0.18400000  0.51202000  1.0
  C  C129  1  0.51179000  0.81577000  0.50609000  1.0
  C  C130  1  0.43613000  0.08334000  0.56353000  1.0
  C  C131  1  0.43939000  0.01108000  0.56602000  1.0
  C  C132  1  0.56341000  0.91646000  0.43654000  1.0
  C  C133  1  0.56590000  0.98874000  0.43977000  1.0
  C  C134  1  0.46341000  0.78993000  0.58135000  1.0
  C  C135  1  0.46583000  0.86148000  0.58598000  1.0
  C  C136  1  0.58106000  0.20986000  0.46375000  1.0
  C  C137  1  0.58574000  0.13832000  0.46619000  1.0
  C  C138  1  0.51456000  0.03791000  0.51627000  1.0
  C  C139  1  0.51601000  0.96191000  0.51484000  1.0
  C  C140  1  0.06557000  0.87690000  0.91270000  1.0
  C  C141  1  0.91224000  0.12232000  0.06610000  1.0
  N  N142  1  0.59141000  0.43663000  0.20939000  1.0
  N  N143  1  0.36062000  0.48308000  0.83214000  1.0
  N  N144  1  0.83191000  0.51673000  0.36104000  1.0
  N  N145  1  0.20863000  0.56227000  0.59247000  1.0
  N  N146  1  0.19212000  0.30897000  0.35949000  1.0
  N  N147  1  0.85031000  0.69868000  0.59576000  1.0
  N  N148  1  0.59544000  0.30098000  0.85073000  1.0
  N  N149  1  0.35895000  0.69097000  0.19278000  1.0
  N  N150  1  0.35270000  0.04766000  0.61584000  1.0
  N  N151  1  0.61586000  0.95222000  0.35314000  1.0
  O  O152  1  0.44387000  0.50674000  0.70266000  1.0
  O  O153  1  0.70228000  0.49283000  0.44437000  1.0
  O  O154  1  0.56314000  0.50323000  0.29455000  1.0
  O  O155  1  0.29419000  0.49643000  0.56351000  1.0
  O  O156  1  0.29340000  0.23660000  0.70393000  1.0
  O  O157  1  0.56539000  0.76607000  0.44135000  1.0
  O  O158  1  0.70363000  0.76296000  0.29374000  1.0
  O  O159  1  0.44100000  0.23365000  0.56567000  1.0
  O  O160  1  0.56225000  0.35479000  0.70366000  1.0
  O  O161  1  0.29255000  0.35489000  0.44566000  1.0
  O  O162  1  0.44540000  0.64487000  0.29283000  1.0
  O  O163  1  0.70328000  0.64495000  0.56257000  1.0
  O  O164  1  0.29025000  0.23413000  0.56539000  1.0
  O  O165  1  0.56514000  0.76562000  0.29057000  1.0
  O  O166  1  0.70548000  0.76581000  0.44278000  1.0
  O  O167  1  0.44258000  0.23395000  0.70571000  1.0
  O  O168  1  0.29333000  0.35581000  0.70346000  1.0
  O  O169  1  0.56192000  0.35242000  0.44641000  1.0
  O  O170  1  0.70317000  0.64372000  0.29375000  1.0
  O  O171  1  0.44610000  0.64734000  0.56224000  1.0
  O  O172  1  0.29395000  0.49580000  0.44448000  1.0
  O  O173  1  0.56320000  0.50689000  0.70264000  1.0
  O  O174  1  0.70224000  0.49271000  0.56368000  1.0
  O  O175  1  0.44410000  0.50386000  0.29434000  1.0
  O  O176  1  0.44965000  0.60569000  0.44785000  1.0
  O  O177  1  0.44755000  0.39406000  0.44996000  1.0
  O  O178  1  0.65843000  0.60397000  0.44860000  1.0
  O  O179  1  0.44824000  0.39569000  0.65874000  1.0
  O  O180  1  0.53846000  0.42231000  0.54023000  1.0
  O  O181  1  0.53988000  0.57740000  0.53877000  1.0
  O  O182  1  0.53973000  0.57630000  0.38565000  1.0
  O  O183  1  0.38534000  0.42342000  0.54003000  1.0
  O  O184  1  0.54066000  0.35246000  0.27657000  1.0
  O  O185  1  0.67040000  0.48164000  0.18140000  1.0
  O  O186  1  0.30471000  0.39467000  0.86378000  1.0
  O  O187  1  0.35322000  0.55222000  0.79091000  1.0
  O  O188  1  0.86357000  0.60516000  0.30518000  1.0
  O  O189  1  0.79072000  0.44765000  0.35355000  1.0
  O  O190  1  0.27565000  0.64663000  0.54187000  1.0
  O  O191  1  0.18062000  0.51689000  0.67151000  1.0
  O  O192  1  0.25137000  0.33165000  0.30703000  1.0
  O  O193  1  0.16454000  0.35909000  0.34772000  1.0
  O  O194  1  0.87272000  0.68376000  0.54643000  1.0
  O  O195  1  0.82580000  0.64464000  0.67535000  1.0
  O  O196  1  0.54611000  0.31590000  0.87314000  1.0
  O  O197  1  0.67503000  0.35495000  0.82630000  1.0
  O  O198  1  0.30674000  0.66851000  0.25210000  1.0
  O  O199  1  0.34683000  0.64071000  0.16527000  1.0
  O  O200  1  0.30246000  0.05729000  0.57806000  1.0
  O  O201  1  0.33791000  0.00572000  0.69438000  1.0
  O  O202  1  0.57821000  0.94284000  0.30275000  1.0
  O  O203  1  0.69438000  0.99401000  0.33851000  1.0
