# generated using pymatgen
data_CuH24C33(N2Cl)2
_symmetry_space_group_name_H-M   'P 1'
_cell_length_a   11.67830000
_cell_length_b   11.67850000
_cell_length_c   11.80420000
_cell_angle_alpha   91.75300000
_cell_angle_beta   91.76120000
_cell_angle_gamma   104.74900000
_symmetry_Int_Tables_number   1
_chemical_formula_structural   CuH24C33(N2Cl)2
_chemical_formula_sum   'Cu2 H48 C66 N8 Cl4'
_cell_volume   1554.90510548
_cell_formula_units_Z   2
loop_
 _symmetry_equiv_pos_site_id
 _symmetry_equiv_pos_as_xyz
  1  'x, y, z'
loop_
 _atom_site_type_symbol
 _atom_site_label
 _atom_site_symmetry_multiplicity
 _atom_site_fract_x
 _atom_site_fract_y
 _atom_site_fract_z
 _atom_site_occupancy
  Cu  Cu0  1  0.87158000  0.27301000  0.47006000  1.0
  Cu  Cu1  1  0.27307000  0.87163000  0.97007000  1.0
  H  H2  1  0.86993000  0.44275000  0.28610000  1.0
  H  H3  1  0.44280000  0.86996000  0.78609000  1.0
  H  H4  1  0.96857000  0.48988000  0.10359000  1.0
  H  H5  1  0.48990000  0.96858000  0.60357000  1.0
  H  H6  1  0.11466000  0.18712000  0.14695000  1.0
  H  H7  1  0.18713000  0.11467000  0.64687000  1.0
  H  H8  1  0.01370000  0.15762000  0.32992000  1.0
  H  H9  1  0.15764000  0.01374000  0.82988000  1.0
  H  H10  1  0.39466000  0.35936000  0.91174000  1.0
  H  H11  1  0.35937000  0.39465000  0.41168000  1.0
  H  H12  1  0.26163000  0.29095000  0.06519000  1.0
  H  H13  1  0.29094000  0.26158000  0.56510000  1.0
  H  H14  1  0.01388000  0.47290000  0.92490000  1.0
  H  H15  1  0.47287000  0.01387000  0.42485000  1.0
  H  H16  1  0.14423000  0.53562000  0.76862000  1.0
  H  H17  1  0.53562000  0.14423000  0.26857000  1.0
  H  H18  1  0.04702000  0.79711000  0.07837000  1.0
  H  H19  1  0.79713000  0.04703000  0.57836000  1.0
  H  H20  1  0.83570000  0.69819000  0.03906000  1.0
  H  H21  1  0.69822000  0.83571000  0.53907000  1.0
  H  H22  1  0.92265000  0.64064000  0.69073000  1.0
  H  H23  1  0.64062000  0.92267000  0.19074000  1.0
  H  H24  1  0.13159000  0.73586000  0.74773000  1.0
  H  H25  1  0.73583000  0.13160000  0.24771000  1.0
  H  H26  1  0.53579000  0.44479000  0.63274000  1.0
  H  H27  1  0.44482000  0.53583000  0.13271000  1.0
  H  H28  1  0.75088000  0.51524000  0.67805000  1.0
  H  H29  1  0.51526000  0.75090000  0.17802000  1.0
  H  H30  1  0.67459000  0.70681000  0.97491000  1.0
  H  H31  1  0.70680000  0.67457000  0.47494000  1.0
  H  H32  1  0.46292000  0.63399000  0.92971000  1.0
  H  H33  1  0.63399000  0.46292000  0.42971000  1.0
  H  H34  1  0.21134000  0.62511000  0.04675000  1.0
  H  H35  1  0.62506000  0.21134000  0.54672000  1.0
  H  H36  1  0.21549000  0.52542000  0.22985000  1.0
  H  H37  1  0.52541000  0.21547000  0.72981000  1.0
  H  H38  1  0.29787000  0.87174000  0.39796000  1.0
  H  H39  1  0.87176000  0.29787000  0.89790000  1.0
  H  H40  1  0.29111000  0.95773000  0.20680000  1.0
  H  H41  1  0.95772000  0.29114000  0.70674000  1.0
  H  H42  1  0.47925000  0.70156000  0.66357000  1.0
  H  H43  1  0.70157000  0.47932000  0.16350000  1.0
  H  H44  1  0.43343000  0.78328000  0.48261000  1.0
  H  H45  1  0.78329000  0.43349000  0.98257000  1.0
  H  H46  1  0.13033000  0.48417000  0.42321000  1.0
  H  H47  1  0.48420000  0.13036000  0.92322000  1.0
  H  H48  1  0.17589000  0.40125000  0.60120000  1.0
  H  H49  1  0.40130000  0.17591000  0.10120000  1.0
  C  C50  1  0.92376000  0.38802000  0.25041000  1.0
  C  C51  1  0.38806000  0.92378000  0.75041000  1.0
  C  C52  1  0.97952000  0.41305000  0.14861000  1.0
  C  C53  1  0.41307000  0.97951000  0.64858000  1.0
  C  C54  1  0.05480000  0.34505000  0.10894000  1.0
  C  C55  1  0.34505000  0.05480000  0.60889000  1.0
  C  C56  1  0.06316000  0.24827000  0.17440000  1.0
  C  C57  1  0.24828000  0.06315000  0.67436000  1.0
  C  C58  1  0.00499000  0.22873000  0.27529000  1.0
  C  C59  1  0.22875000  0.00501000  0.77528000  1.0
  C  C60  1  0.28070000  0.45481000  0.82981000  1.0
  C  C61  1  0.45482000  0.28069000  0.32976000  1.0
  C  C62  1  0.31073000  0.38377000  0.91425000  1.0
  C  C63  1  0.38377000  0.31072000  0.41418000  1.0
  C  C64  1  0.23537000  0.34579000  0.00150000  1.0
  C  C65  1  0.34576000  0.23534000  0.50141000  1.0
  C  C66  1  0.12717000  0.37745000  0.00957000  1.0
  C  C67  1  0.37743000  0.12715000  0.50950000  1.0
  C  C68  1  0.09665000  0.44597000  0.92299000  1.0
  C  C69  1  0.44594000  0.09663000  0.42292000  1.0
  C  C70  1  0.17057000  0.48276000  0.83397000  1.0
  C  C71  1  0.48275000  0.17054000  0.33391000  1.0
  C  C72  1  0.01610000  0.75872000  0.99428000  1.0
  C  C73  1  0.75874000  0.01609000  0.49427000  1.0
  C  C74  1  0.89732000  0.70522000  0.97060000  1.0
  C  C75  1  0.70524000  0.89732000  0.47060000  1.0
  C  C76  1  0.85738000  0.66278000  0.85962000  1.0
  C  C77  1  0.66277000  0.85739000  0.35963000  1.0
  C  C78  1  0.94512000  0.67267000  0.77852000  1.0
  C  C79  1  0.67267000  0.94512000  0.27851000  1.0
  C  C80  1  0.06293000  0.72582000  0.81001000  1.0
  C  C81  1  0.72580000  0.06293000  0.30999000  1.0
  C  C82  1  0.48582000  0.53175000  0.77985000  1.0
  C  C83  1  0.53176000  0.48583000  0.27983000  1.0
  C  C84  1  0.56786000  0.50059000  0.70874000  1.0
  C  C85  1  0.50061000  0.56789000  0.20871000  1.0
  C  C86  1  0.68876000  0.54182000  0.73423000  1.0
  C  C87  1  0.54183000  0.68879000  0.23422000  1.0
  C  C88  1  0.73019000  0.61514000  0.83162000  1.0
  C  C89  1  0.61514000  0.73020000  0.33164000  1.0
  C  C90  1  0.64622000  0.64535000  0.90214000  1.0
  C  C91  1  0.64534000  0.64622000  0.40216000  1.0
  C  C92  1  0.52575000  0.60416000  0.87723000  1.0
  C  C93  1  0.60416000  0.52575000  0.37723000  1.0
  C  C94  1  0.22970000  0.67639000  0.12693000  1.0
  C  C95  1  0.67634000  0.22971000  0.62690000  1.0
  C  C96  1  0.23127000  0.62135000  0.22931000  1.0
  C  C97  1  0.62133000  0.23126000  0.72929000  1.0
  C  C98  1  0.26037000  0.69071000  0.33027000  1.0
  C  C99  1  0.69071000  0.26035000  0.83023000  1.0
  C  C100  1  0.28008000  0.81379000  0.32200000  1.0
  C  C101  1  0.81380000  0.28009000  0.82195000  1.0
  C  C102  1  0.27657000  0.86279000  0.21702000  1.0
  C  C103  1  0.86276000  0.27658000  0.71697000  1.0
  C  C104  1  0.33133000  0.54607000  0.64540000  1.0
  C  C105  1  0.54611000  0.33136000  0.14537000  1.0
  C  C106  1  0.40250000  0.65448000  0.61097000  1.0
  C  C107  1  0.65450000  0.40254000  0.11093000  1.0
  C  C108  1  0.37610000  0.70055000  0.50970000  1.0
  C  C109  1  0.70057000  0.37616000  0.00964000  1.0
  C  C110  1  0.27921000  0.64000000  0.43923000  1.0
  C  C111  1  0.64003000  0.27923000  0.93920000  1.0
  C  C112  1  0.20780000  0.53218000  0.47462000  1.0
  C  C113  1  0.53222000  0.20783000  0.97460000  1.0
  C  C114  1  0.23261000  0.48591000  0.57701000  1.0
  C  C115  1  0.48594000  0.23264000  0.07699000  1.0
  N  N116  1  0.93799000  0.29900000  0.31488000  1.0
  N  N117  1  0.29905000  0.93804000  0.81490000  1.0
  N  N118  1  0.09914000  0.76924000  0.91584000  1.0
  N  N119  1  0.76924000  0.09914000  0.41582000  1.0
  N  N120  1  0.25293000  0.79497000  0.12056000  1.0
  N  N121  1  0.79492000  0.25290000  0.62054000  1.0
  N  N122  1  0.36289000  0.49912000  0.74750000  1.0
  N  N123  1  0.49915000  0.36290000  0.24746000  1.0
  Cl  Cl124  1  0.87656000  0.47346000  0.49870000  1.0
  Cl  Cl125  1  0.47353000  0.87650000  0.99871000  1.0
  Cl  Cl126  1  0.03858000  0.19964000  0.54545000  1.0
  Cl  Cl127  1  0.19965000  0.03856000  0.04539000  1.0
