# generated using pymatgen
data_ZnH14C20N(O2F3)2
_symmetry_space_group_name_H-M   'P 1'
_cell_length_a   19.19330000
_cell_length_b   19.19330000
_cell_length_c   27.69082828
_cell_angle_alpha   69.72228158
_cell_angle_beta   69.72590594
_cell_angle_gamma   90.00380000
_symmetry_Int_Tables_number   1
_chemical_formula_structural   ZnH14C20N(O2F3)2
_chemical_formula_sum   'Zn8 H112 C160 N8 O32 F48'
_cell_volume   8891.71608532
_cell_formula_units_Z   8
loop_
 _symmetry_equiv_pos_site_id
 _symmetry_equiv_pos_as_xyz
  1  'x, y, z'
loop_
 _atom_site_type_symbol
 _atom_site_label
 _atom_site_symmetry_multiplicity
 _atom_site_fract_x
 _atom_site_fract_y
 _atom_site_fract_z
 _atom_site_occupancy
  Zn  Zn0  1  0.50559000  0.07868000  0.48886000  1.0
  Zn  Zn1  1  0.43246000  0.50556000  0.98885000  1.0
  Zn  Zn2  1  0.50557000  0.43248000  0.48886000  1.0
  Zn  Zn3  1  0.92134000  0.49443000  0.01114000  1.0
  Zn  Zn4  1  0.07866000  0.50557000  0.98886000  1.0
  Zn  Zn5  1  0.56754000  0.49445000  0.01114000  1.0
  Zn  Zn6  1  0.49441000  0.92131000  0.51115000  1.0
  Zn  Zn7  1  0.49443000  0.56752000  0.51114000  1.0
  H  H8  1  0.76884000  0.39425000  0.08613000  1.0
  H  H9  1  0.75146000  0.36787000  0.80895000  1.0
  H  H10  1  0.58247000  0.07645000  0.61738000  1.0
  H  H11  1  0.24850000  0.17682000  0.19105000  1.0
  H  H12  1  0.64506000  0.39426000  0.08615000  1.0
  H  H13  1  0.16877000  0.86211000  0.79437000  1.0
  H  H14  1  0.37984000  0.67673000  0.52273000  1.0
  H  H15  1  0.32327000  0.62020000  0.97726000  1.0
  H  H16  1  0.51962000  0.64503000  0.58613000  1.0
  H  H17  1  0.75149000  0.82318000  0.80895000  1.0
  H  H18  1  0.67677000  0.59744000  0.02274000  1.0
  H  H19  1  0.40250000  0.32325000  0.47728000  1.0
  H  H20  1  0.73733000  0.48044000  0.36831000  1.0
  H  H21  1  0.26264000  0.84879000  0.63167000  1.0
  H  H22  1  0.17682000  0.06041000  0.69105000  1.0
  H  H23  1  0.53685000  0.34355000  0.79441000  1.0
  H  H24  1  0.41758000  0.69378000  0.38257000  1.0
  H  H25  1  0.62018000  0.19951000  0.47726000  1.0
  H  H26  1  0.64506000  0.51956000  0.08616000  1.0
  H  H27  1  0.84874000  0.60564000  0.13169000  1.0
  H  H28  1  0.19946000  0.40257000  0.97727000  1.0
  H  H29  1  0.71977000  0.57778000  0.93657000  1.0
  H  H30  1  0.48048000  0.73733000  0.86831000  1.0
  H  H31  1  0.48566000  0.71980000  0.43655000  1.0
  H  H32  1  0.48046000  0.39431000  0.86833000  1.0
  H  H33  1  0.36787000  0.93956000  0.30895000  1.0
  H  H34  1  0.86204000  0.16874000  0.29441000  1.0
  H  H35  1  0.82323000  0.75142000  0.30896000  1.0
  H  H36  1  0.34358000  0.16871000  0.29440000  1.0
  H  H37  1  0.67673000  0.37980000  0.02274000  1.0
  H  H38  1  0.40254000  0.19947000  0.47726000  1.0
  H  H39  1  0.84365000  0.57779000  0.93655000  1.0
  H  H40  1  0.15128000  0.73739000  0.86829000  1.0
  H  H41  1  0.83121000  0.65639000  0.20562000  1.0
  H  H42  1  0.92365000  0.69985000  0.88257000  1.0
  H  H43  1  0.84872000  0.26261000  0.13171000  1.0
  H  H44  1  0.59750000  0.67675000  0.52272000  1.0
  H  H45  1  0.30617000  0.58243000  0.11741000  1.0
  H  H46  1  0.06039000  0.17678000  0.19105000  1.0
  H  H47  1  0.69989000  0.69379000  0.38260000  1.0
  H  H48  1  0.60569000  0.35498000  0.41386000  1.0
  H  H49  1  0.13799000  0.46317000  0.70562000  1.0
  H  H50  1  0.28023000  0.42222000  0.06343000  1.0
  H  H51  1  0.51959000  0.76879000  0.58615000  1.0
  H  H52  1  0.48041000  0.23121000  0.41385000  1.0
  H  H53  1  0.60568000  0.51957000  0.63171000  1.0
  H  H54  1  0.92361000  0.41751000  0.88260000  1.0
  H  H55  1  0.37982000  0.80049000  0.52274000  1.0
  H  H56  1  0.80053000  0.37978000  0.02272000  1.0
  H  H57  1  0.46315000  0.65644000  0.20559000  1.0
  H  H58  1  0.15637000  0.51431000  0.06347000  1.0
  H  H59  1  0.83122000  0.13789000  0.20563000  1.0
  H  H60  1  0.46311000  0.13798000  0.20560000  1.0
  H  H61  1  0.82318000  0.93959000  0.30895000  1.0
  H  H62  1  0.84364000  0.48569000  0.93653000  1.0
  H  H63  1  0.93962000  0.36781000  0.80896000  1.0
  H  H64  1  0.65648000  0.46314000  0.70563000  1.0
  H  H65  1  0.86201000  0.53683000  0.29438000  1.0
  H  H66  1  0.13797000  0.83126000  0.70559000  1.0
  H  H67  1  0.51434000  0.28020000  0.56345000  1.0
  H  H68  1  0.42221000  0.28016000  0.56347000  1.0
  H  H69  1  0.26267000  0.51956000  0.63169000  1.0
  H  H70  1  0.07635000  0.30015000  0.11743000  1.0
  H  H71  1  0.69984000  0.92357000  0.38260000  1.0
  H  H72  1  0.30016000  0.07642000  0.61741000  1.0
  H  H73  1  0.35494000  0.48044000  0.91384000  1.0
  H  H74  1  0.17677000  0.24858000  0.69104000  1.0
  H  H75  1  0.48565000  0.84366000  0.43657000  1.0
  H  H76  1  0.06038000  0.63219000  0.19104000  1.0
  H  H77  1  0.30011000  0.30621000  0.61740000  1.0
  H  H78  1  0.59747000  0.80053000  0.52274000  1.0
  H  H79  1  0.69383000  0.41757000  0.88259000  1.0
  H  H80  1  0.36783000  0.75144000  0.30895000  1.0
  H  H81  1  0.16879000  0.34361000  0.79438000  1.0
  H  H82  1  0.53689000  0.86202000  0.79440000  1.0
  H  H83  1  0.63214000  0.06044000  0.69105000  1.0
  H  H84  1  0.24854000  0.63213000  0.19105000  1.0
  H  H85  1  0.39436000  0.15121000  0.36831000  1.0
  H  H86  1  0.15125000  0.39436000  0.86831000  1.0
  H  H87  1  0.07639000  0.58249000  0.11740000  1.0
  H  H88  1  0.60572000  0.23123000  0.41384000  1.0
  H  H89  1  0.80054000  0.59743000  0.02273000  1.0
  H  H90  1  0.93961000  0.82322000  0.80895000  1.0
  H  H91  1  0.51952000  0.26267000  0.13169000  1.0
  H  H92  1  0.51435000  0.15634000  0.56343000  1.0
  H  H93  1  0.19947000  0.62022000  0.97728000  1.0
  H  H94  1  0.60564000  0.84879000  0.63169000  1.0
  H  H95  1  0.71978000  0.48567000  0.93655000  1.0
  H  H96  1  0.42222000  0.15633000  0.56345000  1.0
  H  H97  1  0.30617000  0.30015000  0.11738000  1.0
  H  H98  1  0.58242000  0.30622000  0.61743000  1.0
  H  H99  1  0.23116000  0.60575000  0.91387000  1.0
  H  H100  1  0.15635000  0.42221000  0.06345000  1.0
  H  H101  1  0.63217000  0.24856000  0.69105000  1.0
  H  H102  1  0.48038000  0.35497000  0.41387000  1.0
  H  H103  1  0.39431000  0.64502000  0.58614000  1.0
  H  H104  1  0.76884000  0.51955000  0.08614000  1.0
  H  H105  1  0.65642000  0.83129000  0.70560000  1.0
  H  H106  1  0.69383000  0.69985000  0.88262000  1.0
  H  H107  1  0.57779000  0.71984000  0.43653000  1.0
  H  H108  1  0.28022000  0.51433000  0.06345000  1.0
  H  H109  1  0.73736000  0.15121000  0.36833000  1.0
  H  H110  1  0.62016000  0.32327000  0.47727000  1.0
  H  H111  1  0.23116000  0.48045000  0.91386000  1.0
  H  H112  1  0.39428000  0.76877000  0.58616000  1.0
  H  H113  1  0.35494000  0.60574000  0.91385000  1.0
  H  H114  1  0.39432000  0.48043000  0.36829000  1.0
  H  H115  1  0.57778000  0.84367000  0.43655000  1.0
  H  H116  1  0.51954000  0.60569000  0.13167000  1.0
  H  H117  1  0.34352000  0.53686000  0.29437000  1.0
  H  H118  1  0.41753000  0.92355000  0.38262000  1.0
  H  H119  1  0.32323000  0.40256000  0.97726000  1.0
  C  C120  1  0.05612000  0.85140000  0.79537000  1.0
  C  C121  1  0.66010000  0.98650000  0.78012000  1.0
  C  C122  1  0.97736000  0.40146000  0.86277000  1.0
  C  C123  1  0.26429000  0.02265000  0.63727000  1.0
  C  C124  1  0.75679000  0.10529000  0.35485000  1.0
  C  C125  1  0.58505000  0.31244000  0.45598000  1.0
  C  C126  1  0.23338000  0.66008000  0.28012000  1.0
  C  C127  1  0.05979000  0.23341000  0.78013000  1.0
  C  C128  1  0.19461000  0.30789000  0.67898000  1.0
  C  C129  1  0.33990000  0.01350000  0.21988000  1.0
  C  C130  1  0.23158000  0.45897000  0.95598000  1.0
  C  C131  1  0.59019000  0.96362000  0.62021000  1.0
  C  C132  1  0.01354000  0.33992000  0.71987000  1.0
  C  C133  1  0.01313000  0.19461000  0.17900000  1.0
  C  C134  1  0.98646000  0.66008000  0.28013000  1.0
  C  C135  1  0.64674000  0.94393000  0.70461000  1.0
  C  C136  1  0.03649000  0.71043000  0.87972000  1.0
  C  C137  1  0.23159000  0.58511000  0.95600000  1.0
  C  C138  1  0.35149000  0.64676000  0.20460000  1.0
  C  C139  1  0.59849000  0.02268000  0.63725000  1.0
  C  C140  1  0.82653000  0.57175000  0.31337000  1.0
  C  C141  1  0.53987000  0.75677000  0.85485000  1.0
  C  C142  1  0.58382000  0.40985000  0.87978000  1.0
  C  C143  1  0.36555000  0.97406000  0.57625000  1.0
  C  C144  1  0.31241000  0.58510000  0.95598000  1.0
  C  C145  1  0.71037000  0.03640000  0.37978000  1.0
  C  C146  1  0.45889000  0.31241000  0.45600000  1.0
  C  C147  1  0.02606000  0.44184000  0.92369000  1.0
  C  C148  1  0.76662000  0.94022000  0.71988000  1.0
  C  C149  1  0.02610000  0.63449000  0.92365000  1.0
  C  C150  1  0.18839000  0.47855000  0.04289000  1.0
  C  C151  1  0.03643000  0.40982000  0.87978000  1.0
  C  C152  1  0.45892000  0.23161000  0.45598000  1.0
  C  C153  1  0.35146000  0.14865000  0.20461000  1.0
  C  C154  1  0.94388000  0.14861000  0.20463000  1.0
  C  C155  1  0.41495000  0.68756000  0.54402000  1.0
  C  C156  1  0.19466000  0.01317000  0.67900000  1.0
  C  C157  1  0.98686000  0.37359000  0.82102000  1.0
  C  C158  1  0.44970000  0.55820000  0.07625000  1.0
  C  C159  1  0.26876000  0.47856000  0.04287000  1.0
  C  C160  1  0.01313000  0.62641000  0.17898000  1.0
  C  C161  1  0.68759000  0.41490000  0.04402000  1.0
  C  C162  1  0.36553000  0.44975000  0.57630000  1.0
  C  C163  1  0.62633000  0.01319000  0.67901000  1.0
  C  C164  1  0.46012000  0.24323000  0.14515000  1.0
  C  C165  1  0.57177000  0.36004000  0.81341000  1.0
  C  C166  1  0.11488000  0.36010000  0.81337000  1.0
  C  C167  1  0.63445000  0.02594000  0.42375000  1.0
  C  C168  1  0.63994000  0.88520000  0.68660000  1.0
  C  C169  1  0.46014000  0.61164000  0.14515000  1.0
  C  C170  1  0.76662000  0.33992000  0.71988000  1.0
  C  C171  1  0.24321000  0.89471000  0.64515000  1.0
  C  C172  1  0.30783000  0.62634000  0.17900000  1.0
  C  C173  1  0.38836000  0.53983000  0.35480000  1.0
  C  C174  1  0.59015000  0.41621000  0.62028000  1.0
  C  C175  1  0.65992000  0.40156000  0.86273000  1.0
  C  C176  1  0.10537000  0.75684000  0.85480000  1.0
  C  C177  1  0.44967000  0.36553000  0.07626000  1.0
  C  C178  1  0.30780000  0.19466000  0.17901000  1.0
  C  C179  1  0.64677000  0.35149000  0.70463000  1.0
  C  C180  1  0.34007000  0.26426000  0.13725000  1.0
  C  C181  1  0.98687000  0.80539000  0.82100000  1.0
  C  C182  1  0.61162000  0.89472000  0.64515000  1.0
  C  C183  1  0.73577000  0.65988000  0.36276000  1.0
  C  C184  1  0.61164000  0.46017000  0.64520000  1.0
  C  C185  1  0.80534000  0.98683000  0.32100000  1.0
  C  C186  1  0.07031000  0.92972000  0.74999000  1.0
  C  C187  1  0.44186000  0.55025000  0.42365000  1.0
  C  C188  1  0.40151000  0.97731000  0.36276000  1.0
  C  C189  1  0.35323000  0.64851000  0.29537000  1.0
  C  C190  1  0.41616000  0.28960000  0.12021000  1.0
  C  C191  1  0.59845000  0.34012000  0.63729000  1.0
  C  C192  1  0.94020000  0.01350000  0.21988000  1.0
  C  C193  1  0.76842000  0.54103000  0.04402000  1.0
  C  C194  1  0.65993000  0.73573000  0.86276000  1.0
  C  C195  1  0.37361000  0.69213000  0.32100000  1.0
  C  C196  1  0.11487000  0.82661000  0.81337000  1.0
  C  C197  1  0.68760000  0.54104000  0.04403000  1.0
  C  C198  1  0.82655000  0.11482000  0.31341000  1.0
  C  C199  1  0.97397000  0.55817000  0.07630000  1.0
  C  C200  1  0.40985000  0.58379000  0.37972000  1.0
  C  C201  1  0.80539000  0.69211000  0.32102000  1.0
  C  C202  1  0.92967000  0.67967000  0.25000000  1.0
  C  C203  1  0.42823000  0.63996000  0.18659000  1.0
  C  C204  1  0.38838000  0.10527000  0.35486000  1.0
  C  C205  1  0.40981000  0.03638000  0.37979000  1.0
  C  C206  1  0.85135000  0.64848000  0.29538000  1.0
  C  C207  1  0.63998000  0.42824000  0.68663000  1.0
  C  C208  1  0.64854000  0.85135000  0.79539000  1.0
  C  C209  1  0.76841000  0.41489000  0.04400000  1.0
  C  C210  1  0.55814000  0.44975000  0.57635000  1.0
  C  C211  1  0.98650000  0.05972000  0.28014000  1.0
  C  C212  1  0.96351000  0.28957000  0.12028000  1.0
  C  C213  1  0.54111000  0.68759000  0.54400000  1.0
  C  C214  1  0.96357000  0.59019000  0.12022000  1.0
  C  C215  1  0.75678000  0.53984000  0.35483000  1.0
  C  C216  1  0.55032000  0.63447000  0.92374000  1.0
  C  C217  1  0.55030000  0.44180000  0.92375000  1.0
  C  C218  1  0.94386000  0.64673000  0.20462000  1.0
  C  C219  1  0.94021000  0.76659000  0.21987000  1.0
  C  C220  1  0.97391000  0.36551000  0.07635000  1.0
  C  C221  1  0.23338000  0.05978000  0.28012000  1.0
  C  C222  1  0.58507000  0.23163000  0.45597000  1.0
  C  C223  1  0.32029000  0.67970000  0.24999000  1.0
  C  C224  1  0.44179000  0.02594000  0.42374000  1.0
  C  C225  1  0.02259000  0.26426000  0.13729000  1.0
  C  C226  1  0.26423000  0.34012000  0.63724000  1.0
  C  C227  1  0.28963000  0.96360000  0.62022000  1.0
  C  C228  1  0.05980000  0.98650000  0.78012000  1.0
  C  C229  1  0.64851000  0.35324000  0.79540000  1.0
  C  C230  1  0.69220000  0.80534000  0.82099000  1.0
  C  C231  1  0.62639000  0.30787000  0.67900000  1.0
  C  C232  1  0.10533000  0.38840000  0.85483000  1.0
  C  C233  1  0.35326000  0.05607000  0.29539000  1.0
  C  C234  1  0.55821000  0.97406000  0.57626000  1.0
  C  C235  1  0.52143000  0.81163000  0.45713000  1.0
  C  C236  1  0.32030000  0.07030000  0.25000000  1.0
  C  C237  1  0.57180000  0.82654000  0.81340000  1.0
  C  C238  1  0.36006000  0.11480000  0.31340000  1.0
  C  C239  1  0.71041000  0.58379000  0.37978000  1.0
  C  C240  1  0.52144000  0.73128000  0.45711000  1.0
  C  C241  1  0.47857000  0.18837000  0.54287000  1.0
  C  C242  1  0.05614000  0.35327000  0.79538000  1.0
  C  C243  1  0.41618000  0.59015000  0.12022000  1.0
  C  C244  1  0.89463000  0.24316000  0.14520000  1.0
  C  C245  1  0.47856000  0.26872000  0.54289000  1.0
  C  C246  1  0.66014000  0.23336000  0.78014000  1.0
  C  C247  1  0.36002000  0.57176000  0.31337000  1.0
  C  C248  1  0.58383000  0.71040000  0.87979000  1.0
  C  C249  1  0.88513000  0.17339000  0.18663000  1.0
  C  C250  1  0.88512000  0.63991000  0.18662000  1.0
  C  C251  1  0.67971000  0.32030000  0.75001000  1.0
  C  C252  1  0.54108000  0.76839000  0.54402000  1.0
  C  C253  1  0.17345000  0.88518000  0.68659000  1.0
  C  C254  1  0.01350000  0.94028000  0.71986000  1.0
  C  C255  1  0.41493000  0.76837000  0.54403000  1.0
  C  C256  1  0.89467000  0.61160000  0.14517000  1.0
  C  C257  1  0.73124000  0.52144000  0.95713000  1.0
  C  C258  1  0.37367000  0.98681000  0.32099000  1.0
  C  C259  1  0.42820000  0.17346000  0.18660000  1.0
  C  C260  1  0.53986000  0.38836000  0.85485000  1.0
  C  C261  1  0.34008000  0.59844000  0.13727000  1.0
  C  C262  1  0.24323000  0.46016000  0.64517000  1.0
  C  C263  1  0.07033000  0.32033000  0.75000000  1.0
  C  C264  1  0.02264000  0.59854000  0.13723000  1.0
  C  C265  1  0.33986000  0.76664000  0.21986000  1.0
  C  C266  1  0.14864000  0.94391000  0.70460000  1.0
  C  C267  1  0.97741000  0.73574000  0.86271000  1.0
  C  C268  1  0.28959000  0.41621000  0.62022000  1.0
  C  C269  1  0.92969000  0.07028000  0.25001000  1.0
  C  C270  1  0.67970000  0.92970000  0.75000000  1.0
  C  C271  1  0.81161000  0.52145000  0.95711000  1.0
  C  C272  1  0.73571000  0.97735000  0.36273000  1.0
  C  C273  1  0.14865000  0.35152000  0.70462000  1.0
  C  C274  1  0.63447000  0.55026000  0.42369000  1.0
  C  C275  1  0.40155000  0.65988000  0.36271000  1.0
  C  C276  1  0.17347000  0.42825000  0.68663000  1.0
  C  C277  1  0.31240000  0.45896000  0.95597000  1.0
  C  C278  1  0.85136000  0.05609000  0.29540000  1.0
  C  C279  1  0.69217000  0.37366000  0.82100000  1.0
  N  N280  1  0.50748000  0.32463000  0.48499000  1.0
  N  N281  1  0.80962000  0.49247000  0.01501000  1.0
  N  N282  1  0.49252000  0.67537000  0.51501000  1.0
  N  N283  1  0.32464000  0.50753000  0.98496000  1.0
  N  N284  1  0.19038000  0.50753000  0.98499000  1.0
  N  N285  1  0.50751000  0.19040000  0.48496000  1.0
  N  N286  1  0.49249000  0.80960000  0.51504000  1.0
  N  N287  1  0.67536000  0.49247000  0.01504000  1.0
  O  O288  1  0.39964000  0.40939000  0.54991000  1.0
  O  O289  1  0.59070000  0.60040000  0.95012000  1.0
  O  O290  1  0.39965000  0.04081000  0.54989000  1.0
  O  O291  1  0.08466000  0.60971000  0.93103000  1.0
  O  O292  1  0.91539000  0.54075000  0.06893000  1.0
  O  O293  1  0.60969000  0.48432000  0.43107000  1.0
  O  O294  1  0.54075000  0.91550000  0.56890000  1.0
  O  O295  1  0.51564000  0.54082000  0.06886000  1.0
  O  O296  1  0.95930000  0.44955000  0.95009000  1.0
  O  O297  1  0.55044000  0.40941000  0.54994000  1.0
  O  O298  1  0.44956000  0.59059000  0.45006000  1.0
  O  O299  1  0.60036000  0.59061000  0.45009000  1.0
  O  O300  1  0.51559000  0.39035000  0.06890000  1.0
  O  O301  1  0.04065000  0.39962000  0.04994000  1.0
  O  O302  1  0.45925000  0.08450000  0.43110000  1.0
  O  O303  1  0.59070000  0.44954000  0.95011000  1.0
  O  O304  1  0.04070000  0.55045000  0.04991000  1.0
  O  O305  1  0.60968000  0.08451000  0.43113000  1.0
  O  O306  1  0.39032000  0.91549000  0.56887000  1.0
  O  O307  1  0.60035000  0.95919000  0.45011000  1.0
  O  O308  1  0.54074000  0.51569000  0.56897000  1.0
  O  O309  1  0.48440000  0.60965000  0.93110000  1.0
  O  O310  1  0.40930000  0.55046000  0.04989000  1.0
  O  O311  1  0.48436000  0.45919000  0.93113000  1.0
  O  O312  1  0.95935000  0.60038000  0.95006000  1.0
  O  O313  1  0.40928000  0.39961000  0.04988000  1.0
  O  O314  1  0.39031000  0.51568000  0.56893000  1.0
  O  O315  1  0.08461000  0.45924000  0.93107000  1.0
  O  O316  1  0.45926000  0.48431000  0.43103000  1.0
  O  O317  1  0.91534000  0.39029000  0.06897000  1.0
  O  O318  1  0.55051000  0.04083000  0.54988000  1.0
  O  O319  1  0.44949000  0.95917000  0.45012000  1.0
  F  F320  1  0.69654000  0.19552000  0.74747000  1.0
  F  F321  1  0.32216000  0.79148000  0.17386000  1.0
  F  F322  1  0.03466000  0.00398000  0.67386000  1.0
  F  F323  1  0.00886000  0.41496000  0.70298000  1.0
  F  F324  1  0.99114000  0.58504000  0.29702000  1.0
  F  F325  1  0.94394000  0.80444000  0.25254000  1.0
  F  F326  1  0.99609000  0.20857000  0.82613000  1.0
  F  F327  1  0.32217000  0.03465000  0.17388000  1.0
  F  F328  1  0.99607000  0.96535000  0.82611000  1.0
  F  F329  1  0.96530000  0.67778000  0.32613000  1.0
  F  F330  1  0.30346000  0.80448000  0.25253000  1.0
  F  F331  1  0.94299000  0.94401000  0.75253000  1.0
  F  F332  1  0.05607000  0.05701000  0.74742000  1.0
  F  F333  1  0.05701000  0.05599000  0.24747000  1.0
  F  F334  1  0.11794000  0.21184000  0.79702000  1.0
  F  F335  1  0.80444000  0.30349000  0.75258000  1.0
  F  F336  1  0.20854000  0.67782000  0.32611000  1.0
  F  F337  1  0.67784000  0.20852000  0.82614000  1.0
  F  F338  1  0.00391000  0.79143000  0.17387000  1.0
  F  F339  1  0.94393000  0.94299000  0.25258000  1.0
  F  F340  1  0.78823000  0.41494000  0.70298000  1.0
  F  F341  1  0.00393000  0.03465000  0.17389000  1.0
  F  F342  1  0.58509000  0.21179000  0.79704000  1.0
  F  F343  1  0.99117000  0.11787000  0.29704000  1.0
  F  F344  1  0.69652000  0.05702000  0.74743000  1.0
  F  F345  1  0.05698000  0.69649000  0.24745000  1.0
  F  F346  1  0.94302000  0.30351000  0.75255000  1.0
  F  F347  1  0.30348000  0.94298000  0.25257000  1.0
  F  F348  1  0.19555000  0.05605000  0.24743000  1.0
  F  F349  1  0.80445000  0.94396000  0.75256000  1.0
  F  F350  1  0.78820000  0.88210000  0.70297000  1.0
  F  F351  1  0.19556000  0.69651000  0.24742000  1.0
  F  F352  1  0.05606000  0.19556000  0.74746000  1.0
  F  F353  1  0.96534000  0.99602000  0.32614000  1.0
  F  F354  1  0.79147000  0.00395000  0.67388000  1.0
  F  F355  1  0.21180000  0.11790000  0.29703000  1.0
  F  F356  1  0.11792000  0.99120000  0.79702000  1.0
  F  F357  1  0.41493000  0.00883000  0.20297000  1.0
  F  F358  1  0.03470000  0.32222000  0.67387000  1.0
  F  F359  1  0.67783000  0.96535000  0.82612000  1.0
  F  F360  1  0.20853000  0.99605000  0.32612000  1.0
  F  F361  1  0.41491000  0.78821000  0.20296000  1.0
  F  F362  1  0.88208000  0.00879000  0.20298000  1.0
  F  F363  1  0.58507000  0.99117000  0.79703000  1.0
  F  F364  1  0.88206000  0.78816000  0.20298000  1.0
  F  F365  1  0.21177000  0.58506000  0.29702000  1.0
  F  F366  1  0.00883000  0.88212000  0.70297000  1.0
  F  F367  1  0.79146000  0.32218000  0.67389000  1.0
