# generated using pymatgen
data_Zr3H22C32O21
_symmetry_space_group_name_H-M   'P 1'
_cell_length_a   14.79169505
_cell_length_b   14.83721967
_cell_length_c   14.84250000
_cell_angle_alpha   60.21384034
_cell_angle_beta   60.15337842
_cell_angle_gamma   60.11118200
_symmetry_Int_Tables_number   1
_chemical_formula_structural   Zr3H22C32O21
_chemical_formula_sum   'Zr6 H44 C64 O42'
_cell_volume   2311.67946767
_cell_formula_units_Z   2
loop_
 _symmetry_equiv_pos_site_id
 _symmetry_equiv_pos_as_xyz
  1  'x, y, z'
loop_
 _atom_site_type_symbol
 _atom_site_label
 _atom_site_symmetry_multiplicity
 _atom_site_fract_x
 _atom_site_fract_y
 _atom_site_fract_z
 _atom_site_occupancy
  Zr  Zr0  1  0.37901000  0.11826000  0.88128000  1.0
  Zr  Zr1  1  0.61782000  0.88084000  0.11896000  1.0
  Zr  Zr2  1  0.37784000  0.88164000  0.11938000  1.0
  Zr  Zr3  1  0.61804000  0.11771000  0.88114000  1.0
  Zr  Zr4  1  0.37865000  0.11786000  0.11915000  1.0
  Zr  Zr5  1  0.61501000  0.88054000  0.88221000  1.0
  H  H6  1  0.21543000  0.09280000  0.09600000  1.0
  H  H7  1  0.59268000  0.09200000  0.09464000  1.0
  H  H8  1  0.59000000  0.71866000  0.09514000  1.0
  H  H9  1  0.59166000  0.09181000  0.71981000  1.0
  H  H10  1  0.11293000  0.44582000  0.19083000  1.0
  H  H11  1  0.02807000  0.36224000  0.25666000  1.0
  H  H12  1  0.85921000  0.53038000  0.25836000  1.0
  H  H13  1  0.94289000  0.61500000  0.19038000  1.0
  H  H14  1  0.70704000  0.76005000  0.60084000  1.0
  H  H15  1  0.76439000  0.86799000  0.51281000  1.0
  H  H16  1  0.76125000  0.85999000  0.34988000  1.0
  H  H17  1  0.69775000  0.75595000  0.43871000  1.0
  H  H18  1  0.65377000  0.46997000  0.73582000  1.0
  H  H19  1  0.74400000  0.38493000  0.81581000  1.0
  H  H20  1  0.74388000  0.55420000  0.81584000  1.0
  H  H21  1  0.65130000  0.63829000  0.73840000  1.0
  H  H22  1  0.97099000  0.14213000  0.65280000  1.0
  H  H23  1  0.88910000  0.23740000  0.56539000  1.0
  H  H24  1  0.06196000  0.23714000  0.40050000  1.0
  H  H25  1  0.14290000  0.13986000  0.48816000  1.0
  H  H26  1  0.06630000  0.18896000  0.00866000  1.0
  H  H27  1  0.89457000  0.34656000  0.02647000  1.0
  H  H28  1  0.73189000  0.18764000  0.00700000  1.0
  H  H29  1  0.72582000  0.34542000  0.02622000  1.0
  H  H30  1  0.23708000  0.45799000  0.62548000  1.0
  H  H31  1  0.32732000  0.37304000  0.54022000  1.0
  H  H32  1  0.32677000  0.54205000  0.37286000  1.0
  H  H33  1  0.23641000  0.62618000  0.45886000  1.0
  H  H34  1  0.85683000  0.66502000  0.83848000  1.0
  H  H35  1  0.16689000  0.36084000  0.83606000  1.0
  H  H36  1  0.33558000  0.13436000  0.36034000  1.0
  H  H37  1  0.33181000  0.12921000  0.67174000  1.0
  H  H38  1  0.34467000  0.65428000  0.14970000  1.0
  H  H39  1  0.34299000  0.34976000  0.14555000  1.0
  H  H40  1  0.15169000  0.85007000  0.34650000  1.0
  H  H41  1  0.84301000  0.84995000  0.65137000  1.0
  H  H42  1  0.63608000  0.66295000  0.35673000  1.0
  H  H43  1  0.63849000  0.35352000  0.66099000  1.0
  H  H44  1  0.06656000  0.80227000  0.88999000  1.0
  H  H45  1  0.93227000  0.80731000  0.98879000  1.0
  H  H46  1  0.05013000  0.73030000  0.03086000  1.0
  H  H47  1  0.20214000  0.73899000  0.04412000  1.0
  H  H48  1  0.27908000  0.82924000  0.94825000  1.0
  H  H49  1  0.22125000  0.78637000  0.90264000  1.0
  C  C50  1  0.19859000  0.30829000  0.99809000  1.0
  C  C51  1  0.49786000  0.99493000  0.30636000  1.0
  C  C52  1  0.80505000  0.69888000  0.99868000  1.0
  C  C53  1  0.49767000  0.99265000  0.69944000  1.0
  C  C54  1  0.19738000  0.99803000  0.99519000  1.0
  C  C55  1  0.49098000  0.30701000  0.69912000  1.0
  C  C56  1  0.80628000  0.99579000  0.99532000  1.0
  C  C57  1  0.48943000  0.70043000  0.30900000  1.0
  C  C58  1  0.19810000  0.99723000  0.31010000  1.0
  C  C59  1  0.49440000  0.69924000  0.99573000  1.0
  C  C60  1  0.80584000  0.99515000  0.70134000  1.0
  C  C61  1  0.49511000  0.30749000  0.99410000  1.0
  C  C62  1  0.10172000  0.40889000  0.99579000  1.0
  C  C63  1  0.90563000  0.60205000  0.99669000  1.0
  C  C64  1  0.04538000  0.45455000  0.08075000  1.0
  C  C65  1  0.96080000  0.55853000  0.90927000  1.0
  C  C66  1  0.95167000  0.54690000  0.08125000  1.0
  C  C67  1  0.05819000  0.46330000  0.90850000  1.0
  C  C68  1  0.04244000  0.43835000  0.19127000  1.0
  C  C69  1  0.93528000  0.54434000  0.19173000  1.0
  C  C70  1  0.49768000  0.99330000  0.60039000  1.0
  C  C71  1  0.49721000  0.99432000  0.40559000  1.0
  C  C72  1  0.58563000  0.92286000  0.54063000  1.0
  C  C73  1  0.40860000  0.06814000  0.46234000  1.0
  C  C74  1  0.58462000  0.92246000  0.44830000  1.0
  C  C75  1  0.40792000  0.06671000  0.55959000  1.0
  C  C76  1  0.70051000  0.83775000  0.53168000  1.0
  C  C77  1  0.69760000  0.83475000  0.42820000  1.0
  C  C78  1  0.49253000  0.40804000  0.99305000  1.0
  C  C79  1  0.49290000  0.60163000  0.99486000  1.0
  C  C80  1  0.57091000  0.46060000  0.91159000  1.0
  C  C81  1  0.41235000  0.55088000  0.07798000  1.0
  C  C82  1  0.57097000  0.55315000  0.91261000  1.0
  C  C83  1  0.41157000  0.45571000  0.07660000  1.0
  C  C84  1  0.66978000  0.45741000  0.80668000  1.0
  C  C85  1  0.66943000  0.56357000  0.80781000  1.0
  C  C86  1  0.90688000  0.99237000  0.60536000  1.0
  C  C87  1  0.10255000  0.99322000  0.41182000  1.0
  C  C88  1  0.96229000  0.06718000  0.56086000  1.0
  C  C89  1  0.04960000  0.91513000  0.45597000  1.0
  C  C90  1  0.05603000  0.06754000  0.46864000  1.0
  C  C91  1  0.95266000  0.91505000  0.55141000  1.0
  C  C92  1  0.96050000  0.16183000  0.57603000  1.0
  C  C93  1  0.06883000  0.16125000  0.47169000  1.0
  C  C94  1  0.09728000  0.99834000  0.99271000  1.0
  C  C95  1  0.99918000  0.09255000  0.00120000  1.0
  C  C96  1  0.10165000  0.90767000  0.98305000  1.0
  C  C97  1  0.99289000  0.18618000  0.01119000  1.0
  C  C98  1  0.89670000  0.27519000  0.02035000  1.0
  C  C99  1  0.90823000  0.99642000  0.99357000  1.0
  C  C100  1  0.00486000  0.90605000  0.98474000  1.0
  C  C101  1  0.90267000  0.09188000  0.00091000  1.0
  C  C102  1  0.80491000  0.18518000  0.01047000  1.0
  C  C103  1  0.80171000  0.27460000  0.02012000  1.0
  C  C104  1  0.48919000  0.40743000  0.60226000  1.0
  C  C105  1  0.48809000  0.60314000  0.40899000  1.0
  C  C106  1  0.41033000  0.45685000  0.54989000  1.0
  C  C107  1  0.56839000  0.55579000  0.46033000  1.0
  C  C108  1  0.40985000  0.55031000  0.45757000  1.0
  C  C109  1  0.56907000  0.45910000  0.55549000  1.0
  C  C110  1  0.31126000  0.44722000  0.55313000  1.0
  C  C111  1  0.31084000  0.55397000  0.44750000  1.0
  C  C112  1  0.01281000  0.80691000  0.97315000  1.0
  C  C113  1  0.20662000  0.81114000  0.96856000  1.0
  O  O114  1  0.23901000  0.26716000  0.92087000  1.0
  O  O115  1  0.57450000  0.92075000  0.26397000  1.0
  O  O116  1  0.76248000  0.73817000  0.07591000  1.0
  O  O117  1  0.41856000  0.06827000  0.74212000  1.0
  O  O118  1  0.23512000  0.92299000  0.07324000  1.0
  O  O119  1  0.56919000  0.26595000  0.73951000  1.0
  O  O120  1  0.76570000  0.07164000  0.91950000  1.0
  O  O121  1  0.41562000  0.73983000  0.26582000  1.0
  O  O122  1  0.23821000  0.07374000  0.26795000  1.0
  O  O123  1  0.57079000  0.73928000  0.92118000  1.0
  O  O124  1  0.76362000  0.91888000  0.74091000  1.0
  O  O125  1  0.41919000  0.26507000  0.07306000  1.0
  O  O126  1  0.41749000  0.73951000  0.07385000  1.0
  O  O127  1  0.76326000  0.07241000  0.74051000  1.0
  O  O128  1  0.57203000  0.26540000  0.91981000  1.0
  O  O129  1  0.23628000  0.92276000  0.26599000  1.0
  O  O130  1  0.23782000  0.07419000  0.91980000  1.0
  O  O131  1  0.56760000  0.74073000  0.26815000  1.0
  O  O132  1  0.76501000  0.92118000  0.07334000  1.0
  O  O133  1  0.41717000  0.26385000  0.73853000  1.0
  O  O134  1  0.57516000  0.91904000  0.73870000  1.0
  O  O135  1  0.23716000  0.26505000  0.07589000  1.0
  O  O136  1  0.42013000  0.07260000  0.26561000  1.0
  O  O137  1  0.76390000  0.73937000  0.92147000  1.0
  O  O138  1  0.56447000  0.06596000  0.79962000  1.0
  O  O139  1  0.56397000  0.79853000  0.06792000  1.0
  O  O140  1  0.56551000  0.06672000  0.06688000  1.0
  O  O141  1  0.29559000  0.06744000  0.06765000  1.0
  O  O142  1  0.44836000  0.95028000  0.14838000  1.0
  O  O143  1  0.44859000  0.14702000  0.95113000  1.0
  O  O144  1  0.64603000  0.94972000  0.95123000  1.0
  O  O145  1  0.44728000  0.94997000  0.95135000  1.0
  O  O146  1  0.92589000  0.60213000  0.82334000  1.0
  O  O147  1  0.10346000  0.42955000  0.82150000  1.0
  O  O148  1  0.32052000  0.14281000  0.42965000  1.0
  O  O149  1  0.31795000  0.13851000  0.60790000  1.0
  O  O150  1  0.33278000  0.58780000  0.16216000  1.0
  O  O151  1  0.33051000  0.41544000  0.15879000  1.0
  O  O152  1  0.08483000  0.83830000  0.41163000  1.0
  O  O153  1  0.90808000  0.83905000  0.58435000  1.0
  O  O154  1  0.64828000  0.59751000  0.42316000  1.0
  O  O155  1  0.64977000  0.42089000  0.59655000  1.0
