# generated using pymatgen
data_CsSi2H30C12NO3
_symmetry_space_group_name_H-M   'P 1'
_cell_length_a   11.62690000
_cell_length_b   12.37510000
_cell_length_c   14.53270000
_cell_angle_alpha   82.79040000
_cell_angle_beta   89.99950000
_cell_angle_gamma   89.99980000
_symmetry_Int_Tables_number   1
_chemical_formula_structural   CsSi2H30C12NO3
_chemical_formula_sum   'Cs4 Si8 H120 C48 N4 O12'
_cell_volume   2074.49144922
_cell_formula_units_Z   4
loop_
 _symmetry_equiv_pos_site_id
 _symmetry_equiv_pos_as_xyz
  1  'x, y, z'
loop_
 _atom_site_type_symbol
 _atom_site_label
 _atom_site_symmetry_multiplicity
 _atom_site_fract_x
 _atom_site_fract_y
 _atom_site_fract_z
 _atom_site_occupancy
  Cs  Cs0  1  0.48233000  0.13310000  0.56145000  1.0
  Cs  Cs1  1  0.98233000  0.36690000  0.93855000  1.0
  Cs  Cs2  1  0.51767000  0.86691000  0.43855000  1.0
  Cs  Cs3  1  0.01766000  0.63310000  0.06144000  1.0
  Si  Si4  1  0.61115000  0.85769000  0.70263000  1.0
  Si  Si5  1  0.11114000  0.64231000  0.79736000  1.0
  Si  Si6  1  0.38886000  0.14231000  0.29737000  1.0
  Si  Si7  1  0.88886000  0.35769000  0.20264000  1.0
  Si  Si8  1  0.79005000  0.96971000  0.57252000  1.0
  Si  Si9  1  0.29005000  0.53029000  0.92748000  1.0
  Si  Si10  1  0.20995000  0.03029000  0.42748000  1.0
  Si  Si11  1  0.70995000  0.46971000  0.07252000  1.0
  H  H12  1  0.64418000  0.80606000  0.87373000  1.0
  H  H13  1  0.14418000  0.69393000  0.62626000  1.0
  H  H14  1  0.35583000  0.19394000  0.12626000  1.0
  H  H15  1  0.85582000  0.30607000  0.37374000  1.0
  H  H16  1  0.66824000  0.94793000  0.84195000  1.0
  H  H17  1  0.16823000  0.55206000  0.65805000  1.0
  H  H18  1  0.33177000  0.05207000  0.15805000  1.0
  H  H19  1  0.83176000  0.44794000  0.34196000  1.0
  H  H20  1  0.77360000  0.85152000  0.81670000  1.0
  H  H21  1  0.27360000  0.64847000  0.68329000  1.0
  H  H22  1  0.22641000  0.14848000  0.18330000  1.0
  H  H23  1  0.72641000  0.35153000  0.31670000  1.0
  H  H24  1  0.72592000  0.69379000  0.67324000  1.0
  H  H25  1  0.22591000  0.80622000  0.82675000  1.0
  H  H26  1  0.27409000  0.30622000  0.32675000  1.0
  H  H27  1  0.77409000  0.19379000  0.17325000  1.0
  H  H28  1  0.59967000  0.65205000  0.73745000  1.0
  H  H29  1  0.09967000  0.84795000  0.76254000  1.0
  H  H30  1  0.40034000  0.34796000  0.26255000  1.0
  H  H31  1  0.90033000  0.15205000  0.23746000  1.0
  H  H32  1  0.59122000  0.69483000  0.61619000  1.0
  H  H33  1  0.09120000  0.80517000  0.88380000  1.0
  H  H34  1  0.40880000  0.30517000  0.38380000  1.0
  H  H35  1  0.90879000  0.19484000  0.11620000  1.0
  H  H36  1  0.43180000  0.95314000  0.74519000  1.0
  H  H37  1  0.93180000  0.54686000  0.75480000  1.0
  H  H38  1  0.56820000  0.04686000  0.25480000  1.0
  H  H39  1  0.06820000  0.45315000  0.24520000  1.0
  H  H40  1  0.39787000  0.86387000  0.66222000  1.0
  H  H41  1  0.89787000  0.63612000  0.83777000  1.0
  H  H42  1  0.60215000  0.13612000  0.33777000  1.0
  H  H43  1  0.10214000  0.36388000  0.16223000  1.0
  H  H44  1  0.42077000  0.81118000  0.77952000  1.0
  H  H45  1  0.92077000  0.68882000  0.72047000  1.0
  H  H46  1  0.57924000  0.18882000  0.22048000  1.0
  H  H47  1  0.07924000  0.31119000  0.27952000  1.0
  H  H48  1  0.88863000  0.12386000  0.47164000  1.0
  H  H49  1  0.38863000  0.37616000  0.02835000  1.0
  H  H50  1  0.11137000  0.87615000  0.52835000  1.0
  H  H51  1  0.61137000  0.62384000  0.97164000  1.0
  H  H52  1  0.74254000  0.11544000  0.44029000  1.0
  H  H53  1  0.24254000  0.38456000  0.05970000  1.0
  H  H54  1  0.25746000  0.88456000  0.55970000  1.0
  H  H55  1  0.75746000  0.61543000  0.94029000  1.0
  H  H56  1  0.78085000  0.17458000  0.54114000  1.0
  H  H57  1  0.28085000  0.32543000  0.95885000  1.0
  H  H58  1  0.21916000  0.82542000  0.45885000  1.0
  H  H59  1  0.71915000  0.67457000  0.04114000  1.0
  H  H60  1  0.91589000  0.87981000  0.69908000  1.0
  H  H61  1  0.41589000  0.62019000  0.80091000  1.0
  H  H62  1  0.08412000  0.12019000  0.30092000  1.0
  H  H63  1  0.58411000  0.37982000  0.19909000  1.0
  H  H64  1  0.89196000  0.01695000  0.71658000  1.0
  H  H65  1  0.39196000  0.48305000  0.78342000  1.0
  H  H66  1  0.10805000  0.98305000  0.28342000  1.0
  H  H67  1  0.60805000  0.51696000  0.21658000  1.0
  H  H68  1  0.99284000  0.98537000  0.63176000  1.0
  H  H69  1  0.49284000  0.51463000  0.86823000  1.0
  H  H70  1  0.00717000  0.01463000  0.36824000  1.0
  H  H71  1  0.50716000  0.48538000  0.13177000  1.0
  H  H72  1  0.92867000  0.87855000  0.47308000  1.0
  H  H73  1  0.42866000  0.62147000  0.02691000  1.0
  H  H74  1  0.07134000  0.12145000  0.52692000  1.0
  H  H75  1  0.57134000  0.37854000  0.97309000  1.0
  H  H76  1  0.78703000  0.86858000  0.43036000  1.0
  H  H77  1  0.28702000  0.63143000  0.06963000  1.0
  H  H78  1  0.21297000  0.13141000  0.56964000  1.0
  H  H79  1  0.71297000  0.36857000  0.93037000  1.0
  H  H80  1  0.83110000  0.78276000  0.53109000  1.0
  H  H81  1  0.33108000  0.71724000  0.96890000  1.0
  H  H82  1  0.16891000  0.21724000  0.46892000  1.0
  H  H83  1  0.66890000  0.28276000  0.03110000  1.0
  H  H84  1  0.58821000  0.34608000  0.80339000  1.0
  H  H85  1  0.08820000  0.15392000  0.69661000  1.0
  H  H86  1  0.41178000  0.65391000  0.19661000  1.0
  H  H87  1  0.91179000  0.84607000  0.30340000  1.0
  H  H88  1  0.56057000  0.40771000  0.68719000  1.0
  H  H89  1  0.06056000  0.09230000  0.81282000  1.0
  H  H90  1  0.43943000  0.59228000  0.31281000  1.0
  H  H91  1  0.93944000  0.90770000  0.18719000  1.0
  H  H92  1  0.73905000  0.48442000  0.75853000  1.0
  H  H93  1  0.23904000  0.01557000  0.74147000  1.0
  H  H94  1  0.26094000  0.51557000  0.24146000  1.0
  H  H95  1  0.76095000  0.98442000  0.25853000  1.0
  H  H96  1  0.76965000  0.42423000  0.65543000  1.0
  H  H97  1  0.26963000  0.07577000  0.84458000  1.0
  H  H98  1  0.23035000  0.57575000  0.34458000  1.0
  H  H99  1  0.73036000  0.92422000  0.15543000  1.0
  H  H100  1  0.85650000  0.24119000  0.67539000  1.0
  H  H101  1  0.35650000  0.25880000  0.82461000  1.0
  H  H102  1  0.14349000  0.75879000  0.32463000  1.0
  H  H103  1  0.64350000  0.74118000  0.17540000  1.0
  H  H104  1  0.88258000  0.18133000  0.79213000  1.0
  H  H105  1  0.38258000  0.31866000  0.70787000  1.0
  H  H106  1  0.11740000  0.81865000  0.20789000  1.0
  H  H107  1  0.61743000  0.68133000  0.29214000  1.0
  H  H108  1  0.67286000  0.16531000  0.82239000  1.0
  H  H109  1  0.17287000  0.33469000  0.67761000  1.0
  H  H110  1  0.32711000  0.83467000  0.17761000  1.0
  H  H111  1  0.82714000  0.66530000  0.32239000  1.0
  H  H112  1  0.70309000  0.10455000  0.71871000  1.0
  H  H113  1  0.20309000  0.39545000  0.78129000  1.0
  H  H114  1  0.29690000  0.89544000  0.28129000  1.0
  H  H115  1  0.79691000  0.60454000  0.21871000  1.0
  H  H116  1  0.35918000  0.46165000  0.43536000  1.0
  H  H117  1  0.85918000  0.03836000  0.06465000  1.0
  H  H118  1  0.64082000  0.53837000  0.56464000  1.0
  H  H119  1  0.14082000  0.96164000  0.93537000  1.0
  H  H120  1  0.31272000  0.43631000  0.55344000  1.0
  H  H121  1  0.81273000  0.06371000  0.94656000  1.0
  H  H122  1  0.68726000  0.56371000  0.44655000  1.0
  H  H123  1  0.18727000  0.93630000  0.05345000  1.0
  H  H124  1  0.56048000  0.41788000  0.40266000  1.0
  H  H125  1  0.06049000  0.08213000  0.09735000  1.0
  H  H126  1  0.43950000  0.58214000  0.59734000  1.0
  H  H127  1  0.93952000  0.91788000  0.90267000  1.0
  H  H128  1  0.64639000  0.36238000  0.49965000  1.0
  H  H129  1  0.14640000  0.13762000  0.00036000  1.0
  H  H130  1  0.35359000  0.63764000  0.50035000  1.0
  H  H131  1  0.85360000  0.86238000  0.99965000  1.0
  C  C132  1  0.68067000  0.86686000  0.81987000  1.0
  C  C133  1  0.18067000  0.63313000  0.68012000  1.0
  C  C134  1  0.31934000  0.13315000  0.18013000  1.0
  C  C135  1  0.81933000  0.36687000  0.31988000  1.0
  C  C136  1  0.63372000  0.71061000  0.68077000  1.0
  C  C137  1  0.13372000  0.78939000  0.81922000  1.0
  C  C138  1  0.36629000  0.28939000  0.31923000  1.0
  C  C139  1  0.86628000  0.21062000  0.18078000  1.0
  C  C140  1  0.45088000  0.87289000  0.72364000  1.0
  C  C141  1  0.95088000  0.62710000  0.77635000  1.0
  C  C142  1  0.54913000  0.12710000  0.27635000  1.0
  C  C143  1  0.04912000  0.37290000  0.22364000  1.0
  C  C144  1  0.80167000  0.10824000  0.49998000  1.0
  C  C145  1  0.30167000  0.39177000  0.00001000  1.0
  C  C146  1  0.19834000  0.89176000  0.50001000  1.0
  C  C147  1  0.69833000  0.60823000  0.99998000  1.0
  C  C148  1  0.90869000  0.96328000  0.66331000  1.0
  C  C149  1  0.40868000  0.53673000  0.83669000  1.0
  C  C150  1  0.09132000  0.03673000  0.33669000  1.0
  C  C151  1  0.59132000  0.46328000  0.16331000  1.0
  C  C152  1  0.83827000  0.86579000  0.49418000  1.0
  C  C153  1  0.33826000  0.63421000  0.00581000  1.0
  C  C154  1  0.16174000  0.13420000  0.50582000  1.0
  C  C155  1  0.66174000  0.36579000  0.99419000  1.0
  C  C156  1  0.62083000  0.35665000  0.73150000  1.0
  C  C157  1  0.12082000  0.14335000  0.76850000  1.0
  C  C158  1  0.37916000  0.64334000  0.26850000  1.0
  C  C159  1  0.87918000  0.85664000  0.23151000  1.0
  C  C160  1  0.73948000  0.40760000  0.72806000  1.0
  C  C161  1  0.23946000  0.09240000  0.77194000  1.0
  C  C162  1  0.26051000  0.59239000  0.27194000  1.0
  C  C163  1  0.76053000  0.90759000  0.22806000  1.0
  C  C164  1  0.82258000  0.23190000  0.74701000  1.0
  C  C165  1  0.32258000  0.26809000  0.75299000  1.0
  C  C166  1  0.17741000  0.76808000  0.25300000  1.0
  C  C167  1  0.67742000  0.73190000  0.24702000  1.0
  C  C168  1  0.70358000  0.18128000  0.74982000  1.0
  C  C169  1  0.20359000  0.31872000  0.75018000  1.0
  C  C170  1  0.29640000  0.81871000  0.25018000  1.0
  C  C171  1  0.79641000  0.68127000  0.24983000  1.0
  C  C172  1  0.38520000  0.46436000  0.50807000  1.0
  C  C173  1  0.88520000  0.03565000  0.99193000  1.0
  C  C174  1  0.61479000  0.53565000  0.49193000  1.0
  C  C175  1  0.11480000  0.96435000  0.00808000  1.0
  C  C176  1  0.57853000  0.42155000  0.47683000  1.0
  C  C177  1  0.07854000  0.07846000  0.02317000  1.0
  C  C178  1  0.42147000  0.57847000  0.52316000  1.0
  C  C179  1  0.92147000  0.92155000  0.97684000  1.0
  N  N180  1  0.65521000  0.95035000  0.61442000  1.0
  N  N181  1  0.15520000  0.54965000  0.88558000  1.0
  N  N182  1  0.34480000  0.04966000  0.38558000  1.0
  N  N183  1  0.84480000  0.45035000  0.11442000  1.0
  O  O184  1  0.62399000  0.25301000  0.69674000  1.0
  O  O185  1  0.12399000  0.24700000  0.80327000  1.0
  O  O186  1  0.37599000  0.74698000  0.30327000  1.0
  O  O187  1  0.87601000  0.75300000  0.19674000  1.0
  O  O188  1  0.82032000  0.33665000  0.78022000  1.0
  O  O189  1  0.32032000  0.16335000  0.71978000  1.0
  O  O190  1  0.17966000  0.66334000  0.21979000  1.0
  O  O191  1  0.67968000  0.83664000  0.28022000  1.0
  O  O192  1  0.47769000  0.38864000  0.53089000  1.0
  O  O193  1  0.97770000  0.11138000  0.96912000  1.0
  O  O194  1  0.52230000  0.61138000  0.46912000  1.0
  O  O195  1  0.02230000  0.88864000  0.03089000  1.0
