# generated using pymatgen
data_GdH13C20S(N2O3)2
_symmetry_space_group_name_H-M   'P 1'
_cell_length_a   6.85762000
_cell_length_b   9.96071000
_cell_length_c   15.03680000
_cell_angle_alpha   84.98780000
_cell_angle_beta   79.39850000
_cell_angle_gamma   79.69310000
_symmetry_Int_Tables_number   1
_chemical_formula_structural   GdH13C20S(N2O3)2
_chemical_formula_sum   'Gd2 H26 C40 S2 N8 O12'
_cell_volume   991.71598107
_cell_formula_units_Z   2
loop_
 _symmetry_equiv_pos_site_id
 _symmetry_equiv_pos_as_xyz
  1  'x, y, z'
loop_
 _atom_site_type_symbol
 _atom_site_label
 _atom_site_symmetry_multiplicity
 _atom_site_fract_x
 _atom_site_fract_y
 _atom_site_fract_z
 _atom_site_occupancy
  Gd  Gd0  1  0.43588000  0.04787000  0.11461000  1.0
  Gd  Gd1  1  0.56412000  0.95213000  0.88539000  1.0
  H  H2  1  0.18143000  0.60297000  0.71210000  1.0
  H  H3  1  0.81858000  0.39703000  0.28790000  1.0
  H  H4  1  0.26843000  0.36170000  0.77250000  1.0
  H  H5  1  0.73158000  0.63830000  0.22750000  1.0
  H  H6  1  0.27029000  0.50440000  0.03338000  1.0
  H  H7  1  0.72971000  0.49560000  0.96662000  1.0
  H  H8  1  0.19375000  0.74549000  0.97380000  1.0
  H  H9  1  0.80626000  0.25451000  0.02620000  1.0
  H  H10  1  0.42082000  0.75889000  0.25024000  1.0
  H  H11  1  0.57918000  0.24111000  0.74976000  1.0
  H  H12  1  0.37146000  0.66215000  0.41094000  1.0
  H  H13  1  0.62854000  0.33785000  0.58905000  1.0
  H  H14  1  0.27431000  0.82393000  0.53680000  1.0
  H  H15  1  0.72568000  0.17607000  0.46320000  1.0
  H  H16  1  0.09976000  0.24542000  0.70067000  1.0
  H  H17  1  0.90024000  0.75457000  0.29933000  1.0
  H  H18  1  0.15572000  0.51001000  0.41274000  1.0
  H  H19  1  0.84428000  0.48998000  0.58726000  1.0
  H  H20  1  0.22952000  0.57606000  0.24535000  1.0
  H  H21  1  0.77049000  0.42394000  0.75466000  1.0
  H  H22  1  0.33622000  0.38916000  0.13640000  1.0
  H  H23  1  0.66378000  0.61084000  0.86361000  1.0
  H  H24  1  0.17207000  0.00613000  0.64140000  1.0
  H  H25  1  0.82793000  0.99386000  0.35860000  1.0
  H  H26  1  0.18286000  0.99098000  0.00454000  1.0
  H  H27  1  0.81714000  0.00902000  0.99546000  1.0
  C  C28  1  0.18073000  0.68704000  0.83967000  1.0
  C  C29  1  0.81927000  0.31296000  0.16033000  1.0
  C  C30  1  0.20103000  0.58054000  0.78238000  1.0
  C  C31  1  0.79897000  0.41946000  0.21762000  1.0
  C  C32  1  0.24926000  0.44627000  0.81629000  1.0
  C  C33  1  0.75075000  0.55373000  0.18371000  1.0
  C  C34  1  0.27604000  0.41773000  0.90659000  1.0
  C  C35  1  0.72396000  0.58227000  0.09341000  1.0
  C  C36  1  0.25112000  0.52647000  0.96316000  1.0
  C  C37  1  0.74888000  0.47353000  0.03684000  1.0
  C  C38  1  0.20493000  0.66119000  0.93034000  1.0
  C  C39  1  0.79507000  0.33882000  0.06966000  1.0
  C  C40  1  0.33681000  0.27241000  0.94132000  1.0
  C  C41  1  0.66319000  0.72759000  0.05868000  1.0
  C  C42  1  0.37812000  0.82580000  0.30668000  1.0
  C  C43  1  0.62188000  0.17420000  0.69332000  1.0
  C  C44  1  0.35029000  0.77230000  0.39677000  1.0
  C  C45  1  0.64971000  0.22769000  0.60323000  1.0
  C  C46  1  0.29836000  0.86143000  0.46593000  1.0
  C  C47  1  0.70163000  0.13856000  0.53407000  1.0
  C  C48  1  0.27644000  0.00320000  0.44345000  1.0
  C  C49  1  0.72356000  0.99680000  0.55655000  1.0
  C  C50  1  0.22251000  0.10584000  0.50788000  1.0
  C  C51  1  0.77749000  0.89416000  0.49212000  1.0
  C  C52  1  0.13846000  0.22566000  0.62914000  1.0
  C  C53  1  0.86154000  0.77434000  0.37086000  1.0
  C  C54  1  0.20257000  0.24609000  0.48418000  1.0
  C  C55  1  0.79743000  0.75390000  0.51582000  1.0
  C  C56  1  0.23575000  0.29414000  0.39105000  1.0
  C  C57  1  0.76425000  0.70586000  0.60895000  1.0
  C  C58  1  0.21099000  0.43364000  0.36245000  1.0
  C  C59  1  0.78901000  0.56636000  0.63755000  1.0
  C  C60  1  0.24787000  0.46951000  0.27079000  1.0
  C  C61  1  0.75214000  0.53049000  0.72921000  1.0
  C  C62  1  0.30703000  0.36587000  0.20922000  1.0
  C  C63  1  0.69297000  0.63414000  0.79078000  1.0
  C  C64  1  0.29281000  0.19494000  0.32409000  1.0
  C  C65  1  0.70719000  0.80506000  0.67591000  1.0
  C  C66  1  0.31135000  0.04940000  0.35015000  1.0
  C  C67  1  0.68865000  0.95060000  0.64985000  1.0
  S  S68  1  0.12658000  0.85915000  0.79740000  1.0
  S  S69  1  0.87342000  0.14085000  0.20260000  1.0
  N  N70  1  0.36086000  0.95924000  0.28359000  1.0
  N  N71  1  0.63914000  0.04076000  0.71641000  1.0
  N  N72  1  0.32766000  0.23314000  0.23433000  1.0
  N  N73  1  0.67234000  0.76686000  0.76567000  1.0
  N  N74  1  0.15029000  0.32004000  0.56097000  1.0
  N  N75  1  0.84970000  0.67996000  0.43903000  1.0
  N  N76  1  0.18118000  0.09545000  0.60085000  1.0
  N  N77  1  0.81882000  0.90455000  0.39915000  1.0
  O  O78  1  0.27895000  0.93142000  0.81939000  1.0
  O  O79  1  0.72105000  0.06859000  0.18061000  1.0
  O  O80  1  0.13672000  0.85441000  0.69934000  1.0
  O  O81  1  0.86328000  0.14559000  0.30066000  1.0
  O  O82  1  0.92715000  0.91732000  0.84565000  1.0
  O  O83  1  0.07285000  0.08268000  0.15435000  1.0
  O  O84  1  0.39077000  0.18237000  0.88248000  1.0
  O  O85  1  0.60923000  0.81763000  0.11752000  1.0
  O  O86  1  0.33135000  0.25004000  0.02630000  1.0
  O  O87  1  0.66865000  0.74996000  0.97370000  1.0
  O  O88  1  0.31676000  0.94357000  0.01068000  1.0
  O  O89  1  0.68324000  0.05643000  0.98932000  1.0
