# generated using pymatgen
data_ZnH14C14Br2(N2O)2
_symmetry_space_group_name_H-M   'P 1'
_cell_length_a   7.50480000
_cell_length_b   12.21010000
_cell_length_c   22.76750000
_cell_angle_alpha   90.00010000
_cell_angle_beta   90.00000000
_cell_angle_gamma   90.00000000
_symmetry_Int_Tables_number   1
_chemical_formula_structural   ZnH14C14Br2(N2O)2
_chemical_formula_sum   'Zn4 H56 C56 Br8 N16 O8'
_cell_volume   2086.28525669
_cell_formula_units_Z   4
loop_
 _symmetry_equiv_pos_site_id
 _symmetry_equiv_pos_as_xyz
  1  'x, y, z'
loop_
 _atom_site_type_symbol
 _atom_site_label
 _atom_site_symmetry_multiplicity
 _atom_site_fract_x
 _atom_site_fract_y
 _atom_site_fract_z
 _atom_site_occupancy
  Zn  Zn0  1  0.25000000  0.50000000  0.25018000  1.0
  Zn  Zn1  1  0.25000000  0.00000000  0.24983000  1.0
  Zn  Zn2  1  0.75000000  0.50000000  0.74982000  1.0
  Zn  Zn3  1  0.75000000  0.00000000  0.75017000  1.0
  H  H4  1  0.49492000  0.99195000  0.09290000  1.0
  H  H5  1  0.00508000  0.00805000  0.09290000  1.0
  H  H6  1  0.00508000  0.49195000  0.40710000  1.0
  H  H7  1  0.49492000  0.50805000  0.40710000  1.0
  H  H8  1  0.50508000  0.00805000  0.90710000  1.0
  H  H9  1  0.99492000  0.99195000  0.90710000  1.0
  H  H10  1  0.99492000  0.50805000  0.59290000  1.0
  H  H11  1  0.50508000  0.49195000  0.59290000  1.0
  H  H12  1  0.14669000  0.66294000  0.15746000  1.0
  H  H13  1  0.35331000  0.33706000  0.15746000  1.0
  H  H14  1  0.35332000  0.16294000  0.34254000  1.0
  H  H15  1  0.14669000  0.83706000  0.34254000  1.0
  H  H16  1  0.85331000  0.33706000  0.84254000  1.0
  H  H17  1  0.64669000  0.66294000  0.84254000  1.0
  H  H18  1  0.64668000  0.83706000  0.65746000  1.0
  H  H19  1  0.85331000  0.16294000  0.65746000  1.0
  H  H20  1  0.29491000  0.80297000  0.09490000  1.0
  H  H21  1  0.20509000  0.19703000  0.09490000  1.0
  H  H22  1  0.20509000  0.30297000  0.40510000  1.0
  H  H23  1  0.29491000  0.69703000  0.40510000  1.0
  H  H24  1  0.70509000  0.19703000  0.90510000  1.0
  H  H25  1  0.79491000  0.80297000  0.90510000  1.0
  H  H26  1  0.79491000  0.69702000  0.59490000  1.0
  H  H27  1  0.70509000  0.30297000  0.59490000  1.0
  H  H28  1  0.79374000  0.70946000  0.17638000  1.0
  H  H29  1  0.70626000  0.29054000  0.17638000  1.0
  H  H30  1  0.70626000  0.20946000  0.32362000  1.0
  H  H31  1  0.79374000  0.79054000  0.32362000  1.0
  H  H32  1  0.20626000  0.29054000  0.82362000  1.0
  H  H33  1  0.29374000  0.70946000  0.82362000  1.0
  H  H34  1  0.29374000  0.79054000  0.67638000  1.0
  H  H35  1  0.20626000  0.20946000  0.67638000  1.0
  H  H36  1  0.62515000  0.57079000  0.23437000  1.0
  H  H37  1  0.87485000  0.42921000  0.23437000  1.0
  H  H38  1  0.87485000  0.07080000  0.26563000  1.0
  H  H39  1  0.62515000  0.92920000  0.26563000  1.0
  H  H40  1  0.37485000  0.42920000  0.76563000  1.0
  H  H41  1  0.12515000  0.57080000  0.76563000  1.0
  H  H42  1  0.12515000  0.92921000  0.73437000  1.0
  H  H43  1  0.37485000  0.07080000  0.73437000  1.0
  H  H44  1  0.76280000  0.88664000  0.12326000  1.0
  H  H45  1  0.73720000  0.11336000  0.12326000  1.0
  H  H46  1  0.73720000  0.38664000  0.37674000  1.0
  H  H47  1  0.76280000  0.61336000  0.37674000  1.0
  H  H48  1  0.23720000  0.11336000  0.87674000  1.0
  H  H49  1  0.26280000  0.88664000  0.87674000  1.0
  H  H50  1  0.26280000  0.61336000  0.62326000  1.0
  H  H51  1  0.23720000  0.38664000  0.62326000  1.0
  H  H52  1  0.73521000  0.80757000  0.05893000  1.0
  H  H53  1  0.76479000  0.19243000  0.05893000  1.0
  H  H54  1  0.76479000  0.30757000  0.44107000  1.0
  H  H55  1  0.73521000  0.69243000  0.44107000  1.0
  H  H56  1  0.26479000  0.19243000  0.94107000  1.0
  H  H57  1  0.23521000  0.80757000  0.94107000  1.0
  H  H58  1  0.23521000  0.69243000  0.55893000  1.0
  H  H59  1  0.26479000  0.30757000  0.55893000  1.0
  C  C60  1  0.29077000  0.67412000  0.15919000  1.0
  C  C61  1  0.20923000  0.32588000  0.15919000  1.0
  C  C62  1  0.20923000  0.17412000  0.34081000  1.0
  C  C63  1  0.29077000  0.82588000  0.34081000  1.0
  C  C64  1  0.70923000  0.32588000  0.84081000  1.0
  C  C65  1  0.79077000  0.67412000  0.84081000  1.0
  C  C66  1  0.79077000  0.82588000  0.65919000  1.0
  C  C67  1  0.70923000  0.17412000  0.65919000  1.0
  C  C68  1  0.37435000  0.75261000  0.12455000  1.0
  C  C69  1  0.12565000  0.24739000  0.12455000  1.0
  C  C70  1  0.12565000  0.25261000  0.37545000  1.0
  C  C71  1  0.37435000  0.74739000  0.37544000  1.0
  C  C72  1  0.62566000  0.24739000  0.87545000  1.0
  C  C73  1  0.87434000  0.75261000  0.87545000  1.0
  C  C74  1  0.87434000  0.74739000  0.62455000  1.0
  C  C75  1  0.62565000  0.25260000  0.62455000  1.0
  C  C76  1  0.55872000  0.76631000  0.12952000  1.0
  C  C77  1  0.94128000  0.23369000  0.12952000  1.0
  C  C78  1  0.94128000  0.26631000  0.37048000  1.0
  C  C79  1  0.55872000  0.73369000  0.37048000  1.0
  C  C80  1  0.44128000  0.23369000  0.87048000  1.0
  C  C81  1  0.05872000  0.76631000  0.87048000  1.0
  C  C82  1  0.05872000  0.73369000  0.62952000  1.0
  C  C83  1  0.44128000  0.26631000  0.62952000  1.0
  C  C84  1  0.65078000  0.69978000  0.16949000  1.0
  C  C85  1  0.84922000  0.30022000  0.16949000  1.0
  C  C86  1  0.84922000  0.19978000  0.33051000  1.0
  C  C87  1  0.65078000  0.80022000  0.33051000  1.0
  C  C88  1  0.34922000  0.30022000  0.83051000  1.0
  C  C89  1  0.15078000  0.69978000  0.83051000  1.0
  C  C90  1  0.15078000  0.80022000  0.66949000  1.0
  C  C91  1  0.34922000  0.19978000  0.66949000  1.0
  C  C92  1  0.55838000  0.62300000  0.20225000  1.0
  C  C93  1  0.94163000  0.37700000  0.20225000  1.0
  C  C94  1  0.94163000  0.12300000  0.29775000  1.0
  C  C95  1  0.55838000  0.87700000  0.29774000  1.0
  C  C96  1  0.44163000  0.37700000  0.79775000  1.0
  C  C97  1  0.05837000  0.62300000  0.79775000  1.0
  C  C98  1  0.05837000  0.87700000  0.70225000  1.0
  C  C99  1  0.44163000  0.12300000  0.70225000  1.0
  C  C100  1  0.66184000  0.84921000  0.09441000  1.0
  C  C101  1  0.83816000  0.15079000  0.09441000  1.0
  C  C102  1  0.83816000  0.34921000  0.40559000  1.0
  C  C103  1  0.66184000  0.65079000  0.40559000  1.0
  C  C104  1  0.33816000  0.15079000  0.90559000  1.0
  C  C105  1  0.16184000  0.84921000  0.90559000  1.0
  C  C106  1  0.16184000  0.65079000  0.59441000  1.0
  C  C107  1  0.33815000  0.34921000  0.59441000  1.0
  C  C108  1  0.55000000  0.94762000  0.00890000  1.0
  C  C109  1  0.95000000  0.05238000  0.00890000  1.0
  C  C110  1  0.95000000  0.44762000  0.49110000  1.0
  C  C111  1  0.55000000  0.55238000  0.49110000  1.0
  C  C112  1  0.45000000  0.05238000  0.99110000  1.0
  C  C113  1  0.05000000  0.94762000  0.99110000  1.0
  C  C114  1  0.05000000  0.55238000  0.50890000  1.0
  C  C115  1  0.45000000  0.44762000  0.50890000  1.0
  Br  Br116  1  0.01715000  0.59159000  0.30178000  1.0
  Br  Br117  1  0.48285000  0.40841000  0.30178000  1.0
  Br  Br118  1  0.48285000  0.09159000  0.19821000  1.0
  Br  Br119  1  0.01715000  0.90841000  0.19822000  1.0
  Br  Br120  1  0.98285000  0.40841000  0.69822000  1.0
  Br  Br121  1  0.51715000  0.59159000  0.69822000  1.0
  Br  Br122  1  0.51715000  0.90841000  0.80179000  1.0
  Br  Br123  1  0.98285000  0.09159000  0.80178000  1.0
  N  N124  1  0.38027000  0.60988000  0.19725000  1.0
  N  N125  1  0.11973000  0.39012000  0.19725000  1.0
  N  N126  1  0.11973000  0.10988000  0.30275000  1.0
  N  N127  1  0.38027000  0.89012000  0.30275000  1.0
  N  N128  1  0.61973000  0.39011000  0.80275000  1.0
  N  N129  1  0.88027000  0.60988000  0.80275000  1.0
  N  N130  1  0.88027000  0.89012000  0.69725000  1.0
  N  N131  1  0.61973000  0.10988000  0.69725000  1.0
  N  N132  1  0.55623000  0.93393000  0.06743000  1.0
  N  N133  1  0.94377000  0.06607000  0.06743000  1.0
  N  N134  1  0.94377000  0.43393000  0.43257000  1.0
  N  N135  1  0.55623000  0.56606000  0.43257000  1.0
  N  N136  1  0.44377000  0.06606000  0.93257000  1.0
  N  N137  1  0.05623000  0.93394000  0.93257000  1.0
  N  N138  1  0.05623000  0.56606000  0.56743000  1.0
  N  N139  1  0.44377000  0.43393000  0.56743000  1.0
  O  O140  1  0.61750000  0.88554000  0.97184000  1.0
  O  O141  1  0.88250000  0.11446000  0.97184000  1.0
  O  O142  1  0.88250000  0.38554000  0.52816000  1.0
  O  O143  1  0.61750000  0.61446000  0.52816000  1.0
  O  O144  1  0.38250000  0.11446000  0.02816000  1.0
  O  O145  1  0.11750000  0.88554000  0.02816000  1.0
  O  O146  1  0.11750000  0.61446000  0.47184000  1.0
  O  O147  1  0.38250000  0.38554000  0.47184000  1.0
