# generated using pymatgen
data_HgH36C30N2(ClO)2
_symmetry_space_group_name_H-M   'P 1'
_cell_length_a   4.96366000
_cell_length_b   14.78200000
_cell_length_c   22.94270000
_cell_angle_alpha   99.22300000
_cell_angle_beta   94.43110000
_cell_angle_gamma   96.71710000
_symmetry_Int_Tables_number   1
_chemical_formula_structural   HgH36C30N2(ClO)2
_chemical_formula_sum   'Hg2 H72 C60 N4 Cl4 O4'
_cell_volume   1642.26923025
_cell_formula_units_Z   2
loop_
 _symmetry_equiv_pos_site_id
 _symmetry_equiv_pos_as_xyz
  1  'x, y, z'
loop_
 _atom_site_type_symbol
 _atom_site_label
 _atom_site_symmetry_multiplicity
 _atom_site_fract_x
 _atom_site_fract_y
 _atom_site_fract_z
 _atom_site_occupancy
  Hg  Hg0  1  0.66842000  0.87644000  0.34456000  1.0
  Hg  Hg1  1  0.70842000  0.44732000  0.87564000  1.0
  H  H2  1  0.33570000  0.82904000  0.21280000  1.0
  H  H3  1  0.97688000  0.88157000  0.14786000  1.0
  H  H4  1  0.95318000  0.11131000  0.28978000  1.0
  H  H5  1  0.31480000  0.05034000  0.34702000  1.0
  H  H6  1  0.67021000  0.98841000  0.13167000  1.0
  H  H7  1  0.66825000  0.15452000  0.23178000  1.0
  H  H8  1  0.01933000  0.32097000  0.15466000  1.0
  H  H9  1  0.35790000  0.02507000  0.08111000  1.0
  H  H10  1  0.06292000  0.32104000  0.25656000  1.0
  H  H11  1  0.29903000  0.40554000  0.23276000  1.0
  H  H12  1  0.63962000  0.39258000  0.31559000  1.0
  H  H13  1  0.43766000  0.23072000  0.32599000  1.0
  H  H14  1  0.17381000  0.27848000  0.36226000  1.0
  H  H15  1  0.51725000  0.36678000  0.44493000  1.0
  H  H16  1  0.78592000  0.32611000  0.40570000  1.0
  H  H17  1  0.55287000  0.24746000  0.43363000  1.0
  H  H18  1  0.08982000  0.44376000  0.35440000  1.0
  H  H19  1  0.33540000  0.51640000  0.32448000  1.0
  H  H20  1  0.41225000  0.48483000  0.39456000  1.0
  H  H21  1  0.08061000  0.93904000  0.00363000  1.0
  H  H22  1  0.31380000  0.02484000  0.98011000  1.0
  H  H23  1  0.74237000  0.94629000  0.92039000  1.0
  H  H24  1  0.09513000  0.83652000  0.91105000  1.0
  H  H25  1  0.29888000  0.91590000  0.87748000  1.0
  H  H26  1  0.71773000  0.82486000  0.82868000  1.0
  H  H27  1  0.02063000  0.78986000  0.80173000  1.0
  H  H28  1  0.92938000  0.89980000  0.79299000  1.0
  H  H29  1  0.18455000  0.08226000  0.88200000  1.0
  H  H30  1  0.87376000  0.11077000  0.90881000  1.0
  H  H31  1  0.86965000  0.03665000  0.83996000  1.0
  H  H32  1  0.70916000  0.18826000  0.00418000  1.0
  H  H33  1  0.71211000  0.36132000  0.09929000  1.0
  H  H34  1  0.43055000  0.22470000  0.94452000  1.0
  H  H35  1  0.06853000  0.27811000  0.88321000  1.0
  H  H36  1  0.04288000  0.51103000  0.00829000  1.0
  H  H37  1  0.40086000  0.46631000  0.07723000  1.0
  H  H38  1  0.06171000  0.37981000  0.76606000  1.0
  H  H39  1  0.41824000  0.43416000  0.70510000  1.0
  H  H40  1  0.39797000  0.71114000  0.79889000  1.0
  H  H41  1  0.04564000  0.64328000  0.85791000  1.0
  H  H42  1  0.69484000  0.69334000  0.72284000  1.0
  H  H43  1  0.70560000  0.49524000  0.65665000  1.0
  H  H44  1  0.34852000  0.53619000  0.52106000  1.0
  H  H45  1  0.00063000  0.74772000  0.67984000  1.0
  H  H46  1  0.31863000  0.40276000  0.56436000  1.0
  H  H47  1  0.08376000  0.39274000  0.49966000  1.0
  H  H48  1  0.75214000  0.28978000  0.54368000  1.0
  H  H49  1  0.21934000  0.28255000  0.63730000  1.0
  H  H50  1  0.96004000  0.35326000  0.64992000  1.0
  H  H51  1  0.60456000  0.21426000  0.62868000  1.0
  H  H52  1  0.84487000  0.20783000  0.68855000  1.0
  H  H53  1  0.86077000  0.14080000  0.61762000  1.0
  H  H54  1  0.06374000  0.22397000  0.47198000  1.0
  H  H55  1  0.99227000  0.14965000  0.52319000  1.0
  H  H56  1  0.31051000  0.22128000  0.53192000  1.0
  H  H57  1  0.30622000  0.88014000  0.70638000  1.0
  H  H58  1  0.03620000  0.88046000  0.65002000  1.0
  H  H59  1  0.59622000  0.99485000  0.65836000  1.0
  H  H60  1  0.06245000  0.04674000  0.70416000  1.0
  H  H61  1  0.32589000  0.12925000  0.69137000  1.0
  H  H62  1  0.38736000  0.99412000  0.77955000  1.0
  H  H63  1  0.37657000  0.11506000  0.79691000  1.0
  H  H64  1  0.65411000  0.07392000  0.76236000  1.0
  H  H65  1  0.05813000  0.00107000  0.58370000  1.0
  H  H66  1  0.35294000  0.95800000  0.55678000  1.0
  H  H67  1  0.36404000  0.07719000  0.58555000  1.0
  H  H68  1  0.64389000  0.79024000  0.54714000  1.0
  H  H69  1  0.65954000  0.59671000  0.47474000  1.0
  H  H70  1  0.97432000  0.59098000  0.39970000  1.0
  H  H71  1  0.33443000  0.67127000  0.34785000  1.0
  H  H72  1  0.28697000  0.92392000  0.45089000  1.0
  H  H73  1  0.92257000  0.85760000  0.50520000  1.0
  C  C74  1  0.24719000  0.89218000  0.22717000  1.0
  C  C75  1  0.04797000  0.92183000  0.19158000  1.0
  C  C76  1  0.93524000  0.00266000  0.21227000  1.0
  C  C77  1  0.03439000  0.04963000  0.26970000  1.0
  C  C78  1  0.23538000  0.01592000  0.30225000  1.0
  C  C79  1  0.72723000  0.03295000  0.17473000  1.0
  C  C80  1  0.60716000  0.11022000  0.18893000  1.0
  C  C81  1  0.39861000  0.14128000  0.15228000  1.0
  C  C82  1  0.29741000  0.22556000  0.17266000  1.0
  C  C83  1  0.09338000  0.25596000  0.13866000  1.0
  C  C84  1  0.98011000  0.20491000  0.08332000  1.0
  C  C85  1  0.07964000  0.12010000  0.06328000  1.0
  C  C86  1  0.28507000  0.09026000  0.09706000  1.0
  C  C87  1  0.28189000  0.34589000  0.25636000  1.0
  C  C88  1  0.42034000  0.37388000  0.31946000  1.0
  C  C89  1  0.38984000  0.29316000  0.35416000  1.0
  C  C90  1  0.57026000  0.30954000  0.41285000  1.0
  C  C91  1  0.30885000  0.45952000  0.34989000  1.0
  C  C92  1  0.09560000  0.99887000  0.98016000  1.0
  C  C93  1  0.95825000  0.97145000  0.91701000  1.0
  C  C94  1  0.08607000  0.89107000  0.88358000  1.0
  C  C95  1  0.93075000  0.84937000  0.82334000  1.0
  C  C96  1  0.97124000  0.05486000  0.88515000  1.0
  C  C97  1  0.77219000  0.23507000  0.04603000  1.0
  C  C98  1  0.65417000  0.31337000  0.05752000  1.0
  C  C99  1  0.44656000  0.34004000  0.01787000  1.0
  C  C100  1  0.34869000  0.28775000  0.96175000  1.0
  C  C101  1  0.14733000  0.31727000  0.92686000  1.0
  C  C102  1  0.13286000  0.44733000  0.99683000  1.0
  C  C103  1  0.33212000  0.42198000  0.03468000  1.0
  C  C104  1  0.14133000  0.45298000  0.77144000  1.0
  C  C105  1  0.33954000  0.48425000  0.73734000  1.0
  C  C106  1  0.43771000  0.57920000  0.74559000  1.0
  C  C107  1  0.32729000  0.63719000  0.78983000  1.0
  C  C108  1  0.13184000  0.60035000  0.82265000  1.0
  C  C109  1  0.64164000  0.61839000  0.71153000  1.0
  C  C110  1  0.76269000  0.56988000  0.66800000  1.0
  C  C111  1  0.96767000  0.60763000  0.63390000  1.0
  C  C112  1  0.06978000  0.54824000  0.58819000  1.0
  C  C113  1  0.27199000  0.58265000  0.55583000  1.0
  C  C114  1  0.37938000  0.67678000  0.56659000  1.0
  C  C115  1  0.27513000  0.73636000  0.61197000  1.0
  C  C116  1  0.07542000  0.70169000  0.64468000  1.0
  C  C117  1  0.10041000  0.38914000  0.54748000  1.0
  C  C118  1  0.97202000  0.29502000  0.55789000  1.0
  C  C119  1  0.00399000  0.28821000  0.62416000  1.0
  C  C120  1  0.81970000  0.20812000  0.64060000  1.0
  C  C121  1  0.09089000  0.21841000  0.51918000  1.0
  C  C122  1  0.26014000  0.89192000  0.66057000  1.0
  C  C123  1  0.37141000  0.98940000  0.65321000  1.0
  C  C124  1  0.28535000  0.05981000  0.70281000  1.0
  C  C125  1  0.43237000  0.06016000  0.76375000  1.0
  C  C126  1  0.28195000  0.00739000  0.59130000  1.0
  C  C127  1  0.58645000  0.71593000  0.53370000  1.0
  C  C128  1  0.71078000  0.67133000  0.48919000  1.0
  C  C129  1  0.91795000  0.71646000  0.45835000  1.0
  C  C130  1  0.03864000  0.66503000  0.41274000  1.0
  C  C131  1  0.23889000  0.70869000  0.38391000  1.0
  C  C132  1  0.21269000  0.85010000  0.44137000  1.0
  C  C133  1  0.00960000  0.81204000  0.47172000  1.0
  N  N134  1  0.34086000  0.93866000  0.28144000  1.0
  N  N135  1  0.04018000  0.39568000  0.94394000  1.0
  N  N136  1  0.03845000  0.50981000  0.81339000  1.0
  N  N137  1  0.32698000  0.79943000  0.39828000  1.0
  Cl  Cl138  1  0.77617000  0.01737000  0.41706000  1.0
  Cl  Cl139  1  0.74306000  0.74262000  0.27630000  1.0
  Cl  Cl140  1  0.59106000  0.29957000  0.81025000  1.0
  Cl  Cl141  1  0.63529000  0.58884000  0.93608000  1.0
  O  O142  1  0.41462000  0.27325000  0.22653000  1.0
  O  O143  1  0.96005000  0.07089000  0.01010000  1.0
  O  O144  1  0.95615000  0.45769000  0.57852000  1.0
  O  O145  1  0.38232000  0.82751000  0.62057000  1.0
