# generated using pymatgen
data_AgH3C5SO3
_symmetry_space_group_name_H-M   'P 1'
_cell_length_a   5.14861000
_cell_length_b   7.51584000
_cell_length_c   7.65557000
_cell_angle_alpha   96.19000000
_cell_angle_beta   106.01900000
_cell_angle_gamma   93.07390000
_symmetry_Int_Tables_number   1
_chemical_formula_structural   AgH3C5SO3
_chemical_formula_sum   'Ag2 H6 C10 S2 O6'
_cell_volume   281.99819250
_cell_formula_units_Z   2
loop_
 _symmetry_equiv_pos_site_id
 _symmetry_equiv_pos_as_xyz
  1  'x, y, z'
loop_
 _atom_site_type_symbol
 _atom_site_label
 _atom_site_symmetry_multiplicity
 _atom_site_fract_x
 _atom_site_fract_y
 _atom_site_fract_z
 _atom_site_occupancy
  Ag  Ag0  1  0.28283000  0.24020000  0.59671000  1.0
  Ag  Ag1  1  0.71716000  0.75980000  0.40329000  1.0
  H  H2  1  0.17390000  0.07121000  0.02751000  1.0
  H  H3  1  0.82610000  0.92879000  0.97249000  1.0
  H  H4  1  0.96609000  0.48414000  0.28956000  1.0
  H  H5  1  0.03391000  0.51586000  0.71044000  1.0
  H  H6  1  0.88402000  0.21372000  0.77078000  1.0
  H  H7  1  0.11598000  0.78628000  0.22922000  1.0
  C  C8  1  0.24120000  0.20075000  0.99750000  1.0
  C  C9  1  0.75881000  0.79925000  0.00250000  1.0
  C  C10  1  0.47824000  0.29020000  0.11006000  1.0
  C  C11  1  0.52176000  0.70980000  0.88994000  1.0
  C  C12  1  0.57885000  0.46050000  0.07668000  1.0
  C  C13  1  0.42115000  0.53949000  0.92332000  1.0
  C  C14  1  0.82957000  0.55313000  0.18864000  1.0
  C  C15  1  0.17043000  0.44687000  0.81136000  1.0
  C  C16  1  0.08331000  0.27870000  0.84746000  1.0
  C  C17  1  0.91669000  0.72130000  0.15254000  1.0
  S  S18  1  0.64353000  0.19178000  0.30944000  1.0
  S  S19  1  0.35648000  0.80822000  0.69056000  1.0
  O  O20  1  0.62729000  0.32042000  0.46644000  1.0
  O  O21  1  0.37271000  0.67958000  0.53356000  1.0
  O  O22  1  0.92662000  0.17446000  0.30743000  1.0
  O  O23  1  0.07338000  0.82554000  0.69256000  1.0
  O  O24  1  0.48766000  0.01858000  0.29508000  1.0
  O  O25  1  0.51234000  0.98142000  0.70492000  1.0
