# generated using pymatgen
data_P2H20Pb(C6O)4
_symmetry_space_group_name_H-M   'P 1'
_cell_length_a   8.60916000
_cell_length_b   10.89120000
_cell_length_c   12.16700000
_cell_angle_alpha   91.05440000
_cell_angle_beta   106.12300000
_cell_angle_gamma   96.34660000
_symmetry_Int_Tables_number   1
_chemical_formula_structural   P2H20Pb(C6O)4
_chemical_formula_sum   'P4 H40 Pb2 C48 O8'
_cell_volume   1087.79837958
_cell_formula_units_Z   2
loop_
 _symmetry_equiv_pos_site_id
 _symmetry_equiv_pos_as_xyz
  1  'x, y, z'
loop_
 _atom_site_type_symbol
 _atom_site_label
 _atom_site_symmetry_multiplicity
 _atom_site_fract_x
 _atom_site_fract_y
 _atom_site_fract_z
 _atom_site_occupancy
  P  P0  1  0.10253000  0.96062000  0.83865000  1.0
  P  P1  1  0.89747000  0.03938000  0.16135000  1.0
  P  P2  1  0.06122000  0.55947000  0.17750000  1.0
  P  P3  1  0.93878000  0.44053000  0.82250000  1.0
  H  H4  1  0.69747000  0.87691000  0.37963000  1.0
  H  H5  1  0.30253000  0.12309000  0.62037000  1.0
  H  H6  1  0.75781000  0.08819000  0.47269000  1.0
  H  H7  1  0.24221000  0.91181000  0.52732000  1.0
  H  H8  1  0.93192000  0.12360000  0.67332000  1.0
  H  H9  1  0.06809000  0.87640000  0.32669000  1.0
  H  H10  1  0.31680000  0.76109000  0.28290000  1.0
  H  H11  1  0.68320000  0.23891000  0.71709000  1.0
  H  H12  1  0.49110000  0.80495000  0.48370000  1.0
  H  H13  1  0.50890000  0.19504000  0.51629000  1.0
  H  H14  1  0.44600000  0.66980000  0.63818000  1.0
  H  H15  1  0.55400000  0.33020000  0.36182000  1.0
  H  H16  1  0.21994000  0.49932000  0.59382000  1.0
  H  H17  1  0.78006000  0.50067000  0.40618000  1.0
  H  H18  1  0.04570000  0.45514000  0.39349000  1.0
  H  H19  1  0.95430000  0.54486000  0.60651000  1.0
  H  H20  1  0.29687000  0.81555000  0.73055000  1.0
  H  H21  1  0.70314000  0.18444000  0.26946000  1.0
  H  H22  1  0.85102000  0.71792000  0.24986000  1.0
  H  H23  1  0.14898000  0.28207000  0.75015000  1.0
  H  H24  1  0.55928000  0.68525000  0.24613000  1.0
  H  H25  1  0.44071000  0.31474000  0.75387000  1.0
  H  H26  1  0.38985000  0.48726000  0.16633000  1.0
  H  H27  1  0.61015000  0.51274000  0.83366000  1.0
  H  H28  1  0.51483000  0.31944000  0.09099000  1.0
  H  H29  1  0.48517000  0.68057000  0.90900000  1.0
  H  H30  1  0.80680000  0.34900000  0.09848000  1.0
  H  H31  1  0.19320000  0.65101000  0.90151000  1.0
  H  H32  1  0.58503000  0.85238000  0.72517000  1.0
  H  H33  1  0.41498000  0.14762000  0.27483000  1.0
  H  H34  1  0.76441000  0.04032000  0.82674000  1.0
  H  H35  1  0.23559000  0.95968000  0.17326000  1.0
  H  H36  1  0.65334000  0.19315000  0.92653000  1.0
  H  H37  1  0.34666000  0.80686000  0.07347000  1.0
  H  H38  1  0.36262000  0.15974000  0.92789000  1.0
  H  H39  1  0.63738000  0.84027000  0.07210000  1.0
  H  H40  1  0.97988000  0.73444000  0.69132000  1.0
  H  H41  1  0.02011000  0.26556000  0.30867000  1.0
  H  H42  1  0.80518000  0.69906000  0.48965000  1.0
  H  H43  1  0.19480000  0.30095000  0.51035000  1.0
  Pb  Pb44  1  0.88675000  0.74902000  0.97052000  1.0
  Pb  Pb45  1  0.11325000  0.25098000  0.02948000  1.0
  C  C46  1  0.31089000  0.98532000  0.83052000  1.0
  C  C47  1  0.68911000  0.01468000  0.16949000  1.0
  C  C48  1  0.77318000  0.89176000  0.46808000  1.0
  C  C49  1  0.22682000  0.10825000  0.53192000  1.0
  C  C50  1  0.80727000  0.01076000  0.51997000  1.0
  C  C51  1  0.19273000  0.98925000  0.48003000  1.0
  C  C52  1  0.90615000  0.03090000  0.63227000  1.0
  C  C53  1  0.09386000  0.96910000  0.36773000  1.0
  C  C54  1  0.17350000  0.60327000  0.32473000  1.0
  C  C55  1  0.82649000  0.39672000  0.67527000  1.0
  C  C56  1  0.29751000  0.70292000  0.35105000  1.0
  C  C57  1  0.70248000  0.29708000  0.64894000  1.0
  C  C58  1  0.39457000  0.72755000  0.46377000  1.0
  C  C59  1  0.60542000  0.27244000  0.53623000  1.0
  C  C60  1  0.36826000  0.65310000  0.55055000  1.0
  C  C61  1  0.63174000  0.34689000  0.44945000  1.0
  C  C62  1  0.24146000  0.55600000  0.52540000  1.0
  C  C63  1  0.75853000  0.44400000  0.47460000  1.0
  C  C64  1  0.14452000  0.53113000  0.41297000  1.0
  C  C65  1  0.85548000  0.46887000  0.58703000  1.0
  C  C66  1  0.84795000  0.53536000  0.17385000  1.0
  C  C67  1  0.15205000  0.46464000  0.82615000  1.0
  C  C68  1  0.37438000  0.89854000  0.77356000  1.0
  C  C69  1  0.62563000  0.10145000  0.22645000  1.0
  C  C70  1  0.77727000  0.63034000  0.21508000  1.0
  C  C71  1  0.22272000  0.36965000  0.78492000  1.0
  C  C72  1  0.61342000  0.61231000  0.21285000  1.0
  C  C73  1  0.38658000  0.38768000  0.78715000  1.0
  C  C74  1  0.51808000  0.50062000  0.16815000  1.0
  C  C75  1  0.48192000  0.49937000  0.83185000  1.0
  C  C76  1  0.58790000  0.40695000  0.12618000  1.0
  C  C77  1  0.41210000  0.59305000  0.87381000  1.0
  C  C78  1  0.75235000  0.42327000  0.12951000  1.0
  C  C79  1  0.24765000  0.57674000  0.87048000  1.0
  C  C80  1  0.53660000  0.91868000  0.77138000  1.0
  C  C81  1  0.46341000  0.08132000  0.22862000  1.0
  C  C82  1  0.63719000  0.02442000  0.82698000  1.0
  C  C83  1  0.36282000  0.97559000  0.17302000  1.0
  C  C84  1  0.57434000  0.11109000  0.88343000  1.0
  C  C85  1  0.42567000  0.88891000  0.11657000  1.0
  C  C86  1  0.41197000  0.09175000  0.88445000  1.0
  C  C87  1  0.58803000  0.90826000  0.11555000  1.0
  C  C88  1  0.97111000  0.93192000  0.69391000  1.0
  C  C89  1  0.02889000  0.06808000  0.30609000  1.0
  C  C90  1  0.93371000  0.81197000  0.64209000  1.0
  C  C91  1  0.06627000  0.18803000  0.35791000  1.0
  C  C92  1  0.83529000  0.79227000  0.52941000  1.0
  C  C93  1  0.16470000  0.20774000  0.47059000  1.0
  O  O94  1  0.08908000  0.84052000  0.90210000  1.0
  O  O95  1  0.91092000  0.15948000  0.09790000  1.0
  O  O96  1  0.06068000  0.07727000  0.88814000  1.0
  O  O97  1  0.93933000  0.92273000  0.11186000  1.0
  O  O98  1  0.08783000  0.67104000  0.10595000  1.0
  O  O99  1  0.91217000  0.32896000  0.89406000  1.0
  O  O100  1  0.88565000  0.56136000  0.85437000  1.0
  O  O101  1  0.11435000  0.43864000  0.14563000  1.0
