# generated using pymatgen
data_ZnH22C29NO4
_symmetry_space_group_name_H-M   'P 1'
_cell_length_a   10.75710000
_cell_length_b   14.12730000
_cell_length_c   15.08660000
_cell_angle_alpha   91.70950000
_cell_angle_beta   91.82560000
_cell_angle_gamma   90.78530000
_symmetry_Int_Tables_number   1
_chemical_formula_structural   ZnH22C29NO4
_chemical_formula_sum   'Zn2 H44 C58 N2 O8'
_cell_volume   2290.26209030
_cell_formula_units_Z   2
loop_
 _symmetry_equiv_pos_site_id
 _symmetry_equiv_pos_as_xyz
  1  'x, y, z'
loop_
 _atom_site_type_symbol
 _atom_site_label
 _atom_site_symmetry_multiplicity
 _atom_site_fract_x
 _atom_site_fract_y
 _atom_site_fract_z
 _atom_site_occupancy
  Zn  Zn0  1  0.48799000  0.39540000  0.49221000  1.0
  Zn  Zn1  1  0.48817000  0.59840000  0.50047000  1.0
  H  H2  1  0.07817000  0.42956000  0.37564000  1.0
  H  H3  1  0.11472000  0.59033000  0.62192000  1.0
  H  H4  1  0.42992000  0.63213000  0.78645000  1.0
  H  H5  1  0.65255000  0.38408000  0.76297000  1.0
  H  H6  1  0.33791000  0.93518000  0.41762000  1.0
  H  H7  1  0.43958000  0.04579000  0.36790000  1.0
  H  H8  1  0.62801000  0.74571000  0.59100000  1.0
  H  H9  1  0.55666000  0.25919000  0.61811000  1.0
  H  H10  1  0.65100000  0.92182000  0.60350000  1.0
  H  H11  1  0.56862000  0.08500000  0.64071000  1.0
  H  H12  1  0.08527000  0.55447000  0.37483000  1.0
  H  H13  1  0.11107000  0.64911000  0.52044000  1.0
  H  H14  1  0.86853000  0.55816000  0.38223000  1.0
  H  H15  1  0.89326000  0.65566000  0.52261000  1.0
  H  H16  1  0.86191000  0.43329000  0.38543000  1.0
  H  H17  1  0.89780000  0.60223000  0.62654000  1.0
  H  H18  1  0.08670000  0.34566000  0.51982000  1.0
  H  H19  1  0.10874000  0.40930000  0.62114000  1.0
  H  H20  1  0.87122000  0.35323000  0.53574000  1.0
  H  H21  1  0.89322000  0.42343000  0.63387000  1.0
  H  H22  1  0.39179000  0.41267000  0.20130000  1.0
  H  H23  1  0.71391000  0.59142000  0.24524000  1.0
  H  H24  1  0.46833000  0.63666000  0.95138000  1.0
  H  H25  1  0.69666000  0.39037000  0.92676000  1.0
  H  H26  1  0.15059000  0.80698000  0.44004000  1.0
  H  H27  1  0.00889000  0.74818000  0.31652000  1.0
  H  H28  1  0.09442000  0.66437000  0.18506000  1.0
  H  H29  1  0.32352000  0.63776000  0.17882000  1.0
  H  H30  1  0.46400000  0.69520000  0.30249000  1.0
  H  H31  1  0.25025000  0.29948000  0.40473000  1.0
  H  H32  1  0.12670000  0.32939000  0.26652000  1.0
  H  H33  1  0.19920000  0.26949000  0.12024000  1.0
  H  H34  1  0.39728000  0.18181000  0.11238000  1.0
  H  H35  1  0.51871000  0.14859000  0.25069000  1.0
  H  H36  1  0.24178000  0.50472000  0.07601000  1.0
  H  H37  1  0.06884000  0.43258000  0.98355000  1.0
  H  H38  1  0.10965000  0.29771000  0.87810000  1.0
  H  H39  1  0.32436000  0.23482000  0.86850000  1.0
  H  H40  1  0.49624000  0.30660000  0.96213000  1.0
  H  H41  1  0.84735000  0.50404000  0.98938000  1.0
  H  H42  1  0.02458000  0.60180000  0.94170000  1.0
  H  H43  1  0.05448000  0.76736000  0.00073000  1.0
  H  H44  1  0.90506000  0.83401000  0.10833000  1.0
  H  H45  1  0.72718000  0.73594000  0.15550000  1.0
  C  C46  1  0.52775000  0.50032000  0.32975000  1.0
  C  C47  1  0.91872000  0.41706000  0.56382000  1.0
  C  C48  1  0.48165000  0.45599000  0.08278000  1.0
  C  C49  1  0.66859000  0.55523000  0.10736000  1.0
  C  C50  1  0.46857000  0.45242000  0.17440000  1.0
  C  C51  1  0.64984000  0.55314000  0.19905000  1.0
  C  C52  1  0.55144000  0.50136000  0.23265000  1.0
  C  C53  1  0.58325000  0.50642000  0.04842000  1.0
  C  C54  1  0.51111000  0.58253000  0.90971000  1.0
  C  C55  1  0.63887000  0.44409000  0.89605000  1.0
  C  C56  1  0.48839000  0.57978000  0.81832000  1.0
  C  C57  1  0.61415000  0.43999000  0.80483000  1.0
  C  C58  1  0.53606000  0.50648000  0.76564000  1.0
  C  C59  1  0.58389000  0.51324000  0.95002000  1.0
  C  C60  1  0.40573000  0.89645000  0.45678000  1.0
  C  C61  1  0.46587000  0.09007000  0.42589000  1.0
  C  C62  1  0.25082000  0.49368000  0.49617000  1.0
  C  C63  1  0.40315000  0.79777000  0.44846000  1.0
  C  C64  1  0.45331000  0.18795000  0.41937000  1.0
  C  C65  1  0.56668000  0.79149000  0.55303000  1.0
  C  C66  1  0.53065000  0.20824000  0.56466000  1.0
  C  C67  1  0.57766000  0.88969000  0.56060000  1.0
  C  C68  1  0.53880000  0.11115000  0.57633000  1.0
  C  C69  1  0.49636000  0.94480000  0.50988000  1.0
  C  C70  1  0.50330000  0.04909000  0.50536000  1.0
  C  C71  1  0.50091000  0.49854000  0.66881000  1.0
  C  C72  1  0.72733000  0.50379000  0.51533000  1.0
  C  C73  1  0.04944000  0.49433000  0.41129000  1.0
  C  C74  1  0.07196000  0.58864000  0.55462000  1.0
  C  C75  1  0.90635000  0.49680000  0.41689000  1.0
  C  C76  1  0.92835000  0.59398000  0.55788000  1.0
  C  C77  1  0.06134000  0.41112000  0.55555000  1.0
  C  C78  1  0.11023000  0.49664000  0.50567000  1.0
  C  C79  1  0.86876000  0.50381000  0.51503000  1.0
  C  C80  1  0.31669000  0.75440000  0.37949000  1.0
  C  C81  1  0.18830000  0.77010000  0.38249000  1.0
  C  C82  1  0.10882000  0.73695000  0.31318000  1.0
  C  C83  1  0.15674000  0.68915000  0.23960000  1.0
  C  C84  1  0.28460000  0.67448000  0.23599000  1.0
  C  C85  1  0.36442000  0.70699000  0.30538000  1.0
  C  C86  1  0.39133000  0.22076000  0.33691000  1.0
  C  C87  1  0.28149000  0.27281000  0.34075000  1.0
  C  C88  1  0.21265000  0.28955000  0.26297000  1.0
  C  C89  1  0.25286000  0.25579000  0.18091000  1.0
  C  C90  1  0.36399000  0.20605000  0.17658000  1.0
  C  C91  1  0.43223000  0.18787000  0.25414000  1.0
  C  C92  1  0.38139000  0.41153000  0.02462000  1.0
  C  C93  1  0.25979000  0.44554000  0.03022000  1.0
  C  C94  1  0.16250000  0.40488000  0.97810000  1.0
  C  C95  1  0.18526000  0.32913000  0.91949000  1.0
  C  C96  1  0.30571000  0.29402000  0.91402000  1.0
  C  C97  1  0.40275000  0.33474000  0.96626000  1.0
  C  C98  1  0.77419000  0.61285000  0.07586000  1.0
  C  C99  1  0.85917000  0.57655000  0.01519000  1.0
  C  C100  1  0.95921000  0.63162000  0.98844000  1.0
  C  C101  1  0.97627000  0.72443000  0.02162000  1.0
  C  C102  1  0.89262000  0.76158000  0.08207000  1.0
  C  C103  1  0.79295000  0.70630000  0.10896000  1.0
  N  N104  1  0.48356000  0.74587000  0.49734000  1.0
  N  N105  1  0.48691000  0.24675000  0.48901000  1.0
  O  O106  1  0.47820000  0.42580000  0.35890000  1.0
  O  O107  1  0.55574000  0.57567000  0.37484000  1.0
  O  O108  1  0.30377000  0.41496000  0.50927000  1.0
  O  O109  1  0.30553000  0.56931000  0.47357000  1.0
  O  O110  1  0.51687000  0.41839000  0.63011000  1.0
  O  O111  1  0.45721000  0.57221000  0.63305000  1.0
  O  O112  1  0.67357000  0.42656000  0.48877000  1.0
  O  O113  1  0.67338000  0.57967000  0.53894000  1.0
