# generated using pymatgen
data_Zn3H32C52(NO2)6
_symmetry_space_group_name_H-M   'P 1'
_cell_length_a   14.01080000
_cell_length_b   14.01080000
_cell_length_c   24.75600000
_cell_angle_alpha   90.00000000
_cell_angle_beta   90.00020000
_cell_angle_gamma   60.00000000
_symmetry_Int_Tables_number   1
_chemical_formula_structural   Zn3H32C52(NO2)6
_chemical_formula_sum   'Zn9 H96 C156 N18 O36'
_cell_volume   4208.59343213
_cell_formula_units_Z   3
loop_
 _symmetry_equiv_pos_site_id
 _symmetry_equiv_pos_as_xyz
  1  'x, y, z'
loop_
 _atom_site_type_symbol
 _atom_site_label
 _atom_site_symmetry_multiplicity
 _atom_site_fract_x
 _atom_site_fract_y
 _atom_site_fract_z
 _atom_site_occupancy
  Zn  Zn0  1  0.45981000  0.68969000  0.04666000  1.0
  Zn  Zn1  1  0.85050000  0.45981000  0.37999000  1.0
  Zn  Zn2  1  0.68968000  0.85051000  0.71333000  1.0
  Zn  Zn3  1  0.54019000  0.14949000  0.95334000  1.0
  Zn  Zn4  1  0.14950000  0.31031000  0.62000000  1.0
  Zn  Zn5  1  0.31032000  0.54018000  0.28667000  1.0
  Zn  Zn6  1  0.30261000  0.69739000  0.16667000  1.0
  Zn  Zn7  1  0.00000000  0.30261000  0.50000000  1.0
  Zn  Zn8  1  0.69739000  0.00000000  0.83333000  1.0
  H  H9  1  0.27229000  0.35977000  0.17047000  1.0
  H  H10  1  0.37245000  0.45910000  0.15228000  1.0
  H  H11  1  0.21510000  0.56037000  0.99667000  1.0
  H  H12  1  0.11063000  0.46292000  0.01558000  1.0
  H  H13  1  0.98745000  0.56217000  0.12745000  1.0
  H  H14  1  0.78699000  0.66705000  0.10740000  1.0
  H  H15  1  0.80484000  0.37679000  0.03883000  1.0
  H  H16  1  0.00626000  0.27032000  0.05840000  1.0
  H  H17  1  0.05440000  0.25053000  0.17262000  1.0
  H  H18  1  0.13740000  0.04764000  0.18355000  1.0
  H  H19  1  0.40004000  0.99595000  0.07615000  1.0
  H  H20  1  0.31896000  0.19674000  0.06474000  1.0
  H  H21  1  0.43929000  0.89736000  0.01191000  1.0
  H  H22  1  0.38716000  0.01679000  0.92945000  1.0
  H  H23  1  0.40179000  0.74422000  0.83979000  1.0
  H  H24  1  0.44416000  0.63934000  0.92835000  1.0
  H  H25  1  0.36795000  0.27229000  0.50380000  1.0
  H  H26  1  0.16846000  0.37244000  0.48562000  1.0
  H  H27  1  0.22452000  0.21510000  0.33001000  1.0
  H  H28  1  0.42645000  0.11062000  0.34892000  1.0
  H  H29  1  0.45039000  0.98744000  0.46079000  1.0
  H  H30  1  0.54596000  0.78699000  0.44073000  1.0
  H  H31  1  0.81837000  0.80484000  0.37217000  1.0
  H  H32  1  0.72342000  0.00626000  0.39173000  1.0
  H  H33  1  0.69508000  0.05439000  0.50595000  1.0
  H  H34  1  0.81496000  0.13740000  0.51688000  1.0
  H  H35  1  0.60401000  0.40004000  0.40948000  1.0
  H  H36  1  0.48430000  0.31896000  0.39807000  1.0
  H  H37  1  0.66334000  0.43930000  0.34524000  1.0
  H  H38  1  0.59605000  0.38716000  0.26278000  1.0
  H  H39  1  0.85400000  0.40180000  0.17313000  1.0
  H  H40  1  0.91650000  0.44416000  0.26168000  1.0
  H  H41  1  0.35976000  0.36795000  0.83714000  1.0
  H  H42  1  0.45910000  0.16845000  0.81895000  1.0
  H  H43  1  0.56037000  0.22452000  0.66334000  1.0
  H  H44  1  0.46293000  0.42644000  0.68225000  1.0
  H  H45  1  0.56217000  0.45039000  0.79412000  1.0
  H  H46  1  0.66705000  0.54596000  0.77407000  1.0
  H  H47  1  0.37680000  0.81836000  0.70550000  1.0
  H  H48  1  0.27032000  0.72342000  0.72506000  1.0
  H  H49  1  0.25053000  0.69507000  0.83928000  1.0
  H  H50  1  0.04764000  0.81496000  0.85022000  1.0
  H  H51  1  0.99594000  0.60402000  0.74282000  1.0
  H  H52  1  0.19674000  0.48430000  0.73140000  1.0
  H  H53  1  0.89736000  0.66335000  0.67858000  1.0
  H  H54  1  0.01679000  0.59605000  0.59612000  1.0
  H  H55  1  0.74421000  0.85399000  0.50646000  1.0
  H  H56  1  0.63934000  0.91650000  0.59501000  1.0
  H  H57  1  0.72771000  0.63206000  0.82953000  1.0
  H  H58  1  0.62755000  0.83155000  0.84772000  1.0
  H  H59  1  0.78490000  0.77547000  0.00333000  1.0
  H  H60  1  0.88937000  0.57355000  0.98442000  1.0
  H  H61  1  0.01255000  0.54962000  0.87255000  1.0
  H  H62  1  0.21301000  0.45404000  0.89260000  1.0
  H  H63  1  0.19516000  0.18164000  0.96117000  1.0
  H  H64  1  0.99374000  0.27658000  0.94160000  1.0
  H  H65  1  0.94560000  0.30493000  0.82738000  1.0
  H  H66  1  0.86260000  0.18504000  0.81645000  1.0
  H  H67  1  0.59995000  0.39599000  0.92385000  1.0
  H  H68  1  0.68104000  0.51570000  0.93526000  1.0
  H  H69  1  0.56071000  0.33665000  0.98809000  1.0
  H  H70  1  0.61284000  0.40395000  0.07055000  1.0
  H  H71  1  0.59820000  0.14601000  0.16021000  1.0
  H  H72  1  0.55584000  0.08350000  0.07165000  1.0
  H  H73  1  0.63205000  0.64024000  0.49620000  1.0
  H  H74  1  0.83155000  0.54089000  0.51438000  1.0
  H  H75  1  0.77548000  0.43962000  0.66999000  1.0
  H  H76  1  0.57355000  0.53707000  0.65108000  1.0
  H  H77  1  0.54961000  0.43783000  0.53921000  1.0
  H  H78  1  0.45404000  0.33295000  0.55927000  1.0
  H  H79  1  0.18163000  0.62321000  0.62784000  1.0
  H  H80  1  0.27658000  0.72968000  0.60827000  1.0
  H  H81  1  0.30493000  0.74947000  0.49405000  1.0
  H  H82  1  0.18504000  0.95236000  0.48312000  1.0
  H  H83  1  0.39599000  0.00405000  0.59052000  1.0
  H  H84  1  0.51570000  0.80326000  0.60193000  1.0
  H  H85  1  0.33666000  0.10263000  0.65476000  1.0
  H  H86  1  0.40395000  0.98321000  0.73722000  1.0
  H  H87  1  0.14600000  0.25580000  0.82687000  1.0
  H  H88  1  0.08350000  0.36066000  0.73832000  1.0
  H  H89  1  0.64023000  0.72772000  0.16286000  1.0
  H  H90  1  0.54090000  0.62755000  0.18105000  1.0
  H  H91  1  0.43963000  0.78489000  0.33666000  1.0
  H  H92  1  0.53707000  0.88938000  0.31775000  1.0
  H  H93  1  0.43783000  0.01256000  0.20588000  1.0
  H  H94  1  0.33295000  0.21301000  0.22593000  1.0
  H  H95  1  0.62321000  0.19516000  0.29450000  1.0
  H  H96  1  0.72968000  0.99374000  0.27494000  1.0
  H  H97  1  0.74947000  0.94560000  0.16072000  1.0
  H  H98  1  0.95236000  0.86260000  0.14978000  1.0
  H  H99  1  0.00406000  0.59995000  0.25718000  1.0
  H  H100  1  0.80326000  0.68105000  0.26860000  1.0
  H  H101  1  0.10264000  0.56071000  0.32142000  1.0
  H  H102  1  0.98321000  0.61284000  0.40388000  1.0
  H  H103  1  0.25579000  0.59820000  0.49354000  1.0
  H  H104  1  0.36066000  0.55584000  0.40499000  1.0
  C  C105  1  0.18532000  0.40474000  0.09393000  1.0
  C  C106  1  0.26071000  0.40178000  0.13197000  1.0
  C  C107  1  0.31618000  0.45896000  0.12192000  1.0
  C  C108  1  0.29924000  0.51731000  0.07342000  1.0
  C  C109  1  0.22612000  0.51698000  0.03474000  1.0
  C  C110  1  0.16836000  0.46241000  0.04520000  1.0
  C  C111  1  0.01002000  0.40899000  0.09451000  1.0
  C  C112  1  0.94750000  0.52149000  0.10804000  1.0
  C  C113  1  0.83541000  0.58000000  0.09693000  1.0
  C  C114  1  0.78309000  0.52810000  0.07225000  1.0
  C  C115  1  0.84571000  0.41613000  0.05861000  1.0
  C  C116  1  0.95785000  0.35693000  0.06956000  1.0
  C  C117  1  0.17871000  0.23733000  0.11646000  1.0
  C  C118  1  0.13023000  0.19433000  0.15141000  1.0
  C  C119  1  0.17638000  0.08107000  0.15753000  1.0
  C  C120  1  0.27183000  0.00811000  0.12883000  1.0
  C  C121  1  0.32423000  0.05189000  0.09735000  1.0
  C  C122  1  0.27947000  0.16490000  0.09139000  1.0
  C  C123  1  0.35608000  0.58030000  0.06297000  1.0
  C  C124  1  0.66316000  0.59001000  0.06136000  1.0
  C  C125  1  0.31018000  0.88768000  0.12673000  1.0
  C  C126  1  0.42797000  0.86812000  0.97312000  1.0
  C  C127  1  0.39926000  0.93361000  0.92742000  1.0
  C  C128  1  0.38647000  0.88914000  0.87912000  1.0
  C  C129  1  0.40737000  0.78044000  0.87775000  1.0
  C  C130  1  0.43225000  0.72228000  0.92606000  1.0
  C  C131  1  0.40994000  0.18531000  0.42726000  1.0
  C  C132  1  0.33751000  0.26071000  0.46531000  1.0
  C  C133  1  0.22486000  0.31618000  0.45525000  1.0
  C  C134  1  0.18346000  0.29923000  0.40675000  1.0
  C  C135  1  0.25690000  0.22612000  0.36807000  1.0
  C  C136  1  0.36923000  0.16836000  0.37854000  1.0
  C  C137  1  0.58099000  0.01001000  0.42784000  1.0
  C  C138  1  0.53101000  0.94749000  0.44138000  1.0
  C  C139  1  0.58460000  0.83540000  0.43026000  1.0
  C  C140  1  0.68882000  0.78308000  0.40558000  1.0
  C  C141  1  0.73816000  0.84571000  0.39195000  1.0
  C  C142  1  0.68522000  0.95785000  0.40289000  1.0
  C  C143  1  0.58396000  0.17871000  0.44979000  1.0
  C  C144  1  0.67544000  0.13023000  0.48474000  1.0
  C  C145  1  0.74255000  0.17638000  0.49086000  1.0
  C  C146  1  0.72006000  0.27183000  0.46216000  1.0
  C  C147  1  0.62387000  0.32424000  0.43068000  1.0
  C  C148  1  0.55563000  0.27948000  0.42473000  1.0
  C  C149  1  0.06362000  0.35608000  0.39630000  1.0
  C  C150  1  0.74684000  0.66315000  0.39469000  1.0
  C  C151  1  0.80215000  0.31017000  0.46006000  1.0
  C  C152  1  0.70391000  0.42798000  0.30645000  1.0
  C  C153  1  0.66713000  0.39926000  0.26075000  1.0
  C  C154  1  0.72439000  0.38648000  0.21245000  1.0
  C  C155  1  0.81219000  0.40737000  0.21108000  1.0
  C  C156  1  0.84547000  0.43226000  0.25939000  1.0
  C  C157  1  0.40475000  0.40994000  0.76059000  1.0
  C  C158  1  0.40178000  0.33750000  0.79864000  1.0
  C  C159  1  0.45896000  0.22486000  0.78859000  1.0
  C  C160  1  0.51731000  0.18345000  0.74008000  1.0
  C  C161  1  0.51698000  0.25689000  0.70140000  1.0
  C  C162  1  0.46241000  0.36923000  0.71187000  1.0
  C  C163  1  0.40899000  0.58099000  0.76118000  1.0
  C  C164  1  0.52150000  0.53100000  0.77471000  1.0
  C  C165  1  0.58000000  0.58459000  0.76360000  1.0
  C  C166  1  0.52810000  0.68882000  0.73892000  1.0
  C  C167  1  0.41613000  0.73816000  0.72528000  1.0
  C  C168  1  0.35693000  0.68522000  0.73623000  1.0
  C  C169  1  0.23733000  0.58396000  0.78313000  1.0
  C  C170  1  0.19433000  0.67544000  0.81808000  1.0
  C  C171  1  0.08107000  0.74255000  0.82419000  1.0
  C  C172  1  0.00811000  0.72006000  0.79550000  1.0
  C  C173  1  0.05189000  0.62388000  0.76402000  1.0
  C  C174  1  0.16489000  0.55563000  0.75806000  1.0
  C  C175  1  0.58030000  0.06361000  0.72964000  1.0
  C  C176  1  0.59000000  0.74684000  0.72803000  1.0
  C  C177  1  0.88768000  0.80214000  0.79339000  1.0
  C  C178  1  0.86811000  0.70392000  0.63978000  1.0
  C  C179  1  0.93361000  0.66713000  0.59408000  1.0
  C  C180  1  0.88913000  0.72440000  0.54579000  1.0
  C  C181  1  0.78044000  0.81218000  0.54442000  1.0
  C  C182  1  0.72228000  0.84547000  0.59273000  1.0
  C  C183  1  0.81469000  0.59005000  0.90607000  1.0
  C  C184  1  0.73929000  0.66249000  0.86803000  1.0
  C  C185  1  0.68382000  0.77515000  0.87808000  1.0
  C  C186  1  0.70077000  0.81654000  0.92658000  1.0
  C  C187  1  0.77388000  0.74310000  0.96526000  1.0
  C  C188  1  0.83164000  0.63076000  0.95480000  1.0
  C  C189  1  0.98998000  0.41901000  0.90549000  1.0
  C  C190  1  0.05250000  0.46900000  0.89195000  1.0
  C  C191  1  0.16459000  0.41541000  0.90307000  1.0
  C  C192  1  0.21691000  0.31119000  0.92775000  1.0
  C  C193  1  0.15429000  0.26184000  0.94138000  1.0
  C  C194  1  0.04215000  0.31478000  0.93044000  1.0
  C  C195  1  0.82129000  0.41604000  0.88354000  1.0
  C  C196  1  0.86977000  0.32456000  0.84859000  1.0
  C  C197  1  0.82362000  0.25745000  0.84247000  1.0
  C  C198  1  0.72817000  0.27994000  0.87117000  1.0
  C  C199  1  0.67577000  0.37612000  0.90265000  1.0
  C  C200  1  0.72052000  0.44437000  0.90861000  1.0
  C  C201  1  0.64392000  0.93638000  0.93703000  1.0
  C  C202  1  0.33684000  0.25317000  0.93864000  1.0
  C  C203  1  0.68982000  0.19786000  0.87327000  1.0
  C  C204  1  0.57203000  0.29608000  0.02688000  1.0
  C  C205  1  0.60074000  0.33287000  0.07258000  1.0
  C  C206  1  0.61353000  0.27560000  0.12088000  1.0
  C  C207  1  0.59262000  0.18782000  0.12225000  1.0
  C  C208  1  0.56774000  0.15453000  0.07394000  1.0
  C  C209  1  0.59006000  0.59525000  0.57274000  1.0
  C  C210  1  0.66249000  0.59822000  0.53469000  1.0
  C  C211  1  0.77514000  0.54103000  0.54475000  1.0
  C  C212  1  0.81655000  0.48268000  0.59325000  1.0
  C  C213  1  0.74310000  0.48302000  0.63193000  1.0
  C  C214  1  0.63077000  0.53759000  0.62146000  1.0
  C  C215  1  0.41901000  0.59101000  0.57216000  1.0
  C  C216  1  0.46899000  0.47850000  0.55862000  1.0
  C  C217  1  0.41540000  0.42000000  0.56974000  1.0
  C  C218  1  0.31119000  0.47189000  0.59442000  1.0
  C  C219  1  0.26184000  0.58387000  0.60805000  1.0
  C  C220  1  0.31478000  0.64307000  0.59711000  1.0
  C  C221  1  0.41604000  0.76267000  0.55021000  1.0
  C  C222  1  0.32456000  0.80567000  0.51526000  1.0
  C  C223  1  0.25745000  0.91893000  0.50914000  1.0
  C  C224  1  0.27994000  0.99189000  0.53784000  1.0
  C  C225  1  0.37613000  0.94811000  0.56932000  1.0
  C  C226  1  0.44437000  0.83510000  0.57528000  1.0
  C  C227  1  0.93638000  0.41970000  0.60370000  1.0
  C  C228  1  0.25316000  0.41000000  0.60531000  1.0
  C  C229  1  0.19786000  0.11232000  0.53994000  1.0
  C  C230  1  0.29609000  0.13189000  0.69355000  1.0
  C  C231  1  0.33287000  0.06639000  0.73925000  1.0
  C  C232  1  0.27561000  0.11087000  0.78755000  1.0
  C  C233  1  0.18782000  0.21956000  0.78892000  1.0
  C  C234  1  0.15453000  0.27773000  0.74061000  1.0
  C  C235  1  0.59526000  0.81468000  0.23941000  1.0
  C  C236  1  0.59822000  0.73929000  0.20136000  1.0
  C  C237  1  0.54103000  0.68383000  0.21141000  1.0
  C  C238  1  0.48269000  0.70077000  0.25992000  1.0
  C  C239  1  0.48302000  0.77388000  0.29860000  1.0
  C  C240  1  0.53759000  0.83165000  0.28813000  1.0
  C  C241  1  0.59101000  0.98998000  0.23882000  1.0
  C  C242  1  0.47850000  0.05251000  0.22529000  1.0
  C  C243  1  0.42000000  0.16460000  0.23640000  1.0
  C  C244  1  0.47190000  0.21691000  0.26108000  1.0
  C  C245  1  0.58387000  0.15429000  0.27472000  1.0
  C  C246  1  0.64307000  0.04215000  0.26377000  1.0
  C  C247  1  0.76267000  0.82129000  0.21687000  1.0
  C  C248  1  0.80567000  0.86977000  0.18192000  1.0
  C  C249  1  0.91893000  0.82362000  0.17581000  1.0
  C  C250  1  0.99189000  0.72817000  0.20450000  1.0
  C  C251  1  0.94811000  0.67577000  0.23598000  1.0
  C  C252  1  0.83511000  0.72052000  0.24194000  1.0
  C  C253  1  0.41969000  0.64392000  0.27036000  1.0
  C  C254  1  0.40999000  0.33685000  0.27197000  1.0
  C  C255  1  0.11232000  0.68983000  0.20660000  1.0
  C  C256  1  0.13188000  0.57203000  0.36022000  1.0
  C  C257  1  0.06638000  0.60075000  0.40591000  1.0
  C  C258  1  0.11087000  0.61352000  0.45421000  1.0
  C  C259  1  0.21956000  0.59263000  0.45558000  1.0
  C  C260  1  0.27773000  0.56774000  0.40727000  1.0
  N  N261  1  0.12415000  0.35109000  0.10495000  1.0
  N  N262  1  0.44089000  0.76602000  0.97295000  1.0
  N  N263  1  0.35495000  0.94837000  0.83000000  1.0
  N  N264  1  0.52477000  0.12415000  0.43829000  1.0
  N  N265  1  0.79308000  0.44089000  0.30628000  1.0
  N  N266  1  0.69669000  0.35495000  0.16333000  1.0
  N  N267  1  0.35108000  0.52476000  0.77162000  1.0
  N  N268  1  0.76603000  0.79308000  0.63961000  1.0
  N  N269  1  0.94837000  0.69668000  0.49667000  1.0
  N  N270  1  0.87584000  0.47524000  0.89505000  1.0
  N  N271  1  0.55911000  0.20691000  0.02705000  1.0
  N  N272  1  0.64505000  0.30332000  0.17000000  1.0
  N  N273  1  0.47523000  0.64892000  0.56172000  1.0
  N  N274  1  0.20692000  0.23397000  0.69372000  1.0
  N  N275  1  0.30332000  0.05163000  0.83667000  1.0
  N  N276  1  0.64892000  0.87584000  0.22838000  1.0
  N  N277  1  0.23398000  0.55911000  0.36038000  1.0
  N  N278  1  0.05164000  0.64504000  0.50333000  1.0
  O  O279  1  0.39459000  0.61039000  0.10407000  1.0
  O  O280  1  0.36983000  0.60557000  0.01601000  1.0
  O  O281  1  0.60531000  0.69027000  0.07657000  1.0
  O  O282  1  0.61711000  0.54202000  0.03738000  1.0
  O  O283  1  0.28138000  0.84665000  0.16568000  1.0
  O  O284  1  0.36456000  0.83633000  0.08526000  1.0
  O  O285  1  0.99502000  0.39460000  0.43740000  1.0
  O  O286  1  0.02460000  0.36982000  0.34935000  1.0
  O  O287  1  0.70443000  0.60531000  0.40991000  1.0
  O  O288  1  0.84087000  0.61711000  0.37072000  1.0
  O  O289  1  0.87196000  0.28139000  0.49901000  1.0
  O  O290  1  0.79912000  0.36454000  0.41859000  1.0
  O  O291  1  0.61038000  0.99502000  0.77074000  1.0
  O  O292  1  0.60557000  0.02459000  0.68268000  1.0
  O  O293  1  0.69026000  0.70443000  0.74324000  1.0
  O  O294  1  0.54202000  0.84087000  0.70405000  1.0
  O  O295  1  0.84665000  0.87196000  0.83235000  1.0
  O  O296  1  0.83633000  0.79912000  0.75193000  1.0
  O  O297  1  0.60541000  0.00498000  0.89593000  1.0
  O  O298  1  0.63017000  0.97541000  0.98399000  1.0
  O  O299  1  0.39469000  0.29558000  0.92343000  1.0
  O  O300  1  0.38289000  0.15913000  0.96261000  1.0
  O  O301  1  0.71861000  0.12803000  0.83432000  1.0
  O  O302  1  0.63544000  0.20089000  0.91474000  1.0
  O  O303  1  0.00498000  0.38961000  0.56260000  1.0
  O  O304  1  0.97540000  0.39442000  0.65066000  1.0
  O  O305  1  0.29557000  0.30974000  0.59009000  1.0
  O  O306  1  0.15913000  0.45798000  0.62929000  1.0
  O  O307  1  0.12804000  0.15335000  0.50099000  1.0
  O  O308  1  0.20087000  0.16367000  0.58141000  1.0
  O  O309  1  0.38961000  0.60541000  0.22926000  1.0
  O  O310  1  0.39443000  0.63017000  0.31732000  1.0
  O  O311  1  0.30973000  0.39469000  0.25676000  1.0
  O  O312  1  0.45797000  0.38290000  0.29595000  1.0
  O  O313  1  0.15335000  0.71862000  0.16765000  1.0
  O  O314  1  0.16367000  0.63545000  0.24807000  1.0
