# generated using pymatgen
data_AlH4C7NO5
_symmetry_space_group_name_H-M   'P 1'
_cell_length_a   10.44970000
_cell_length_b   16.06870000
_cell_length_c   16.22117879
_cell_angle_alpha   83.99681954
_cell_angle_beta   71.21012022
_cell_angle_gamma   71.05300000
_symmetry_Int_Tables_number   1
_chemical_formula_structural   AlH4C7NO5
_chemical_formula_sum   'Al8 H32 C56 N8 O40'
_cell_volume   2438.87963875
_cell_formula_units_Z   8
loop_
 _symmetry_equiv_pos_site_id
 _symmetry_equiv_pos_as_xyz
  1  'x, y, z'
loop_
 _atom_site_type_symbol
 _atom_site_label
 _atom_site_symmetry_multiplicity
 _atom_site_fract_x
 _atom_site_fract_y
 _atom_site_fract_z
 _atom_site_occupancy
  Al  Al0  1  0.18139000  0.81888000  0.31847000  1.0
  Al  Al1  1  0.81878000  0.68109000  0.18151000  1.0
  Al  Al2  1  0.00016000  0.68114000  0.31847000  1.0
  Al  Al3  1  0.49969000  0.81886000  0.18152000  1.0
  Al  Al4  1  0.81862000  0.18112000  0.68153000  1.0
  Al  Al5  1  0.18122000  0.31891000  0.81849000  1.0
  Al  Al6  1  0.99985000  0.31885000  0.68153000  1.0
  Al  Al7  1  0.50031000  0.18114000  0.81848000  1.0
  H  H8  1  0.94857000  0.98924000  0.18003000  1.0
  H  H9  1  0.61791000  0.51075000  0.32006000  1.0
  H  H10  1  0.38197000  0.68093000  0.48827000  1.0
  H  H11  1  0.37167000  0.51078000  0.18003000  1.0
  H  H12  1  0.62969000  0.81923000  0.48826000  1.0
  H  H13  1  0.43701000  0.68084000  0.01169000  1.0
  H  H14  1  0.56209000  0.98913000  0.32007000  1.0
  H  H15  1  0.05110000  0.81914000  0.01169000  1.0
  H  H16  1  0.05143000  0.01076000  0.81997000  1.0
  H  H17  1  0.38209000  0.48925000  0.67994000  1.0
  H  H18  1  0.61803000  0.31907000  0.51173000  1.0
  H  H19  1  0.62833000  0.48922000  0.81997000  1.0
  H  H20  1  0.37030000  0.18077000  0.51174000  1.0
  H  H21  1  0.56299000  0.31916000  0.98831000  1.0
  H  H22  1  0.43791000  0.01088000  0.67993000  1.0
  H  H23  1  0.94890000  0.18086000  0.98831000  1.0
  H  H24  1  0.35027000  0.01457000  0.01532000  1.0
  H  H25  1  0.88027000  0.48544000  0.48470000  1.0
  H  H26  1  0.11974000  0.51456000  0.51530000  1.0
  H  H27  1  0.13456000  0.48537000  0.01541000  1.0
  H  H28  1  0.86503000  0.98545000  0.51544000  1.0
  H  H29  1  0.86544000  0.51463000  0.98459000  1.0
  H  H30  1  0.13498000  0.01455000  0.48455000  1.0
  H  H31  1  0.64971000  0.98543000  0.98469000  1.0
  H  H32  1  0.39903000  0.70195000  0.25001000  1.0
  H  H33  1  0.85095000  0.79801000  0.25003000  1.0
  H  H34  1  0.14850000  0.75001000  0.20303000  1.0
  H  H35  1  0.60153000  0.75003000  0.29694000  1.0
  H  H36  1  0.60097000  0.29805000  0.74999000  1.0
  H  H37  1  0.14905000  0.20199000  0.74997000  1.0
  H  H38  1  0.85150000  0.24999000  0.79697000  1.0
  H  H39  1  0.39847000  0.24998000  0.70306000  1.0
  C  C40  1  0.15822000  0.99372000  0.10437000  1.0
  C  C41  1  0.75642000  0.50627000  0.39566000  1.0
  C  C42  1  0.24407000  0.60411000  0.49300000  1.0
  C  C43  1  0.23762000  0.50634000  0.10437000  1.0
  C  C44  1  0.76290000  0.89601000  0.49299000  1.0
  C  C45  1  0.65158000  0.60406000  0.00699000  1.0
  C  C46  1  0.34798000  0.99362000  0.39568000  1.0
  C  C47  1  0.84124000  0.89588000  0.00694000  1.0
  C  C48  1  0.84178000  0.00628000  0.89563000  1.0
  C  C49  1  0.24359000  0.49373000  0.60434000  1.0
  C  C50  1  0.75593000  0.39588000  0.50700000  1.0
  C  C51  1  0.76238000  0.49366000  0.89563000  1.0
  C  C52  1  0.23710000  0.10399000  0.50701000  1.0
  C  C53  1  0.34841000  0.39594000  0.99301000  1.0
  C  C54  1  0.65202000  0.00638000  0.60431000  1.0
  C  C55  1  0.15876000  0.10411000  0.99306000  1.0
  C  C56  1  0.00947000  0.02078000  0.12573000  1.0
  C  C57  1  0.65600000  0.47919000  0.37437000  1.0
  C  C58  1  0.34403000  0.62627000  0.51983000  1.0
  C  C59  1  0.36503000  0.47927000  0.12572000  1.0
  C  C60  1  0.63606000  0.87390000  0.51981000  1.0
  C  C61  1  0.52951000  0.62618000  0.98013000  1.0
  C  C62  1  0.46970000  0.02066000  0.37438000  1.0
  C  C63  1  0.99016000  0.87379000  0.98010000  1.0
  C  C64  1  0.99053000  0.97922000  0.87427000  1.0
  C  C65  1  0.34400000  0.52081000  0.62563000  1.0
  C  C66  1  0.65597000  0.37373000  0.48017000  1.0
  C  C67  1  0.63496000  0.52073000  0.87428000  1.0
  C  C68  1  0.36395000  0.12610000  0.48019000  1.0
  C  C69  1  0.47049000  0.37383000  0.01987000  1.0
  C  C70  1  0.53030000  0.97934000  0.62562000  1.0
  C  C71  1  0.00984000  0.12621000  0.01990000  1.0
  C  C72  1  0.23172000  0.92581000  0.15776000  1.0
  C  C73  1  0.81541000  0.57416000  0.34217000  1.0
  C  C74  1  0.18555000  0.65717000  0.42488000  1.0
  C  C75  1  0.11068000  0.57420000  0.15781000  1.0
  C  C76  1  0.88953000  0.84291000  0.42489000  1.0
  C  C77  1  0.65705000  0.65713000  0.07514000  1.0
  C  C78  1  0.34242000  0.92577000  0.34219000  1.0
  C  C79  1  0.76769000  0.84279000  0.07510000  1.0
  C  C80  1  0.76829000  0.07419000  0.84223000  1.0
  C  C81  1  0.18458000  0.42584000  0.65783000  1.0
  C  C82  1  0.81445000  0.34282000  0.57512000  1.0
  C  C83  1  0.88931000  0.42581000  0.84218000  1.0
  C  C84  1  0.11046000  0.15709000  0.57511000  1.0
  C  C85  1  0.34295000  0.34287000  0.92486000  1.0
  C  C86  1  0.65760000  0.07423000  0.65780000  1.0
  C  C87  1  0.23230000  0.15721000  0.92490000  1.0
  C  C88  1  0.23460000  0.03457000  0.03474000  1.0
  C  C89  1  0.80400000  0.46542000  0.46528000  1.0
  C  C90  1  0.19601000  0.53457000  0.53471000  1.0
  C  C91  1  0.23087000  0.46541000  0.03477000  1.0
  C  C92  1  0.76929000  0.96550000  0.53474000  1.0
  C  C93  1  0.76913000  0.53459000  0.96523000  1.0
  C  C94  1  0.23071000  0.03450000  0.46526000  1.0
  C  C95  1  0.76540000  0.96543000  0.96526000  1.0
  N  N96  1  0.93558000  0.08449000  0.08351000  1.0
  N  N97  1  0.60360000  0.41545000  0.41658000  1.0
  N  N98  1  0.39640000  0.58455000  0.58342000  1.0
  N  N99  1  0.48109000  0.41551000  0.08351000  1.0
  N  N100  1  0.52011000  0.91560000  0.58341000  1.0
  N  N101  1  0.51892000  0.58449000  0.91648000  1.0
  N  N102  1  0.47989000  0.08440000  0.41660000  1.0
  N  N103  1  0.06441000  0.91551000  0.91649000  1.0
  O  O104  1  0.36627000  0.89304000  0.12712000  1.0
  O  O105  1  0.88657000  0.60698000  0.37279000  1.0
  O  O106  1  0.11484000  0.62604000  0.39222000  1.0
  O  O107  1  0.00672000  0.60694000  0.12720000  1.0
  O  O108  1  0.99295000  0.87402000  0.39222000  1.0
  O  O109  1  0.75894000  0.62604000  0.10777000  1.0
  O  O110  1  0.24065000  0.89297000  0.37283000  1.0
  O  O111  1  0.63319000  0.87390000  0.10774000  1.0
  O  O112  1  0.63372000  0.10696000  0.87288000  1.0
  O  O113  1  0.11343000  0.39302000  0.62721000  1.0
  O  O114  1  0.88517000  0.37396000  0.60778000  1.0
  O  O115  1  0.99328000  0.39306000  0.87280000  1.0
  O  O116  1  0.00705000  0.12597000  0.60778000  1.0
  O  O117  1  0.24106000  0.37395000  0.89223000  1.0
  O  O118  1  0.75935000  0.10703000  0.62717000  1.0
  O  O119  1  0.36681000  0.12610000  0.89226000  1.0
  O  O120  1  0.15328000  0.90710000  0.23087000  1.0
  O  O121  1  0.79134000  0.59280000  0.26906000  1.0
  O  O122  1  0.20967000  0.73088000  0.40600000  1.0
  O  O123  1  0.11605000  0.59289000  0.23092000  1.0
  O  O124  1  0.88426000  0.76922000  0.40601000  1.0
  O  O125  1  0.55924000  0.73078000  0.09407000  1.0
  O  O126  1  0.43956000  0.90715000  0.26907000  1.0
  O  O127  1  0.84660000  0.76913000  0.09401000  1.0
  O  O128  1  0.84671000  0.09291000  0.76914000  1.0
  O  O129  1  0.20866000  0.40720000  0.73094000  1.0
  O  O130  1  0.79033000  0.26912000  0.59400000  1.0
  O  O131  1  0.88395000  0.40711000  0.76908000  1.0
  O  O132  1  0.11573000  0.23078000  0.59400000  1.0
  O  O133  1  0.44076000  0.26921000  0.90593000  1.0
  O  O134  1  0.56045000  0.09286000  0.73093000  1.0
  O  O135  1  0.15340000  0.23086000  0.90599000  1.0
  O  O136  1  0.36716000  0.76558000  0.24998000  1.0
  O  O137  1  0.88280000  0.73438000  0.25003000  1.0
  O  O138  1  0.11701000  0.75001000  0.26597000  1.0
  O  O139  1  0.63301000  0.75003000  0.23400000  1.0
  O  O140  1  0.63284000  0.23442000  0.75002000  1.0
  O  O141  1  0.11719000  0.26562000  0.74997000  1.0
  O  O142  1  0.88299000  0.24999000  0.73403000  1.0
  O  O143  1  0.36699000  0.24997000  0.76601000  1.0
