# generated using pymatgen
data_CoH8(CO2)4
_symmetry_space_group_name_H-M   'P 1'
_cell_length_a   6.67959000
_cell_length_b   8.03501000
_cell_length_c   8.03498000
_cell_angle_alpha   112.11700000
_cell_angle_beta   95.80140000
_cell_angle_gamma   95.80040000
_symmetry_Int_Tables_number   1
_chemical_formula_structural   CoH8(CO2)4
_chemical_formula_sum   'Co2 H16 C8 O16'
_cell_volume   392.90973073
_cell_formula_units_Z   2
loop_
 _symmetry_equiv_pos_site_id
 _symmetry_equiv_pos_as_xyz
  1  'x, y, z'
loop_
 _atom_site_type_symbol
 _atom_site_label
 _atom_site_symmetry_multiplicity
 _atom_site_fract_x
 _atom_site_fract_y
 _atom_site_fract_z
 _atom_site_occupancy
  Co  Co0  1  0.00000000  0.00000000  0.50000000  1.0
  Co  Co1  1  0.50000000  0.50000000  0.00000000  1.0
  H  H2  1  0.94723000  0.90246000  0.77882000  1.0
  H  H3  1  0.55277000  0.22119000  0.09753000  1.0
  H  H4  1  0.05277000  0.09753000  0.22119000  1.0
  H  H5  1  0.44722000  0.77881000  0.90246000  1.0
  H  H6  1  0.75348000  0.97954000  0.73049000  1.0
  H  H7  1  0.74652000  0.26952000  0.02046000  1.0
  H  H8  1  0.24652000  0.02046000  0.26952000  1.0
  H  H9  1  0.25348000  0.73048000  0.97954000  1.0
  H  H10  1  0.61465000  0.84886000  0.34538000  1.0
  H  H11  1  0.88534000  0.65462000  0.15114000  1.0
  H  H12  1  0.38535000  0.15113000  0.65462000  1.0
  H  H13  1  0.11466000  0.34538000  0.84886000  1.0
  H  H14  1  0.62719000  0.05443000  0.35643000  1.0
  H  H15  1  0.87280000  0.64356000  0.94557000  1.0
  H  H16  1  0.37281000  0.94557000  0.64357000  1.0
  H  H17  1  0.12720000  0.35644000  0.05443000  1.0
  C  C18  1  0.00511000  0.39867000  0.55105000  1.0
  C  C19  1  0.49489000  0.44894000  0.60132000  1.0
  C  C20  1  0.99489000  0.60130000  0.44893000  1.0
  C  C21  1  0.50511000  0.55107000  0.39869000  1.0
  C  C22  1  0.00015000  0.59547000  0.63125000  1.0
  C  C23  1  0.49985000  0.36875000  0.40452000  1.0
  C  C24  1  0.99985000  0.40452000  0.36876000  1.0
  C  C25  1  0.50016000  0.63125000  0.59548000  1.0
  O  O26  1  0.01130000  0.28052000  0.61881000  1.0
  O  O27  1  0.48871000  0.38119000  0.71947000  1.0
  O  O28  1  0.98870000  0.71948000  0.38120000  1.0
  O  O29  1  0.51130000  0.61881000  0.28052000  1.0
  O  O30  1  0.99872000  0.70908000  0.79090000  1.0
  O  O31  1  0.50127000  0.20911000  0.29093000  1.0
  O  O32  1  0.00128000  0.29091000  0.20908000  1.0
  O  O33  1  0.49872000  0.79092000  0.70910000  1.0
  O  O34  1  0.90241000  0.00253000  0.74478000  1.0
  O  O35  1  0.59760000  0.25523000  0.99746000  1.0
  O  O36  1  0.09757000  0.99747000  0.25523000  1.0
  O  O37  1  0.40242000  0.74477000  0.00252000  1.0
  O  O38  1  0.69876000  0.97070000  0.39639000  1.0
  O  O39  1  0.80123000  0.60362000  0.02930000  1.0
  O  O40  1  0.30124000  0.02928000  0.60362000  1.0
  O  O41  1  0.19876000  0.39638000  0.97071000  1.0
