# generated using pymatgen
data_LiH3(CO)3
_symmetry_space_group_name_H-M   'P 1'
_cell_length_a   6.28683000
_cell_length_b   7.94931000
_cell_length_c   8.54853000
_cell_angle_alpha   65.94700000
_cell_angle_beta   68.45300000
_cell_angle_gamma   89.97990000
_symmetry_Int_Tables_number   1
_chemical_formula_structural   LiH3(CO)3
_chemical_formula_sum   'Li4 H12 C12 O12'
_cell_volume   357.20865084
_cell_formula_units_Z   4
loop_
 _symmetry_equiv_pos_site_id
 _symmetry_equiv_pos_as_xyz
  1  'x, y, z'
loop_
 _atom_site_type_symbol
 _atom_site_label
 _atom_site_symmetry_multiplicity
 _atom_site_fract_x
 _atom_site_fract_y
 _atom_site_fract_z
 _atom_site_occupancy
  Li  Li0  1  0.39845000  0.44739000  0.20272000  1.0
  Li  Li1  1  0.60154000  0.55261000  0.79728000  1.0
  Li  Li2  1  0.21666000  0.56339000  0.56676000  1.0
  Li  Li3  1  0.78334000  0.43661000  0.43324000  1.0
  H  H4  1  0.33553000  0.98082000  0.32840000  1.0
  H  H5  1  0.66447000  0.01918000  0.67160000  1.0
  H  H6  1  0.01524000  0.33134000  0.97017000  1.0
  H  H7  1  0.98477000  0.66866000  0.02983000  1.0
  H  H8  1  0.64605000  0.20881000  0.34928000  1.0
  H  H9  1  0.99537000  0.79098000  0.65087000  1.0
  H  H10  1  0.35394000  0.79119000  0.65071000  1.0
  H  H11  1  0.00462000  0.20902000  0.34913000  1.0
  H  H12  1  0.43005000  0.25530000  0.48935000  1.0
  H  H13  1  0.91936000  0.74470000  0.51067000  1.0
  H  H14  1  0.56994000  0.74470000  0.51065000  1.0
  H  H15  1  0.08063000  0.25530000  0.48933000  1.0
  C  C16  1  0.41716000  0.82247000  0.16551000  1.0
  C  C17  1  0.58284000  0.17753000  0.83449000  1.0
  C  C18  1  0.40568000  0.98741000  0.18847000  1.0
  C  C19  1  0.59432000  0.01259000  0.81153000  1.0
  C  C20  1  0.51633000  0.83617000  0.96751000  1.0
  C  C21  1  0.48367000  0.16383000  0.03248000  1.0
  C  C22  1  0.00853000  0.18879000  0.98349000  1.0
  C  C23  1  0.99148000  0.81121000  0.01651000  1.0
  C  C24  1  0.08109000  0.96228000  0.83741000  1.0
  C  C25  1  0.91892000  0.03772000  0.16260000  1.0
  C  C26  1  0.08929000  0.16077000  0.82167000  1.0
  C  C27  1  0.91072000  0.83923000  0.17834000  1.0
  O  O28  1  0.35075000  0.65714000  0.29808000  1.0
  O  O29  1  0.64925000  0.34286000  0.70192000  1.0
  O  O30  1  0.52125000  0.68120000  0.95811000  1.0
  O  O31  1  0.47875000  0.31880000  0.04189000  1.0
  O  O32  1  0.17225000  0.29432000  0.65575000  1.0
  O  O33  1  0.82775000  0.70568000  0.34425000  1.0
  O  O34  1  0.15757000  0.94682000  0.68401000  1.0
  O  O35  1  0.84243000  0.05318000  0.31599000  1.0
  O  O36  1  0.57121000  0.31178000  0.37098000  1.0
  O  O37  1  0.94233000  0.68808000  0.62904000  1.0
  O  O38  1  0.42879000  0.68822000  0.62902000  1.0
  O  O39  1  0.05766000  0.31192000  0.37096000  1.0
