# generated using pymatgen
data_Zn2H21C45N9O13
_symmetry_space_group_name_H-M   'P 1'
_cell_length_a   10.88020000
_cell_length_b   12.62590000
_cell_length_c   13.62370000
_cell_angle_alpha   74.45860000
_cell_angle_beta   85.00410000
_cell_angle_gamma   70.54240000
_symmetry_Int_Tables_number   1
_chemical_formula_structural   Zn2H21C45N9O13
_chemical_formula_sum   'Zn2 H21 C45 N9 O13'
_cell_volume   1700.10856256
_cell_formula_units_Z   1
loop_
 _symmetry_equiv_pos_site_id
 _symmetry_equiv_pos_as_xyz
  1  'x, y, z'
loop_
 _atom_site_type_symbol
 _atom_site_label
 _atom_site_symmetry_multiplicity
 _atom_site_fract_x
 _atom_site_fract_y
 _atom_site_fract_z
 _atom_site_occupancy
  Zn  Zn0  1  0.42831000  0.63135000  0.49699000  1.0
  Zn  Zn1  1  0.52994000  0.36994000  0.51112000  1.0
  H  H2  1  0.79809000  0.67876000  0.40210000  1.0
  H  H3  1  0.25698000  0.10468000  0.68738000  1.0
  H  H4  1  0.70087000  0.26054000  0.37709000  1.0
  H  H5  1  0.63424000  0.94424000  0.36994000  1.0
  H  H6  1  0.82545000  0.57951000  0.60666000  1.0
  H  H7  1  0.03490000  0.57225000  0.62832000  1.0
  H  H8  1  0.94677000  0.37986000  0.38393000  1.0
  H  H9  1  0.13426000  0.43237000  0.36685000  1.0
  H  H10  1  0.76581000  0.65413000  0.90159000  1.0
  H  H11  1  0.09374000  0.04280000  0.64382000  1.0
  H  H12  1  0.61894000  0.70737000  0.48147000  1.0
  H  H13  1  0.18513000  0.33229000  0.48564000  1.0
  H  H14  1  0.34735000  0.24351000  0.69911000  1.0
  H  H15  1  0.14241000  0.67777000  0.33935000  1.0
  H  H16  1  0.87528000  0.42614000  0.64824000  1.0
  H  H17  1  0.53337000  0.24650000  0.80944000  1.0
  H  H18  1  0.46618000  0.25169000  0.15788000  1.0
  H  H19  1  0.71590000  0.72924000  0.03919000  1.0
  H  H20  1  0.89166000  0.58727000  0.32676000  1.0
  H  H21  1  0.44720000  0.39461000  0.25537000  1.0
  H  H22  1  0.21282000  0.78112000  0.58796000  1.0
  C  C23  1  0.49154000  0.56275000  0.30840000  1.0
  C  C24  1  0.57845000  0.52171000  0.03525000  1.0
  C  C25  1  0.53171000  0.50414000  0.13836000  1.0
  C  C26  1  0.73158000  0.48573000  0.48235000  1.0
  C  C27  1  0.55548000  0.45570000  0.97012000  1.0
  C  C28  1  0.52778000  0.35095000  0.01870000  1.0
  C  C29  1  0.49312000  0.32943000  0.12360000  1.0
  C  C30  1  0.48395000  0.40776000  0.17804000  1.0
  C  C31  1  0.54637000  0.49281000  0.86102000  1.0
  C  C32  1  0.53443000  0.30506000  0.85499000  1.0
  C  C33  1  0.53762000  0.57790000  0.19991000  1.0
  C  C34  1  0.10037000  0.51133000  0.49241000  1.0
  C  C35  1  0.25264000  0.92897000  0.60897000  1.0
  C  C36  1  0.65627000  0.19312000  0.40823000  1.0
  C  C37  1  0.68086000  0.09847000  0.36498000  1.0
  C  C38  1  0.51540000  0.45076000  0.69204000  1.0
  C  C39  1  0.61900000  0.01573000  0.40483000  1.0
  C  C40  1  0.53231000  0.02869000  0.48729000  1.0
  C  C41  1  0.51299000  0.12687000  0.52703000  1.0
  C  C42  1  0.45376000  0.95428000  0.52579000  1.0
  C  C43  1  0.34322000  0.99222000  0.58674000  1.0
  C  C44  1  0.33222000  0.08517000  0.63053000  1.0
  C  C45  1  0.03639000  0.49759000  0.60035000  1.0
  C  C46  1  0.42218000  0.14334000  0.60972000  1.0
  C  C47  1  0.48270000  0.84264000  0.50832000  1.0
  C  C48  1  0.28126000  0.82974000  0.57511000  1.0
  C  C49  1  0.23785000  0.51749000  0.49966000  1.0
  C  C50  1  0.88307000  0.60181000  0.40344000  1.0
  C  C51  1  0.00903000  0.62545000  0.42243000  1.0
  C  C52  1  0.89368000  0.49940000  0.59149000  1.0
  C  C53  1  0.97387000  0.38788000  0.45692000  1.0
  C  C54  1  0.86881000  0.49401000  0.48330000  1.0
  C  C55  1  0.11556000  0.39496000  0.67255000  1.0
  C  C56  1  0.10736000  0.40998000  0.44747000  1.0
  C  C57  1  0.50642000  0.16494000  0.00891000  1.0
  C  C58  1  0.53676000  0.60913000  0.80698000  1.0
  C  C59  1  0.61122000  0.74156000  0.21403000  1.0
  C  C60  1  0.76299000  0.09339000  0.27767000  1.0
  C  C61  1  0.97431000  0.72285000  0.47158000  1.0
  C  C62  1  0.98293000  0.27818000  0.53088000  1.0
  C  C63  1  0.52457000  0.27374000  0.96033000  1.0
  C  C64  1  0.53522000  0.41728000  0.80531000  1.0
  C  C65  1  0.59713000  0.66372000  0.15953000  1.0
  C  C66  1  0.65964000  0.66962000  0.06435000  1.0
  C  C67  1  0.65492000  0.59715000  0.00503000  1.0
  N  N68  1  0.39565000  0.78589000  0.52823000  1.0
  N  N69  1  0.57497000  0.20701000  0.48628000  1.0
  N  N70  1  0.18251000  0.31433000  0.72994000  1.0
  N  N71  1  0.49142000  0.07547000  0.04702000  1.0
  N  N72  1  0.52563000  0.70492000  0.76273000  1.0
  N  N73  1  0.63534000  0.80723000  0.24918000  1.0
  N  N74  1  0.82771000  0.09341000  0.20462000  1.0
  N  N75  1  0.94100000  0.80012000  0.50992000  1.0
  N  N76  1  0.00075000  0.18903000  0.59030000  1.0
  O  O77  1  0.45495000  0.65289000  0.34258000  1.0
  O  O78  1  0.14354000  0.95839000  0.66563000  1.0
  O  O79  1  0.60122000  0.79255000  0.47502000  1.0
  O  O80  1  0.43039000  0.21742000  0.66186000  1.0
  O  O81  1  0.06817000  0.65571000  0.32634000  1.0
  O  O82  1  0.49521000  0.46141000  0.36011000  1.0
  O  O83  1  0.63839000  0.57232000  0.49997000  1.0
  O  O84  1  0.72015000  0.39471000  0.46895000  1.0
  O  O85  1  0.43582000  0.54916000  0.65136000  1.0
  O  O86  1  0.57816000  0.37177000  0.64783000  1.0
  O  O87  1  0.24831000  0.61842000  0.48191000  1.0
  O  O88  1  0.32768000  0.42153000  0.52428000  1.0
  O  O89  1  0.73015000  0.59009000  0.92053000  1.0
