# generated using pymatgen
data_ZnH9C14NO5
_symmetry_space_group_name_H-M   'P 1'
_cell_length_a   7.74673000
_cell_length_b   11.74820000
_cell_length_c   13.92110000
_cell_angle_alpha   90.00000000
_cell_angle_beta   90.00000000
_cell_angle_gamma   92.59150000
_symmetry_Int_Tables_number   1
_chemical_formula_structural   ZnH9C14NO5
_chemical_formula_sum   'Zn4 H36 C56 N4 O20'
_cell_volume   1265.66543216
_cell_formula_units_Z   4
loop_
 _symmetry_equiv_pos_site_id
 _symmetry_equiv_pos_as_xyz
  1  'x, y, z'
loop_
 _atom_site_type_symbol
 _atom_site_label
 _atom_site_symmetry_multiplicity
 _atom_site_fract_x
 _atom_site_fract_y
 _atom_site_fract_z
 _atom_site_occupancy
  Zn  Zn0  1  0.84638000  0.44818000  0.44689000  1.0
  Zn  Zn1  1  0.65362000  0.05182000  0.94689000  1.0
  Zn  Zn2  1  0.15362000  0.55182000  0.55310000  1.0
  Zn  Zn3  1  0.34638000  0.94818000  0.05311000  1.0
  H  H4  1  0.86525000  0.15747000  0.57397000  1.0
  H  H5  1  0.63474000  0.34253000  0.07397000  1.0
  H  H6  1  0.13474000  0.84254000  0.42603000  1.0
  H  H7  1  0.36526000  0.65746000  0.92603000  1.0
  H  H8  1  0.30952000  0.25271000  0.74437000  1.0
  H  H9  1  0.19048000  0.24730000  0.24437000  1.0
  H  H10  1  0.69047000  0.74730000  0.25563000  1.0
  H  H11  1  0.80953000  0.75270000  0.75563000  1.0
  H  H12  1  0.68973000  0.80376000  0.47846000  1.0
  H  H13  1  0.81027000  0.69624000  0.97845000  1.0
  H  H14  1  0.31027000  0.19624000  0.52154000  1.0
  H  H15  1  0.18974000  0.30376000  0.02154000  1.0
  H  H16  1  0.49293000  0.62913000  0.47065000  1.0
  H  H17  1  0.00708000  0.87087000  0.97065000  1.0
  H  H18  1  0.50708000  0.37087000  0.52935000  1.0
  H  H19  1  0.99292000  0.12913000  0.02935000  1.0
  H  H20  1  0.70894000  0.01143000  0.53250000  1.0
  H  H21  1  0.79105000  0.48857000  0.03249000  1.0
  H  H22  1  0.29106000  0.98857000  0.46750000  1.0
  H  H23  1  0.20895000  0.51143000  0.96750000  1.0
  H  H24  1  0.60604000  0.05030000  0.64264000  1.0
  H  H25  1  0.89395000  0.44970000  0.14263000  1.0
  H  H26  1  0.39396000  0.94971000  0.35736000  1.0
  H  H27  1  0.10605000  0.55030000  0.85736000  1.0
  H  H28  1  0.37726000  0.92355000  0.71005000  1.0
  H  H29  1  0.12274000  0.57645000  0.21005000  1.0
  H  H30  1  0.62275000  0.07645000  0.28995000  1.0
  H  H31  1  0.87725000  0.42355000  0.78996000  1.0
  H  H32  1  0.18697000  0.74573000  0.69074000  1.0
  H  H33  1  0.31303000  0.75426000  0.19075000  1.0
  H  H34  1  0.81304000  0.25427000  0.30926000  1.0
  H  H35  1  0.68696000  0.24574000  0.80926000  1.0
  H  H36  1  0.03360000  0.93034000  0.79555000  1.0
  H  H37  1  0.46641000  0.56966000  0.29554000  1.0
  H  H38  1  0.96639000  0.06966000  0.20446000  1.0
  H  H39  1  0.53360000  0.43034000  0.70445000  1.0
  C  C40  1  0.09082000  0.32642000  0.60234000  1.0
  C  C41  1  0.40917000  0.17358000  0.10234000  1.0
  C  C42  1  0.90918000  0.67358000  0.39766000  1.0
  C  C43  1  0.59082000  0.82642000  0.89766000  1.0
  C  C44  1  0.08790000  0.21409000  0.65405000  1.0
  C  C45  1  0.41210000  0.28591000  0.15405000  1.0
  C  C46  1  0.91210000  0.78591000  0.34595000  1.0
  C  C47  1  0.58790000  0.71409000  0.84596000  1.0
  C  C48  1  0.95453000  0.13434000  0.63017000  1.0
  C  C49  1  0.54547000  0.36565000  0.13017000  1.0
  C  C50  1  0.04547000  0.86566000  0.36983000  1.0
  C  C51  1  0.45454000  0.63434000  0.86983000  1.0
  C  C52  1  0.20769000  0.18994000  0.72536000  1.0
  C  C53  1  0.29231000  0.31006000  0.22536000  1.0
  C  C54  1  0.79231000  0.81006000  0.27464000  1.0
  C  C55  1  0.70769000  0.68994000  0.77464000  1.0
  C  C56  1  0.93905000  0.03062000  0.67883000  1.0
  C  C57  1  0.56095000  0.46939000  0.17883000  1.0
  C  C58  1  0.06094000  0.96939000  0.32117000  1.0
  C  C59  1  0.43906000  0.53061000  0.82117000  1.0
  C  C60  1  0.58050000  0.79366000  0.52735000  1.0
  C  C61  1  0.91950000  0.70634000  0.02735000  1.0
  C  C62  1  0.41950000  0.20634000  0.47265000  1.0
  C  C63  1  0.08050000  0.29366000  0.97265000  1.0
  C  C64  1  0.47148000  0.69662000  0.52226000  1.0
  C  C65  1  0.02852000  0.80338000  0.02226000  1.0
  C  C66  1  0.52853000  0.30338000  0.47774000  1.0
  C  C67  1  0.97148000  0.19662000  0.97774000  1.0
  C  C68  1  0.54875000  0.87744000  0.59544000  1.0
  C  C69  1  0.95125000  0.62255000  0.09543000  1.0
  C  C70  1  0.45126000  0.12256000  0.40456000  1.0
  C  C71  1  0.04875000  0.37744000  0.90457000  1.0
  C  C72  1  0.66849000  0.98103000  0.60437000  1.0
  C  C73  1  0.83151000  0.51897000  0.10436000  1.0
  C  C74  1  0.33150000  0.01897000  0.39563000  1.0
  C  C75  1  0.16849000  0.48102000  0.89563000  1.0
  C  C76  1  0.40622000  0.86039000  0.65597000  1.0
  C  C77  1  0.09378000  0.63961000  0.15597000  1.0
  C  C78  1  0.59379000  0.13961000  0.34403000  1.0
  C  C79  1  0.90621000  0.36039000  0.84403000  1.0
  C  C80  1  0.30126000  0.76188000  0.64624000  1.0
  C  C81  1  0.19874000  0.73812000  0.14624000  1.0
  C  C82  1  0.69874000  0.23812000  0.35376000  1.0
  C  C83  1  0.80126000  0.26188000  0.85376000  1.0
  C  C84  1  0.30721000  0.05979000  0.85695000  1.0
  C  C85  1  0.19279000  0.44021000  0.35695000  1.0
  C  C86  1  0.69278000  0.94021000  0.14305000  1.0
  C  C87  1  0.80721000  0.55979000  0.64305000  1.0
  C  C88  1  0.18775000  0.08698000  0.77595000  1.0
  C  C89  1  0.31225000  0.41302000  0.27595000  1.0
  C  C90  1  0.81224000  0.91302000  0.22405000  1.0
  C  C91  1  0.68775000  0.58698000  0.72405000  1.0
  C  C92  1  0.05303000  0.00826000  0.75382000  1.0
  C  C93  1  0.44697000  0.49174000  0.25382000  1.0
  C  C94  1  0.94697000  0.99174000  0.24618000  1.0
  C  C95  1  0.55303000  0.50826000  0.74618000  1.0
  N  N96  1  0.33368000  0.68112000  0.58075000  1.0
  N  N97  1  0.16633000  0.81888000  0.08075000  1.0
  N  N98  1  0.66633000  0.31888000  0.41925000  1.0
  N  N99  1  0.83367000  0.18112000  0.91925000  1.0
  O  O100  1  0.97350000  0.33735000  0.53989000  1.0
  O  O101  1  0.52649000  0.16265000  0.03988000  1.0
  O  O102  1  0.02650000  0.66265000  0.46011000  1.0
  O  O103  1  0.47350000  0.83735000  0.96011000  1.0
  O  O104  1  0.23748000  0.00953000  0.92896000  1.0
  O  O105  1  0.26253000  0.49048000  0.42896000  1.0
  O  O106  1  0.76251000  0.99047000  0.07105000  1.0
  O  O107  1  0.73748000  0.50953000  0.57104000  1.0
  O  O108  1  0.46722000  0.08717000  0.84590000  1.0
  O  O109  1  0.03278000  0.41283000  0.34591000  1.0
  O  O110  1  0.53277000  0.91284000  0.15410000  1.0
  O  O111  1  0.96722000  0.58717000  0.65409000  1.0
  O  O112  1  0.81574000  0.94694000  0.65863000  1.0
  O  O113  1  0.68427000  0.55306000  0.15862000  1.0
  O  O114  1  0.18426000  0.05306000  0.34137000  1.0
  O  O115  1  0.31574000  0.44694000  0.84137000  1.0
  O  O116  1  0.20660000  0.40308000  0.62405000  1.0
  O  O117  1  0.29340000  0.09692000  0.12405000  1.0
  O  O118  1  0.79341000  0.59692000  0.37595000  1.0
  O  O119  1  0.70660000  0.90308000  0.87595000  1.0
