# generated using pymatgen
data_Zn2H22C21N2O11
_symmetry_space_group_name_H-M   'P 1'
_cell_length_a   7.32456000
_cell_length_b   8.91303000
_cell_length_c   15.90738500
_cell_angle_alpha   92.65013311
_cell_angle_beta   100.90764566
_cell_angle_gamma   93.23170000
_symmetry_Int_Tables_number   1
_chemical_formula_structural   Zn2H22C21N2O11
_chemical_formula_sum   'Zn2 H22 C21 N2 O11'
_cell_volume   1016.39787208
_cell_formula_units_Z   1
loop_
 _symmetry_equiv_pos_site_id
 _symmetry_equiv_pos_as_xyz
  1  'x, y, z'
loop_
 _atom_site_type_symbol
 _atom_site_label
 _atom_site_symmetry_multiplicity
 _atom_site_fract_x
 _atom_site_fract_y
 _atom_site_fract_z
 _atom_site_occupancy
  Zn  Zn0  1  0.83654000  0.51631000  0.53594000  1.0
  Zn  Zn1  1  0.15544000  0.48570000  0.46301000  1.0
  H  H2  1  0.36078000  0.66101000  0.10226000  1.0
  H  H3  1  0.66709000  0.72937000  0.05881000  1.0
  H  H4  1  0.83623000  0.59373000  0.05826000  1.0
  H  H5  1  0.30249000  0.29837000  0.94405000  1.0
  H  H6  1  0.50362000  0.26053000  0.07505000  1.0
  H  H7  1  0.11616000  0.79588000  0.02643000  1.0
  H  H8  1  0.02627000  0.75399000  0.91450000  1.0
  H  H9  1  0.16607000  0.92563000  0.94991000  1.0
  H  H10  1  0.76496000  0.60786000  0.79663000  1.0
  H  H11  1  0.67284000  0.41543000  0.79130000  1.0
  H  H12  1  0.91919000  0.46015000  0.81796000  1.0
  H  H13  1  0.16461000  0.53213000  0.94396000  1.0
  H  H14  1  0.32642000  0.06634000  0.87419000  1.0
  H  H15  1  0.53311000  0.05257000  0.95407000  1.0
  H  H16  1  0.54374000  0.03457000  0.84266000  1.0
  H  H17  1  0.27165000  0.47087000  0.08510000  1.0
  H  H18  1  0.70578000  0.31566000  0.03379000  1.0
  H  H19  1  0.18888000  0.99741000  0.47499000  1.0
  H  H20  1  0.80092000  0.00454000  0.52401000  1.0
  H  H21  1  0.51390000  0.48741000  0.41398000  1.0
  H  H22  1  0.47754000  0.51072000  0.58465000  1.0
  H  H23  1  0.62957000  0.69888000  0.90966000  1.0
  C  C24  1  0.03402000  0.78892000  0.49754000  1.0
  C  C25  1  0.92989000  0.04759000  0.50631000  1.0
  C  C26  1  0.16116000  0.51143000  0.66684000  1.0
  C  C27  1  0.95578000  0.21304000  0.50135000  1.0
  C  C28  1  0.83334000  0.49274000  0.33193000  1.0
  C  C29  1  0.30716000  0.58206000  0.96832000  1.0
  C  C30  1  0.63756000  0.58994000  0.94001000  1.0
  C  C31  1  0.68819000  0.61344000  0.03814000  1.0
  C  C32  1  0.72959000  0.49598000  0.24555000  1.0
  C  C33  1  0.43940000  0.50484000  0.91564000  1.0
  C  C34  1  0.14603000  0.80607000  0.96136000  1.0
  C  C35  1  0.36686000  0.55541000  0.06470000  1.0
  C  C36  1  0.78278000  0.49773000  0.82505000  1.0
  C  C37  1  0.47855000  0.09322000  0.89022000  1.0
  C  C38  1  0.56771000  0.50337000  0.08123000  1.0
  C  C39  1  0.56307000  0.34360000  0.03715000  1.0
  C  C40  1  0.44807000  0.34095000  0.94495000  1.0
  C  C41  1  0.64870000  0.49997000  0.17159000  1.0
  C  C42  1  0.35418000  0.50689000  0.82572000  1.0
  C  C43  1  0.26605000  0.51102000  0.75309000  1.0
  C  C44  1  0.05939000  0.95427000  0.49214000  1.0
  N  N45  1  0.43976000  0.49034000  0.46477000  1.0
  N  N46  1  0.55186000  0.50900000  0.53391000  1.0
  O  O47  1  0.88672000  0.73514000  0.52015000  1.0
  O  O48  1  0.78366000  0.51010000  0.91513000  1.0
  O  O49  1  0.52193000  0.24984000  0.88551000  1.0
  O  O50  1  0.16413000  0.71295000  0.47806000  1.0
  O  O51  1  0.98728000  0.52945000  0.65808000  1.0
  O  O52  1  0.24870000  0.49253000  0.60524000  1.0
  O  O53  1  0.83642000  0.28979000  0.52992000  1.0
  O  O54  1  0.09252000  0.26571000  0.47018000  1.0
  O  O55  1  0.74297000  0.49301000  0.39326000  1.0
  O  O56  1  0.00974000  0.49016000  0.34073000  1.0
  O  O57  1  0.31345000  0.73863000  0.95195000  1.0
