# generated using pymatgen
data_CuH10C6N2O5
_symmetry_space_group_name_H-M   'P 1'
_cell_length_a   7.05836000
_cell_length_b   7.62030000
_cell_length_c   9.31881050
_cell_angle_alpha   113.78120034
_cell_angle_beta   112.10227304
_cell_angle_gamma   90.38900000
_symmetry_Int_Tables_number   1
_chemical_formula_structural   CuH10C6N2O5
_chemical_formula_sum   'Cu2 H20 C12 N4 O10'
_cell_volume   417.47148975
_cell_formula_units_Z   2
loop_
 _symmetry_equiv_pos_site_id
 _symmetry_equiv_pos_as_xyz
  1  'x, y, z'
loop_
 _atom_site_type_symbol
 _atom_site_label
 _atom_site_symmetry_multiplicity
 _atom_site_fract_x
 _atom_site_fract_y
 _atom_site_fract_z
 _atom_site_occupancy
  Cu  Cu0  1  0.81469000  0.81423000  0.62995000  1.0
  Cu  Cu1  1  0.18446000  0.18449000  0.36976000  1.0
  H  H2  1  0.44836000  0.39346000  0.78625000  1.0
  H  H3  1  0.66115000  0.60467000  0.21379000  1.0
  H  H4  1  0.72741000  0.44402000  0.88456000  1.0
  H  H5  1  0.84151000  0.55821000  0.11519000  1.0
  H  H6  1  0.47133000  0.83989000  0.45830000  1.0
  H  H7  1  0.01380000  0.16102000  0.54363000  1.0
  H  H8  1  0.01254000  0.37914000  0.54134000  1.0
  H  H9  1  0.46959000  0.61971000  0.45653000  1.0
  H  H10  1  0.96865000  0.11753000  0.99966000  1.0
  H  H11  1  0.96771000  0.88146000  0.00035000  1.0
  H  H12  1  0.13059000  0.19756000  0.84422000  1.0
  H  H13  1  0.28455000  0.80231000  0.15617000  1.0
  H  H14  1  0.28626000  0.35260000  0.15506000  1.0
  H  H15  1  0.12890000  0.64712000  0.84495000  1.0
  H  H16  1  0.25463000  0.02569000  0.73042000  1.0
  H  H17  1  0.52317000  0.97530000  0.26985000  1.0
  H  H18  1  0.52421000  0.29425000  0.26939000  1.0
  H  H19  1  0.25346000  0.70658000  0.73082000  1.0
  H  H20  1  0.56912000  0.94378000  0.88511000  1.0
  H  H21  1  0.68422000  0.05818000  0.11505000  1.0
  C  C22  1  0.59002000  0.16713000  0.66700000  1.0
  C  C23  1  0.92258000  0.83290000  0.33436000  1.0
  C  C24  1  0.92247000  0.49631000  0.33244000  1.0
  C  C25  1  0.58910000  0.50221000  0.66578000  1.0
  C  C26  1  0.59020000  0.38268000  0.76264000  1.0
  C  C27  1  0.82656000  0.61709000  0.23715000  1.0
  C  C28  1  0.05597000  0.99963000  0.00003000  1.0
  C  C29  1  0.22348000  0.08312000  0.84605000  1.0
  C  C30  1  0.37633000  0.91725000  0.15417000  1.0
  C  C31  1  0.37739000  0.23646000  0.15363000  1.0
  C  C32  1  0.22239000  0.76391000  0.84657000  1.0
  C  C33  1  0.53627000  0.00076000  0.00011000  1.0
  N  N34  1  0.09570000  0.92057000  0.84115000  1.0
  N  N35  1  0.25465000  0.07910000  0.15898000  1.0
  N  N36  1  0.41876000  0.15976000  0.99986000  1.0
  N  N37  1  0.41771000  0.84112000  0.00039000  1.0
  O  O38  1  0.74214000  0.10170000  0.74131000  1.0
  O  O39  1  0.99927000  0.90136000  0.26022000  1.0
  O  O40  1  0.00203000  0.35806000  0.25847000  1.0
  O  O41  1  0.74132000  0.64365000  0.73984000  1.0
  O  O42  1  0.43787000  0.06339000  0.52203000  1.0
  O  O43  1  0.91766000  0.93461000  0.48034000  1.0
  O  O44  1  0.91428000  0.53574000  0.47661000  1.0
  O  O45  1  0.43758000  0.45974000  0.52081000  1.0
  O  O46  1  0.53475000  0.71804000  0.43293000  1.0
  O  O47  1  0.10201000  0.28253000  0.56681000  1.0
