# generated using pymatgen
data_CuH16C14NO4
_symmetry_space_group_name_H-M   'P 1'
_cell_length_a   11.12620000
_cell_length_b   12.00930000
_cell_length_c   12.06260000
_cell_angle_alpha   71.37670000
_cell_angle_beta   63.08530000
_cell_angle_gamma   63.20760000
_symmetry_Int_Tables_number   1
_chemical_formula_structural   CuH16C14NO4
_chemical_formula_sum   'Cu4 H64 C56 N4 O16'
_cell_volume   1269.37239460
_cell_formula_units_Z   4
loop_
 _symmetry_equiv_pos_site_id
 _symmetry_equiv_pos_as_xyz
  1  'x, y, z'
loop_
 _atom_site_type_symbol
 _atom_site_label
 _atom_site_symmetry_multiplicity
 _atom_site_fract_x
 _atom_site_fract_y
 _atom_site_fract_z
 _atom_site_occupancy
  Cu  Cu0  1  0.75020000  0.61561000  0.38393000  1.0
  Cu  Cu1  1  0.24980000  0.38443000  0.61603000  1.0
  Cu  Cu2  1  0.75028000  0.80123000  0.19920000  1.0
  Cu  Cu3  1  0.24972000  0.19874000  0.80081000  1.0
  H  H4  1  0.61703000  0.41065000  0.50314000  1.0
  H  H5  1  0.88325000  0.49773000  0.58804000  1.0
  H  H6  1  0.38295000  0.58938000  0.49687000  1.0
  H  H7  1  0.11678000  0.50227000  0.41196000  1.0
  H  H8  1  0.60849000  0.23322000  0.68090000  1.0
  H  H9  1  0.89117000  0.32027000  0.76569000  1.0
  H  H10  1  0.39151000  0.76680000  0.31911000  1.0
  H  H11  1  0.10884000  0.67972000  0.23430000  1.0
  H  H12  1  0.96974000  0.91227000  0.98548000  1.0
  H  H13  1  0.53004000  0.01432000  0.08855000  1.0
  H  H14  1  0.03024000  0.08777000  0.01453000  1.0
  H  H15  1  0.46995000  0.98567000  0.91140000  1.0
  H  H16  1  0.97990000  0.08985000  0.80843000  1.0
  H  H17  1  0.52005000  0.19075000  0.91046000  1.0
  H  H18  1  0.02007000  0.91019000  0.19157000  1.0
  H  H19  1  0.47997000  0.80925000  0.08950000  1.0
  H  H20  1  0.36865000  0.95514000  0.56080000  1.0
  H  H21  1  0.13115000  0.43861000  0.04501000  1.0
  H  H22  1  0.63141000  0.04480000  0.43916000  1.0
  H  H23  1  0.86879000  0.56142000  0.95505000  1.0
  H  H24  1  0.27340000  0.89205000  0.53271000  1.0
  H  H25  1  0.22686000  0.46705000  0.10712000  1.0
  H  H26  1  0.72659000  0.10795000  0.46725000  1.0
  H  H27  1  0.77316000  0.53297000  0.89288000  1.0
  H  H28  1  0.06910000  0.22583000  0.47232000  1.0
  H  H29  1  0.43089000  0.52811000  0.77437000  1.0
  H  H30  1  0.93096000  0.77421000  0.52765000  1.0
  H  H31  1  0.56906000  0.47190000  0.22560000  1.0
  H  H32  1  0.07891000  0.08396000  0.58135000  1.0
  H  H33  1  0.42081000  0.41833000  0.91551000  1.0
  H  H34  1  0.92103000  0.91610000  0.41859000  1.0
  H  H35  1  0.57925000  0.58171000  0.08445000  1.0
  H  H36  1  0.39342000  0.19123000  0.39562000  1.0
  H  H37  1  0.10623000  0.60393000  0.80989000  1.0
  H  H38  1  0.60657000  0.80876000  0.60441000  1.0
  H  H39  1  0.89379000  0.39603000  0.19011000  1.0
  H  H40  1  0.48154000  0.08656000  0.28419000  1.0
  H  H41  1  0.01819000  0.71592000  0.91401000  1.0
  H  H42  1  0.51847000  0.91344000  0.71583000  1.0
  H  H43  1  0.98180000  0.28404000  0.08599000  1.0
  H  H44  1  0.13152000  0.04013000  0.36281000  1.0
  H  H45  1  0.36833000  0.63808000  0.95915000  1.0
  H  H46  1  0.86847000  0.95989000  0.63719000  1.0
  H  H47  1  0.63168000  0.36190000  0.04084000  1.0
  H  H48  1  0.31645000  0.98734000  0.26502000  1.0
  H  H49  1  0.18343000  0.73589000  0.01202000  1.0
  H  H50  1  0.68353000  0.01267000  0.73498000  1.0
  H  H51  1  0.81658000  0.26410000  0.98797000  1.0
  H  H52  1  0.38106000  0.27326000  0.15972000  1.0
  H  H53  1  0.11906000  0.84067000  0.72727000  1.0
  H  H54  1  0.61895000  0.72673000  0.84031000  1.0
  H  H55  1  0.88092000  0.15931000  0.27277000  1.0
  H  H56  1  0.22960000  0.33626000  0.29101000  1.0
  H  H57  1  0.27033000  0.70878000  0.66480000  1.0
  H  H58  1  0.77042000  0.66375000  0.70901000  1.0
  H  H59  1  0.72965000  0.29121000  0.33520000  1.0
  H  H60  1  0.24711000  0.18031000  0.13431000  1.0
  H  H61  1  0.25298000  0.86693000  0.81924000  1.0
  H  H62  1  0.75287000  0.81973000  0.86572000  1.0
  H  H63  1  0.74707000  0.13304000  0.18073000  1.0
  H  H64  1  0.09736000  0.25458000  0.25878000  1.0
  H  H65  1  0.40259000  0.74192000  0.74538000  1.0
  H  H66  1  0.90262000  0.74546000  0.74125000  1.0
  H  H67  1  0.59743000  0.25802000  0.25460000  1.0
  C  C68  1  0.67577000  0.38794000  0.56404000  1.0
  C  C69  1  0.82449000  0.43632000  0.61122000  1.0
  C  C70  1  0.32423000  0.61209000  0.43595000  1.0
  C  C71  1  0.17552000  0.56369000  0.38877000  1.0
  C  C72  1  0.67184000  0.28880000  0.66288000  1.0
  C  C73  1  0.82806000  0.33764000  0.71049000  1.0
  C  C74  1  0.32816000  0.71123000  0.33712000  1.0
  C  C75  1  0.17195000  0.66237000  0.28950000  1.0
  C  C76  1  0.74994000  0.26140000  0.73846000  1.0
  C  C77  1  0.25005000  0.73862000  0.26153000  1.0
  C  C78  1  0.87235000  0.97792000  0.96650000  1.0
  C  C79  1  0.62748000  0.03340000  0.02260000  1.0
  C  C80  1  0.12763000  0.02211000  0.03350000  1.0
  C  C81  1  0.37252000  0.96659000  0.97737000  1.0
  C  C82  1  0.87724000  0.07662000  0.86719000  1.0
  C  C83  1  0.62266000  0.13237000  0.92359000  1.0
  C  C84  1  0.12274000  0.92341000  0.13281000  1.0
  C  C85  1  0.37734000  0.86763000  0.07638000  1.0
  C  C86  1  0.74994000  0.15621000  0.84363000  1.0
  C  C87  1  0.25005000  0.84381000  0.15636000  1.0
  C  C88  1  0.49147000  0.85055000  0.40961000  1.0
  C  C89  1  0.00885000  0.59040000  0.14922000  1.0
  C  C90  1  0.50854000  0.14944000  0.59035000  1.0
  C  C91  1  0.99114000  0.40963000  0.85081000  1.0
  C  C92  1  0.34904000  0.94279000  0.48454000  1.0
  C  C93  1  0.15103000  0.51522000  0.05697000  1.0
  C  C94  1  0.65096000  0.05719000  0.51543000  1.0
  C  C95  1  0.84896000  0.48479000  0.94304000  1.0
  C  C96  1  0.27752000  0.07163000  0.41731000  1.0
  C  C97  1  0.22235000  0.58279000  0.92837000  1.0
  C  C98  1  0.72248000  0.92837000  0.58269000  1.0
  C  C99  1  0.77765000  0.41720000  0.07163000  1.0
  C  C100  1  0.13846000  0.14661000  0.51871000  1.0
  C  C101  1  0.36139000  0.48134000  0.85324000  1.0
  C  C102  1  0.86154000  0.85340000  0.48129000  1.0
  C  C103  1  0.63861000  0.51864000  0.14675000  1.0
  C  C104  1  0.17108000  0.19979000  0.59605000  1.0
  C  C105  1  0.32866000  0.40396000  0.80005000  1.0
  C  C106  1  0.82891000  0.80017000  0.40400000  1.0
  C  C107  1  0.67136000  0.59598000  0.19998000  1.0
  C  C108  1  0.37580000  0.14932000  0.33839000  1.0
  C  C109  1  0.12392000  0.66159000  0.85136000  1.0
  C  C110  1  0.62420000  0.85067000  0.66163000  1.0
  C  C111  1  0.87609000  0.33838000  0.14865000  1.0
  C  C112  1  0.22992000  0.06337000  0.31890000  1.0
  C  C113  1  0.26995000  0.68184000  0.93622000  1.0
  C  C114  1  0.77007000  0.93665000  0.68111000  1.0
  C  C115  1  0.73005000  0.31813000  0.06377000  1.0
  C  C116  1  0.30129000  0.24892000  0.24953000  1.0
  C  C117  1  0.19863000  0.75071000  0.75168000  1.0
  C  C118  1  0.69871000  0.75109000  0.75049000  1.0
  C  C119  1  0.80137000  0.24926000  0.24832000  1.0
  C  C120  1  0.21131000  0.19154000  0.23253000  1.0
  C  C121  1  0.28862000  0.76828000  0.80837000  1.0
  C  C122  1  0.78867000  0.80848000  0.76750000  1.0
  C  C123  1  0.71140000  0.23169000  0.19161000  1.0
  N  N124  1  0.75026000  0.46130000  0.53832000  1.0
  N  N125  1  0.24974000  0.53871000  0.46168000  1.0
  N  N126  1  0.74989000  0.95645000  0.04400000  1.0
  N  N127  1  0.25010000  0.04356000  0.95598000  1.0
  O  O128  1  0.54577000  0.88210000  0.29064000  1.0
  O  O129  1  0.95477000  0.70979000  0.11799000  1.0
  O  O130  1  0.45426000  0.11794000  0.70933000  1.0
  O  O131  1  0.04519000  0.29023000  0.88197000  1.0
  O  O132  1  0.54750000  0.74773000  0.47145000  1.0
  O  O133  1  0.95281000  0.52825000  0.25185000  1.0
  O  O134  1  0.45250000  0.25224000  0.52850000  1.0
  O  O135  1  0.04723000  0.47180000  0.74822000  1.0
  O  O136  1  0.20372000  0.12924000  0.69008000  1.0
  O  O137  1  0.29589000  0.30946000  0.87027000  1.0
  O  O138  1  0.79631000  0.87070000  0.30993000  1.0
  O  O139  1  0.70407000  0.69052000  0.12979000  1.0
  O  O140  1  0.16640000  0.31356000  0.55683000  1.0
  O  O141  1  0.33333333  0.44361000  0.68677000  1.0
  O  O142  1  0.83354000  0.68642000  0.44326000  1.0
  O  O143  1  0.66679000  0.55628000  0.31324000  1.0
