# generated using pymatgen
data_CuPH22(C5O)4
_symmetry_space_group_name_H-M   'P 1'
_cell_length_a   8.46125000
_cell_length_b   10.16760000
_cell_length_c   11.15170000
_cell_angle_alpha   84.30880000
_cell_angle_beta   86.49680000
_cell_angle_gamma   81.38530000
_symmetry_Int_Tables_number   1
_chemical_formula_structural   CuPH22(C5O)4
_chemical_formula_sum   'Cu2 P2 H44 C40 O8'
_cell_volume   942.84450052
_cell_formula_units_Z   2
loop_
 _symmetry_equiv_pos_site_id
 _symmetry_equiv_pos_as_xyz
  1  'x, y, z'
loop_
 _atom_site_type_symbol
 _atom_site_label
 _atom_site_symmetry_multiplicity
 _atom_site_fract_x
 _atom_site_fract_y
 _atom_site_fract_z
 _atom_site_occupancy
  Cu  Cu0  1  0.50000000  0.50000000  0.50000000  1.0
  Cu  Cu1  1  0.00000000  0.50000000  0.50000000  1.0
  P  P2  1  0.76485000  0.37904000  0.67594000  1.0
  P  P3  1  0.23515000  0.62096000  0.32406000  1.0
  H  H4  1  0.23052000  0.62290000  0.85575000  1.0
  H  H5  1  0.76948000  0.37710000  0.14425000  1.0
  H  H6  1  0.42037000  0.18760000  0.36111000  1.0
  H  H7  1  0.57963000  0.81239000  0.63889000  1.0
  H  H8  1  0.80207000  0.25748000  0.47397000  1.0
  H  H9  1  0.19793000  0.74251000  0.52603000  1.0
  H  H10  1  0.67060000  0.29627000  0.35346000  1.0
  H  H11  1  0.32940000  0.70373000  0.64654000  1.0
  H  H12  1  0.76192000  0.13011000  0.38903000  1.0
  H  H13  1  0.23808000  0.86988000  0.61097000  1.0
  H  H14  1  0.77842000  0.87818000  0.87577000  1.0
  H  H15  1  0.22158000  0.12182000  0.12422000  1.0
  H  H16  1  0.19729000  0.10311000  0.71051000  1.0
  H  H17  1  0.80270000  0.89689000  0.28949000  1.0
  H  H18  1  0.11874000  0.88238000  0.98150000  1.0
  H  H19  1  0.88126000  0.11763000  0.01850000  1.0
  H  H20  1  0.02988000  0.97501000  0.85312000  1.0
  H  H21  1  0.97012000  0.02499000  0.14688000  1.0
  H  H22  1  0.21833000  0.87016000  0.83835000  1.0
  H  H23  1  0.78167000  0.12984000  0.16165000  1.0
  H  H24  1  0.53832000  0.64208000  0.79454000  1.0
  H  H25  1  0.46168000  0.35792000  0.20546000  1.0
  H  H26  1  0.53521000  0.79549000  0.86010000  1.0
  H  H27  1  0.46479000  0.20451000  0.13990000  1.0
  H  H28  1  0.53807000  0.64293000  0.95239000  1.0
  H  H29  1  0.46193000  0.35707000  0.04760000  1.0
  H  H30  1  0.05393000  0.31050000  0.84090000  1.0
  H  H31  1  0.94608000  0.68951000  0.15910000  1.0
  H  H32  1  0.21691000  0.37531000  0.89373000  1.0
  H  H33  1  0.78310000  0.62470000  0.10627000  1.0
  H  H34  1  0.18470000  0.38948000  0.73701000  1.0
  H  H35  1  0.81531000  0.61052000  0.26299000  1.0
  H  H36  1  0.52243000  0.02694000  0.87738000  1.0
  H  H37  1  0.47757000  0.97306000  0.12262000  1.0
  H  H38  1  0.32394000  0.11322000  0.88696000  1.0
  H  H39  1  0.67606000  0.88678000  0.11304000  1.0
  H  H40  1  0.49135000  0.20115000  0.88383000  1.0
  H  H41  1  0.50864000  0.79885000  0.11617000  1.0
  H  H42  1  0.09204000  0.22197000  0.41982000  1.0
  H  H43  1  0.90796000  0.77803000  0.58018000  1.0
  H  H44  1  0.05023000  0.09860000  0.53682000  1.0
  H  H45  1  0.94977000  0.90140000  0.46317000  1.0
  H  H46  1  0.16656000  0.05298000  0.40412000  1.0
  H  H47  1  0.83345000  0.94702000  0.59588000  1.0
  C  C48  1  0.56566000  0.19440000  0.51085000  1.0
  C  C49  1  0.43433000  0.80560000  0.48915000  1.0
  C  C50  1  0.76476000  0.67103000  0.86019000  1.0
  C  C51  1  0.23524000  0.32897000  0.13981000  1.0
  C  C52  1  0.85589000  0.54447000  0.84536000  1.0
  C  C53  1  0.14411000  0.45553000  0.15465000  1.0
  C  C54  1  0.10037000  0.63748000  0.85271000  1.0
  C  C55  1  0.89963000  0.36252000  0.14729000  1.0
  C  C56  1  0.01432000  0.76390000  0.86679000  1.0
  C  C57  1  0.98568000  0.23610000  0.13321000  1.0
  C  C58  1  0.02435000  0.52713000  0.83959000  1.0
  C  C59  1  0.97565000  0.47287000  0.16041000  1.0
  C  C60  1  0.57335000  0.17462000  0.63799000  1.0
  C  C61  1  0.42665000  0.82538000  0.36201000  1.0
  C  C62  1  0.42545000  0.17603000  0.45907000  1.0
  C  C63  1  0.57455000  0.82396000  0.54093000  1.0
  C  C64  1  0.76891000  0.43047000  0.83284000  1.0
  C  C65  1  0.23109000  0.56953000  0.16716000  1.0
  C  C66  1  0.44115000  0.13818000  0.71134000  1.0
  C  C67  1  0.55885000  0.86182000  0.28867000  1.0
  C  C68  1  0.70732000  0.22207000  0.42872000  1.0
  C  C69  1  0.29268000  0.77793000  0.57128000  1.0
  C  C70  1  0.29175000  0.14367000  0.52913000  1.0
  C  C71  1  0.70825000  0.85633000  0.47087000  1.0
  C  C72  1  0.84667000  0.77909000  0.86802000  1.0
  C  C73  1  0.15333000  0.22091000  0.13198000  1.0
  C  C74  1  0.71368000  0.20343000  0.69825000  1.0
  C  C75  1  0.28632000  0.79657000  0.30175000  1.0
  C  C76  1  0.30201000  0.12590000  0.65471000  1.0
  C  C77  1  0.69799000  0.87411000  0.34529000  1.0
  C  C78  1  0.09964000  0.87940000  0.88501000  1.0
  C  C79  1  0.90036000  0.12060000  0.11500000  1.0
  C  C80  1  0.58473000  0.68911000  0.86701000  1.0
  C  C81  1  0.41527000  0.31088000  0.13299000  1.0
  C  C82  1  0.12430000  0.39347000  0.82694000  1.0
  C  C83  1  0.87570000  0.60653000  0.17306000  1.0
  C  C84  1  0.44457000  0.11916000  0.84690000  1.0
  C  C85  1  0.55543000  0.88084000  0.15310000  1.0
  C  C86  1  0.14199000  0.12787000  0.47008000  1.0
  C  C87  1  0.85801000  0.87213000  0.52992000  1.0
  O  O88  1  0.67910000  0.38300000  0.91041000  1.0
  O  O89  1  0.32090000  0.61700000  0.08959000  1.0
  O  O90  1  0.79321000  0.12676000  0.77165000  1.0
  O  O91  1  0.20678000  0.87324000  0.22835000  1.0
  O  O92  1  0.62586000  0.48211000  0.63003000  1.0
  O  O93  1  0.37414000  0.51789000  0.36997000  1.0
  O  O94  1  0.92597000  0.37104000  0.60485000  1.0
  O  O95  1  0.07403000  0.62895000  0.39515000  1.0
