# generated using pymatgen
data_AgH6C8NO7
_symmetry_space_group_name_H-M   'P 1'
_cell_length_a   7.51077000
_cell_length_b   7.93652000
_cell_length_c   8.50809000
_cell_angle_alpha   78.52540000
_cell_angle_beta   74.03240000
_cell_angle_gamma   74.66860000
_symmetry_Int_Tables_number   1
_chemical_formula_structural   AgH6C8NO7
_chemical_formula_sum   'Ag2 H12 C16 N2 O14'
_cell_volume   465.86616764
_cell_formula_units_Z   2
loop_
 _symmetry_equiv_pos_site_id
 _symmetry_equiv_pos_as_xyz
  1  'x, y, z'
loop_
 _atom_site_type_symbol
 _atom_site_label
 _atom_site_symmetry_multiplicity
 _atom_site_fract_x
 _atom_site_fract_y
 _atom_site_fract_z
 _atom_site_occupancy
  Ag  Ag0  1  0.75399000  0.67162000  0.10285000  1.0
  Ag  Ag1  1  0.24601000  0.32838000  0.89715000  1.0
  H  H2  1  0.07353000  0.25564000  0.59848000  1.0
  H  H3  1  0.92647000  0.74436000  0.40153000  1.0
  H  H4  1  0.06714000  0.70794000  0.77770000  1.0
  H  H5  1  0.93286000  0.29206000  0.22230000  1.0
  H  H6  1  0.69266000  0.45235000  0.40865000  1.0
  H  H7  1  0.30734000  0.54765000  0.59135000  1.0
  H  H8  1  0.58841000  0.64959000  0.43026000  1.0
  H  H9  1  0.41159000  0.35040000  0.56974000  1.0
  H  H10  1  0.42443000  0.01785000  0.32431000  1.0
  H  H11  1  0.57557000  0.98215000  0.67569000  1.0
  H  H12  1  0.57882000  0.59251000  0.80395000  1.0
  H  H13  1  0.42119000  0.40748000  0.19605000  1.0
  C  C14  1  0.62263000  0.10559000  0.07521000  1.0
  C  C15  1  0.37737000  0.89441000  0.92479000  1.0
  C  C16  1  0.78416000  0.06194000  0.92631000  1.0
  C  C17  1  0.21585000  0.93806000  0.07369000  1.0
  C  C18  1  0.85423000  0.19817000  0.81368000  1.0
  C  C19  1  0.14577000  0.80182000  0.18632000  1.0
  C  C20  1  0.77875000  0.38899000  0.83666000  1.0
  C  C21  1  0.22125000  0.61101000  0.16335000  1.0
  C  C22  1  0.01141000  0.15346000  0.68452000  1.0
  C  C23  1  0.98859000  0.84654000  0.31548000  1.0
  C  C24  1  0.09213000  0.97548000  0.66966000  1.0
  C  C25  1  0.90787000  0.02452000  0.33034000  1.0
  C  C26  1  0.26334000  0.92139000  0.53572000  1.0
  C  C27  1  0.73667000  0.07861000  0.46428000  1.0
  C  C28  1  0.01088000  0.84827000  0.78492000  1.0
  C  C29  1  0.98912000  0.15173000  0.21508000  1.0
  N  N30  1  0.86173000  0.89103000  0.90993000  1.0
  N  N31  1  0.13827000  0.10897000  0.09007000  1.0
  O  O32  1  0.57035000  0.97838000  0.17976000  1.0
  O  O33  1  0.42964000  0.02162000  0.82024000  1.0
  O  O34  1  0.55501000  0.26755000  0.08357000  1.0
  O  O35  1  0.44499000  0.73245000  0.91643000  1.0
  O  O36  1  0.63851000  0.47156000  0.76516000  1.0
  O  O37  1  0.36149000  0.52844000  0.23484000  1.0
  O  O38  1  0.85988000  0.45926000  0.90584000  1.0
  O  O39  1  0.14012000  0.54074000  0.09416000  1.0
  O  O40  1  0.31015000  0.05414000  0.42740000  1.0
  O  O41  1  0.68985000  0.94586000  0.57259000  1.0
  O  O42  1  0.35016000  0.76439000  0.53145000  1.0
  O  O43  1  0.64985000  0.23561000  0.46855000  1.0
  O  O44  1  0.70970000  0.57476000  0.37812000  1.0
  O  O45  1  0.29030000  0.42523000  0.62188000  1.0
