# generated using pymatgen
data_U2H25C19SN12O17
_symmetry_space_group_name_H-M   'P 1'
_cell_length_a   12.04220000
_cell_length_b   12.12360000
_cell_length_c   12.69860000
_cell_angle_alpha   71.35100000
_cell_angle_beta   79.54460000
_cell_angle_gamma   75.14530000
_symmetry_Int_Tables_number   1
_chemical_formula_structural   U2H25C19SN12O17
_chemical_formula_sum   'U4 H50 C38 S2 N24 O34'
_cell_volume   1687.83428217
_cell_formula_units_Z   2
loop_
 _symmetry_equiv_pos_site_id
 _symmetry_equiv_pos_as_xyz
  1  'x, y, z'
loop_
 _atom_site_type_symbol
 _atom_site_label
 _atom_site_symmetry_multiplicity
 _atom_site_fract_x
 _atom_site_fract_y
 _atom_site_fract_z
 _atom_site_occupancy
  U  U0  1  0.04695000  0.00910000  0.84609000  1.0
  U  U1  1  0.95305000  0.99090000  0.15391000  1.0
  U  U2  1  0.96550000  0.35161000  0.59509000  1.0
  U  U3  1  0.03450000  0.64839000  0.40491000  1.0
  H  H4  1  0.85272000  0.16251000  0.73712000  1.0
  H  H5  1  0.14728000  0.83749000  0.26288000  1.0
  H  H6  1  0.09495000  0.81267000  0.04521000  1.0
  H  H7  1  0.90505000  0.18734000  0.95479000  1.0
  H  H8  1  0.87515000  0.58671000  0.60965000  1.0
  H  H9  1  0.12485000  0.41329000  0.39035000  1.0
  H  H10  1  0.71492000  0.43682000  0.68265000  1.0
  H  H11  1  0.28508000  0.56318000  0.31736000  1.0
  H  H12  1  0.79719000  0.44753000  0.75834000  1.0
  H  H13  1  0.20281000  0.55247000  0.24166000  1.0
  H  H14  1  0.93158000  0.11453000  0.53108000  1.0
  H  H15  1  0.06841000  0.88547000  0.46892000  1.0
  H  H16  1  0.01397000  0.11027000  0.39921000  1.0
  H  H17  1  0.98602000  0.88973000  0.60080000  1.0
  H  H18  1  0.41287000  0.88389000  0.54443000  1.0
  H  H19  1  0.58713000  0.11611000  0.45557000  1.0
  H  H20  1  0.27959000  0.75953000  0.54897000  1.0
  H  H21  1  0.72041000  0.24047000  0.45104000  1.0
  H  H22  1  0.08745000  0.73602000  0.80462000  1.0
  H  H23  1  0.91255000  0.26398000  0.19538000  1.0
  H  H24  1  0.11344000  0.68742000  0.68034000  1.0
  H  H25  1  0.88656000  0.31259000  0.31966000  1.0
  H  H26  1  0.44386000  0.44953000  0.59078000  1.0
  H  H27  1  0.55614000  0.55047000  0.40922000  1.0
  H  H28  1  0.30088000  0.53707000  0.56539000  1.0
  H  H29  1  0.69912000  0.46293000  0.43461000  1.0
  H  H30  1  0.15033000  0.46752000  0.71549000  1.0
  H  H31  1  0.84967000  0.53248000  0.28451000  1.0
  H  H32  1  0.13572000  0.30166000  0.88188000  1.0
  H  H33  1  0.86428000  0.69834000  0.11812000  1.0
  H  H34  1  0.07507000  0.40016000  0.12526000  1.0
  H  H35  1  0.92493000  0.59984000  0.87474000  1.0
  H  H36  1  0.08324000  0.27364000  0.07650000  1.0
  H  H37  1  0.91676000  0.72636000  0.92350000  1.0
  H  H38  1  0.28546000  0.10720000  0.96308000  1.0
  H  H39  1  0.71454000  0.89280000  0.03692000  1.0
  H  H40  1  0.43194000  0.11604000  0.90663000  1.0
  H  H41  1  0.56806000  0.88395000  0.09337000  1.0
  H  H42  1  0.24320000  0.08954000  0.16218000  1.0
  H  H43  1  0.75680000  0.91045000  0.83782000  1.0
  H  H44  1  0.35865000  0.04409000  0.31845000  1.0
  H  H45  1  0.64135000  0.95591000  0.68155000  1.0
  H  H46  1  0.70162000  0.69986000  0.57399000  1.0
  H  H47  1  0.29838000  0.30015000  0.42601000  1.0
  H  H48  1  0.62684000  0.85192000  0.54431000  1.0
  H  H49  1  0.37316000  0.14808000  0.45569000  1.0
  H  H50  1  0.34032000  0.97461000  0.80133000  1.0
  H  H51  1  0.65968000  0.02539000  0.19867000  1.0
  H  H52  1  0.42713000  0.00648000  0.66911000  1.0
  H  H53  1  0.57288000  0.99352000  0.33088000  1.0
  C  C54  1  0.00491000  0.06386000  0.48898000  1.0
  C  C55  1  0.99508000  0.93614000  0.51102000  1.0
  C  C56  1  0.27383000  0.80579000  0.77252000  1.0
  C  C57  1  0.72617000  0.19421000  0.22748000  1.0
  C  C58  1  0.41410000  0.80635000  0.61930000  1.0
  C  C59  1  0.58590000  0.19365000  0.38070000  1.0
  C  C60  1  0.32993000  0.72641000  0.62112000  1.0
  C  C61  1  0.67007000  0.27359000  0.37888000  1.0
  C  C62  1  0.51991000  0.61341000  0.62298000  1.0
  C  C63  1  0.48009000  0.38659000  0.37702000  1.0
  C  C64  1  0.14878000  0.68120000  0.75659000  1.0
  C  C65  1  0.85122000  0.31880000  0.24341000  1.0
  C  C66  1  0.36850000  0.50789000  0.62201000  1.0
  C  C67  1  0.63150000  0.49211000  0.37799000  1.0
  C  C68  1  0.14846000  0.52453000  0.94013000  1.0
  C  C69  1  0.85154000  0.47547000  0.05986000  1.0
  C  C70  1  0.20682000  0.46008000  0.77738000  1.0
  C  C71  1  0.79318000  0.53992000  0.22262000  1.0
  C  C72  1  0.20203000  0.34980000  0.88138000  1.0
  C  C73  1  0.79796000  0.65020000  0.11862000  1.0
  C  C74  1  0.38755000  0.32547000  0.78114000  1.0
  C  C75  1  0.61245000  0.67453000  0.21886000  1.0
  C  C76  1  0.13160000  0.33542000  0.08463000  1.0
  C  C77  1  0.86839000  0.66458000  0.91537000  1.0
  C  C78  1  0.35244000  0.15901000  0.94802000  1.0
  C  C79  1  0.64756000  0.84099000  0.05198000  1.0
  C  C80  1  0.24171000  0.30745000  0.23954000  1.0
  C  C81  1  0.75829000  0.69256000  0.76045000  1.0
  C  C82  1  0.29617000  0.15452000  0.15269000  1.0
  C  C83  1  0.70383000  0.84548000  0.84731000  1.0
  C  C84  1  0.37173000  0.12431000  0.25036000  1.0
  C  C85  1  0.62827000  0.87569000  0.74964000  1.0
  C  C86  1  0.49268000  0.12785000  0.08075000  1.0
  C  C87  1  0.50732000  0.87215000  0.91925000  1.0
  C  C88  1  0.63371000  0.76392000  0.60678000  1.0
  C  C89  1  0.36629000  0.23608000  0.39322000  1.0
  C  C90  1  0.41038000  0.93607000  0.74659000  1.0
  C  C91  1  0.58962000  0.06393000  0.25341000  1.0
  S  S92  1  0.13109000  0.06714000  0.54211000  1.0
  S  S93  1  0.86892000  0.93286000  0.45789000  1.0
  N  N94  1  0.37028000  0.84706000  0.71797000  1.0
  N  N95  1  0.62972000  0.15294000  0.28203000  1.0
  N  N96  1  0.25271000  0.72975000  0.72320000  1.0
  N  N97  1  0.74729000  0.27025000  0.27680000  1.0
  N  N98  1  0.40635000  0.61260000  0.62207000  1.0
  N  N99  1  0.59365000  0.38740000  0.37793000  1.0
  N  N100  1  0.52604000  0.72577000  0.62300000  1.0
  N  N101  1  0.47396000  0.27423000  0.37700000  1.0
  N  N102  1  0.16742000  0.55940000  0.82437000  1.0
  N  N103  1  0.83258000  0.44060000  0.17563000  1.0
  N  N104  1  0.17449000  0.40095000  0.97490000  1.0
  N  N105  1  0.82550000  0.59905000  0.02510000  1.0
  N  N106  1  0.31632000  0.27567000  0.87300000  1.0
  N  N107  1  0.68367000  0.72433000  0.12700000  1.0
  N  N108  1  0.32740000  0.43991000  0.73110000  1.0
  N  N109  1  0.67260000  0.56009000  0.26890000  1.0
  N  N110  1  0.22043000  0.26818000  0.15763000  1.0
  N  N111  1  0.77957000  0.73182000  0.84237000  1.0
  N  N112  1  0.33175000  0.22818000  0.29305000  1.0
  N  N113  1  0.66825000  0.77182000  0.70695000  1.0
  N  N114  1  0.48799000  0.10953000  0.19568000  1.0
  N  N115  1  0.51201000  0.89047000  0.80431000  1.0
  N  N116  1  0.37976000  0.15927000  0.05486000  1.0
  N  N117  1  0.62024000  0.84073000  0.94514000  1.0
  O  O118  1  0.94636000  0.91777000  0.84899000  1.0
  O  O119  1  0.05364000  0.08223000  0.15101000  1.0
  O  O120  1  0.14959000  0.10078000  0.83257000  1.0
  O  O121  1  0.85042000  0.89922000  0.16743000  1.0
  O  O122  1  0.88026000  0.33707000  0.49652000  1.0
  O  O123  1  0.11974000  0.66294000  0.50348000  1.0
  O  O124  1  0.04116000  0.36247000  0.70087000  1.0
  O  O125  1  0.95884000  0.63752000  0.29913000  1.0
  O  O126  1  0.12390000  0.98980000  0.65903000  1.0
  O  O127  1  0.87610000  0.01020000  0.34097000  1.0
  O  O128  1  0.12226000  0.19287000  0.53632000  1.0
  O  O129  1  0.87774000  0.80713000  0.46368000  1.0
  O  O130  1  0.23194000  0.01952000  0.47479000  1.0
  O  O131  1  0.76805000  0.98048000  0.52522000  1.0
  O  O132  1  0.93427000  0.16590000  0.72172000  1.0
  O  O133  1  0.06573000  0.83410000  0.27828000  1.0
  O  O134  1  0.07593000  0.89895000  0.03168000  1.0
  O  O135  1  0.92408000  0.10105000  0.96832000  1.0
  O  O136  1  0.90501000  0.55782000  0.54259000  1.0
  O  O137  1  0.09500000  0.44218000  0.45741000  1.0
  O  O138  1  0.78662000  0.39310000  0.71927000  1.0
  O  O139  1  0.21338000  0.60690000  0.28073000  1.0
  O  O140  1  0.21185000  0.83614000  0.85310000  1.0
  O  O141  1  0.78815000  0.16386000  0.14690000  1.0
  O  O142  1  0.60285000  0.52955000  0.61886000  1.0
  O  O143  1  0.39715000  0.47045000  0.38114000  1.0
  O  O144  1  0.11108000  0.59085000  0.00048000  1.0
  O  O145  1  0.88892000  0.40915000  0.99952000  1.0
  O  O146  1  0.48417000  0.27719000  0.74725000  1.0
  O  O147  1  0.51583000  0.72281000  0.25275000  1.0
  O  O148  1  0.18469000  0.39971000  0.26323000  1.0
  O  O149  1  0.81531000  0.60030000  0.73677000  1.0
  O  O150  1  0.58084000  0.11406000  0.01664000  1.0
  O  O151  1  0.41916000  0.88594000  0.98336000  1.0
