# generated using pymatgen
data_CuH2C3SN2
_symmetry_space_group_name_H-M   'P 1'
_cell_length_a   7.24352000
_cell_length_b   7.24624000
_cell_length_c   10.30844132
_cell_angle_alpha   102.35073111
_cell_angle_beta   102.32719505
_cell_angle_gamma   113.05400000
_symmetry_Int_Tables_number   1
_chemical_formula_structural   CuH2C3SN2
_chemical_formula_sum   'Cu4 H8 C12 S4 N8'
_cell_volume   458.97313146
_cell_formula_units_Z   4
loop_
 _symmetry_equiv_pos_site_id
 _symmetry_equiv_pos_as_xyz
  1  'x, y, z'
loop_
 _atom_site_type_symbol
 _atom_site_label
 _atom_site_symmetry_multiplicity
 _atom_site_fract_x
 _atom_site_fract_y
 _atom_site_fract_z
 _atom_site_occupancy
  Cu  Cu0  1  0.11386000  0.74508000  0.20348000  1.0
  Cu  Cu1  1  0.54121000  0.91052000  0.79627000  1.0
  Cu  Cu2  1  0.16035000  0.29175000  0.29663000  1.0
  Cu  Cu3  1  0.99509000  0.86436000  0.70378000  1.0
  H  H4  1  0.54873000  0.10516000  0.27560000  1.0
  H  H5  1  0.82961000  0.27303000  0.72431000  1.0
  H  H6  1  0.52301000  0.57951000  0.22436000  1.0
  H  H7  1  0.35536000  0.29885000  0.77560000  1.0
  H  H8  1  0.85292000  0.35258000  0.49988000  1.0
  H  H9  1  0.60296000  0.60290000  0.00016000  1.0
  H  H10  1  0.24513000  0.74547000  0.50009000  1.0
  H  H11  1  0.99519000  0.99532000  0.99989000  1.0
  C  C12  1  0.54992000  0.08090000  0.37640000  1.0
  C  C13  1  0.70451000  0.17347000  0.62352000  1.0
  C  C14  1  0.42338000  0.45451000  0.12355000  1.0
  C  C15  1  0.33102000  0.30011000  0.87640000  1.0
  C  C16  1  0.71684000  0.21670000  0.49994000  1.0
  C  C17  1  0.46683000  0.46690000  0.00002000  1.0
  C  C18  1  0.38117000  0.88138000  0.50001000  1.0
  C  C19  1  0.13120000  0.13142000  0.99995000  1.0
  C  C20  1  0.78438000  0.25496000  0.08614000  1.0
  C  C21  1  0.16908000  0.69806000  0.91370000  1.0
  C  C22  1  0.94833000  0.91890000  0.41391000  1.0
  C  C23  1  0.50556000  0.53444000  0.58633000  1.0
  S  S24  1  0.91755000  0.43331000  0.24403000  1.0
  S  S25  1  0.18942000  0.67370000  0.75576000  1.0
  S  S26  1  0.92380000  0.93946000  0.25601000  1.0
  S  S27  1  0.68369000  0.66799000  0.74431000  1.0
  N  N28  1  0.38057000  0.91158000  0.37608000  1.0
  N  N29  1  0.53535000  0.00464000  0.62391000  1.0
  N  N30  1  0.25436000  0.28550000  0.12388000  1.0
  N  N31  1  0.16160000  0.13084000  0.87606000  1.0
  N  N32  1  0.68954000  0.12285000  0.97405000  1.0
  N  N33  1  0.14891000  0.71501000  0.02577000  1.0
  N  N34  1  0.96541000  0.89871000  0.52593000  1.0
  N  N35  1  0.37339000  0.43935000  0.47428000  1.0
