# generated using pymatgen
data_ZnSiH16C24N4(Cl2F3)2
_symmetry_space_group_name_H-M   'P 1'
_cell_length_a   7.72927000
_cell_length_b   14.00980000
_cell_length_c   14.00970000
_cell_angle_alpha   89.72720000
_cell_angle_beta   86.11380000
_cell_angle_gamma   86.11410000
_symmetry_Int_Tables_number   1
_chemical_formula_structural   ZnSiH16C24N4(Cl2F3)2
_chemical_formula_sum   'Zn1 Si1 H16 C24 N4 Cl4 F6'
_cell_volume   1510.07977894
_cell_formula_units_Z   1
loop_
 _symmetry_equiv_pos_site_id
 _symmetry_equiv_pos_as_xyz
  1  'x, y, z'
loop_
 _atom_site_type_symbol
 _atom_site_label
 _atom_site_symmetry_multiplicity
 _atom_site_fract_x
 _atom_site_fract_y
 _atom_site_fract_z
 _atom_site_occupancy
  Zn  Zn0  1  0.49999000  0.50000000  0.50000000  1.0
  Si  Si1  1  0.99999000  0.50000000  0.50000000  1.0
  H  H2  1  0.25225000  0.50024000  0.33745000  1.0
  H  H3  1  0.25645000  0.50013000  0.16540000  1.0
  H  H4  1  0.81742000  0.49990000  0.15936000  1.0
  H  H5  1  0.79020000  0.49991000  0.33349000  1.0
  H  H6  1  0.18255000  0.50010000  0.84064000  1.0
  H  H7  1  0.74352000  0.49987000  0.83461000  1.0
  H  H8  1  0.74772000  0.49976000  0.66255000  1.0
  H  H9  1  0.20979000  0.50009000  0.66651000  1.0
  H  H10  1  0.25226000  0.33745000  0.50024000  1.0
  H  H11  1  0.25646000  0.16539000  0.50013000  1.0
  H  H12  1  0.81743000  0.15935000  0.49989000  1.0
  H  H13  1  0.79020000  0.33349000  0.49990000  1.0
  H  H14  1  0.18255000  0.84064000  0.50010000  1.0
  H  H15  1  0.74353000  0.83461000  0.49987000  1.0
  H  H16  1  0.74773000  0.66255000  0.49976000  1.0
  H  H17  1  0.20979000  0.66651000  0.50010000  1.0
  C  C18  1  0.37650000  0.50015000  0.29586000  1.0
  C  C19  1  0.38026000  0.50011000  0.19654000  1.0
  C  C20  1  0.53922000  0.50000000  0.14061000  1.0
  C  C21  1  0.68771000  0.49992000  0.19427000  1.0
  C  C22  1  0.67395000  0.49992000  0.29362000  1.0
  C  C23  1  0.56034000  0.49999000  0.03408000  1.0
  C  C24  1  0.43963000  0.50000000  0.96592000  1.0
  C  C25  1  0.31226000  0.50007000  0.80573000  1.0
  C  C26  1  0.46075000  0.49999000  0.85939000  1.0
  C  C27  1  0.61972000  0.49990000  0.80346000  1.0
  C  C28  1  0.62349000  0.49985000  0.70414000  1.0
  C  C29  1  0.32603000  0.50008000  0.70638000  1.0
  C  C30  1  0.37650000  0.29586000  0.50015000  1.0
  C  C31  1  0.38027000  0.19654000  0.50010000  1.0
  C  C32  1  0.53923000  0.14061000  0.50000000  1.0
  C  C33  1  0.68772000  0.19427000  0.49992000  1.0
  C  C34  1  0.67395000  0.29361000  0.49992000  1.0
  C  C35  1  0.56035000  0.03408000  0.49999000  1.0
  C  C36  1  0.43963000  0.96592000  0.50000000  1.0
  C  C37  1  0.31226000  0.80573000  0.50008000  1.0
  C  C38  1  0.46076000  0.85939000  0.50000000  1.0
  C  C39  1  0.61972000  0.80346000  0.49990000  1.0
  C  C40  1  0.62349000  0.70414000  0.49985000  1.0
  C  C41  1  0.32603000  0.70638000  0.50008000  1.0
  N  N42  1  0.52012000  0.50004000  0.34493000  1.0
  N  N43  1  0.47986000  0.49996000  0.65507000  1.0
  N  N44  1  0.52012000  0.34493000  0.50004000  1.0
  N  N45  1  0.47987000  0.65507000  0.49996000  1.0
  Cl  Cl46  1  0.77843000  0.49998000  0.99300000  1.0
  Cl  Cl47  1  0.22155000  0.50002000  0.00700000  1.0
  Cl  Cl48  1  0.77843000  0.99300000  0.49998000  1.0
  Cl  Cl49  1  0.22155000  0.00700000  0.50002000  1.0
  F  F50  1  0.22708000  0.50041000  0.50041000  1.0
  F  F51  1  0.77291000  0.49959000  0.49958000  1.0
  F  F52  1  0.00000000  0.58608000  0.41392000  1.0
  F  F53  1  0.99999000  0.41392000  0.58608000  1.0
  F  F54  1  0.02199000  0.41393000  0.41393000  1.0
  F  F55  1  0.97801000  0.58606000  0.58607000  1.0
