# generated using pymatgen
data_AlH18(C4O)6
_symmetry_space_group_name_H-M   'P 1'
_cell_length_a   3.96201000
_cell_length_b   24.55440000
_cell_length_c   24.55511340
_cell_angle_alpha   120.00311657
_cell_angle_beta   90.00229987
_cell_angle_gamma   89.99960000
_symmetry_Int_Tables_number   1
_chemical_formula_structural   AlH18(C4O)6
_chemical_formula_sum   'Al2 H36 C48 O12'
_cell_volume   2068.73008092
_cell_formula_units_Z   2
loop_
 _symmetry_equiv_pos_site_id
 _symmetry_equiv_pos_as_xyz
  1  'x, y, z'
loop_
 _atom_site_type_symbol
 _atom_site_label
 _atom_site_symmetry_multiplicity
 _atom_site_fract_x
 _atom_site_fract_y
 _atom_site_fract_z
 _atom_site_occupancy
  Al  Al0  1  0.99975000  0.00000000  0.50000000  1.0
  Al  Al1  1  0.99992000  0.33334000  0.16667000  1.0
  H  H2  1  0.59191000  0.70823000  0.26950000  1.0
  H  H3  1  0.59177000  0.62510000  0.39717000  1.0
  H  H4  1  0.30214000  0.50485000  0.17098000  1.0
  H  H5  1  0.28533000  0.62166000  0.22723000  1.0
  H  H6  1  0.30200000  0.82848000  0.49566000  1.0
  H  H7  1  0.28522000  0.71167000  0.43942000  1.0
  H  H8  1  0.59191000  0.23050000  0.43873000  1.0
  H  H9  1  0.59181000  0.10285000  0.22794000  1.0
  H  H10  1  0.30220000  0.32902000  0.33386000  1.0
  H  H11  1  0.28537000  0.27277000  0.39442000  1.0
  H  H12  1  0.30199000  0.00434000  0.33281000  1.0
  H  H13  1  0.28523000  0.06058000  0.27225000  1.0
  H  H14  1  0.59195000  0.06127000  0.79178000  1.0
  H  H15  1  0.59179000  0.27204000  0.87489000  1.0
  H  H16  1  0.30221000  0.16614000  0.99517000  1.0
  H  H17  1  0.28543000  0.10557000  0.87836000  1.0
  H  H18  1  0.30205000  0.16717000  0.67151000  1.0
  H  H19  1  0.28525000  0.22774000  0.78832000  1.0
  H  H20  1  0.89929000  0.84515000  0.31839000  1.0
  H  H21  1  0.48747000  0.87565000  0.32950000  1.0
  H  H22  1  0.57820000  0.80042000  0.26322000  1.0
  H  H23  1  0.89925000  0.48817000  0.34828000  1.0
  H  H24  1  0.48744000  0.45765000  0.33713000  1.0
  H  H25  1  0.57806000  0.53290000  0.40343000  1.0
  H  H26  1  0.89930000  0.18160000  0.52677000  1.0
  H  H27  1  0.48747000  0.17048000  0.54615000  1.0
  H  H28  1  0.57821000  0.23677000  0.53720000  1.0
  H  H29  1  0.89923000  0.15173000  0.13989000  1.0
  H  H30  1  0.48741000  0.16287000  0.12052000  1.0
  H  H31  1  0.57806000  0.09658000  0.12947000  1.0
  H  H32  1  0.89936000  0.97323000  0.65484000  1.0
  H  H33  1  0.48753000  0.95385000  0.62434000  1.0
  H  H34  1  0.57829000  0.96280000  0.69958000  1.0
  H  H35  1  0.89918000  0.36011000  0.01183000  1.0
  H  H36  1  0.48735000  0.37946000  0.04233000  1.0
  H  H37  1  0.57801000  0.37052000  0.96709000  1.0
  C  C38  1  0.49310000  0.04952000  0.59677000  1.0
  C  C39  1  0.49304000  0.90322000  0.45275000  1.0
  C  C40  1  0.49305000  0.04724000  0.45047000  1.0
  C  C41  1  0.49323000  0.43010000  0.21389000  1.0
  C  C42  1  0.49325000  0.28612000  0.21621000  1.0
  C  C43  1  0.49322000  0.28380000  0.06990000  1.0
  C  C44  1  0.46905000  0.83362000  0.41514000  1.0
  C  C45  1  0.46913000  0.49971000  0.25151000  1.0
  C  C46  1  0.54544000  0.80009000  0.35031000  1.0
  C  C47  1  0.52938000  0.73453000  0.31948000  1.0
  C  C48  1  0.54543000  0.53323000  0.31634000  1.0
  C  C49  1  0.52932000  0.59879000  0.34718000  1.0
  C  C50  1  0.37053000  0.53208000  0.22055000  1.0
  C  C51  1  0.36300000  0.59729000  0.25204000  1.0
  C  C52  1  0.37044000  0.80125000  0.44610000  1.0
  C  C53  1  0.36293000  0.73604000  0.41461000  1.0
  C  C54  1  0.44580000  0.70134000  0.35043000  1.0
  C  C55  1  0.44580000  0.63199000  0.31623000  1.0
  C  C56  1  0.46905000  0.08485000  0.41848000  1.0
  C  C57  1  0.46914000  0.24849000  0.24819000  1.0
  C  C58  1  0.54545000  0.14968000  0.44978000  1.0
  C  C59  1  0.52938000  0.18052000  0.41505000  1.0
  C  C60  1  0.54545000  0.18367000  0.21689000  1.0
  C  C61  1  0.52936000  0.15282000  0.25162000  1.0
  C  C62  1  0.37056000  0.27946000  0.31152000  1.0
  C  C63  1  0.36304000  0.24796000  0.34525000  1.0
  C  C64  1  0.37044000  0.05389000  0.35515000  1.0
  C  C65  1  0.36295000  0.08539000  0.32143000  1.0
  C  C66  1  0.44581000  0.14957000  0.35091000  1.0
  C  C67  1  0.44583000  0.18378000  0.31576000  1.0
  C  C68  1  0.46911000  0.08151000  0.66637000  1.0
  C  C69  1  0.46913000  0.25180000  0.00030000  1.0
  C  C70  1  0.54552000  0.05021000  0.69990000  1.0
  C  C71  1  0.52941000  0.08494000  0.76547000  1.0
  C  C72  1  0.54544000  0.28311000  0.96677000  1.0
  C  C73  1  0.52933000  0.24837000  0.90120000  1.0
  C  C74  1  0.37059000  0.18848000  0.96794000  1.0
  C  C75  1  0.36306000  0.15474000  0.90272000  1.0
  C  C76  1  0.37050000  0.14483000  0.69874000  1.0
  C  C77  1  0.36296000  0.17857000  0.76396000  1.0
  C  C78  1  0.44584000  0.14907000  0.79866000  1.0
  C  C79  1  0.44586000  0.18423000  0.86801000  1.0
  C  C80  1  0.63131000  0.83204000  0.31334000  1.0
  C  C81  1  0.63126000  0.50128000  0.35331000  1.0
  C  C82  1  0.63132000  0.18665000  0.51870000  1.0
  C  C83  1  0.63126000  0.14670000  0.14797000  1.0
  C  C84  1  0.63138000  0.98129000  0.66795000  1.0
  C  C85  1  0.63121000  0.35203000  0.99872000  1.0
  O  O86  1  0.26928000  0.00490000  0.43763000  1.0
  O  O87  1  0.26930000  0.06236000  0.56727000  1.0
  O  O88  1  0.26927000  0.93272000  0.49509000  1.0
  O  O89  1  0.73872000  0.05881000  0.48831000  1.0
  O  O90  1  0.73870000  0.92949000  0.44118000  1.0
  O  O91  1  0.73874000  0.01168000  0.57050000  1.0
  O  O92  1  0.26945000  0.27097000  0.09941000  1.0
  O  O93  1  0.26947000  0.40060000  0.17155000  1.0
  O  O94  1  0.26950000  0.32846000  0.22905000  1.0
  O  O95  1  0.73890000  0.32163000  0.09615000  1.0
  O  O96  1  0.73894000  0.27454000  0.17838000  1.0
  O  O97  1  0.73893000  0.40385000  0.22547000  1.0
