# generated using pymatgen
data_AlH12C27N7O9
_symmetry_space_group_name_H-M   'P 1'
_cell_length_a   3.92931000
_cell_length_b   18.03690000
_cell_length_c   18.11540000
_cell_angle_alpha   119.72000000
_cell_angle_beta   90.94870000
_cell_angle_gamma   90.48110000
_symmetry_Int_Tables_number   1
_chemical_formula_structural   AlH12C27N7O9
_chemical_formula_sum   'Al1 H12 C27 N7 O9'
_cell_volume   1114.64414128
_cell_formula_units_Z   1
loop_
 _symmetry_equiv_pos_site_id
 _symmetry_equiv_pos_as_xyz
  1  'x, y, z'
loop_
 _atom_site_type_symbol
 _atom_site_label
 _atom_site_symmetry_multiplicity
 _atom_site_fract_x
 _atom_site_fract_y
 _atom_site_fract_z
 _atom_site_occupancy
  Al  Al0  1  0.03410000  0.00011000  0.50014000  1.0
  H  H1  1  0.80706000  0.30246000  0.40543000  1.0
  H  H2  1  0.81931000  0.09378000  0.89557000  1.0
  H  H3  1  0.77057000  0.60771000  0.19605000  1.0
  H  H4  1  0.28794000  0.30090000  0.89269000  1.0
  H  H5  1  0.83514000  0.01775000  0.73628000  1.0
  H  H6  1  0.79471000  0.76770000  0.28155000  1.0
  H  H7  1  0.25055000  0.60110000  0.40087000  1.0
  H  H8  1  0.25925000  0.09271000  0.19677000  1.0
  H  H9  1  0.82678000  0.21899000  0.48240000  1.0
  H  H10  1  0.17512000  0.98535000  0.31449000  1.0
  H  H11  1  0.17840000  0.82598000  0.51189000  1.0
  H  H12  1  0.20354000  0.18496000  0.66858000  1.0
  C  C13  1  0.53618000  0.06700000  0.43393000  1.0
  C  C14  1  0.54921000  0.06595000  0.63231000  1.0
  C  C15  1  0.52701000  0.86731000  0.43308000  1.0
  C  C16  1  0.68754000  0.23941000  0.37841000  1.0
  C  C17  1  0.53432000  0.20172000  0.29647000  1.0
  C  C18  1  0.70263000  0.12069000  0.85938000  1.0
  C  C19  1  0.55437000  0.20190000  0.90288000  1.0
  C  C20  1  0.51197000  0.59564000  0.29431000  1.0
  C  C21  1  0.65755000  0.64199000  0.25843000  1.0
  C  C22  1  0.40257000  0.23831000  0.85856000  1.0
  C  C23  1  0.38162000  0.19264000  0.76965000  1.0
  C  C24  1  0.54479000  0.11261000  0.72533000  1.0
  C  C25  1  0.70795000  0.07861000  0.77157000  1.0
  C  C26  1  0.66746000  0.73013000  0.30538000  1.0
  C  C27  1  0.51064000  0.77387000  0.38489000  1.0
  C  C28  1  0.34638000  0.72668000  0.41824000  1.0
  C  C29  1  0.36296000  0.63749000  0.37386000  1.0
  C  C30  1  0.37772000  0.12120000  0.25995000  1.0
  C  C31  1  0.35694000  0.07820000  0.30632000  1.0
  C  C32  1  0.52714000  0.11357000  0.38687000  1.0
  C  C33  1  0.69492000  0.19361000  0.42101000  1.0
  C  C34  1  0.52591000  0.37780000  0.25391000  1.0
  C  C35  1  0.54996000  0.24303000  0.11998000  1.0
  C  C36  1  0.53707000  0.24854000  0.24884000  1.0
  C  C37  1  0.51994000  0.50145000  0.24768000  1.0
  C  C38  1  0.53984000  0.37814000  0.11940000  1.0
  C  C39  1  0.55463000  0.24908000  0.99674000  1.0
  N  N40  1  0.53847000  0.33297000  0.16443000  1.0
  N  N41  1  0.54175000  0.20126000  0.16348000  1.0
  N  N42  1  0.53338000  0.33427000  0.29570000  1.0
  N  N43  1  0.50650000  0.46265000  0.29477000  1.0
  N  N44  1  0.54107000  0.46328000  0.16255000  1.0
  N  N45  1  0.56793000  0.20180000  0.03542000  1.0
  N  N46  1  0.53896000  0.33471000  0.03468000  1.0
  O  O47  1  0.30195000  0.90670000  0.49088000  1.0
  O  O48  1  0.30031000  0.00939000  0.41659000  1.0
  O  O49  1  0.31620000  0.08346000  0.59180000  1.0
  O  O50  1  0.76272000  0.90666000  0.41777000  1.0
  O  O51  1  0.77969000  0.01128000  0.59423000  1.0
  O  O52  1  0.77497000  0.08316000  0.48882000  1.0
  O  O53  1  0.18235000  0.00324000  0.27083000  1.0
  O  O54  1  0.18241000  0.76405000  0.49257000  1.0
  O  O55  1  0.21262000  0.22825000  0.72995000  1.0
