# generated using pymatgen
data_AgH18C17S3(OF)3
_symmetry_space_group_name_H-M   'P 1'
_cell_length_a   9.66486000
_cell_length_b   10.08990000
_cell_length_c   11.73330000
_cell_angle_alpha   78.31810000
_cell_angle_beta   65.95040000
_cell_angle_gamma   68.71530000
_symmetry_Int_Tables_number   1
_chemical_formula_structural   AgH18C17S3(OF)3
_chemical_formula_sum   'Ag2 H36 C34 S6 O6 F6'
_cell_volume   971.60172462
_cell_formula_units_Z   2
loop_
 _symmetry_equiv_pos_site_id
 _symmetry_equiv_pos_as_xyz
  1  'x, y, z'
loop_
 _atom_site_type_symbol
 _atom_site_label
 _atom_site_symmetry_multiplicity
 _atom_site_fract_x
 _atom_site_fract_y
 _atom_site_fract_z
 _atom_site_occupancy
  Ag  Ag0  1  0.25960000  0.44615000  0.93176000  1.0
  Ag  Ag1  1  0.74041000  0.55385000  0.06824000  1.0
  H  H2  1  0.14362000  0.39080000  0.75976000  1.0
  H  H3  1  0.85638000  0.60920000  0.24024000  1.0
  H  H4  1  0.99173000  0.28854000  0.69502000  1.0
  H  H5  1  0.00827000  0.71147000  0.30498000  1.0
  H  H6  1  0.10897000  0.03666000  0.63132000  1.0
  H  H7  1  0.89103000  0.96335000  0.36869000  1.0
  H  H8  1  0.38332000  0.89561000  0.62298000  1.0
  H  H9  1  0.61667000  0.10438000  0.37702000  1.0
  H  H10  1  0.53666000  0.99796000  0.68405000  1.0
  H  H11  1  0.46333000  0.00203000  0.31595000  1.0
  H  H12  1  0.64847000  0.04866000  0.78740000  1.0
  H  H13  1  0.35153000  0.95134000  0.21260000  1.0
  H  H14  1  0.62923000  0.17672000  0.88107000  1.0
  H  H15  1  0.37077000  0.82329000  0.11893000  1.0
  H  H16  1  0.37482000  0.14713000  0.03575000  1.0
  H  H17  1  0.62518000  0.85287000  0.96425000  1.0
  H  H18  1  0.37470000  0.03060000  0.94145000  1.0
  H  H19  1  0.62530000  0.96940000  0.05856000  1.0
  H  H20  1  0.83308000  0.80859000  0.79148000  1.0
  H  H21  1  0.16692000  0.19141000  0.20852000  1.0
  H  H22  1  0.88776000  0.87242000  0.56464000  1.0
  H  H23  1  0.11224000  0.12758000  0.43536000  1.0
  H  H24  1  0.16829000  0.80825000  0.41130000  1.0
  H  H25  1  0.83171000  0.19175000  0.58870000  1.0
  H  H26  1  0.39227000  0.68652000  0.48633000  1.0
  H  H27  1  0.60773000  0.31347000  0.51367000  1.0
  H  H28  1  0.33791000  0.62712000  0.71371000  1.0
  H  H29  1  0.66210000  0.37288000  0.28629000  1.0
  H  H30  1  0.11502000  0.75501000  0.06074000  1.0
  H  H31  1  0.88498000  0.24499000  0.93926000  1.0
  H  H32  1  0.21524000  0.80029000  0.90164000  1.0
  H  H33  1  0.78476000  0.19971000  0.09836000  1.0
  H  H34  1  0.86027000  0.93851000  0.05899000  1.0
  H  H35  1  0.13973000  0.06149000  0.94102000  1.0
  H  H36  1  0.95039000  0.98154000  0.89687000  1.0
  H  H37  1  0.04960000  0.01846000  0.10313000  1.0
  C  C38  1  0.29438000  0.39722000  0.34864000  1.0
  C  C39  1  0.70561000  0.60279000  0.65136000  1.0
  C  C40  1  0.34860000  0.20021000  0.72888000  1.0
  C  C41  1  0.65140000  0.79979000  0.27112000  1.0
  C  C42  1  0.19626000  0.28226000  0.72933000  1.0
  C  C43  1  0.80374000  0.71774000  0.27067000  1.0
  C  C44  1  0.11110000  0.22438000  0.69240000  1.0
  C  C45  1  0.88890000  0.77562000  0.30760000  1.0
  C  C46  1  0.17670000  0.08419000  0.65649000  1.0
  C  C47  1  0.82330000  0.91581000  0.34351000  1.0
  C  C48  1  0.33015000  0.00394000  0.65307000  1.0
  C  C49  1  0.66985000  0.99605000  0.34693000  1.0
  C  C50  1  0.41690000  0.06176000  0.68800000  1.0
  C  C51  1  0.58310000  0.93824000  0.31200000  1.0
  C  C52  1  0.56179000  0.12816000  0.85541000  1.0
  C  C53  1  0.43821000  0.87184000  0.14459000  1.0
  C  C54  1  0.45254000  0.06389000  0.96900000  1.0
  C  C55  1  0.54746000  0.93611000  0.03100000  1.0
  C  C56  1  0.08213000  0.71625000  0.76609000  1.0
  C  C57  1  0.91788000  0.28375000  0.23391000  1.0
  C  C58  1  0.95524000  0.78590000  0.72472000  1.0
  C  C59  1  0.04476000  0.21410000  0.27528000  1.0
  C  C60  1  0.98669000  0.82033000  0.59708000  1.0
  C  C61  1  0.01331000  0.17967000  0.40292000  1.0
  C  C62  1  0.14360000  0.78506000  0.51133000  1.0
  C  C63  1  0.85641000  0.21494000  0.48867000  1.0
  C  C64  1  0.26989000  0.71563000  0.55333000  1.0
  C  C65  1  0.73011000  0.28436000  0.44667000  1.0
  C  C66  1  0.23982000  0.68121000  0.68048000  1.0
  C  C67  1  0.76018000  0.31879000  0.31952000  1.0
  C  C68  1  0.09819000  0.79957000  0.97211000  1.0
  C  C69  1  0.90181000  0.20043000  0.02789000  1.0
  C  C70  1  0.97301000  0.94558000  0.98461000  1.0
  C  C71  1  0.02699000  0.05442000  0.01539000  1.0
  S  S72  1  0.45686000  0.27696000  0.77341000  1.0
  S  S73  1  0.54314000  0.72304000  0.22659000  1.0
  S  S74  1  0.04094000  0.66857000  0.92890000  1.0
  S  S75  1  0.95906000  0.33143000  0.07110000  1.0
  S  S76  1  0.35735000  0.46317000  0.18059000  1.0
  S  S77  1  0.64265000  0.53684000  0.81941000  1.0
  O  O78  1  0.28156000  0.39646000  0.13207000  1.0
  O  O79  1  0.71844000  0.60356000  0.86793000  1.0
  O  O80  1  0.28995000  0.61743000  0.18506000  1.0
  O  O81  1  0.71005000  0.38258000  0.81495000  1.0
  O  O82  1  0.53108000  0.40555000  0.13556000  1.0
  O  O83  1  0.46892000  0.59446000  0.86444000  1.0
  F  F84  1  0.13437000  0.44740000  0.40641000  1.0
  F  F85  1  0.86563000  0.55260000  0.59359000  1.0
  F  F86  1  0.33966000  0.25201000  0.35998000  1.0
  F  F87  1  0.66034000  0.74799000  0.64001000  1.0
  F  F88  1  0.36296000  0.43905000  0.40997000  1.0
  F  F89  1  0.63703000  0.56094000  0.59004000  1.0
