# generated using pymatgen
data_CaH32C30(NO3)2
_symmetry_space_group_name_H-M   'P 1'
_cell_length_a   7.59203000
_cell_length_b   10.22580000
_cell_length_c   18.24360000
_cell_angle_alpha   94.28930000
_cell_angle_beta   91.74550000
_cell_angle_gamma   104.79400000
_symmetry_Int_Tables_number   1
_chemical_formula_structural   CaH32C30(NO3)2
_chemical_formula_sum   'Ca2 H64 C60 N4 O12'
_cell_volume   1363.74233653
_cell_formula_units_Z   2
loop_
 _symmetry_equiv_pos_site_id
 _symmetry_equiv_pos_as_xyz
  1  'x, y, z'
loop_
 _atom_site_type_symbol
 _atom_site_label
 _atom_site_symmetry_multiplicity
 _atom_site_fract_x
 _atom_site_fract_y
 _atom_site_fract_z
 _atom_site_occupancy
  Ca  Ca0  1  0.68084000  0.39793000  0.52073000  1.0
  Ca  Ca1  1  0.31914000  0.60208000  0.47927000  1.0
  H  H2  1  0.33739000  0.28089000  0.43986000  1.0
  H  H3  1  0.66257000  0.71911000  0.56014000  1.0
  H  H4  1  0.36591000  0.14017000  0.46061000  1.0
  H  H5  1  0.63407000  0.85984000  0.53938000  1.0
  H  H6  1  0.89639000  0.21006000  0.59008000  1.0
  H  H7  1  0.10362000  0.78995000  0.40992000  1.0
  H  H8  1  0.72859000  0.21959000  0.63490000  1.0
  H  H9  1  0.27142000  0.78042000  0.36510000  1.0
  H  H10  1  0.73614000  0.57259000  0.12279000  1.0
  H  H11  1  0.26387000  0.42739000  0.87722000  1.0
  H  H12  1  0.02153000  0.51129000  0.15207000  1.0
  H  H13  1  0.97850000  0.48872000  0.84796000  1.0
  H  H14  1  0.11399000  0.48966000  0.28247000  1.0
  H  H15  1  0.88602000  0.51039000  0.71757000  1.0
  H  H16  1  0.90368000  0.51996000  0.38160000  1.0
  H  H17  1  0.09630000  0.48008000  0.61842000  1.0
  H  H18  1  0.44047000  0.64420000  0.26836000  1.0
  H  H19  1  0.55949000  0.35579000  0.73163000  1.0
  H  H20  1  0.11213000  0.63155000  0.97653000  1.0
  H  H21  1  0.88787000  0.36843000  0.02347000  1.0
  H  H22  1  0.27493000  0.45094000  0.98668000  1.0
  H  H23  1  0.72510000  0.54906000  0.01331000  1.0
  H  H24  1  0.45600000  0.44349000  0.10064000  1.0
  H  H25  1  0.54403000  0.55651000  0.89935000  1.0
  H  H26  1  0.34566000  0.93810000  0.19158000  1.0
  H  H27  1  0.65436000  0.06190000  0.80840000  1.0
  H  H28  1  0.45177000  0.84568000  0.24808000  1.0
  H  H29  1  0.54825000  0.15432000  0.75191000  1.0
  H  H30  1  0.20923000  0.81496000  0.24327000  1.0
  H  H31  1  0.79080000  0.18504000  0.75672000  1.0
  H  H32  1  0.98836000  0.81496000  0.11721000  1.0
  H  H33  1  0.01167000  0.18503000  0.88279000  1.0
  H  H34  1  0.04135000  0.83174000  0.02367000  1.0
  H  H35  1  0.95867000  0.16825000  0.97632000  1.0
  H  H36  1  0.18475000  0.93810000  0.09521000  1.0
  H  H37  1  0.81528000  0.06188000  0.90478000  1.0
  H  H38  1  0.07633000  0.99888000  0.22004000  1.0
  H  H39  1  0.92368000  0.00111000  0.77996000  1.0
  H  H40  1  0.81028000  0.82792000  0.25686000  1.0
  H  H41  1  0.18974000  0.17207000  0.74315000  1.0
  H  H42  1  0.63963000  0.87802000  0.36614000  1.0
  H  H43  1  0.36038000  0.12197000  0.63386000  1.0
  H  H44  1  0.74385000  0.10633000  0.43666000  1.0
  H  H45  1  0.25614000  0.89366000  0.56333000  1.0
  H  H46  1  0.26622000  0.32223000  0.32569000  1.0
  H  H47  1  0.73377000  0.67777000  0.67431000  1.0
  H  H48  1  0.68511000  0.15657000  0.09175000  1.0
  H  H49  1  0.31490000  0.84343000  0.90826000  1.0
  H  H50  1  0.77322000  0.19473000  0.22633000  1.0
  H  H51  1  0.22678000  0.80528000  0.77367000  1.0
  H  H52  1  0.54712000  0.23431000  0.31542000  1.0
  H  H53  1  0.45287000  0.76570000  0.68458000  1.0
  H  H54  1  0.03750000  0.26364000  0.17121000  1.0
  H  H55  1  0.96250000  0.73635000  0.82878000  1.0
  H  H56  1  0.00451000  0.10878000  0.11552000  1.0
  H  H57  1  0.99550000  0.89121000  0.88447000  1.0
  H  H58  1  0.10787000  0.26470000  0.07935000  1.0
  H  H59  1  0.89214000  0.73529000  0.92065000  1.0
  H  H60  1  0.47101000  0.12408000  0.99323000  1.0
  H  H61  1  0.52899000  0.87592000  0.00677000  1.0
  H  H62  1  0.35941000  0.25534000  0.00219000  1.0
  H  H63  1  0.64060000  0.74466000  0.99781000  1.0
  H  H64  1  0.23401000  0.08603000  0.00918000  1.0
  H  H65  1  0.76600000  0.91397000  0.99082000  1.0
  C  C66  1  0.58455000  0.57657000  0.37055000  1.0
  C  C67  1  0.41542000  0.42345000  0.62945000  1.0
  C  C68  1  0.70301000  0.56235000  0.30906000  1.0
  C  C69  1  0.29698000  0.43766000  0.69095000  1.0
  C  C70  1  0.65307000  0.57914000  0.23472000  1.0
  C  C71  1  0.34693000  0.42086000  0.76528000  1.0
  C  C72  1  0.77176000  0.55929000  0.17935000  1.0
  C  C73  1  0.22825000  0.44072000  0.82066000  1.0
  C  C74  1  0.93336000  0.52601000  0.19628000  1.0
  C  C75  1  0.06665000  0.47402000  0.80375000  1.0
  C  C76  1  0.98560000  0.51373000  0.26933000  1.0
  C  C77  1  0.01439000  0.48631000  0.73070000  1.0
  C  C78  1  0.86930000  0.53121000  0.32443000  1.0
  C  C79  1  0.13069000  0.46881000  0.67560000  1.0
  C  C80  1  0.40742000  0.62615000  0.15341000  1.0
  C  C81  1  0.59259000  0.37384000  0.84659000  1.0
  C  C82  1  0.31815000  0.73107000  0.14806000  1.0
  C  C83  1  0.68187000  0.26893000  0.85194000  1.0
  C  C84  1  0.20950000  0.73134000  0.08402000  1.0
  C  C85  1  0.79051000  0.26864000  0.91597000  1.0
  C  C86  1  0.19659000  0.63136000  0.02590000  1.0
  C  C87  1  0.80343000  0.36863000  0.97409000  1.0
  C  C88  1  0.28810000  0.53009000  0.03141000  1.0
  C  C89  1  0.71192000  0.46990000  0.96858000  1.0
  C  C90  1  0.39241000  0.52642000  0.09476000  1.0
  C  C91  1  0.60762000  0.47357000  0.90523000  1.0
  C  C92  1  0.33240000  0.83721000  0.21097000  1.0
  C  C93  1  0.66763000  0.16279000  0.78902000  1.0
  C  C94  1  0.10096000  0.83467000  0.07943000  1.0
  C  C95  1  0.89906000  0.16532000  0.92055000  1.0
  C  C96  1  0.02624000  0.30889000  0.41798000  1.0
  C  C97  1  0.97372000  0.69111000  0.58202000  1.0
  C  C98  1  0.96915000  0.17964000  0.37003000  1.0
  C  C99  1  0.03083000  0.82035000  0.62996000  1.0
  C  C100  1  0.06567000  0.15098000  0.30709000  1.0
  C  C101  1  0.93432000  0.84901000  0.69291000  1.0
  C  C102  1  0.00277000  0.02248000  0.26737000  1.0
  C  C103  1  0.99723000  0.97753000  0.73263000  1.0
  C  C104  1  0.85283000  0.92639000  0.28851000  1.0
  C  C105  1  0.14717000  0.07360000  0.71149000  1.0
  C  C106  1  0.75686000  0.95432000  0.34974000  1.0
  C  C107  1  0.24315000  0.04567000  0.65026000  1.0
  C  C108  1  0.81552000  0.08062000  0.38899000  1.0
  C  C109  1  0.18447000  0.91937000  0.61100000  1.0
  C  C110  1  0.33550000  0.21979000  0.23164000  1.0
  C  C111  1  0.66450000  0.78021000  0.76836000  1.0
  C  C112  1  0.28419000  0.20065000  0.15577000  1.0
  C  C113  1  0.71581000  0.79933000  0.84423000  1.0
  C  C114  1  0.41274000  0.17675000  0.10522000  1.0
  C  C115  1  0.58725000  0.82324000  0.89478000  1.0
  C  C116  1  0.58716000  0.17429000  0.13137000  1.0
  C  C117  1  0.41285000  0.82571000  0.86863000  1.0
  C  C118  1  0.63722000  0.19619000  0.20639000  1.0
  C  C119  1  0.36279000  0.80381000  0.79361000  1.0
  C  C120  1  0.51166000  0.21886000  0.25647000  1.0
  C  C121  1  0.48834000  0.78114000  0.74353000  1.0
  C  C122  1  0.09902000  0.20986000  0.12913000  1.0
  C  C123  1  0.90098000  0.79013000  0.87086000  1.0
  C  C124  1  0.36653000  0.15882000  0.02351000  1.0
  C  C125  1  0.63348000  0.84117000  0.97649000  1.0
  N  N126  1  0.49711000  0.61901000  0.22053000  1.0
  N  N127  1  0.50288000  0.38097000  0.77947000  1.0
  N  N128  1  0.21413000  0.24589000  0.28534000  1.0
  N  N129  1  0.78587000  0.75411000  0.71466000  1.0
  O  O130  1  0.43082000  0.23339000  0.45462000  1.0
  O  O131  1  0.56914000  0.76662000  0.54538000  1.0
  O  O132  1  0.76754000  0.20781000  0.58492000  1.0
  O  O133  1  0.23247000  0.79221000  0.41507000  1.0
  O  O134  1  0.60847000  0.52928000  0.43198000  1.0
  O  O135  1  0.39149000  0.47075000  0.56804000  1.0
  O  O136  1  0.45536000  0.63601000  0.36221000  1.0
  O  O137  1  0.54460000  0.36400000  0.63778000  1.0
  O  O138  1  0.91426000  0.34379000  0.46024000  1.0
  O  O139  1  0.08568000  0.65621000  0.53974000  1.0
  O  O140  1  0.19279000  0.38204000  0.41597000  1.0
  O  O141  1  0.80718000  0.61797000  0.58404000  1.0
