# generated using pymatgen
data_Zn4H12C24O13
_symmetry_space_group_name_H-M   'P 1'
_cell_length_a   18.37570000
_cell_length_b   18.37570000
_cell_length_c   18.37570000
_cell_angle_alpha   60.24130000
_cell_angle_beta   60.24130000
_cell_angle_gamma   60.24130000
_symmetry_Int_Tables_number   1
_chemical_formula_structural   Zn4H12C24O13
_chemical_formula_sum   'Zn16 H48 C96 O52'
_cell_volume   4411.46209290
_cell_formula_units_Z   4
loop_
 _symmetry_equiv_pos_site_id
 _symmetry_equiv_pos_as_xyz
  1  'x, y, z'
loop_
 _atom_site_type_symbol
 _atom_site_label
 _atom_site_symmetry_multiplicity
 _atom_site_fract_x
 _atom_site_fract_y
 _atom_site_fract_z
 _atom_site_occupancy
  Zn  Zn0  1  0.21716000  0.39047000  0.39047000  1.0
  Zn  Zn1  1  0.97762000  0.80401000  0.80401000  1.0
  Zn  Zn2  1  0.39047000  0.39047000  0.21716000  1.0
  Zn  Zn3  1  0.80401000  0.80401000  0.97762000  1.0
  Zn  Zn4  1  0.39047000  0.21716000  0.39047000  1.0
  Zn  Zn5  1  0.80401000  0.97762000  0.80401000  1.0
  Zn  Zn6  1  0.39114000  0.39114000  0.39114000  1.0
  Zn  Zn7  1  0.80345000  0.80345000  0.80345000  1.0
  Zn  Zn8  1  0.60953000  0.78284000  0.60953000  1.0
  Zn  Zn9  1  0.19599000  0.02238000  0.19599000  1.0
  Zn  Zn10  1  0.60953000  0.60953000  0.78284000  1.0
  Zn  Zn11  1  0.19599000  0.19599000  0.02238000  1.0
  Zn  Zn12  1  0.78284000  0.60953000  0.60953000  1.0
  Zn  Zn13  1  0.02238000  0.19599000  0.19599000  1.0
  Zn  Zn14  1  0.60886000  0.60886000  0.60886000  1.0
  Zn  Zn15  1  0.19655000  0.19655000  0.19655000  1.0
  H  H16  1  0.93265000  0.16574000  0.64679000  1.0
  H  H17  1  0.02875000  0.26194000  0.55114000  1.0
  H  H18  1  0.16574000  0.64679000  0.93265000  1.0
  H  H19  1  0.26194000  0.55114000  0.02875000  1.0
  H  H20  1  0.64679000  0.93266000  0.16574000  1.0
  H  H21  1  0.55114000  0.02875000  0.26194000  1.0
  H  H22  1  0.16574000  0.93266000  0.64679000  1.0
  H  H23  1  0.26194000  0.02875000  0.55114000  1.0
  H  H24  1  0.64679000  0.16574000  0.93265000  1.0
  H  H25  1  0.55114000  0.26194000  0.02875000  1.0
  H  H26  1  0.93265000  0.64679000  0.16574000  1.0
  H  H27  1  0.02875000  0.55114000  0.26194000  1.0
  H  H28  1  0.93241000  0.64473000  0.64473000  1.0
  H  H29  1  0.02833000  0.54887000  0.54887000  1.0
  H  H30  1  0.16527000  0.64596000  0.64596000  1.0
  H  H31  1  0.26163000  0.54966000  0.54966000  1.0
  H  H32  1  0.64473000  0.64473000  0.93241000  1.0
  H  H33  1  0.54887000  0.54887000  0.02833000  1.0
  H  H34  1  0.64596000  0.64596000  0.16527000  1.0
  H  H35  1  0.54966000  0.54966000  0.26163000  1.0
  H  H36  1  0.64473000  0.93241000  0.64473000  1.0
  H  H37  1  0.54887000  0.02833000  0.54887000  1.0
  H  H38  1  0.64596000  0.16527000  0.64596000  1.0
  H  H39  1  0.54966000  0.26163000  0.54966000  1.0
  H  H40  1  0.83426000  0.06735000  0.35321000  1.0
  H  H41  1  0.73806000  0.97125000  0.44886000  1.0
  H  H42  1  0.35321000  0.83426000  0.06734000  1.0
  H  H43  1  0.44886000  0.73806000  0.97125000  1.0
  H  H44  1  0.06735000  0.35321000  0.83426000  1.0
  H  H45  1  0.97125000  0.44886000  0.73806000  1.0
  H  H46  1  0.06735000  0.83426000  0.35321000  1.0
  H  H47  1  0.97125000  0.73806000  0.44886000  1.0
  H  H48  1  0.83426000  0.35321000  0.06735000  1.0
  H  H49  1  0.73806000  0.44886000  0.97125000  1.0
  H  H50  1  0.35321000  0.06735000  0.83426000  1.0
  H  H51  1  0.44886000  0.97125000  0.73806000  1.0
  H  H52  1  0.35527000  0.06759000  0.35527000  1.0
  H  H53  1  0.45113000  0.97167000  0.45113000  1.0
  H  H54  1  0.35404000  0.83473000  0.35404000  1.0
  H  H55  1  0.45034000  0.73837000  0.45034000  1.0
  H  H56  1  0.35527000  0.35527000  0.06759000  1.0
  H  H57  1  0.45113000  0.45113000  0.97167000  1.0
  H  H58  1  0.35404000  0.35404000  0.83473000  1.0
  H  H59  1  0.45034000  0.45034000  0.73837000  1.0
  H  H60  1  0.06759000  0.35527000  0.35527000  1.0
  H  H61  1  0.97167000  0.45113000  0.45113000  1.0
  H  H62  1  0.83473000  0.35404000  0.35404000  1.0
  H  H63  1  0.73837000  0.45034000  0.45034000  1.0
  C  C64  1  0.00478000  0.13650000  0.62525000  1.0
  C  C65  1  0.05813000  0.18987000  0.57214000  1.0
  C  C66  1  0.13649000  0.62525000  0.00478000  1.0
  C  C67  1  0.18987000  0.57214000  0.05813000  1.0
  C  C68  1  0.62525000  0.00478000  0.13649000  1.0
  C  C69  1  0.57214000  0.05813000  0.18987000  1.0
  C  C70  1  0.13650000  0.00478000  0.62525000  1.0
  C  C71  1  0.18987000  0.05813000  0.57215000  1.0
  C  C72  1  0.62525000  0.13649000  0.00478000  1.0
  C  C73  1  0.57214000  0.18987000  0.05813000  1.0
  C  C74  1  0.00478000  0.62525000  0.13650000  1.0
  C  C75  1  0.05813000  0.57214000  0.18987000  1.0
  C  C76  1  0.98577000  0.70837000  0.70837000  1.0
  C  C77  1  0.04325000  0.65095000  0.65095000  1.0
  C  C78  1  0.00443000  0.62375000  0.62375000  1.0
  C  C79  1  0.05787000  0.57035000  0.57035000  1.0
  C  C80  1  0.13607000  0.62430000  0.62430000  1.0
  C  C81  1  0.18949000  0.57092000  0.57092000  1.0
  C  C82  1  0.15069000  0.54365000  0.54365000  1.0
  C  C83  1  0.20825000  0.48625000  0.48625000  1.0
  C  C84  1  0.70837000  0.70837000  0.98577000  1.0
  C  C85  1  0.65095000  0.65095000  0.04325000  1.0
  C  C86  1  0.62375000  0.62375000  0.00443000  1.0
  C  C87  1  0.57035000  0.57035000  0.05787000  1.0
  C  C88  1  0.62430000  0.62430000  0.13607000  1.0
  C  C89  1  0.57092000  0.57092000  0.18950000  1.0
  C  C90  1  0.54365000  0.54365000  0.15069000  1.0
  C  C91  1  0.48625000  0.48625000  0.20825000  1.0
  C  C92  1  0.70837000  0.98577000  0.70837000  1.0
  C  C93  1  0.65095000  0.04325000  0.65095000  1.0
  C  C94  1  0.62375000  0.00443000  0.62375000  1.0
  C  C95  1  0.57035000  0.05787000  0.57035000  1.0
  C  C96  1  0.62430000  0.13607000  0.62430000  1.0
  C  C97  1  0.57092000  0.18950000  0.57092000  1.0
  C  C98  1  0.54365000  0.15069000  0.54365000  1.0
  C  C99  1  0.48625000  0.20825000  0.48625000  1.0
  C  C100  1  0.98624000  0.98625000  0.70881000  1.0
  C  C101  1  0.04368000  0.04368000  0.65182000  1.0
  C  C102  1  0.15095000  0.15095000  0.54490000  1.0
  C  C103  1  0.20825000  0.20825000  0.48647000  1.0
  C  C104  1  0.98624000  0.70881000  0.98624000  1.0
  C  C105  1  0.04368000  0.65182000  0.04368000  1.0
  C  C106  1  0.15095000  0.54489000  0.15095000  1.0
  C  C107  1  0.20825000  0.48648000  0.20825000  1.0
  C  C108  1  0.70881000  0.98625000  0.98624000  1.0
  C  C109  1  0.65182000  0.04368000  0.04368000  1.0
  C  C110  1  0.54489000  0.15095000  0.15095000  1.0
  C  C111  1  0.48648000  0.20825000  0.20825000  1.0
  C  C112  1  0.86350000  0.99522000  0.37475000  1.0
  C  C113  1  0.81013000  0.94187000  0.42786000  1.0
  C  C114  1  0.37475000  0.86351000  0.99522000  1.0
  C  C115  1  0.42786000  0.81013000  0.94187000  1.0
  C  C116  1  0.99522000  0.37475000  0.86350000  1.0
  C  C117  1  0.94187000  0.42786000  0.81013000  1.0
  C  C118  1  0.99522000  0.86350000  0.37475000  1.0
  C  C119  1  0.94187000  0.81013000  0.42786000  1.0
  C  C120  1  0.86350000  0.37475000  0.99522000  1.0
  C  C121  1  0.81013000  0.42785000  0.94187000  1.0
  C  C122  1  0.37475000  0.99522000  0.86351000  1.0
  C  C123  1  0.42786000  0.94187000  0.81013000  1.0
  C  C124  1  0.29163000  0.01423000  0.29163000  1.0
  C  C125  1  0.34905000  0.95675000  0.34905000  1.0
  C  C126  1  0.37625000  0.99557000  0.37625000  1.0
  C  C127  1  0.42965000  0.94213000  0.42965000  1.0
  C  C128  1  0.37570000  0.86393000  0.37570000  1.0
  C  C129  1  0.42908000  0.81051000  0.42908000  1.0
  C  C130  1  0.45635000  0.84931000  0.45635000  1.0
  C  C131  1  0.51375000  0.79175000  0.51375000  1.0
  C  C132  1  0.29163000  0.29163000  0.01423000  1.0
  C  C133  1  0.34905000  0.34905000  0.95675000  1.0
  C  C134  1  0.37625000  0.37625000  0.99557000  1.0
  C  C135  1  0.42965000  0.42965000  0.94213000  1.0
  C  C136  1  0.37570000  0.37570000  0.86393000  1.0
  C  C137  1  0.42908000  0.42908000  0.81051000  1.0
  C  C138  1  0.45635000  0.45635000  0.84931000  1.0
  C  C139  1  0.51375000  0.51375000  0.79175000  1.0
  C  C140  1  0.01423000  0.29163000  0.29163000  1.0
  C  C141  1  0.95675000  0.34905000  0.34905000  1.0
  C  C142  1  0.99557000  0.37625000  0.37625000  1.0
  C  C143  1  0.94213000  0.42965000  0.42965000  1.0
  C  C144  1  0.86393000  0.37570000  0.37570000  1.0
  C  C145  1  0.81050000  0.42908000  0.42908000  1.0
  C  C146  1  0.84931000  0.45635000  0.45635000  1.0
  C  C147  1  0.79175000  0.51375000  0.51375000  1.0
  C  C148  1  0.01376000  0.01375000  0.29119000  1.0
  C  C149  1  0.95632000  0.95632000  0.34818000  1.0
  C  C150  1  0.84905000  0.84905000  0.45511000  1.0
  C  C151  1  0.79175000  0.79175000  0.51353000  1.0
  C  C152  1  0.29119000  0.01375000  0.01375000  1.0
  C  C153  1  0.34818000  0.95632000  0.95632000  1.0
  C  C154  1  0.45511000  0.84905000  0.84905000  1.0
  C  C155  1  0.51352000  0.79175000  0.79175000  1.0
  C  C156  1  0.01375000  0.29119000  0.01376000  1.0
  C  C157  1  0.95632000  0.34818000  0.95632000  1.0
  C  C158  1  0.84905000  0.45511000  0.84905000  1.0
  C  C159  1  0.79175000  0.51352000  0.79175000  1.0
  O  O160  1  0.16879000  0.29228000  0.46362000  1.0
  O  O161  1  0.90231000  0.02585000  0.73081000  1.0
  O  O162  1  0.29228000  0.46362000  0.16879000  1.0
  O  O163  1  0.02585000  0.73081000  0.90231000  1.0
  O  O164  1  0.46362000  0.16879000  0.29228000  1.0
  O  O165  1  0.73081000  0.90231000  0.02585000  1.0
  O  O166  1  0.29228000  0.16879000  0.46362000  1.0
  O  O167  1  0.02585000  0.90231000  0.73081000  1.0
  O  O168  1  0.46362000  0.29228000  0.16879000  1.0
  O  O169  1  0.73081000  0.02585000  0.90231000  1.0
  O  O170  1  0.16879000  0.46362000  0.29228000  1.0
  O  O171  1  0.90231000  0.73081000  0.02585000  1.0
  O  O172  1  0.16869000  0.46383000  0.46382000  1.0
  O  O173  1  0.29222000  0.46430000  0.46430000  1.0
  O  O174  1  0.90185000  0.73025000  0.73025000  1.0
  O  O175  1  0.02541000  0.73072000  0.73072000  1.0
  O  O176  1  0.46382000  0.46383000  0.16869000  1.0
  O  O177  1  0.46430000  0.46430000  0.29222000  1.0
  O  O178  1  0.73025000  0.73025000  0.90185000  1.0
  O  O179  1  0.73072000  0.73072000  0.02541000  1.0
  O  O180  1  0.46383000  0.16869000  0.46382000  1.0
  O  O181  1  0.46430000  0.29222000  0.46430000  1.0
  O  O182  1  0.73025000  0.90185000  0.73025000  1.0
  O  O183  1  0.73072000  0.02541000  0.73072000  1.0
  O  O184  1  0.34742000  0.34742000  0.34742000  1.0
  O  O185  1  0.84719000  0.84719000  0.84719000  1.0
  O  O186  1  0.70772000  0.83121000  0.53638000  1.0
  O  O187  1  0.97415000  0.09769000  0.26919000  1.0
  O  O188  1  0.53638000  0.70772000  0.83121000  1.0
  O  O189  1  0.26919000  0.97415000  0.09769000  1.0
  O  O190  1  0.83121000  0.53638000  0.70772000  1.0
  O  O191  1  0.09769000  0.26919000  0.97415000  1.0
  O  O192  1  0.83121000  0.70772000  0.53638000  1.0
  O  O193  1  0.09769000  0.97415000  0.26919000  1.0
  O  O194  1  0.70772000  0.53638000  0.83121000  1.0
  O  O195  1  0.97415000  0.26919000  0.09769000  1.0
  O  O196  1  0.53638000  0.83121000  0.70772000  1.0
  O  O197  1  0.26919000  0.09769000  0.97415000  1.0
  O  O198  1  0.53618000  0.83131000  0.53618000  1.0
  O  O199  1  0.53570000  0.70778000  0.53570000  1.0
  O  O200  1  0.26975000  0.09815000  0.26975000  1.0
  O  O201  1  0.26928000  0.97459000  0.26928000  1.0
  O  O202  1  0.53618000  0.53617000  0.83131000  1.0
  O  O203  1  0.53570000  0.53570000  0.70778000  1.0
  O  O204  1  0.26975000  0.26975000  0.09815000  1.0
  O  O205  1  0.26928000  0.26928000  0.97459000  1.0
  O  O206  1  0.83131000  0.53617000  0.53618000  1.0
  O  O207  1  0.70778000  0.53570000  0.53570000  1.0
  O  O208  1  0.09815000  0.26975000  0.26975000  1.0
  O  O209  1  0.97459000  0.26928000  0.26928000  1.0
  O  O210  1  0.65258000  0.65258000  0.65258000  1.0
  O  O211  1  0.15281000  0.15281000  0.15281000  1.0
