# generated using pymatgen
data_Cu2H5C6(IN)2
_symmetry_space_group_name_H-M   'P 1'
_cell_length_a   4.03631000
_cell_length_b   10.85810000
_cell_length_c   11.80720000
_cell_angle_alpha   66.76700000
_cell_angle_beta   80.29260000
_cell_angle_gamma   89.38160000
_symmetry_Int_Tables_number   1
_chemical_formula_structural   Cu2H5C6(IN)2
_chemical_formula_sum   'Cu4 H10 C12 I4 N4'
_cell_volume   467.81133956
_cell_formula_units_Z   2
loop_
 _symmetry_equiv_pos_site_id
 _symmetry_equiv_pos_as_xyz
  1  'x, y, z'
loop_
 _atom_site_type_symbol
 _atom_site_label
 _atom_site_symmetry_multiplicity
 _atom_site_fract_x
 _atom_site_fract_y
 _atom_site_fract_z
 _atom_site_occupancy
  Cu  Cu0  1  0.18573000  0.28683000  0.90386000  1.0
  Cu  Cu1  1  0.81423000  0.71317000  0.09614000  1.0
  Cu  Cu2  1  0.66076000  0.40857000  0.96713000  1.0
  Cu  Cu3  1  0.33928000  0.59144000  0.03288000  1.0
  H  H4  1  0.59085000  0.42615000  0.62077000  1.0
  H  H5  1  0.40914000  0.57385000  0.37923000  1.0
  H  H6  1  0.53729000  0.31757000  0.44666000  1.0
  H  H7  1  0.46272000  0.68244000  0.55334000  1.0
  H  H8  1  0.92466000  0.08094000  0.79575000  1.0
  H  H9  1  0.07533000  0.91906000  0.20425000  1.0
  H  H10  1  0.03123000  0.90770000  0.72704000  1.0
  H  H11  1  0.96878000  0.09230000  0.27296000  1.0
  H  H12  1  0.84425000  0.75949000  0.63487000  1.0
  H  H13  1  0.15575000  0.24051000  0.36513000  1.0
  C  C14  1  0.44299000  0.33850000  0.63098000  1.0
  C  C15  1  0.55701000  0.66150000  0.36903000  1.0
  C  C16  1  0.41872000  0.28639000  0.54392000  1.0
  C  C17  1  0.58129000  0.71361000  0.45608000  1.0
  C  C18  1  0.10381000  0.15913000  0.72655000  1.0
  C  C19  1  0.89619000  0.84087000  0.27344000  1.0
  C  C20  1  0.10292000  0.08458000  0.55246000  1.0
  C  C21  1  0.89708000  0.91542000  0.44753000  1.0
  C  C22  1  0.01294000  0.94915000  0.62799000  1.0
  C  C23  1  0.98705000  0.05085000  0.37200000  1.0
  C  C24  1  0.90933000  0.86518000  0.57545000  1.0
  C  C25  1  0.09067000  0.13483000  0.42455000  1.0
  I  I26  1  0.61894000  0.15113000  0.04528000  1.0
  I  I27  1  0.38102000  0.84888000  0.95472000  1.0
  I  I28  1  0.75537000  0.44734000  0.17355000  1.0
  I  I29  1  0.24469000  0.55266000  0.82645000  1.0
  N  N30  1  0.24486000  0.25874000  0.74411000  1.0
  N  N31  1  0.75513000  0.74126000  0.25590000  1.0
  N  N32  1  0.20454000  0.17145000  0.60571000  1.0
  N  N33  1  0.79546000  0.82855000  0.39429000  1.0
