# generated using pymatgen
data_CdH22C22S2(N2O5)2
_symmetry_space_group_name_H-M   'P 1'
_cell_length_a   5.77977000
_cell_length_b   10.56780000
_cell_length_c   11.67520000
_cell_angle_alpha   67.92390000
_cell_angle_beta   78.98520000
_cell_angle_gamma   76.09530000
_symmetry_Int_Tables_number   1
_chemical_formula_structural   CdH22C22S2(N2O5)2
_chemical_formula_sum   'Cd1 H22 C22 S2 N4 O10'
_cell_volume   637.43276029
_cell_formula_units_Z   1
loop_
 _symmetry_equiv_pos_site_id
 _symmetry_equiv_pos_as_xyz
  1  'x, y, z'
loop_
 _atom_site_type_symbol
 _atom_site_label
 _atom_site_symmetry_multiplicity
 _atom_site_fract_x
 _atom_site_fract_y
 _atom_site_fract_z
 _atom_site_occupancy
  Cd  Cd0  1  0.50000000  0.50000000  0.50000000  1.0
  H  H1  1  0.67374000  0.51682000  0.70658000  1.0
  H  H2  1  0.32625000  0.48317000  0.29342000  1.0
  H  H3  1  0.49401000  0.66384000  0.65524000  1.0
  H  H4  1  0.50598000  0.33616000  0.34476000  1.0
  H  H5  1  0.05791000  0.65030000  0.78626000  1.0
  H  H6  1  0.94207000  0.34970000  0.21375000  1.0
  H  H7  1  0.79598000  0.77741000  0.76385000  1.0
  H  H8  1  0.20399000  0.22258000  0.23618000  1.0
  H  H9  1  0.52371000  0.71610000  0.05475000  1.0
  H  H10  1  0.47632000  0.28390000  0.94524000  1.0
  H  H11  1  0.99120000  0.88014000  0.18682000  1.0
  H  H12  1  0.00883000  0.11987000  0.81317000  1.0
  H  H13  1  0.21546000  0.87812000  0.91952000  1.0
  H  H14  1  0.78458000  0.12189000  0.08046000  1.0
  H  H15  1  0.07053000  0.32917000  0.47873000  1.0
  H  H16  1  0.92948000  0.67082000  0.52127000  1.0
  H  H17  1  0.28993000  0.08330000  0.54480000  1.0
  H  H18  1  0.71005000  0.91669000  0.45520000  1.0
  H  H19  1  0.61387000  0.96114000  0.73227000  1.0
  H  H20  1  0.38609000  0.03886000  0.26771000  1.0
  H  H21  1  0.42659000  0.20724000  0.65780000  1.0
  H  H22  1  0.57340000  0.79276000  0.34219000  1.0
  C  C23  1  0.46360000  0.94202000  0.99517000  1.0
  C  C24  1  0.53642000  0.05799000  0.00482000  1.0
  C  C25  1  0.58120000  0.80539000  0.05822000  1.0
  C  C26  1  0.41882000  0.19461000  0.94178000  1.0
  C  C27  1  0.76527000  0.78593000  0.12632000  1.0
  C  C28  1  0.23475000  0.21408000  0.87368000  1.0
  C  C29  1  0.84070000  0.89957000  0.13519000  1.0
  C  C30  1  0.15932000  0.10044000  0.86480000  1.0
  C  C31  1  0.27339000  0.96702000  0.92380000  1.0
  C  C32  1  0.72665000  0.03298000  0.07619000  1.0
  C  C33  1  0.97622000  0.24473000  0.53606000  1.0
  C  C34  1  0.02379000  0.75527000  0.46394000  1.0
  C  C35  1  0.09862000  0.10739000  0.57334000  1.0
  C  C36  1  0.90137000  0.89260000  0.42667000  1.0
  C  C37  1  0.97433000  0.00046000  0.64683000  1.0
  C  C38  1  0.02564000  0.99954000  0.35318000  1.0
  C  C39  1  0.72740000  0.03665000  0.67751000  1.0
  C  C40  1  0.27259000  0.96335000  0.32249000  1.0
  C  C41  1  0.61816000  0.17559000  0.63616000  1.0
  C  C42  1  0.38183000  0.82442000  0.36383000  1.0
  C  C43  1  0.10835000  0.85269000  0.69022000  1.0
  C  C44  1  0.89165000  0.14731000  0.30979000  1.0
  S  S45  1  0.90381000  0.61423000  0.21056000  1.0
  S  S46  1  0.09619000  0.38577000  0.78944000  1.0
  N  N47  1  0.73926000  0.27847000  0.56804000  1.0
  N  N48  1  0.26073000  0.72154000  0.43196000  1.0
  N  N49  1  0.97755000  0.75438000  0.75447000  1.0
  N  N50  1  0.02240000  0.24561000  0.24555000  1.0
  O  O51  1  0.82011000  0.59276000  0.34404000  1.0
  O  O52  1  0.17988000  0.40725000  0.65596000  1.0
  O  O53  1  0.82150000  0.52296000  0.16499000  1.0
  O  O54  1  0.17850000  0.47705000  0.83501000  1.0
  O  O55  1  0.16361000  0.61309000  0.18475000  1.0
  O  O56  1  0.83640000  0.38690000  0.81525000  1.0
  O  O57  1  0.33253000  0.82676000  0.66691000  1.0
  O  O58  1  0.66743000  0.17323000  0.33312000  1.0
  O  O59  1  0.61102000  0.59028000  0.63044000  1.0
  O  O60  1  0.38899000  0.40971000  0.36956000  1.0
