# generated using pymatgen
data_ZnSiH24C24S4(N2F3)2
_symmetry_space_group_name_H-M   'P 1'
_cell_length_a   7.71510000
_cell_length_b   11.47870000
_cell_length_c   22.40320000
_cell_angle_alpha   84.33520000
_cell_angle_beta   80.08000000
_cell_angle_gamma   70.36000000
_symmetry_Int_Tables_number   1
_chemical_formula_structural   ZnSiH24C24S4(N2F3)2
_chemical_formula_sum   'Zn2 Si2 H48 C48 S8 N8 F12'
_cell_volume   1838.87019702
_cell_formula_units_Z   2
loop_
 _symmetry_equiv_pos_site_id
 _symmetry_equiv_pos_as_xyz
  1  'x, y, z'
loop_
 _atom_site_type_symbol
 _atom_site_label
 _atom_site_symmetry_multiplicity
 _atom_site_fract_x
 _atom_site_fract_y
 _atom_site_fract_z
 _atom_site_occupancy
  Zn  Zn0  1  0.47337000  0.25004000  0.74998000  1.0
  Zn  Zn1  1  0.52663000  0.74996000  0.25002000  1.0
  Si  Si2  1  0.97443000  0.24999000  0.75002000  1.0
  Si  Si3  1  0.02557000  0.75001000  0.24998000  1.0
  H  H4  1  0.30977000  0.03709000  0.76246000  1.0
  H  H5  1  0.10898000  0.46313000  0.73742000  1.0
  H  H6  1  0.69023000  0.96290000  0.23754000  1.0
  H  H7  1  0.89102000  0.53687000  0.26258000  1.0
  H  H8  1  0.40239000  0.81135000  0.78630000  1.0
  H  H9  1  0.00005000  0.68892000  0.71357000  1.0
  H  H10  1  0.59761000  0.18865000  0.21370000  1.0
  H  H11  1  0.99995000  0.31108000  0.28643000  1.0
  H  H12  1  0.91240000  0.83397000  0.83362000  1.0
  H  H13  1  0.58028000  0.66591000  0.66655000  1.0
  H  H14  1  0.08759000  0.16603000  0.16638000  1.0
  H  H15  1  0.41972000  0.33409000  0.33345000  1.0
  H  H16  1  0.79805000  0.05768000  0.80850000  1.0
  H  H17  1  0.66411000  0.44218000  0.69158000  1.0
  H  H18  1  0.20195000  0.94232000  0.19150000  1.0
  H  H19  1  0.33589000  0.55782000  0.30843000  1.0
  H  H20  1  0.99056000  0.49797000  0.85683000  1.0
  H  H21  1  0.34572000  0.00208000  0.64322000  1.0
  H  H22  1  0.00944000  0.50203000  0.14317000  1.0
  H  H23  1  0.65428000  0.99792000  0.35677000  1.0
  H  H24  1  0.03743000  0.63722000  0.83365000  1.0
  H  H25  1  0.50872000  0.86277000  0.66634000  1.0
  H  H26  1  0.96257000  0.36278000  0.16635000  1.0
  H  H27  1  0.49128000  0.13723000  0.33366000  1.0
  H  H28  1  0.80800000  0.73689000  0.92879000  1.0
  H  H29  1  0.47369000  0.76313000  0.57131000  1.0
  H  H30  1  0.19200000  0.26311000  0.07121000  1.0
  H  H31  1  0.52631000  0.23687000  0.42869000  1.0
  H  H32  1  0.02159000  0.62129000  0.94308000  1.0
  H  H33  1  0.58594000  0.87874000  0.55689000  1.0
  H  H34  1  0.97841000  0.37871000  0.05692000  1.0
  H  H35  1  0.41406000  0.12126000  0.44311000  1.0
  H  H36  1  0.87112000  0.73241000  0.03014000  1.0
  H  H37  1  0.63361000  0.76749000  0.46994000  1.0
  H  H38  1  0.12888000  0.26759000  0.96986000  1.0
  H  H39  1  0.36639000  0.23251000  0.53006000  1.0
  H  H40  1  0.77749000  0.79687000  0.13643000  1.0
  H  H41  1  0.71094000  0.70306000  0.36365000  1.0
  H  H42  1  0.22251000  0.20313000  0.86357000  1.0
  H  H43  1  0.28906000  0.29694000  0.63635000  1.0
  H  H44  1  0.43867000  0.57640000  0.17645000  1.0
  H  H45  1  0.19171000  0.92351000  0.32358000  1.0
  H  H46  1  0.56133000  0.42360000  0.82355000  1.0
  H  H47  1  0.80829000  0.07650000  0.67642000  1.0
  H  H48  1  0.52870000  0.49380000  0.07346000  1.0
  H  H49  1  0.09596000  0.00615000  0.42656000  1.0
  H  H50  1  0.47130000  0.50620000  0.92654000  1.0
  H  H51  1  0.90403000  0.99385000  0.57344000  1.0
  C  C52  1  0.44272000  0.98835000  0.77815000  1.0
  C  C53  1  0.20899000  0.51183000  0.72178000  1.0
  C  C54  1  0.55728000  0.01165000  0.22185000  1.0
  C  C55  1  0.79101000  0.48817000  0.27822000  1.0
  C  C56  1  0.49518000  0.86203000  0.79175000  1.0
  C  C57  1  0.14894000  0.63816000  0.70818000  1.0
  C  C58  1  0.50482000  0.13797000  0.20825000  1.0
  C  C59  1  0.85106000  0.36184000  0.29182000  1.0
  C  C60  1  0.66813000  0.80067000  0.81156000  1.0
  C  C61  1  0.28051000  0.69941000  0.68846000  1.0
  C  C62  1  0.33188000  0.19933000  0.18844000  1.0
  C  C63  1  0.71949000  0.30059000  0.31154000  1.0
  C  C64  1  0.77706000  0.87357000  0.81849000  1.0
  C  C65  1  0.46926000  0.62641000  0.68160000  1.0
  C  C66  1  0.22294000  0.12643000  0.18151000  1.0
  C  C67  1  0.53074000  0.37359000  0.31840000  1.0
  C  C68  1  0.71340000  0.00019000  0.80429000  1.0
  C  C69  1  0.51778000  0.49978000  0.69576000  1.0
  C  C70  1  0.28660000  0.99981000  0.19571000  1.0
  C  C71  1  0.48222000  0.50022000  0.30424000  1.0
  C  C72  1  0.93306000  0.59913000  0.85975000  1.0
  C  C73  1  0.39223000  0.90092000  0.64030000  1.0
  C  C74  1  0.06694000  0.40087000  0.14025000  1.0
  C  C75  1  0.60776000  0.09908000  0.35970000  1.0
  C  C76  1  0.89066000  0.63837000  0.92526000  1.0
  C  C77  1  0.45430000  0.86167000  0.57479000  1.0
  C  C78  1  0.10934000  0.36163000  0.07474000  1.0
  C  C79  1  0.54570000  0.13833000  0.42521000  1.0
  C  C80  1  0.70673000  0.60719000  0.04211000  1.0
  C  C81  1  0.35598000  0.89269000  0.45796000  1.0
  C  C82  1  0.29327000  0.39281000  0.95789000  1.0
  C  C83  1  0.64402000  0.10731000  0.54204000  1.0
  C  C84  1  0.77530000  0.69469000  0.06056000  1.0
  C  C85  1  0.53054000  0.80522000  0.43951000  1.0
  C  C86  1  0.22470000  0.30531000  0.93944000  1.0
  C  C87  1  0.46946000  0.19478000  0.56049000  1.0
  C  C88  1  0.72198000  0.73219000  0.12003000  1.0
  C  C89  1  0.57429000  0.76773000  0.38004000  1.0
  C  C90  1  0.27802000  0.26781000  0.87997000  1.0
  C  C91  1  0.42571000  0.23227000  0.61996000  1.0
  C  C92  1  0.53792000  0.60596000  0.14305000  1.0
  C  C93  1  0.28699000  0.89392000  0.35701000  1.0
  C  C94  1  0.46209000  0.39404000  0.85695000  1.0
  C  C95  1  0.71301000  0.10608000  0.64299000  1.0
  C  C96  1  0.58689000  0.56141000  0.08521000  1.0
  C  C97  1  0.23353000  0.93851000  0.41483000  1.0
  C  C98  1  0.41311000  0.43858000  0.91479000  1.0
  C  C99  1  0.76647000  0.06149000  0.58517000  1.0
  S  S100  1  0.73195000  0.63986000  0.82107000  1.0
  S  S101  1  0.19317000  0.86025000  0.67905000  1.0
  S  S102  1  0.26805000  0.36014000  0.17893000  1.0
  S  S103  1  0.80683000  0.13975000  0.32095000  1.0
  S  S104  1  0.76080000  0.54668000  0.97034000  1.0
  S  S105  1  0.27770000  0.95324000  0.52972000  1.0
  S  S106  1  0.23921000  0.45331000  0.02966000  1.0
  S  S107  1  0.72230000  0.04676000  0.47028000  1.0
  N  N108  1  0.55011000  0.05737000  0.78366000  1.0
  N  N109  1  0.39088000  0.44271000  0.71631000  1.0
  N  N110  1  0.44989000  0.94263000  0.21634000  1.0
  N  N111  1  0.60912000  0.55729000  0.28369000  1.0
  N  N112  1  0.60456000  0.68966000  0.16056000  1.0
  N  N113  1  0.45491000  0.81025000  0.33949000  1.0
  N  N114  1  0.39544000  0.31034000  0.83944000  1.0
  N  N115  1  0.54509000  0.18975000  0.66051000  1.0
  F  F116  1  0.74832000  0.25011000  0.74993000  1.0
  F  F117  1  0.25168000  0.74989000  0.25007000  1.0
  F  F118  1  0.95687000  0.35037000  0.68826000  1.0
  F  F119  1  0.99496000  0.14962000  0.81178000  1.0
  F  F120  1  0.04313000  0.64964000  0.31174000  1.0
  F  F121  1  0.00504000  0.85038000  0.18822000  1.0
  F  F122  1  0.89151000  0.37205000  0.79666000  1.0
  F  F123  1  0.06018000  0.12792000  0.70339000  1.0
  F  F124  1  0.10849000  0.62795000  0.20334000  1.0
  F  F125  1  0.93982000  0.87208000  0.29661000  1.0
  F  F126  1  0.20074000  0.24988000  0.75010000  1.0
  F  F127  1  0.79926000  0.75012000  0.24990000  1.0
