# generated using pymatgen
data_Mn3Fe2H32C42(N9O2)2
_symmetry_space_group_name_H-M   'P 1'
_cell_length_a   11.74550000
_cell_length_b   15.33830000
_cell_length_c   16.84250000
_cell_angle_alpha   90.01450000
_cell_angle_beta   89.99980000
_cell_angle_gamma   89.99980000
_symmetry_Int_Tables_number   1
_chemical_formula_structural   Mn3Fe2H32C42(N9O2)2
_chemical_formula_sum   'Mn6 Fe4 H64 C84 N36 O8'
_cell_volume   3034.27737743
_cell_formula_units_Z   2
loop_
 _symmetry_equiv_pos_site_id
 _symmetry_equiv_pos_as_xyz
  1  'x, y, z'
loop_
 _atom_site_type_symbol
 _atom_site_label
 _atom_site_symmetry_multiplicity
 _atom_site_fract_x
 _atom_site_fract_y
 _atom_site_fract_z
 _atom_site_occupancy
  Mn  Mn0  1  0.50000000  0.11329000  0.17794000  1.0
  Mn  Mn1  1  0.50000000  0.88686000  0.82202000  1.0
  Mn  Mn2  1  0.50000000  0.38683000  0.67803000  1.0
  Mn  Mn3  1  0.50000000  0.61316000  0.32196000  1.0
  Mn  Mn4  1  0.50000000  0.49997000  0.00014000  1.0
  Mn  Mn5  1  0.50000000  0.00000000  0.49991000  1.0
  Fe  Fe6  1  0.50000000  0.19589000  0.89507000  1.0
  Fe  Fe7  1  0.50000000  0.80423000  0.10497000  1.0
  Fe  Fe8  1  0.50000000  0.30420000  0.39506000  1.0
  Fe  Fe9  1  0.50000000  0.69583000  0.60491000  1.0
  H  H10  1  0.29215000  0.19028000  0.28179000  1.0
  H  H11  1  0.08612000  0.19308000  0.28694000  1.0
  H  H12  1  0.29460000  0.02611000  0.08560000  1.0
  H  H13  1  0.08531000  0.01906000  0.08298000  1.0
  H  H14  1  0.70667000  0.40069000  0.91624000  1.0
  H  H15  1  0.91437000  0.39731000  0.91132000  1.0
  H  H16  1  0.56522000  0.63235000  0.87414000  1.0
  H  H17  1  0.29205000  0.81021000  0.71816000  1.0
  H  H18  1  0.08604000  0.80755000  0.71304000  1.0
  H  H19  1  0.29471000  0.97409000  0.91457000  1.0
  H  H20  1  0.08542000  0.98125000  0.91722000  1.0
  H  H21  1  0.70668000  0.59903000  0.08432000  1.0
  H  H22  1  0.91439000  0.60253000  0.08910000  1.0
  H  H23  1  0.56522000  0.36761000  0.12636000  1.0
  H  H24  1  0.70774000  0.31008000  0.78228000  1.0
  H  H25  1  0.91377000  0.30708000  0.78739000  1.0
  H  H26  1  0.70547000  0.47321000  0.58545000  1.0
  H  H27  1  0.91477000  0.48001000  0.58274000  1.0
  H  H28  1  0.29334000  0.09914000  0.41578000  1.0
  H  H29  1  0.08563000  0.10260000  0.41093000  1.0
  H  H30  1  0.43478000  0.86786000  0.37342000  1.0
  H  H31  1  0.70781000  0.68997000  0.21793000  1.0
  H  H32  1  0.91384000  0.69268000  0.21269000  1.0
  H  H33  1  0.70544000  0.52574000  0.41401000  1.0
  H  H34  1  0.91471000  0.51858000  0.41651000  1.0
  H  H35  1  0.29332000  0.90111000  0.58407000  1.0
  H  H36  1  0.08561000  0.89774000  0.58897000  1.0
  H  H37  1  0.43478000  0.13223000  0.62611000  1.0
  H  H38  1  0.70795000  0.81022000  0.71816000  1.0
  H  H39  1  0.91397000  0.80755000  0.71304000  1.0
  H  H40  1  0.70529000  0.97409000  0.91457000  1.0
  H  H41  1  0.91458000  0.98125000  0.91722000  1.0
  H  H42  1  0.29332000  0.59903000  0.08432000  1.0
  H  H43  1  0.08561000  0.60253000  0.08910000  1.0
  H  H44  1  0.43478000  0.36761000  0.12636000  1.0
  H  H45  1  0.70785000  0.19028000  0.28179000  1.0
  H  H46  1  0.91388000  0.19308000  0.28694000  1.0
  H  H47  1  0.70540000  0.02611000  0.08560000  1.0
  H  H48  1  0.91469000  0.01906000  0.08298000  1.0
  H  H49  1  0.29333000  0.40069000  0.91624000  1.0
  H  H50  1  0.08563000  0.39731000  0.91132000  1.0
  H  H51  1  0.43478000  0.63234000  0.87414000  1.0
  H  H52  1  0.29219000  0.68997000  0.21793000  1.0
  H  H53  1  0.08616000  0.69268000  0.21268000  1.0
  H  H54  1  0.29456000  0.52574000  0.41401000  1.0
  H  H55  1  0.08529000  0.51858000  0.41651000  1.0
  H  H56  1  0.70668000  0.90111000  0.58407000  1.0
  H  H57  1  0.91439000  0.89774000  0.58897000  1.0
  H  H58  1  0.56522000  0.13223000  0.62611000  1.0
  H  H59  1  0.29226000  0.31008000  0.78228000  1.0
  H  H60  1  0.08623000  0.30708000  0.78739000  1.0
  H  H61  1  0.29453000  0.47321000  0.58545000  1.0
  H  H62  1  0.08523000  0.48001000  0.58274000  1.0
  H  H63  1  0.70666000  0.09914000  0.41578000  1.0
  H  H64  1  0.91437000  0.10260000  0.41093000  1.0
  H  H65  1  0.56522000  0.86787000  0.37343000  1.0
  H  H66  1  0.50000000  0.99460000  0.29803000  1.0
  H  H67  1  0.50000000  0.08774000  0.33912000  1.0
  H  H68  1  0.50000000  0.00553000  0.70177000  1.0
  H  H69  1  0.50000000  0.91235000  0.66076000  1.0
  H  H70  1  0.50000000  0.50568000  0.79810000  1.0
  H  H71  1  0.50000000  0.41260000  0.83925000  1.0
  H  H72  1  0.50000000  0.49439000  0.20182000  1.0
  H  H73  1  0.50000000  0.58753000  0.16075000  1.0
  C  C74  1  0.66411000  0.20009000  0.89476000  1.0
  C  C75  1  0.24408000  0.15264000  0.23830000  1.0
  C  C76  1  0.12589000  0.15342000  0.24097000  1.0
  C  C77  1  0.24451000  0.06201000  0.12922000  1.0
  C  C78  1  0.12632000  0.05878000  0.12823000  1.0
  C  C79  1  0.06308000  0.10568000  0.18477000  1.0
  C  C80  1  0.75570000  0.44539000  0.95309000  1.0
  C  C81  1  0.87385000  0.44373000  0.95113000  1.0
  C  C82  1  0.66411000  0.80006000  0.10536000  1.0
  C  C83  1  0.24404000  0.84783000  0.76170000  1.0
  C  C84  1  0.12585000  0.84712000  0.75904000  1.0
  C  C85  1  0.24458000  0.93829000  0.87090000  1.0
  C  C86  1  0.12638000  0.94159000  0.87190000  1.0
  C  C87  1  0.06309000  0.89481000  0.81532000  1.0
  C  C88  1  0.75571000  0.55436000  0.04743000  1.0
  C  C89  1  0.87385000  0.55610000  0.04931000  1.0
  C  C90  1  0.33588000  0.30005000  0.39466000  1.0
  C  C91  1  0.75586000  0.34746000  0.73865000  1.0
  C  C92  1  0.87405000  0.34656000  0.74129000  1.0
  C  C93  1  0.75552000  0.43751000  0.62922000  1.0
  C  C94  1  0.87372000  0.44061000  0.62819000  1.0
  C  C95  1  0.93691000  0.39397000  0.68490000  1.0
  C  C96  1  0.24430000  0.05453000  0.45270000  1.0
  C  C97  1  0.12616000  0.05625000  0.45078000  1.0
  C  C98  1  0.33589000  0.70011000  0.60537000  1.0
  C  C99  1  0.75590000  0.65229000  0.26137000  1.0
  C  C100  1  0.87409000  0.65302000  0.25864000  1.0
  C  C101  1  0.75550000  0.56163000  0.37039000  1.0
  C  C102  1  0.87369000  0.55833000  0.37130000  1.0
  C  C103  1  0.93692000  0.60524000  0.31478000  1.0
  C  C104  1  0.24429000  0.94574000  0.54716000  1.0
  C  C105  1  0.12615000  0.94407000  0.54911000  1.0
  C  C106  1  0.33589000  0.80006000  0.10536000  1.0
  C  C107  1  0.75596000  0.84783000  0.76170000  1.0
  C  C108  1  0.87416000  0.84712000  0.75904000  1.0
  C  C109  1  0.75542000  0.93829000  0.87090000  1.0
  C  C110  1  0.87362000  0.94159000  0.87190000  1.0
  C  C111  1  0.93691000  0.89481000  0.81532000  1.0
  C  C112  1  0.24429000  0.55436000  0.04743000  1.0
  C  C113  1  0.12615000  0.55610000  0.04931000  1.0
  C  C114  1  0.33589000  0.20009000  0.89476000  1.0
  C  C115  1  0.75592000  0.15264000  0.23830000  1.0
  C  C116  1  0.87411000  0.15343000  0.24097000  1.0
  C  C117  1  0.75548000  0.06201000  0.12922000  1.0
  C  C118  1  0.87368000  0.05878000  0.12823000  1.0
  C  C119  1  0.93692000  0.10568000  0.18477000  1.0
  C  C120  1  0.24430000  0.44539000  0.95309000  1.0
  C  C121  1  0.12615000  0.44373000  0.95113000  1.0
  C  C122  1  0.66411000  0.70011000  0.60537000  1.0
  C  C123  1  0.24410000  0.65229000  0.26137000  1.0
  C  C124  1  0.12591000  0.65302000  0.25864000  1.0
  C  C125  1  0.24450000  0.56163000  0.37039000  1.0
  C  C126  1  0.12631000  0.55833000  0.37130000  1.0
  C  C127  1  0.06308000  0.60524000  0.31478000  1.0
  C  C128  1  0.75571000  0.94574000  0.54716000  1.0
  C  C129  1  0.87385000  0.94407000  0.54911000  1.0
  C  C130  1  0.66411000  0.30005000  0.39466000  1.0
  C  C131  1  0.24414000  0.34746000  0.73865000  1.0
  C  C132  1  0.12594000  0.34656000  0.74129000  1.0
  C  C133  1  0.24448000  0.43751000  0.62922000  1.0
  C  C134  1  0.12628000  0.44061000  0.62819000  1.0
  C  C135  1  0.06309000  0.39397000  0.68490000  1.0
  C  C136  1  0.75570000  0.05454000  0.45270000  1.0
  C  C137  1  0.87384000  0.05625000  0.45078000  1.0
  C  C138  1  0.50000000  0.16939000  0.00219000  1.0
  C  C139  1  0.50000000  0.30976000  0.92521000  1.0
  C  C140  1  0.50000000  0.23617000  0.79145000  1.0
  C  C141  1  0.50000000  0.07890000  0.87083000  1.0
  C  C142  1  0.50000000  0.83072000  0.99782000  1.0
  C  C143  1  0.50000000  0.69036000  0.07480000  1.0
  C  C144  1  0.50000000  0.76389000  0.20857000  1.0
  C  C145  1  0.50000000  0.92123000  0.12916000  1.0
  C  C146  1  0.50000000  0.33070000  0.50221000  1.0
  C  C147  1  0.50000000  0.19033000  0.42521000  1.0
  C  C148  1  0.50000000  0.26393000  0.29143000  1.0
  C  C149  1  0.50000000  0.42116000  0.37083000  1.0
  C  C150  1  0.50000000  0.66925000  0.49777000  1.0
  C  C151  1  0.50000000  0.80967000  0.57466000  1.0
  C  C152  1  0.50000000  0.73620000  0.70852000  1.0
  C  C153  1  0.50000000  0.57884000  0.62915000  1.0
  C  C154  1  0.93690000  0.49993000  0.00021000  1.0
  C  C155  1  0.06310000  0.00017000  0.49995000  1.0
  C  C156  1  0.06310000  0.49993000  0.00021000  1.0
  C  C157  1  0.93690000  0.00017000  0.49995000  1.0
  N  N158  1  0.76365000  0.20909000  0.89357000  1.0
  N  N159  1  0.30339000  0.10820000  0.18327000  1.0
  N  N160  1  0.76365000  0.79112000  0.10667000  1.0
  N  N161  1  0.30340000  0.89214000  0.81678000  1.0
  N  N162  1  0.23634000  0.29115000  0.39334000  1.0
  N  N163  1  0.69659000  0.39169000  0.68347000  1.0
  N  N164  1  0.23638000  0.70920000  0.60676000  1.0
  N  N165  1  0.69661000  0.60789000  0.31642000  1.0
  N  N166  1  0.23635000  0.79113000  0.10667000  1.0
  N  N167  1  0.69660000  0.89214000  0.81678000  1.0
  N  N168  1  0.23635000  0.20909000  0.89357000  1.0
  N  N169  1  0.69661000  0.10820000  0.18327000  1.0
  N  N170  1  0.76362000  0.70920000  0.60676000  1.0
  N  N171  1  0.30339000  0.60789000  0.31641000  1.0
  N  N172  1  0.76366000  0.29116000  0.39334000  1.0
  N  N173  1  0.30341000  0.39169000  0.68347000  1.0
  N  N174  1  0.50000000  0.15791000  0.07146000  1.0
  N  N175  1  0.50000000  0.38508000  0.94119000  1.0
  N  N176  1  0.50000000  0.27373000  0.72969000  1.0
  N  N177  1  0.50000000  0.00309000  0.85881000  1.0
  N  N178  1  0.50000000  0.84220000  0.92855000  1.0
  N  N179  1  0.50000000  0.61505000  0.05879000  1.0
  N  N180  1  0.50000000  0.72627000  0.27031000  1.0
  N  N181  1  0.50000000  0.99705000  0.14114000  1.0
  N  N182  1  0.50000000  0.34216000  0.57149000  1.0
  N  N183  1  0.50000000  0.11503000  0.44120000  1.0
  N  N184  1  0.50000000  0.22642000  0.22962000  1.0
  N  N185  1  0.50000000  0.49696000  0.35876000  1.0
  N  N186  1  0.50000000  0.65777000  0.42849000  1.0
  N  N187  1  0.50000000  0.88495000  0.55857000  1.0
  N  N188  1  0.50000000  0.77381000  0.77028000  1.0
  N  N189  1  0.50000000  0.50303000  0.64120000  1.0
  N  N190  1  0.69589000  0.49985000  0.00029000  1.0
  N  N191  1  0.30411000  0.00012000  0.49992000  1.0
  N  N192  1  0.30411000  0.49985000  0.00029000  1.0
  N  N193  1  0.69589000  0.00012000  0.49993000  1.0
  O  O194  1  0.49999000  0.05756000  0.28704000  1.0
  O  O195  1  0.50000000  0.59295000  0.87711000  1.0
  O  O196  1  0.50000000  0.94259000  0.71282000  1.0
  O  O197  1  0.50000000  0.40699000  0.12319000  1.0
  O  O198  1  0.50000000  0.44272000  0.78715000  1.0
  O  O199  1  0.50000000  0.90724000  0.37661000  1.0
  O  O200  1  0.50000000  0.55734000  0.21282000  1.0
  O  O201  1  0.50000000  0.09284000  0.62302000  1.0
