# generated using pymatgen
data_CaH10C10N6O5
_symmetry_space_group_name_H-M   'P 1'
_cell_length_a   6.32745000
_cell_length_b   9.95372000
_cell_length_c   11.70760000
_cell_angle_alpha   110.37000000
_cell_angle_beta   105.66800000
_cell_angle_gamma   90.01980000
_symmetry_Int_Tables_number   1
_chemical_formula_structural   CaH10C10N6O5
_chemical_formula_sum   'Ca2 H20 C20 N12 O10'
_cell_volume   661.92160622
_cell_formula_units_Z   2
loop_
 _symmetry_equiv_pos_site_id
 _symmetry_equiv_pos_as_xyz
  1  'x, y, z'
loop_
 _atom_site_type_symbol
 _atom_site_label
 _atom_site_symmetry_multiplicity
 _atom_site_fract_x
 _atom_site_fract_y
 _atom_site_fract_z
 _atom_site_occupancy
  Ca  Ca0  1  0.71330000  0.25002000  0.99998000  1.0
  Ca  Ca1  1  0.28670000  0.74998000  0.00002000  1.0
  H  H2  1  0.16645000  0.30724000  0.96925000  1.0
  H  H3  1  0.19722000  0.19255000  0.03087000  1.0
  H  H4  1  0.83356000  0.69275000  0.03075000  1.0
  H  H5  1  0.80279000  0.80745000  0.96914000  1.0
  H  H6  1  0.93027000  0.28484000  0.56805000  1.0
  H  H7  1  0.36168000  0.21521000  0.43178000  1.0
  H  H8  1  0.06972000  0.71514000  0.43194000  1.0
  H  H9  1  0.63831000  0.78480000  0.56821000  1.0
  H  H10  1  0.96236000  0.20575000  0.75450000  1.0
  H  H11  1  0.20755000  0.29404000  0.24522000  1.0
  H  H12  1  0.03764000  0.79426000  0.24551000  1.0
  H  H13  1  0.79242000  0.70596000  0.75477000  1.0
  H  H14  1  0.26407000  0.55620000  0.68979000  1.0
  H  H15  1  0.57383000  0.94360000  0.31035000  1.0
  H  H16  1  0.73594000  0.44380000  0.31021000  1.0
  H  H17  1  0.42617000  0.05639000  0.68966000  1.0
  H  H18  1  0.35317000  0.55095000  0.55384000  1.0
  H  H19  1  0.79917000  0.94915000  0.44626000  1.0
  H  H20  1  0.64682000  0.44906000  0.44617000  1.0
  H  H21  1  0.20085000  0.05085000  0.55375000  1.0
  C  C22  1  0.37578000  0.42282000  0.84699000  1.0
  C  C23  1  0.52845000  0.07705000  0.15289000  1.0
  C  C24  1  0.62423000  0.57718000  0.15300000  1.0
  C  C25  1  0.47154000  0.92294000  0.84711000  1.0
  C  C26  1  0.53372000  0.39042000  0.76780000  1.0
  C  C27  1  0.76559000  0.10934000  0.23206000  1.0
  C  C28  1  0.46630000  0.60958000  0.23221000  1.0
  C  C29  1  0.23439000  0.89066000  0.76794000  1.0
  C  C30  1  0.51781000  0.43916000  0.66418000  1.0
  C  C31  1  0.85319000  0.06079000  0.33578000  1.0
  C  C32  1  0.48219000  0.56085000  0.33582000  1.0
  C  C33  1  0.14681000  0.93920000  0.66422000  1.0
  C  C34  1  0.81632000  0.31649000  0.62575000  1.0
  C  C35  1  0.19003000  0.18356000  0.37412000  1.0
  C  C36  1  0.18367000  0.68351000  0.37424000  1.0
  C  C37  1  0.80997000  0.81644000  0.62588000  1.0
  C  C38  1  0.83476000  0.27155000  0.72801000  1.0
  C  C39  1  0.10629000  0.22842000  0.27183000  1.0
  C  C40  1  0.16525000  0.72845000  0.27199000  1.0
  C  C41  1  0.89369000  0.77158000  0.72816000  1.0
  N  N42  1  0.66187000  0.39824000  0.59327000  1.0
  N  N43  1  0.06803000  0.10188000  0.40670000  1.0
  N  N44  1  0.33813000  0.60176000  0.40672000  1.0
  N  N45  1  0.93198000  0.89812000  0.59330000  1.0
  N  N46  1  0.36315000  0.52197000  0.63164000  1.0
  N  N47  1  0.73100000  0.97820000  0.36854000  1.0
  N  N48  1  0.63686000  0.47805000  0.36836000  1.0
  N  N49  1  0.26901000  0.02180000  0.63146000  1.0
  N  N50  1  0.69239000  0.30893000  0.79719000  1.0
  N  N51  1  0.89478000  0.19094000  0.20268000  1.0
  N  N52  1  0.30763000  0.69108000  0.20281000  1.0
  N  N53  1  0.10520000  0.80905000  0.79732000  1.0
  O  O54  1  0.24630000  0.51904000  0.83849000  1.0
  O  O55  1  0.40726000  0.98091000  0.16145000  1.0
  O  O56  1  0.75372000  0.48096000  0.16150000  1.0
  O  O57  1  0.59272000  0.01909000  0.83856000  1.0
  O  O58  1  0.38222000  0.35034000  0.91848000  1.0
  O  O59  1  0.46357000  0.14955000  0.08144000  1.0
  O  O60  1  0.61780000  0.64967000  0.08153000  1.0
  O  O61  1  0.53643000  0.85044000  0.91856000  1.0
  O  O62  1  0.08201000  0.24991000  0.00009000  1.0
  O  O63  1  0.91800000  0.75008000  0.99990000  1.0
