# generated using pymatgen
data_ZnCo2H16(C3O)8
_symmetry_space_group_name_H-M   'P 1'
_cell_length_a   10.28930000
_cell_length_b   10.28940000
_cell_length_c   15.05690000
_cell_angle_alpha   109.93700000
_cell_angle_beta   109.93700000
_cell_angle_gamma   90.01550000
_symmetry_Int_Tables_number   1
_chemical_formula_structural   ZnCo2H16(C3O)8
_chemical_formula_sum   'Zn2 Co4 H32 C48 O16'
_cell_volume   1396.43399172
_cell_formula_units_Z   2
loop_
 _symmetry_equiv_pos_site_id
 _symmetry_equiv_pos_as_xyz
  1  'x, y, z'
loop_
 _atom_site_type_symbol
 _atom_site_label
 _atom_site_symmetry_multiplicity
 _atom_site_fract_x
 _atom_site_fract_y
 _atom_site_fract_z
 _atom_site_occupancy
  Zn  Zn0  1  0.37491000  0.12503000  0.25002000  1.0
  Zn  Zn1  1  0.62509000  0.87496000  0.74998000  1.0
  Co  Co2  1  0.80974000  0.05975000  0.11951000  1.0
  Co  Co3  1  0.55975000  0.30971000  0.61951000  1.0
  Co  Co4  1  0.19026000  0.94026000  0.88049000  1.0
  Co  Co5  1  0.44025000  0.69029000  0.38049000  1.0
  H  H6  1  0.55924000  0.11362000  0.00109000  1.0
  H  H7  1  0.94185000  0.88744000  0.00102000  1.0
  H  H8  1  0.61362000  0.44184000  0.50105000  1.0
  H  H9  1  0.38749000  0.05920000  0.50108000  1.0
  H  H10  1  0.44077000  0.88638000  0.99891000  1.0
  H  H11  1  0.05815000  0.11256000  0.99898000  1.0
  H  H12  1  0.38638000  0.55816000  0.49895000  1.0
  H  H13  1  0.61250000  0.94081000  0.49891000  1.0
  H  H14  1  0.90756000  0.30388000  0.28991000  1.0
  H  H15  1  0.88226000  0.98606000  0.29001000  1.0
  H  H16  1  0.80389000  0.38222000  0.78999000  1.0
  H  H17  1  0.48599000  0.40758000  0.78991000  1.0
  H  H18  1  0.09244000  0.69613000  0.71009000  1.0
  H  H19  1  0.11774000  0.01394000  0.71000000  1.0
  H  H20  1  0.19611000  0.61777000  0.21001000  1.0
  H  H21  1  0.51402000  0.59242000  0.21009000  1.0
  H  H22  1  0.78652000  0.14664000  0.95856000  1.0
  H  H23  1  0.67216000  0.81199000  0.95868000  1.0
  H  H24  1  0.64667000  0.17214000  0.45865000  1.0
  H  H25  1  0.31196000  0.28646000  0.45858000  1.0
  H  H26  1  0.21348000  0.85336000  0.04144000  1.0
  H  H27  1  0.32784000  0.18801000  0.04132000  1.0
  H  H28  1  0.35333000  0.82786000  0.54135000  1.0
  H  H29  1  0.68804000  0.71354000  0.54142000  1.0
  H  H30  1  0.00645000  0.26629000  0.13796000  1.0
  H  H31  1  0.63145000  0.87172000  0.13809000  1.0
  H  H32  1  0.76633000  0.13145000  0.63804000  1.0
  H  H33  1  0.37165000  0.50640000  0.63795000  1.0
  H  H34  1  0.99355000  0.73371000  0.86204000  1.0
  H  H35  1  0.36855000  0.12828000  0.86191000  1.0
  H  H36  1  0.23366000  0.86855000  0.36195000  1.0
  H  H37  1  0.62835000  0.49360000  0.36205000  1.0
  C  C38  1  0.60895000  0.21166000  0.22360000  1.0
  C  C39  1  0.11449000  0.01184000  0.22355000  1.0
  C  C40  1  0.71168000  0.61450000  0.72355000  1.0
  C  C41  1  0.51188000  0.10899000  0.72363000  1.0
  C  C42  1  0.39105000  0.78834000  0.77640000  1.0
  C  C43  1  0.88551000  0.98816000  0.77645000  1.0
  C  C44  1  0.28832000  0.38550000  0.27645000  1.0
  C  C45  1  0.48812000  0.89101000  0.27637000  1.0
  C  C46  1  0.70006000  0.21581000  0.16507000  1.0
  C  C47  1  0.96494000  0.94916000  0.16506000  1.0
  C  C48  1  0.71587000  0.46493000  0.66507000  1.0
  C  C49  1  0.44915000  0.20002000  0.66508000  1.0
  C  C50  1  0.29994000  0.78419000  0.83493000  1.0
  C  C51  1  0.03506000  0.05084000  0.83494000  1.0
  C  C52  1  0.28413000  0.53507000  0.33493000  1.0
  C  C53  1  0.55085000  0.79998000  0.33492000  1.0
  C  C54  1  0.66113000  0.16441000  0.05663000  1.0
  C  C55  1  0.89549000  0.89220000  0.05664000  1.0
  C  C56  1  0.66448000  0.39548000  0.55663000  1.0
  C  C57  1  0.39224000  0.16108000  0.55665000  1.0
  C  C58  1  0.33887000  0.83559000  0.94337000  1.0
  C  C59  1  0.10451000  0.10780000  0.94336000  1.0
  C  C60  1  0.33552000  0.60452000  0.44337000  1.0
  C  C61  1  0.60776000  0.83892000  0.44335000  1.0
  C  C62  1  0.84694000  0.26459000  0.20912000  1.0
  C  C63  1  0.86210000  0.94455000  0.20920000  1.0
  C  C64  1  0.76458000  0.36205000  0.70918000  1.0
  C  C65  1  0.44444000  0.34692000  0.70913000  1.0
  C  C66  1  0.15306000  0.73541000  0.79088000  1.0
  C  C67  1  0.13791000  0.05546000  0.79080000  1.0
  C  C68  1  0.23542000  0.63794000  0.29082000  1.0
  C  C69  1  0.55556000  0.65308000  0.29087000  1.0
  C  C70  1  0.78268000  0.18242000  0.03430000  1.0
  C  C71  1  0.75166000  0.85196000  0.03440000  1.0
  C  C72  1  0.68245000  0.25164000  0.53437000  1.0
  C  C73  1  0.35194000  0.28264000  0.53433000  1.0
  C  C74  1  0.21732000  0.81757000  0.96570000  1.0
  C  C75  1  0.24834000  0.14804000  0.96560000  1.0
  C  C76  1  0.31755000  0.74836000  0.46563000  1.0
  C  C77  1  0.64806000  0.71736000  0.46567000  1.0
  C  C78  1  0.89790000  0.24394000  0.12855000  1.0
  C  C79  1  0.73063000  0.88470000  0.12870000  1.0
  C  C80  1  0.74397000  0.23061000  0.62864000  1.0
  C  C81  1  0.38459000  0.39786000  0.62856000  1.0
  C  C82  1  0.10210000  0.75606000  0.87145000  1.0
  C  C83  1  0.26937000  0.11530000  0.87130000  1.0
  C  C84  1  0.25603000  0.76939000  0.37136000  1.0
  C  C85  1  0.61541000  0.60214000  0.37144000  1.0
  O  O86  1  0.18322000  0.02226000  0.16804000  1.0
  O  O87  1  0.48480000  0.14587000  0.16807000  1.0
  O  O88  1  0.52223000  0.98486000  0.66810000  1.0
  O  O89  1  0.64586000  0.68320000  0.66802000  1.0
  O  O90  1  0.81678000  0.97774000  0.83196000  1.0
  O  O91  1  0.51520000  0.85413000  0.83193000  1.0
  O  O92  1  0.47777000  0.01514000  0.33190000  1.0
  O  O93  1  0.35414000  0.31680000  0.33198000  1.0
  O  O94  1  0.65759000  0.26980000  0.31791000  1.0
  O  O95  1  0.16002000  0.04790000  0.31787000  1.0
  O  O96  1  0.76986000  0.66007000  0.81785000  1.0
  O  O97  1  0.54802000  0.15769000  0.81795000  1.0
  O  O98  1  0.34240000  0.73020000  0.68209000  1.0
  O  O99  1  0.83998000  0.95210000  0.68213000  1.0
  O  O100  1  0.23014000  0.33993000  0.18215000  1.0
  O  O101  1  0.45198000  0.84231000  0.18205000  1.0
