# generated using pymatgen
data_Zn3H12C22(NO2)6
_symmetry_space_group_name_H-M   'P 1'
_cell_length_a   7.89377000
_cell_length_b   9.10406000
_cell_length_c   19.04100000
_cell_angle_alpha   90.00000000
_cell_angle_beta   90.00000000
_cell_angle_gamma   110.47800000
_symmetry_Int_Tables_number   1
_chemical_formula_structural   Zn3H12C22(NO2)6
_chemical_formula_sum   'Zn6 H24 C44 N12 O24'
_cell_volume   1281.91511928
_cell_formula_units_Z   2
loop_
 _symmetry_equiv_pos_site_id
 _symmetry_equiv_pos_as_xyz
  1  'x, y, z'
loop_
 _atom_site_type_symbol
 _atom_site_label
 _atom_site_symmetry_multiplicity
 _atom_site_fract_x
 _atom_site_fract_y
 _atom_site_fract_z
 _atom_site_occupancy
  Zn  Zn0  1  0.00000000  0.00000000  0.50000000  1.0
  Zn  Zn1  1  0.50000000  0.00000000  0.00000000  1.0
  Zn  Zn2  1  0.83288000  0.30515000  0.47088000  1.0
  Zn  Zn3  1  0.66712000  0.69485000  0.97088000  1.0
  Zn  Zn4  1  0.16713000  0.69485000  0.52912000  1.0
  Zn  Zn5  1  0.33288000  0.30515000  0.02912000  1.0
  H  H6  1  0.95939000  0.87981000  0.30334000  1.0
  H  H7  1  0.54061000  0.12019000  0.80334000  1.0
  H  H8  1  0.04061000  0.12019000  0.69665000  1.0
  H  H9  1  0.45940000  0.87981000  0.19666000  1.0
  H  H10  1  0.93221000  0.78846000  0.17922000  1.0
  H  H11  1  0.56778000  0.21154000  0.67922000  1.0
  H  H12  1  0.06779000  0.21155000  0.82078000  1.0
  H  H13  1  0.43221000  0.78846000  0.32078000  1.0
  H  H14  1  0.81527000  0.19577000  0.11544000  1.0
  H  H15  1  0.68473000  0.80424000  0.61544000  1.0
  H  H16  1  0.18473000  0.80424000  0.88456000  1.0
  H  H17  1  0.31526000  0.19576000  0.38456000  1.0
  H  H18  1  0.83715000  0.28511000  0.24021000  1.0
  H  H19  1  0.66284000  0.71489000  0.74020000  1.0
  H  H20  1  0.16283000  0.71488000  0.75979000  1.0
  H  H21  1  0.33716000  0.28511000  0.25979000  1.0
  H  H22  1  0.38217000  0.22320000  0.57644000  1.0
  H  H23  1  0.11783000  0.77681000  0.07645000  1.0
  H  H24  1  0.61784000  0.77681000  0.42356000  1.0
  H  H25  1  0.88216000  0.22319000  0.92356000  1.0
  H  H26  1  0.45141000  0.54512000  0.59427000  1.0
  H  H27  1  0.04859000  0.45488000  0.09427000  1.0
  H  H28  1  0.54860000  0.45489000  0.40573000  1.0
  H  H29  1  0.95140000  0.54512000  0.90573000  1.0
  C  C30  1  0.89976000  0.12934000  0.35568000  1.0
  C  C31  1  0.60024000  0.87066000  0.85568000  1.0
  C  C32  1  0.10024000  0.87065000  0.64432000  1.0
  C  C33  1  0.39976000  0.12936000  0.14433000  1.0
  C  C34  1  0.89568000  0.08600000  0.27966000  1.0
  C  C35  1  0.60432000  0.91401000  0.77966000  1.0
  C  C36  1  0.10432000  0.91400000  0.72034000  1.0
  C  C37  1  0.39568000  0.08599000  0.22034000  1.0
  C  C38  1  0.92678000  0.94793000  0.26193000  1.0
  C  C39  1  0.57321000  0.05207000  0.76193000  1.0
  C  C40  1  0.07321000  0.05207000  0.73807000  1.0
  C  C41  1  0.42679000  0.94793000  0.23807000  1.0
  C  C42  1  0.91198000  0.89745000  0.19266000  1.0
  C  C43  1  0.58801000  0.10256000  0.69266000  1.0
  C  C44  1  0.08802000  0.10256000  0.80734000  1.0
  C  C45  1  0.41199000  0.89744000  0.30734000  1.0
  C  C46  1  0.86765000  0.98495000  0.13973000  1.0
  C  C47  1  0.63234000  0.01506000  0.63973000  1.0
  C  C48  1  0.13234000  0.01506000  0.86027000  1.0
  C  C49  1  0.36766000  0.98495000  0.36027000  1.0
  C  C50  1  0.84912000  0.12850000  0.15690000  1.0
  C  C51  1  0.65088000  0.87151000  0.65690000  1.0
  C  C52  1  0.15088000  0.87151000  0.84311000  1.0
  C  C53  1  0.34912000  0.12849000  0.34310000  1.0
  C  C54  1  0.86098000  0.17790000  0.22647000  1.0
  C  C55  1  0.63901000  0.82210000  0.72647000  1.0
  C  C56  1  0.13901000  0.82210000  0.77353000  1.0
  C  C57  1  0.36099000  0.17790000  0.27353000  1.0
  C  C58  1  0.81856000  0.91833000  0.06787000  1.0
  C  C59  1  0.68144000  0.08168000  0.56787000  1.0
  C  C60  1  0.18143000  0.08168000  0.93213000  1.0
  C  C61  1  0.31856000  0.91832000  0.43213000  1.0
  C  C62  1  0.30226000  0.29447000  0.56272000  1.0
  C  C63  1  0.19774000  0.70553000  0.06273000  1.0
  C  C64  1  0.69775000  0.70554000  0.43728000  1.0
  C  C65  1  0.80225000  0.29446000  0.93728000  1.0
  C  C66  1  0.33776000  0.45400000  0.57062000  1.0
  C  C67  1  0.16224000  0.54601000  0.07062000  1.0
  C  C68  1  0.66224000  0.54600000  0.42938000  1.0
  C  C69  1  0.83776000  0.45400000  0.92938000  1.0
  C  C70  1  0.12276000  0.53213000  0.31986000  1.0
  C  C71  1  0.37725000  0.46785000  0.81985000  1.0
  C  C72  1  0.87726000  0.46785000  0.68014000  1.0
  C  C73  1  0.62276000  0.53214000  0.18014000  1.0
  N  N74  1  0.14212000  0.23449000  0.52919000  1.0
  N  N75  1  0.35788000  0.76552000  0.02919000  1.0
  N  N76  1  0.85788000  0.76551000  0.47081000  1.0
  N  N77  1  0.64211000  0.23449000  0.97081000  1.0
  N  N78  1  0.08104000  0.35050000  0.51638000  1.0
  N  N79  1  0.41895000  0.64950000  0.01638000  1.0
  N  N80  1  0.91896000  0.64950000  0.48362000  1.0
  N  N81  1  0.58103000  0.35050000  0.98362000  1.0
  N  N82  1  0.19807000  0.48532000  0.54140000  1.0
  N  N83  1  0.30193000  0.51468000  0.04141000  1.0
  N  N84  1  0.80194000  0.51468000  0.45859000  1.0
  N  N85  1  0.69806000  0.48532000  0.95859000  1.0
  O  O86  1  0.97065000  0.05987000  0.39710000  1.0
  O  O87  1  0.52934000  0.94013000  0.89710000  1.0
  O  O88  1  0.02933000  0.94013000  0.60290000  1.0
  O  O89  1  0.47067000  0.05987000  0.10290000  1.0
  O  O90  1  0.83139000  0.23391000  0.37320000  1.0
  O  O91  1  0.66861000  0.76610000  0.87320000  1.0
  O  O92  1  0.16861000  0.76610000  0.62680000  1.0
  O  O93  1  0.33140000  0.23390000  0.12680000  1.0
  O  O94  1  0.82325000  0.78031000  0.05543000  1.0
  O  O95  1  0.67674000  0.21969000  0.55542000  1.0
  O  O96  1  0.17674000  0.21969000  0.94458000  1.0
  O  O97  1  0.32326000  0.78031000  0.44458000  1.0
  O  O98  1  0.76382000  0.99249000  0.02215000  1.0
  O  O99  1  0.73618000  0.00751000  0.52215000  1.0
  O  O100  1  0.23618000  0.00751000  0.97785000  1.0
  O  O101  1  0.26382000  0.99249000  0.47785000  1.0
  O  O102  1  0.22781000  0.47580000  0.33920000  1.0
  O  O103  1  0.27220000  0.52419000  0.83919000  1.0
  O  O104  1  0.77220000  0.52419000  0.66082000  1.0
  O  O105  1  0.72781000  0.47580000  0.16082000  1.0
  O  O106  1  0.01873000  0.58895000  0.30003000  1.0
  O  O107  1  0.48128000  0.41103000  0.80002000  1.0
  O  O108  1  0.98130000  0.41102000  0.69996000  1.0
  O  O109  1  0.51872000  0.58898000  0.19996000  1.0
