# generated using pymatgen
data_ZnH12(C4N3)2
_symmetry_space_group_name_H-M   'P 1'
_cell_length_a   9.44082000
_cell_length_b   9.44081000
_cell_length_c   12.96200000
_cell_angle_alpha   90.00000000
_cell_angle_beta   90.00000000
_cell_angle_gamma   89.96520000
_symmetry_Int_Tables_number   1
_chemical_formula_structural   ZnH12(C4N3)2
_chemical_formula_sum   'Zn4 H48 C32 N24'
_cell_volume   1155.28972760
_cell_formula_units_Z   4
loop_
 _symmetry_equiv_pos_site_id
 _symmetry_equiv_pos_as_xyz
  1  'x, y, z'
loop_
 _atom_site_type_symbol
 _atom_site_label
 _atom_site_symmetry_multiplicity
 _atom_site_fract_x
 _atom_site_fract_y
 _atom_site_fract_z
 _atom_site_occupancy
  Zn  Zn0  1  0.33663000  0.33663000  0.25000000  1.0
  Zn  Zn1  1  0.66337000  0.66337000  0.75000000  1.0
  Zn  Zn2  1  0.16333000  0.83667000  0.00000000  1.0
  Zn  Zn3  1  0.83667000  0.16333000  0.50000000  1.0
  H  H4  1  0.00626000  0.31312000  0.32008000  1.0
  H  H5  1  0.99374000  0.68688000  0.82008000  1.0
  H  H6  1  0.18670000  0.50633000  0.07034000  1.0
  H  H7  1  0.81330000  0.49367000  0.57034000  1.0
  H  H8  1  0.50633000  0.18670000  0.42966000  1.0
  H  H9  1  0.49367000  0.81330000  0.92966000  1.0
  H  H10  1  0.68688000  0.99374000  0.67992000  1.0
  H  H11  1  0.31312000  0.00626000  0.17992000  1.0
  H  H12  1  0.10876000  0.13762000  0.66625000  1.0
  H  H13  1  0.89124000  0.86238000  0.16625000  1.0
  H  H14  1  0.36261000  0.60847000  0.41644000  1.0
  H  H15  1  0.63739000  0.39153000  0.91644000  1.0
  H  H16  1  0.60847000  0.36261000  0.08356000  1.0
  H  H17  1  0.39153000  0.63739000  0.58356000  1.0
  H  H18  1  0.86238000  0.89124000  0.33375000  1.0
  H  H19  1  0.13762000  0.10876000  0.83375000  1.0
  H  H20  1  0.10722000  0.97820000  0.59737000  1.0
  H  H21  1  0.89278000  0.02180000  0.09737000  1.0
  H  H22  1  0.52199000  0.60704000  0.34752000  1.0
  H  H23  1  0.47801000  0.39296000  0.84752000  1.0
  H  H24  1  0.60704000  0.52199000  0.15248000  1.0
  H  H25  1  0.39296000  0.47801000  0.65248000  1.0
  H  H26  1  0.02180000  0.89278000  0.40263000  1.0
  H  H27  1  0.97820000  0.10722000  0.90263000  1.0
  H  H28  1  0.31397000  0.98338000  0.71617000  1.0
  H  H29  1  0.68603000  0.01662000  0.21617000  1.0
  H  H30  1  0.51645000  0.81396000  0.46630000  1.0
  H  H31  1  0.48355000  0.18604000  0.96630000  1.0
  H  H32  1  0.81396000  0.51645000  0.03370000  1.0
  H  H33  1  0.18604000  0.48355000  0.53370000  1.0
  H  H34  1  0.01662000  0.68603000  0.28383000  1.0
  H  H35  1  0.98338000  0.31397000  0.78383000  1.0
  H  H36  1  0.37817000  0.14216000  0.65807000  1.0
  H  H37  1  0.62183000  0.85784000  0.15807000  1.0
  H  H38  1  0.35751000  0.87787000  0.40813000  1.0
  H  H39  1  0.64249000  0.12213000  0.90813000  1.0
  H  H40  1  0.87787000  0.35751000  0.09187000  1.0
  H  H41  1  0.12213000  0.64249000  0.59187000  1.0
  H  H42  1  0.85783000  0.62183000  0.34193000  1.0
  H  H43  1  0.14217000  0.37817000  0.84193000  1.0
  H  H44  1  0.37597000  0.98254000  0.58692000  1.0
  H  H45  1  0.62403000  0.01746000  0.08692000  1.0
  H  H46  1  0.51712000  0.87573000  0.33698000  1.0
  H  H47  1  0.48288000  0.12427000  0.83698000  1.0
  H  H48  1  0.87573000  0.51712000  0.16302000  1.0
  H  H49  1  0.12427000  0.48288000  0.66302000  1.0
  H  H50  1  0.01746000  0.62403000  0.41308000  1.0
  H  H51  1  0.98254000  0.37597000  0.91308000  1.0
  C  C52  1  0.16163000  0.15907000  0.50868000  1.0
  C  C53  1  0.83837000  0.84093000  0.00868000  1.0
  C  C54  1  0.34094000  0.66150000  0.25886000  1.0
  C  C55  1  0.65906000  0.33851000  0.75886000  1.0
  C  C56  1  0.66149000  0.34094000  0.24114000  1.0
  C  C57  1  0.33851000  0.65906000  0.74114000  1.0
  C  C58  1  0.84093000  0.83837000  0.49132000  1.0
  C  C59  1  0.15907000  0.16163000  0.99132000  1.0
  C  C60  1  0.07981000  0.26903000  0.37624000  1.0
  C  C61  1  0.92019000  0.73097000  0.87624000  1.0
  C  C62  1  0.23086000  0.57987000  0.12645000  1.0
  C  C63  1  0.76914000  0.42013000  0.62645000  1.0
  C  C64  1  0.57986000  0.23086000  0.37355000  1.0
  C  C65  1  0.42014000  0.76914000  0.87355000  1.0
  C  C66  1  0.73097000  0.92019000  0.62376000  1.0
  C  C67  1  0.26903000  0.07981000  0.12376000  1.0
  C  C68  1  0.16743000  0.07736000  0.60726000  1.0
  C  C69  1  0.83257000  0.92264000  0.10726000  1.0
  C  C70  1  0.42273000  0.66720000  0.35743000  1.0
  C  C71  1  0.57727000  0.33280000  0.85743000  1.0
  C  C72  1  0.66720000  0.42273000  0.14257000  1.0
  C  C73  1  0.33280000  0.57727000  0.64257000  1.0
  C  C74  1  0.92264000  0.83257000  0.39274000  1.0
  C  C75  1  0.07736000  0.16743000  0.89274000  1.0
  C  C76  1  0.31743000  0.04483000  0.64432000  1.0
  C  C77  1  0.68257000  0.95517000  0.14433000  1.0
  C  C78  1  0.45499000  0.81723000  0.39445000  1.0
  C  C79  1  0.54501000  0.18277000  0.89445000  1.0
  C  C80  1  0.81723000  0.45499000  0.10555000  1.0
  C  C81  1  0.18277000  0.54501000  0.60555000  1.0
  C  C82  1  0.95517000  0.68257000  0.35567000  1.0
  C  C83  1  0.04483000  0.31743000  0.85567000  1.0
  N  N84  1  0.22061000  0.27180000  0.37048000  1.0
  N  N85  1  0.77939000  0.72820000  0.87048000  1.0
  N  N86  1  0.22822000  0.72067000  0.12064000  1.0
  N  N87  1  0.77178000  0.27933000  0.62063000  1.0
  N  N88  1  0.72067000  0.22822000  0.37937000  1.0
  N  N89  1  0.27933000  0.77178000  0.87937000  1.0
  N  N90  1  0.72820000  0.77939000  0.62952000  1.0
  N  N91  1  0.27180000  0.22061000  0.12952000  1.0
  N  N92  1  0.27408000  0.20122000  0.45529000  1.0
  N  N93  1  0.72592000  0.79878000  0.95529000  1.0
  N  N94  1  0.29889000  0.77402000  0.20544000  1.0
  N  N95  1  0.70111000  0.22598000  0.70544000  1.0
  N  N96  1  0.77401000  0.29889000  0.29456000  1.0
  N  N97  1  0.22599000  0.70111000  0.79456000  1.0
  N  N98  1  0.79878000  0.72592000  0.54471000  1.0
  N  N99  1  0.20122000  0.27408000  0.04471000  1.0
  N  N100  1  0.03744000  0.19943000  0.46195000  1.0
  N  N101  1  0.96256000  0.80057000  0.96195000  1.0
  N  N102  1  0.30044000  0.53739000  0.21215000  1.0
  N  N103  1  0.69956000  0.46261000  0.71215000  1.0
  N  N104  1  0.53739000  0.30044000  0.28785000  1.0
  N  N105  1  0.46261000  0.69956000  0.78785000  1.0
  N  N106  1  0.80057000  0.96256000  0.53805000  1.0
  N  N107  1  0.19943000  0.03744000  0.03805000  1.0
