# generated using pymatgen
data_YH6C5O8
_symmetry_space_group_name_H-M   'P 1'
_cell_length_a   6.69087000
_cell_length_b   6.69090000
_cell_length_c   11.16520000
_cell_angle_alpha   105.37800000
_cell_angle_beta   105.37900000
_cell_angle_gamma   94.19810000
_symmetry_Int_Tables_number   1
_chemical_formula_structural   YH6C5O8
_chemical_formula_sum   'Y2 H12 C10 O16'
_cell_volume   459.11832402
_cell_formula_units_Z   2
loop_
 _symmetry_equiv_pos_site_id
 _symmetry_equiv_pos_as_xyz
  1  'x, y, z'
loop_
 _atom_site_type_symbol
 _atom_site_label
 _atom_site_symmetry_multiplicity
 _atom_site_fract_x
 _atom_site_fract_y
 _atom_site_fract_z
 _atom_site_occupancy
  Y  Y0  1  0.12110000  0.12109000  0.30012000  1.0
  Y  Y1  1  0.87892000  0.87890000  0.69989000  1.0
  H  H2  1  0.08780000  0.24378000  0.56670000  1.0
  H  H3  1  0.75620000  0.91219000  0.43331000  1.0
  H  H4  1  0.91219000  0.75627000  0.43330000  1.0
  H  H5  1  0.24374000  0.08780000  0.56669000  1.0
  H  H6  1  0.32137000  0.54134000  0.69425000  1.0
  H  H7  1  0.45864000  0.67864000  0.30575000  1.0
  H  H8  1  0.67864000  0.45866000  0.30576000  1.0
  H  H9  1  0.54136000  0.32136000  0.69424000  1.0
  H  H10  1  0.41713000  0.73848000  0.84801000  1.0
  H  H11  1  0.26150000  0.58289000  0.15199000  1.0
  H  H12  1  0.58288000  0.26153000  0.15199000  1.0
  H  H13  1  0.73848000  0.41709000  0.84801000  1.0
  C  C14  1  0.43541000  0.68426000  0.74999000  1.0
  C  C15  1  0.31573000  0.56460000  0.25000000  1.0
  C  C16  1  0.56460000  0.31575000  0.25001000  1.0
  C  C17  1  0.68427000  0.43539000  0.74999000  1.0
  C  C18  1  0.38844000  0.84983000  0.68082000  1.0
  C  C19  1  0.15014000  0.61155000  0.31918000  1.0
  C  C20  1  0.61156000  0.15016000  0.31918000  1.0
  C  C21  1  0.84985000  0.38845000  0.68082000  1.0
  C  C22  1  0.92095000  0.07905000  0.00001000  1.0
  C  C23  1  0.07906000  0.92095000  0.99999000  1.0
  O  O24  1  0.64480000  0.64479000  0.75493000  1.0
  O  O25  1  0.35520000  0.35521000  0.24507000  1.0
  O  O26  1  0.52549000  0.91610000  0.63513000  1.0
  O  O27  1  0.08388000  0.47453000  0.36486000  1.0
  O  O28  1  0.47453000  0.08389000  0.36486000  1.0
  O  O29  1  0.91612000  0.52546000  0.63515000  1.0
  O  O30  1  0.21245000  0.91508000  0.66960000  1.0
  O  O31  1  0.08490000  0.78756000  0.33040000  1.0
  O  O32  1  0.78756000  0.08491000  0.33038000  1.0
  O  O33  1  0.91510000  0.21242000  0.66961000  1.0
  O  O34  1  0.89999000  0.17367000  0.10922000  1.0
  O  O35  1  0.82631000  0.10002000  0.89077000  1.0
  O  O36  1  0.10002000  0.82635000  0.89079000  1.0
  O  O37  1  0.17368000  0.89998000  0.10923000  1.0
  O  O38  1  0.20265000  0.20263000  0.52908000  1.0
  O  O39  1  0.79736000  0.79736000  0.47092000  1.0
