# generated using pymatgen
data_H5AuC6S
_symmetry_space_group_name_H-M   'P 1'
_cell_length_a   4.36059000
_cell_length_b   13.80400000
_cell_length_c   20.80320000
_cell_angle_alpha   104.87600000
_cell_angle_beta   90.00000000
_cell_angle_gamma   99.08770000
_symmetry_Int_Tables_number   1
_chemical_formula_structural   H5AuC6S
_chemical_formula_sum   'H40 Au8 C48 S8'
_cell_volume   1193.97885364
_cell_formula_units_Z   8
loop_
 _symmetry_equiv_pos_site_id
 _symmetry_equiv_pos_as_xyz
  1  'x, y, z'
loop_
 _atom_site_type_symbol
 _atom_site_label
 _atom_site_symmetry_multiplicity
 _atom_site_fract_x
 _atom_site_fract_y
 _atom_site_fract_z
 _atom_site_occupancy
  H  H0  1  0.05700000  0.68575000  0.50358000  1.0
  H  H1  1  0.37140000  0.31409000  0.99641000  1.0
  H  H2  1  0.94302000  0.31421000  0.49641000  1.0
  H  H3  1  0.62865000  0.68593000  0.00359000  1.0
  H  H4  1  0.95758000  0.86295000  0.52814000  1.0
  H  H5  1  0.09416000  0.13693000  0.97199000  1.0
  H  H6  1  0.04236000  0.13701000  0.47185000  1.0
  H  H7  1  0.90587000  0.86309000  0.02802000  1.0
  H  H8  1  0.21285000  0.98002000  0.46367000  1.0
  H  H9  1  0.23272000  0.01987000  0.03645000  1.0
  H  H10  1  0.78705000  0.01995000  0.53632000  1.0
  H  H11  1  0.76730000  0.98015000  0.96356000  1.0
  H  H12  1  0.64961000  0.73882000  0.34558000  1.0
  H  H13  1  0.91172000  0.26092000  0.15424000  1.0
  H  H14  1  0.35034000  0.26116000  0.65441000  1.0
  H  H15  1  0.08831000  0.73910000  0.84578000  1.0
  H  H16  1  0.40163000  0.62271000  0.41090000  1.0
  H  H17  1  0.77969000  0.37705000  0.08892000  1.0
  H  H18  1  0.59840000  0.37728000  0.58909000  1.0
  H  H19  1  0.22036000  0.62297000  0.91108000  1.0
  H  H20  1  0.42562000  0.44917000  0.15876000  1.0
  H  H21  1  0.97411000  0.55179000  0.34128000  1.0
  H  H22  1  0.57444000  0.55086000  0.84124000  1.0
  H  H23  1  0.02591000  0.44820000  0.65872000  1.0
  H  H24  1  0.30734000  0.48457000  0.05071000  1.0
  H  H25  1  0.82062000  0.51623000  0.44928000  1.0
  H  H26  1  0.69273000  0.51545000  0.94929000  1.0
  H  H27  1  0.17941000  0.48376000  0.55072000  1.0
  H  H28  1  0.08371000  0.63911000  0.04928000  1.0
  H  H29  1  0.44393000  0.36128000  0.45061000  1.0
  H  H30  1  0.91633000  0.36091000  0.95072000  1.0
  H  H31  1  0.55609000  0.63871000  0.54940000  1.0
  H  H32  1  0.10878000  0.72557000  0.26366000  1.0
  H  H33  1  0.38628000  0.27427000  0.23623000  1.0
  H  H34  1  0.89115000  0.27444000  0.73634000  1.0
  H  H35  1  0.61372000  0.72573000  0.76377000  1.0
  H  H36  1  0.33805000  0.57145000  0.26503000  1.0
  H  H37  1  0.76825000  0.42879000  0.23495000  1.0
  H  H38  1  0.66194000  0.42857000  0.73497000  1.0
  H  H39  1  0.23176000  0.57121000  0.76505000  1.0
  Au  Au40  1  0.77021000  0.87685000  0.25615000  1.0
  Au  Au41  1  0.89318000  0.12340000  0.24400000  1.0
  Au  Au42  1  0.22972000  0.12315000  0.74384000  1.0
  Au  Au43  1  0.10682000  0.87660000  0.75600000  1.0
  Au  Au44  1  0.37858000  0.07575000  0.35102000  1.0
  Au  Au45  1  0.30268000  0.92439000  0.14911000  1.0
  Au  Au46  1  0.62138000  0.92423000  0.64898000  1.0
  Au  Au47  1  0.69732000  0.07562000  0.85089000  1.0
  C  C48  1  0.16305000  0.73552000  0.47383000  1.0
  C  C49  1  0.42761000  0.26430000  0.02617000  1.0
  C  C50  1  0.83694000  0.26445000  0.52617000  1.0
  C  C51  1  0.57245000  0.73572000  0.97384000  1.0
  C  C52  1  0.10931000  0.83572000  0.48819000  1.0
  C  C53  1  0.27345000  0.16414000  0.01189000  1.0
  C  C54  1  0.89063000  0.16425000  0.51181000  1.0
  C  C55  1  0.72657000  0.83588000  0.98812000  1.0
  C  C56  1  0.24980000  0.90130000  0.45197000  1.0
  C  C57  1  0.34871000  0.09854000  0.04808000  1.0
  C  C58  1  0.75012000  0.09866000  0.54802000  1.0
  C  C59  1  0.65132000  0.90149000  0.95193000  1.0
  C  C60  1  0.44413000  0.86642000  0.40039000  1.0
  C  C61  1  0.57821000  0.13346000  0.09959000  1.0
  C  C62  1  0.55578000  0.13356000  0.59960000  1.0
  C  C63  1  0.42181000  0.86657000  0.90042000  1.0
  C  C64  1  0.49470000  0.76541000  0.38512000  1.0
  C  C65  1  0.73003000  0.23441000  0.11475000  1.0
  C  C66  1  0.50525000  0.23456000  0.61487000  1.0
  C  C67  1  0.27001000  0.76561000  0.88526000  1.0
  C  C68  1  0.35486000  0.70052000  0.42217000  1.0
  C  C69  1  0.65482000  0.29929000  0.07774000  1.0
  C  C70  1  0.64513000  0.29945000  0.57782000  1.0
  C  C71  1  0.34522000  0.70073000  0.92226000  1.0
  C  C72  1  0.33069000  0.51726000  0.15807000  1.0
  C  C73  1  0.81252000  0.48339000  0.34188000  1.0
  C  C74  1  0.66936000  0.48276000  0.84193000  1.0
  C  C75  1  0.18749000  0.51660000  0.65812000  1.0
  C  C76  1  0.26218000  0.53682000  0.09748000  1.0
  C  C77  1  0.72419000  0.46385000  0.40247000  1.0
  C  C78  1  0.73787000  0.46319000  0.90252000  1.0
  C  C79  1  0.27583000  0.53615000  0.59753000  1.0
  C  C80  1  0.13571000  0.62311000  0.09642000  1.0
  C  C81  1  0.51248000  0.37730000  0.40349000  1.0
  C  C82  1  0.86431000  0.37690000  0.90357000  1.0
  C  C83  1  0.48751000  0.62269000  0.59651000  1.0
  C  C84  1  0.07715000  0.69039000  0.15640000  1.0
  C  C85  1  0.38793000  0.30980000  0.34350000  1.0
  C  C86  1  0.92285000  0.30963000  0.84360000  1.0
  C  C87  1  0.61208000  0.69020000  0.65650000  1.0
  C  C88  1  0.15099000  0.67199000  0.21719000  1.0
  C  C89  1  0.48106000  0.32805000  0.28272000  1.0
  C  C90  1  0.84897000  0.32802000  0.78281000  1.0
  C  C91  1  0.51893000  0.67194000  0.71728000  1.0
  C  C92  1  0.27806000  0.58551000  0.21771000  1.0
  C  C93  1  0.69364000  0.41475000  0.28224000  1.0
  C  C94  1  0.72194000  0.41450000  0.78228000  1.0
  C  C95  1  0.30636000  0.58525000  0.71777000  1.0
  S  S96  1  0.66972000  0.95542000  0.36362000  1.0
  S  S97  1  0.71470000  0.04456000  0.13650000  1.0
  S  S98  1  0.33021000  0.04456000  0.63637000  1.0
  S  S99  1  0.28531000  0.95545000  0.86351000  1.0
  S  S100  1  0.89483000  0.79468000  0.15027000  1.0
  S  S101  1  0.10128000  0.20561000  0.34976000  1.0
  S  S102  1  0.10516000  0.20533000  0.84972000  1.0
  S  S103  1  0.89872000  0.79439000  0.65025000  1.0
