# generated using pymatgen
data_MoH4C5NO3
_symmetry_space_group_name_H-M   'P 1'
_cell_length_a   5.43726000
_cell_length_b   5.43898000
_cell_length_c   12.02955134
_cell_angle_alpha   101.88250604
_cell_angle_beta   101.78032883
_cell_angle_gamma   94.60330000
_symmetry_Int_Tables_number   1
_chemical_formula_structural   MoH4C5NO3
_chemical_formula_sum   'Mo2 H8 C10 N2 O6'
_cell_volume   338.00774819
_cell_formula_units_Z   2
loop_
 _symmetry_equiv_pos_site_id
 _symmetry_equiv_pos_as_xyz
  1  'x, y, z'
loop_
 _atom_site_type_symbol
 _atom_site_label
 _atom_site_symmetry_multiplicity
 _atom_site_fract_x
 _atom_site_fract_y
 _atom_site_fract_z
 _atom_site_occupancy
  Mo  Mo0  1  0.35526000  0.12943000  0.47524000  1.0
  Mo  Mo1  1  0.87471000  0.64930000  0.52482000  1.0
  H  H2  1  0.31402000  0.55223000  0.70187000  1.0
  H  H3  1  0.44847000  0.68651000  0.29902000  1.0
  H  H4  1  0.40919000  0.66720000  0.91642000  1.0
  H  H5  1  0.33058000  0.58878000  0.08448000  1.0
  H  H6  1  0.76609000  0.98422000  0.91328000  1.0
  H  H7  1  0.01254000  0.23035000  0.08576000  1.0
  H  H8  1  0.64357000  0.89205000  0.69876000  1.0
  H  H9  1  0.10764000  0.35541000  0.30030000  1.0
  C  C10  1  0.41298000  0.42989000  0.75138000  1.0
  C  C11  1  0.56988000  0.58657000  0.24910000  1.0
  C  C12  1  0.46620000  0.49263000  0.87241000  1.0
  C  C13  1  0.50541000  0.53180000  0.12805000  1.0
  C  C14  1  0.59785000  0.33567000  0.93565000  1.0
  C  C15  1  0.66142000  0.39920000  0.06431000  1.0
  C  C16  1  0.66527000  0.11701000  0.87072000  1.0
  C  C17  1  0.88047000  0.33184000  0.12876000  1.0
  C  C18  1  0.59666000  0.06337000  0.74964000  1.0
  C  C19  1  0.93581000  0.40202000  0.24984000  1.0
  N  N20  1  0.47410000  0.21718000  0.68965000  1.0
  N  N21  1  0.78329000  0.52614000  0.31032000  1.0
  O  O22  1  0.29832000  0.03580000  0.32572000  1.0
  O  O23  1  0.96673000  0.70516000  0.67432000  1.0
  O  O24  1  0.63066000  0.84169000  0.50334000  1.0
  O  O25  1  0.16224000  0.37290000  0.49691000  1.0
  O  O26  1  0.13885000  0.86402000  0.49982000  1.0
  O  O27  1  0.66797000  0.33539000  0.50008000  1.0
