# generated using pymatgen
data_CuH10C6(N7Cl)2
_symmetry_space_group_name_H-M   'P 1'
_cell_length_a   6.60867000
_cell_length_b   7.07400000
_cell_length_c   15.72130000
_cell_angle_alpha   88.34330000
_cell_angle_beta   89.99960000
_cell_angle_gamma   89.99930000
_symmetry_Int_Tables_number   1
_chemical_formula_structural   CuH10C6(N7Cl)2
_chemical_formula_sum   'Cu2 H20 C12 N28 Cl4'
_cell_volume   734.65933479
_cell_formula_units_Z   2
loop_
 _symmetry_equiv_pos_site_id
 _symmetry_equiv_pos_as_xyz
  1  'x, y, z'
loop_
 _atom_site_type_symbol
 _atom_site_label
 _atom_site_symmetry_multiplicity
 _atom_site_fract_x
 _atom_site_fract_y
 _atom_site_fract_z
 _atom_site_occupancy
  Cu  Cu0  1  0.50000000  0.50000000  1.00000000  1.0
  Cu  Cu1  1  0.00000000  0.00000000  0.00000000  1.0
  H  H2  1  0.03402000  0.46938000  0.07788000  1.0
  H  H3  1  0.46598000  0.96939000  0.07788000  1.0
  H  H4  1  0.96597000  0.53061000  0.92212000  1.0
  H  H5  1  0.53403000  0.03061000  0.92212000  1.0
  H  H6  1  0.80976000  0.50792000  0.20985000  1.0
  H  H7  1  0.69024000  0.00792000  0.20985000  1.0
  H  H8  1  0.19024000  0.49208000  0.79015000  1.0
  H  H9  1  0.30976000  0.99208000  0.79015000  1.0
  H  H10  1  0.90960000  0.70249000  0.26526000  1.0
  H  H11  1  0.59039000  0.20249000  0.26525000  1.0
  H  H12  1  0.09040000  0.29751000  0.73474000  1.0
  H  H13  1  0.40961000  0.79751000  0.73475000  1.0
  H  H14  1  0.06733000  0.47883000  0.37419000  1.0
  H  H15  1  0.43266000  0.97884000  0.37419000  1.0
  H  H16  1  0.93266000  0.52117000  0.62581000  1.0
  H  H17  1  0.56734000  0.02116000  0.62581000  1.0
  H  H18  1  0.95965000  0.28304000  0.32174000  1.0
  H  H19  1  0.54035000  0.78304000  0.32174000  1.0
  H  H20  1  0.04035000  0.71696000  0.67826000  1.0
  H  H21  1  0.45965000  0.21696000  0.67826000  1.0
  C  C22  1  0.15276000  0.50011000  0.12312000  1.0
  C  C23  1  0.34724000  0.00011000  0.12312000  1.0
  C  C24  1  0.84724000  0.49989000  0.87688000  1.0
  C  C25  1  0.65276000  0.99989000  0.87688000  1.0
  C  C26  1  0.93212000  0.55231000  0.25195000  1.0
  C  C27  1  0.56787000  0.05230000  0.25195000  1.0
  C  C28  1  0.06788000  0.44769000  0.74805000  1.0
  C  C29  1  0.43213000  0.94770000  0.74805000  1.0
  C  C30  1  0.94012000  0.43392000  0.33452000  1.0
  C  C31  1  0.55988000  0.93392000  0.33451000  1.0
  C  C32  1  0.05987000  0.56608000  0.66549000  1.0
  C  C33  1  0.44013000  0.06607000  0.66549000  1.0
  N  N34  1  0.12170000  0.53512000  0.20544000  1.0
  N  N35  1  0.37830000  0.03512000  0.20544000  1.0
  N  N36  1  0.87830000  0.46487000  0.79456000  1.0
  N  N37  1  0.62170000  0.96488000  0.79456000  1.0
  N  N38  1  0.30324000  0.56345000  0.24360000  1.0
  N  N39  1  0.19676000  0.06344000  0.24360000  1.0
  N  N40  1  0.69676000  0.43655000  0.75639000  1.0
  N  N41  1  0.80325000  0.93656000  0.75640000  1.0
  N  N42  1  0.44091000  0.54519000  0.18569000  1.0
  N  N43  1  0.05909000  0.04519000  0.18569000  1.0
  N  N44  1  0.55909000  0.45481000  0.81431000  1.0
  N  N45  1  0.94091000  0.95481000  0.81431000  1.0
  N  N46  1  0.35149000  0.50665000  0.11012000  1.0
  N  N47  1  0.14851000  0.00665000  0.11012000  1.0
  N  N48  1  0.64850000  0.49334000  0.88988000  1.0
  N  N49  1  0.85150000  0.99335000  0.88988000  1.0
  N  N50  1  0.74589000  0.46532000  0.37819000  1.0
  N  N51  1  0.75411000  0.96532000  0.37819000  1.0
  N  N52  1  0.25411000  0.53468000  0.62181000  1.0
  N  N53  1  0.24589000  0.03467000  0.62181000  1.0
  N  N54  1  0.72295000  0.38924000  0.44857000  1.0
  N  N55  1  0.77705000  0.88924000  0.44857000  1.0
  N  N56  1  0.27705000  0.61076000  0.55142000  1.0
  N  N57  1  0.22295000  0.11075000  0.55143000  1.0
  N  N58  1  0.68183000  0.32741000  0.51490000  1.0
  N  N59  1  0.81816000  0.82742000  0.51490000  1.0
  N  N60  1  0.31817000  0.67258000  0.48510000  1.0
  N  N61  1  0.18183000  0.17257000  0.48510000  1.0
  Cl  Cl62  1  0.27708000  0.72098000  0.94235000  1.0
  Cl  Cl63  1  0.22291000  0.22098000  0.94235000  1.0
  Cl  Cl64  1  0.72291000  0.27902000  0.05765000  1.0
  Cl  Cl65  1  0.77709000  0.77901000  0.05765000  1.0
