# generated using pymatgen
data_ZnC8S2(ClO2)2
_symmetry_space_group_name_H-M   'P 1'
_cell_length_a   7.86637000
_cell_length_b   17.72520000
_cell_length_c   17.73630000
_cell_angle_alpha   89.95630000
_cell_angle_beta   89.12830000
_cell_angle_gamma   89.09740000
_symmetry_Int_Tables_number   1
_chemical_formula_structural   ZnC8S2(ClO2)2
_chemical_formula_sum   'Zn4 C32 S8 Cl8 O16'
_cell_volume   2472.43182493
_cell_formula_units_Z   4
loop_
 _symmetry_equiv_pos_site_id
 _symmetry_equiv_pos_as_xyz
  1  'x, y, z'
loop_
 _atom_site_type_symbol
 _atom_site_label
 _atom_site_symmetry_multiplicity
 _atom_site_fract_x
 _atom_site_fract_y
 _atom_site_fract_z
 _atom_site_occupancy
  Zn  Zn0  1  0.33367000  0.50154000  0.00159000  1.0
  Zn  Zn1  1  0.67552000  0.49655000  0.99649000  1.0
  Zn  Zn2  1  0.66666667  0.99773000  0.49783000  1.0
  Zn  Zn3  1  0.32404000  0.00277000  0.50262000  1.0
  C  C4  1  0.44333000  0.39889000  0.89879000  1.0
  C  C5  1  0.55768000  0.59985000  0.89742000  1.0
  C  C6  1  0.45750000  0.60062000  0.10088000  1.0
  C  C7  1  0.55815000  0.39723000  0.09964000  1.0
  C  C8  1  0.54581000  0.89857000  0.39878000  1.0
  C  C9  1  0.44058000  0.89949000  0.60153000  1.0
  C  C10  1  0.55535000  0.10049000  0.60051000  1.0
  C  C11  1  0.44111000  0.10162000  0.39946000  1.0
  C  C12  1  0.66363000  0.70019000  0.80061000  1.0
  C  C13  1  0.33384000  0.79954000  0.69855000  1.0
  C  C14  1  0.54200000  0.65878000  0.83949000  1.0
  C  C15  1  0.45578000  0.84073000  0.65961000  1.0
  C  C16  1  0.40943000  0.74824000  0.75011000  1.0
  C  C17  1  0.58779000  0.75154000  0.74922000  1.0
  C  C18  1  0.66440000  0.30066000  0.20023000  1.0
  C  C19  1  0.33463000  0.19837000  0.29920000  1.0
  C  C20  1  0.54270000  0.33934000  0.15862000  1.0
  C  C21  1  0.45651000  0.15960000  0.34062000  1.0
  C  C22  1  0.41029000  0.24995000  0.24799000  1.0
  C  C23  1  0.58859000  0.24924000  0.25154000  1.0
  C  C24  1  0.62426000  0.68766000  0.18840000  1.0
  C  C25  1  0.37940000  0.81115000  0.31170000  1.0
  C  C26  1  0.47463000  0.65871000  0.15919000  1.0
  C  C27  1  0.52901000  0.84017000  0.34082000  1.0
  C  C28  1  0.41451000  0.75554000  0.25621000  1.0
  C  C29  1  0.58918000  0.74317000  0.24403000  1.0
  C  C30  1  0.33522000  0.30113000  0.80104000  1.0
  C  C31  1  0.66484000  0.19809000  0.69813000  1.0
  C  C32  1  0.45715000  0.34033000  0.84033000  1.0
  C  C33  1  0.54236000  0.15904000  0.65898000  1.0
  C  C34  1  0.58953000  0.25001000  0.75005000  1.0
  C  C35  1  0.41104000  0.24929000  0.74925000  1.0
  S  S36  1  0.33479000  0.68281000  0.81361000  1.0
  S  S37  1  0.66281000  0.81677000  0.68566000  1.0
  S  S38  1  0.33556000  0.31324000  0.18239000  1.0
  S  S39  1  0.66355000  0.18583000  0.31698000  1.0
  S  S40  1  0.29258000  0.69961000  0.19996000  1.0
  S  S41  1  0.71111000  0.79922000  0.30017000  1.0
  S  S42  1  0.66454000  0.31381000  0.81395000  1.0
  S  S43  1  0.33538000  0.18564000  0.68546000  1.0
  Cl  Cl44  1  0.87779000  0.69217000  0.81211000  1.0
  Cl  Cl45  1  0.11980000  0.80787000  0.68673000  1.0
  Cl  Cl46  1  0.87851000  0.31250000  0.19241000  1.0
  Cl  Cl47  1  0.12066000  0.18637000  0.30709000  1.0
  Cl  Cl48  1  0.82886000  0.66351000  0.16436000  1.0
  Cl  Cl49  1  0.17479000  0.83539000  0.33568000  1.0
  Cl  Cl50  1  0.12062000  0.31217000  0.81199000  1.0
  Cl  Cl51  1  0.87919000  0.18661000  0.68670000  1.0
  O  O52  1  0.29774000  0.42299000  0.92283000  1.0
  O  O53  1  0.58762000  0.42155000  0.92144000  1.0
  O  O54  1  0.70469000  0.57609000  0.91819000  1.0
  O  O55  1  0.41491000  0.57634000  0.92285000  1.0
  O  O56  1  0.59594000  0.57366000  0.07373000  1.0
  O  O57  1  0.30721000  0.58092000  0.08121000  1.0
  O  O58  1  0.41526000  0.42243000  0.07598000  1.0
  O  O59  1  0.70505000  0.41816000  0.07596000  1.0
  O  O60  1  0.69603000  0.91842000  0.41848000  1.0
  O  O61  1  0.40735000  0.92569000  0.42569000  1.0
  O  O62  1  0.29373000  0.92316000  0.58040000  1.0
  O  O63  1  0.58351000  0.92299000  0.57632000  1.0
  O  O64  1  0.41087000  0.07795000  0.57799000  1.0
  O  O65  1  0.70076000  0.07628000  0.57638000  1.0
  O  O66  1  0.58390000  0.07650000  0.42327000  1.0
  O  O67  1  0.29419000  0.08049000  0.42295000  1.0
