# generated using pymatgen
data_Zn4C24N12O37
_symmetry_space_group_name_H-M   'P 1'
_cell_length_a   18.30257664
_cell_length_b   18.30220000
_cell_length_c   18.30240000
_cell_angle_alpha   59.99891555
_cell_angle_beta   59.99959629
_cell_angle_gamma   59.99931925
_symmetry_Int_Tables_number   1
_chemical_formula_structural   Zn4C24N12O37
_chemical_formula_sum   'Zn8 C48 N24 O74'
_cell_volume   4335.12332645
_cell_formula_units_Z   2
loop_
 _symmetry_equiv_pos_site_id
 _symmetry_equiv_pos_as_xyz
  1  'x, y, z'
loop_
 _atom_site_type_symbol
 _atom_site_label
 _atom_site_symmetry_multiplicity
 _atom_site_fract_x
 _atom_site_fract_y
 _atom_site_fract_z
 _atom_site_occupancy
  Zn  Zn0  1  0.04382000  0.54382000  0.04383000  1.0
  Zn  Zn1  1  0.86855000  0.54382000  0.04382000  1.0
  Zn  Zn2  1  0.04383000  0.36852000  0.04383000  1.0
  Zn  Zn3  1  0.04382000  0.54382000  0.86854000  1.0
  Zn  Zn4  1  0.45619000  0.95617000  0.45618000  1.0
  Zn  Zn5  1  0.45618000  0.13146000  0.45618000  1.0
  Zn  Zn6  1  0.63146000  0.95618000  0.45618000  1.0
  Zn  Zn7  1  0.45618000  0.95618000  0.63146000  1.0
  C  C8  1  0.86354000  0.63647000  0.13645000  1.0
  C  C9  1  0.86354000  0.36354000  0.13646000  1.0
  C  C10  1  0.13646000  0.36353000  0.13647000  1.0
  C  C11  1  0.13646000  0.36353000  0.86355000  1.0
  C  C12  1  0.13646000  0.63647000  0.86354000  1.0
  C  C13  1  0.86354000  0.63646000  0.86355000  1.0
  C  C14  1  0.36354000  0.13646000  0.36353000  1.0
  C  C15  1  0.63646000  0.13646000  0.36354000  1.0
  C  C16  1  0.63646000  0.86354000  0.36354000  1.0
  C  C17  1  0.63647000  0.86354000  0.63646000  1.0
  C  C18  1  0.36354000  0.86354000  0.63646000  1.0
  C  C19  1  0.36354000  0.13646000  0.63646000  1.0
  C  C20  1  0.19474000  0.69473000  0.80527000  1.0
  C  C21  1  0.30527000  0.80527000  0.69473000  1.0
  C  C22  1  0.22462000  0.72160000  0.71169000  1.0
  C  C23  1  0.27840000  0.77539000  0.78829000  1.0
  C  C24  1  0.27538000  0.77840000  0.65792000  1.0
  C  C25  1  0.22159000  0.72463000  0.84208000  1.0
  C  C26  1  0.80527000  0.30527000  0.19473000  1.0
  C  C27  1  0.69473000  0.19474000  0.30527000  1.0
  C  C28  1  0.84208000  0.21170000  0.22160000  1.0
  C  C29  1  0.65791000  0.28831000  0.27539000  1.0
  C  C30  1  0.78830000  0.15792000  0.27841000  1.0
  C  C31  1  0.71170000  0.34209000  0.22462000  1.0
  C  C32  1  0.19474000  0.30525000  0.19474000  1.0
  C  C33  1  0.30527000  0.19472000  0.30527000  1.0
  C  C34  1  0.22160000  0.21170000  0.22462000  1.0
  C  C35  1  0.27538000  0.28829000  0.27842000  1.0
  C  C36  1  0.27841000  0.15791000  0.27538000  1.0
  C  C37  1  0.22461000  0.34208000  0.22160000  1.0
  C  C38  1  0.80528000  0.69473000  0.80526000  1.0
  C  C39  1  0.69474000  0.80527000  0.69472000  1.0
  C  C40  1  0.84210000  0.72461000  0.71169000  1.0
  C  C41  1  0.65792000  0.77842000  0.78830000  1.0
  C  C42  1  0.78831000  0.77537000  0.65791000  1.0
  C  C43  1  0.71171000  0.72160000  0.84209000  1.0
  C  C44  1  0.80526000  0.69474000  0.19473000  1.0
  C  C45  1  0.69473000  0.80527000  0.30527000  1.0
  C  C46  1  0.71170000  0.72463000  0.22159000  1.0
  C  C47  1  0.78830000  0.77840000  0.27538000  1.0
  C  C48  1  0.65792000  0.77539000  0.27840000  1.0
  C  C49  1  0.84209000  0.72160000  0.22461000  1.0
  C  C50  1  0.19472000  0.30526000  0.80527000  1.0
  C  C51  1  0.30526000  0.19473000  0.69473000  1.0
  C  C52  1  0.22156000  0.34209000  0.71171000  1.0
  C  C53  1  0.27538000  0.15791000  0.78829000  1.0
  C  C54  1  0.27838000  0.28831000  0.65792000  1.0
  C  C55  1  0.22462000  0.21169000  0.84209000  1.0
  N  N56  1  0.20475000  0.68822000  0.66664000  1.0
  N  N57  1  0.31176000  0.79527000  0.83336000  1.0
  N  N58  1  0.29526000  0.81177000  0.55963667  1.0
  N  N59  1  0.18821000  0.70477000  0.94039000  1.0
  N  N60  1  0.94039000  0.16663000  0.18824000  1.0
  N  N61  1  0.55961000  0.33337000  0.29526000  1.0
  N  N62  1  0.83336000  0.05960000  0.31178000  1.0
  N  N63  1  0.66666667  0.44037333  0.20474000  1.0
  N  N64  1  0.18824000  0.16662000  0.20475000  1.0
  N  N65  1  0.29526000  0.33335000  0.31177000  1.0
  N  N66  1  0.31178000  0.05960000  0.29528667  1.0
  N  N67  1  0.20473000  0.44039000  0.18824000  1.0
  N  N68  1  0.94040000  0.70474000  0.66663000  1.0
  N  N69  1  0.55962000  0.81178000  0.83337000  1.0
  N  N70  1  0.83337000  0.79524000  0.55961000  1.0
  N  N71  1  0.66666667  0.68823333  0.94038000  1.0
  N  N72  1  0.66666667  0.70472333  0.18823000  1.0
  N  N73  1  0.83336000  0.81177000  0.29526000  1.0
  N  N74  1  0.55961000  0.79526000  0.31179667  1.0
  N  N75  1  0.94039000  0.68823000  0.20474000  1.0
  N  N76  1  0.18819000  0.44039000  0.66665000  1.0
  N  N77  1  0.29526000  0.05960000  0.83335000  1.0
  N  N78  1  0.31175000  0.33337000  0.55962000  1.0
  N  N79  1  0.20475000  0.16662000  0.94039000  1.0
  O  O80  1  0.00002000  0.49998000  0.00003000  1.0
  O  O81  1  0.94184000  0.64067000  0.08862000  1.0
  O  O82  1  0.82888000  0.44185000  0.08861000  1.0
  O  O83  1  0.14067000  0.32886000  0.08863000  1.0
  O  O84  1  0.82887000  0.58863000  0.14065000  1.0
  O  O85  1  0.08861000  0.44182000  0.14069000  1.0
  O  O86  1  0.94184000  0.32887000  0.14067000  1.0
  O  O87  1  0.08863000  0.32886000  0.94185000  1.0
  O  O88  1  0.08862000  0.64066000  0.82888000  1.0
  O  O89  1  0.14065000  0.44184000  0.82888000  1.0
  O  O90  1  0.14066000  0.58863000  0.94185000  1.0
  O  O91  1  0.82888000  0.64067000  0.94184000  1.0
  O  O92  1  0.94185000  0.58861000  0.82888000  1.0
  O  O93  1  0.50001000  0.00000000  0.49999000  1.0
  O  O94  1  0.35935000  0.05814000  0.41138000  1.0
  O  O95  1  0.55816000  0.17112000  0.41138000  1.0
  O  O96  1  0.67113000  0.85933000  0.41138000  1.0
  O  O97  1  0.41139000  0.17111000  0.35934000  1.0
  O  O98  1  0.55816000  0.91138000  0.35934000  1.0
  O  O99  1  0.67113000  0.05815000  0.35934000  1.0
  O  O100  1  0.67114000  0.91137000  0.55815000  1.0
  O  O101  1  0.35934000  0.91138000  0.67112000  1.0
  O  O102  1  0.55817000  0.85934000  0.67112000  1.0
  O  O103  1  0.41138000  0.85934000  0.55815000  1.0
  O  O104  1  0.35934000  0.17114000  0.55815000  1.0
  O  O105  1  0.41138000  0.05816000  0.67112000  1.0
  O  O106  1  0.23992000  0.60728000  0.67910000  1.0
  O  O107  1  0.15723000  0.74475000  0.62014000  1.0
  O  O108  1  0.39271000  0.76010000  0.82090000  1.0
  O  O109  1  0.25524000  0.84277000  0.87987000  1.0
  O  O110  1  0.26009000  0.89272000  0.52629000  1.0
  O  O111  1  0.34276000  0.75525000  0.52212000  1.0
  O  O112  1  0.10727000  0.73995000  0.97369000  1.0
  O  O113  1  0.24473000  0.65724000  0.97789000  1.0
  O  O114  1  0.97370000  0.17910000  0.10729000  1.0
  O  O115  1  0.97788000  0.12012000  0.24476000  1.0
  O  O116  1  0.52630000  0.32092000  0.26008000  1.0
  O  O117  1  0.52212000  0.37986000  0.34278000  1.0
  O  O118  1  0.82091000  0.02628000  0.39272000  1.0
  O  O119  1  0.87985000  0.02212000  0.25525000  1.0
  O  O120  1  0.67910000  0.47372000  0.23990000  1.0
  O  O121  1  0.62015000  0.47788000  0.15722000  1.0
  O  O122  1  0.10729000  0.17909000  0.23991000  1.0
  O  O123  1  0.24476000  0.12012000  0.15723000  1.0
  O  O124  1  0.26009000  0.32090000  0.39271000  1.0
  O  O125  1  0.34277000  0.37985000  0.25525000  1.0
  O  O126  1  0.39272000  0.02628000  0.26008000  1.0
  O  O127  1  0.25526000  0.02211000  0.34277000  1.0
  O  O128  1  0.23989000  0.47371000  0.10729000  1.0
  O  O129  1  0.15722000  0.47787000  0.24476000  1.0
  O  O130  1  0.97372000  0.73990000  0.67909000  1.0
  O  O131  1  0.97789000  0.65723000  0.62012000  1.0
  O  O132  1  0.52631000  0.89273000  0.82090000  1.0
  O  O133  1  0.52213000  0.75526000  0.87986000  1.0
  O  O134  1  0.82091000  0.76006000  0.52630000  1.0
  O  O135  1  0.87987000  0.84275000  0.52211000  1.0
  O  O136  1  0.67911000  0.60730000  0.97372000  1.0
  O  O137  1  0.62016000  0.74477000  0.97787000  1.0
  O  O138  1  0.67909000  0.73993000  0.10728000  1.0
  O  O139  1  0.62014000  0.65724000  0.24475000  1.0
  O  O140  1  0.82091000  0.89271000  0.26009000  1.0
  O  O141  1  0.87986000  0.75523000  0.34278000  1.0
  O  O142  1  0.52630000  0.76008000  0.39272000  1.0
  O  O143  1  0.52212000  0.84277000  0.25525000  1.0
  O  O144  1  0.97370000  0.60729000  0.23990000  1.0
  O  O145  1  0.97787000  0.74476000  0.15723000  1.0
  O  O146  1  0.10725000  0.47370000  0.67910000  1.0
  O  O147  1  0.24471000  0.47788000  0.62015000  1.0
  O  O148  1  0.26009000  0.02628000  0.82090000  1.0
  O  O149  1  0.34277000  0.02211000  0.87986000  1.0
  O  O150  1  0.39269000  0.32093000  0.52631000  1.0
  O  O151  1  0.25523000  0.37987000  0.52211000  1.0
  O  O152  1  0.23993000  0.17908000  0.97370000  1.0
  O  O153  1  0.15724000  0.12012000  0.97789000  1.0
