# generated using pymatgen
data_CdP2H18C14(NO3)2
_symmetry_space_group_name_H-M   'P 1'
_cell_length_a   5.55614000
_cell_length_b   11.21530000
_cell_length_c   14.22500000
_cell_angle_alpha   89.99970000
_cell_angle_beta   95.43080000
_cell_angle_gamma   89.99970000
_symmetry_Int_Tables_number   1
_chemical_formula_structural   CdP2H18C14(NO3)2
_chemical_formula_sum   'Cd2 P4 H36 C28 N4 O12'
_cell_volume   882.43457231
_cell_formula_units_Z   2
loop_
 _symmetry_equiv_pos_site_id
 _symmetry_equiv_pos_as_xyz
  1  'x, y, z'
loop_
 _atom_site_type_symbol
 _atom_site_label
 _atom_site_symmetry_multiplicity
 _atom_site_fract_x
 _atom_site_fract_y
 _atom_site_fract_z
 _atom_site_occupancy
  Cd  Cd0  1  0.00000000  0.00000000  0.00000000  1.0
  Cd  Cd1  1  0.50001000  0.50000000  0.50000000  1.0
  P  P2  1  0.53719000  0.82326000  0.08251000  1.0
  P  P3  1  0.03719000  0.67673000  0.58252000  1.0
  P  P4  1  0.46281000  0.17673000  0.91749000  1.0
  P  P5  1  0.96281000  0.32327000  0.41749000  1.0
  H  H6  1  0.87052000  0.65504000  0.18646000  1.0
  H  H7  1  0.37053000  0.84495000  0.68645000  1.0
  H  H8  1  0.12946000  0.34495000  0.81354000  1.0
  H  H9  1  0.62949000  0.15504000  0.31355000  1.0
  H  H10  1  0.84772000  0.54796000  0.33998000  1.0
  H  H11  1  0.34773000  0.95204000  0.83998000  1.0
  H  H12  1  0.15227000  0.45205000  0.66002000  1.0
  H  H13  1  0.65227000  0.04795000  0.16002000  1.0
  H  H14  1  0.18884000  0.70442000  0.37924000  1.0
  H  H15  1  0.68883000  0.79558000  0.87923000  1.0
  H  H16  1  0.81116000  0.29558000  0.62077000  1.0
  H  H17  1  0.31115000  0.20442000  0.12076000  1.0
  H  H18  1  0.18576000  0.81875000  0.22668000  1.0
  H  H19  1  0.68576000  0.68126000  0.72667000  1.0
  H  H20  1  0.81424000  0.18126000  0.77333000  1.0
  H  H21  1  0.31424000  0.31875000  0.27332000  1.0
  H  H22  1  0.25044000  0.60292000  0.07007000  1.0
  H  H23  1  0.75046000  0.89707000  0.57007000  1.0
  H  H24  1  0.74955000  0.39707000  0.92993000  1.0
  H  H25  1  0.24956000  0.10292000  0.42993000  1.0
  H  H26  1  0.09111000  0.71739000  0.00351000  1.0
  H  H27  1  0.59110000  0.78262000  0.50351000  1.0
  H  H28  1  0.90890000  0.28262000  0.99649000  1.0
  H  H29  1  0.40890000  0.21739000  0.49648000  1.0
  H  H30  1  0.22765000  0.62528000  0.85362000  1.0
  H  H31  1  0.72766000  0.87472000  0.35363000  1.0
  H  H32  1  0.77235000  0.37473000  0.14638000  1.0
  H  H33  1  0.27236000  0.12529000  0.64637000  1.0
  H  H34  1  0.37454000  0.50956000  0.92302000  1.0
  H  H35  1  0.87457000  0.99043000  0.42303000  1.0
  H  H36  1  0.62545000  0.49044000  0.07697000  1.0
  H  H37  1  0.12546000  0.00957000  0.57698000  1.0
  H  H38  1  0.05461000  0.52365000  0.91525000  1.0
  H  H39  1  0.55464000  0.97636000  0.41526000  1.0
  H  H40  1  0.94537000  0.47636000  0.08474000  1.0
  H  H41  1  0.44539000  0.02365000  0.58475000  1.0
  C  C42  1  0.52706000  0.74404000  0.19378000  1.0
  C  C43  1  0.02706000  0.75596000  0.69378000  1.0
  C  C44  1  0.47293000  0.25596000  0.80622000  1.0
  C  C45  1  0.97294000  0.24404000  0.30622000  1.0
  C  C46  1  0.71499000  0.66715000  0.22655000  1.0
  C  C47  1  0.21500000  0.83285000  0.72655000  1.0
  C  C48  1  0.28499000  0.33285000  0.77345000  1.0
  C  C49  1  0.78500000  0.16715000  0.27345000  1.0
  C  C50  1  0.70314000  0.60741000  0.31168000  1.0
  C  C51  1  0.20314000  0.89259000  0.81167000  1.0
  C  C52  1  0.29686000  0.39259000  0.68832000  1.0
  C  C53  1  0.79686000  0.10741000  0.18833000  1.0
  C  C54  1  0.33461000  0.69462000  0.33352000  1.0
  C  C55  1  0.83460000  0.80539000  0.83351000  1.0
  C  C56  1  0.66539000  0.30539000  0.66648000  1.0
  C  C57  1  0.16538000  0.19461000  0.16648000  1.0
  C  C58  1  0.33379000  0.75818000  0.24920000  1.0
  C  C59  1  0.83378000  0.74183000  0.74920000  1.0
  C  C60  1  0.66622000  0.24183000  0.75080000  1.0
  C  C61  1  0.16621000  0.25818000  0.25080000  1.0
  C  C62  1  0.24403000  0.65510000  0.00409000  1.0
  C  C63  1  0.74404000  0.84489000  0.50409000  1.0
  C  C64  1  0.75597000  0.34490000  0.99591000  1.0
  C  C65  1  0.25598000  0.15510000  0.49591000  1.0
  C  C66  1  0.22494000  0.57378000  0.91902000  1.0
  C  C67  1  0.72496000  0.92622000  0.41903000  1.0
  C  C68  1  0.77505000  0.42622000  0.08097000  1.0
  C  C69  1  0.27506000  0.07378000  0.58097000  1.0
  N  N70  1  0.51546000  0.62028000  0.36406000  1.0
  N  N71  1  0.01546000  0.87972000  0.86405000  1.0
  N  N72  1  0.48453000  0.37972000  0.63595000  1.0
  N  N73  1  0.98452000  0.12028000  0.13595000  1.0
  O  O74  1  0.79842000  0.85282000  0.07214000  1.0
  O  O75  1  0.29843000  0.64717000  0.57214000  1.0
  O  O76  1  0.20158000  0.14718000  0.92786000  1.0
  O  O77  1  0.70159000  0.35283000  0.42786000  1.0
  O  O78  1  0.46860000  0.72104000  0.00394000  1.0
  O  O79  1  0.96859000  0.77894000  0.50394000  1.0
  O  O80  1  0.53141000  0.27895000  0.99606000  1.0
  O  O81  1  0.03141000  0.22104000  0.49606000  1.0
  O  O82  1  0.35233000  0.92169000  0.07956000  1.0
  O  O83  1  0.85233000  0.57830000  0.57957000  1.0
  O  O84  1  0.64766000  0.07830000  0.92044000  1.0
  O  O85  1  0.14767000  0.42170000  0.42044000  1.0
