# generated using pymatgen
data_Zr3H14C48(O4F3)4
_symmetry_space_group_name_H-M   'P 1'
_cell_length_a   21.64770000
_cell_length_b   21.64790000
_cell_length_c   21.64770000
_cell_angle_alpha   60.00091685
_cell_angle_beta   60.00120000
_cell_angle_gamma   60.00046638
_symmetry_Int_Tables_number   1
_chemical_formula_structural   Zr3H14C48(O4F3)4
_chemical_formula_sum   'Zr6 H28 C96 O32 F24'
_cell_volume   7173.52762640
_cell_formula_units_Z   2
loop_
 _symmetry_equiv_pos_site_id
 _symmetry_equiv_pos_as_xyz
  1  'x, y, z'
loop_
 _atom_site_type_symbol
 _atom_site_label
 _atom_site_symmetry_multiplicity
 _atom_site_fract_x
 _atom_site_fract_y
 _atom_site_fract_z
 _atom_site_occupancy
  Zr  Zr0  1  0.58170000  0.08171000  0.91831000  1.0
  Zr  Zr1  1  0.41832000  0.91826000  0.08169000  1.0
  Zr  Zr2  1  0.41828000  0.08171000  0.91827000  1.0
  Zr  Zr3  1  0.58174000  0.91827000  0.08171000  1.0
  Zr  Zr4  1  0.41831000  0.08166000  0.08169000  1.0
  Zr  Zr5  1  0.58174000  0.91830000  0.91826000  1.0
  H  H6  1  0.43568000  0.19293000  0.93571000  1.0
  H  H7  1  0.43569000  0.93569000  0.19293000  1.0
  H  H8  1  0.43569000  0.93568000  0.93568000  1.0
  H  H9  1  0.69296000  0.93569000  0.93568000  1.0
  H  H10  1  0.60073000  0.28262000  0.90098000  1.0
  H  H11  1  0.40100000  0.28260000  0.10079000  1.0
  H  H12  1  0.60080000  0.71561000  0.90101000  1.0
  H  H13  1  0.40102000  0.71562000  0.10077000  1.0
  H  H14  1  0.78262000  0.10073000  0.71568000  1.0
  H  H15  1  0.78259000  0.90101000  0.71561000  1.0
  H  H16  1  0.21561000  0.10080000  0.28259000  1.0
  H  H17  1  0.21561000  0.90103000  0.28259000  1.0
  H  H18  1  0.40101000  0.10075000  0.28260000  1.0
  H  H19  1  0.60082000  0.90101000  0.28256000  1.0
  H  H20  1  0.40103000  0.10080000  0.71559000  1.0
  H  H21  1  0.60079000  0.90102000  0.71561000  1.0
  H  H22  1  0.78265000  0.71570000  0.90096000  1.0
  H  H23  1  0.78260000  0.71564000  0.10078000  1.0
  H  H24  1  0.21562000  0.28261000  0.90100000  1.0
  H  H25  1  0.21562000  0.28259000  0.10079000  1.0
  H  H26  1  0.40098000  0.28263000  0.71567000  1.0
  H  H27  1  0.60079000  0.28258000  0.71563000  1.0
  H  H28  1  0.40102000  0.71561000  0.28259000  1.0
  H  H29  1  0.60078000  0.71561000  0.28260000  1.0
  H  H30  1  0.78265000  0.90101000  0.10071000  1.0
  H  H31  1  0.78257000  0.10082000  0.90097000  1.0
  H  H32  1  0.21561000  0.90105000  0.10076000  1.0
  H  H33  1  0.21564000  0.10082000  0.90098000  1.0
  C  C34  1  0.50175000  0.20581000  0.00179000  1.0
  C  C35  1  0.29064000  0.00178000  0.20580000  1.0
  C  C36  1  0.50180000  0.79063000  0.00177000  1.0
  C  C37  1  0.70581000  0.00177000  0.79064000  1.0
  C  C38  1  0.50178000  0.20581000  0.79065000  1.0
  C  C39  1  0.70582000  0.00180000  0.00175000  1.0
  C  C40  1  0.50178000  0.79063000  0.20581000  1.0
  C  C41  1  0.29064000  0.00179000  0.00177000  1.0
  C  C42  1  0.29063000  0.20581000  0.00178000  1.0
  C  C43  1  0.50179000  0.00178000  0.79063000  1.0
  C  C44  1  0.70582000  0.79065000  0.00178000  1.0
  C  C45  1  0.50179000  0.00177000  0.20579000  1.0
  C  C46  1  0.50117000  0.27532000  0.00119000  1.0
  C  C47  1  0.55701000  0.30777000  0.94442000  1.0
  C  C48  1  0.55536000  0.37224000  0.94478000  1.0
  C  C49  1  0.49984000  0.40715000  0.99985000  1.0
  C  C50  1  0.44479000  0.37223000  0.05539000  1.0
  C  C51  1  0.44442000  0.30776000  0.05706000  1.0
  C  C52  1  0.49961000  0.47225000  0.99959000  1.0
  C  C53  1  0.49962000  0.52855000  0.99959000  1.0
  C  C54  1  0.49988000  0.59314000  0.99986000  1.0
  C  C55  1  0.55542000  0.62758000  0.94480000  1.0
  C  C56  1  0.55708000  0.69075000  0.94444000  1.0
  C  C57  1  0.50122000  0.72230000  0.00119000  1.0
  C  C58  1  0.44446000  0.69076000  0.05705000  1.0
  C  C59  1  0.44482000  0.62758000  0.05539000  1.0
  C  C60  1  0.77532000  0.00118000  0.72232000  1.0
  C  C61  1  0.80777000  0.05702000  0.69080000  1.0
  C  C62  1  0.87225000  0.05536000  0.62763000  1.0
  C  C63  1  0.90715000  0.99985000  0.59316000  1.0
  C  C64  1  0.87223000  0.94480000  0.62758000  1.0
  C  C65  1  0.80776000  0.94443000  0.69076000  1.0
  C  C66  1  0.97225000  0.99961000  0.52855000  1.0
  C  C67  1  0.02855000  0.99963000  0.47223000  1.0
  C  C68  1  0.09315000  0.99988000  0.40713000  1.0
  C  C69  1  0.12758000  0.05542000  0.37221000  1.0
  C  C70  1  0.19076000  0.05708000  0.30773000  1.0
  C  C71  1  0.22230000  0.00122000  0.27528000  1.0
  C  C72  1  0.19075000  0.94446000  0.30774000  1.0
  C  C73  1  0.12757000  0.94483000  0.37221000  1.0
  C  C74  1  0.50122000  0.00119000  0.27528000  1.0
  C  C75  1  0.44445000  0.05704000  0.30773000  1.0
  C  C76  1  0.44483000  0.05539000  0.37220000  1.0
  C  C77  1  0.49990000  0.99987000  0.40709000  1.0
  C  C78  1  0.55544000  0.94481000  0.37218000  1.0
  C  C79  1  0.55709000  0.94444000  0.30771000  1.0
  C  C80  1  0.49967000  0.99962000  0.47219000  1.0
  C  C81  1  0.49966000  0.99964000  0.52849000  1.0
  C  C82  1  0.49989000  0.99988000  0.59312000  1.0
  C  C83  1  0.44484000  0.05542000  0.62755000  1.0
  C  C84  1  0.44447000  0.05708000  0.69073000  1.0
  C  C85  1  0.50122000  0.00122000  0.72228000  1.0
  C  C86  1  0.55707000  0.94446000  0.69074000  1.0
  C  C87  1  0.55542000  0.94482000  0.62757000  1.0
  C  C88  1  0.77534000  0.72235000  0.00117000  1.0
  C  C89  1  0.80780000  0.69084000  0.94438000  1.0
  C  C90  1  0.87228000  0.62767000  0.94474000  1.0
  C  C91  1  0.90718000  0.59319000  0.99983000  1.0
  C  C92  1  0.87225000  0.62763000  0.05537000  1.0
  C  C93  1  0.80778000  0.69080000  0.05704000  1.0
  C  C94  1  0.97225000  0.52857000  0.99960000  1.0
  C  C95  1  0.02855000  0.47225000  0.99961000  1.0
  C  C96  1  0.09316000  0.40715000  0.99985000  1.0
  C  C97  1  0.12759000  0.37224000  0.94479000  1.0
  C  C98  1  0.19076000  0.30776000  0.94444000  1.0
  C  C99  1  0.22230000  0.27530000  0.00120000  1.0
  C  C100  1  0.19076000  0.30775000  0.05706000  1.0
  C  C101  1  0.12759000  0.37223000  0.05539000  1.0
  C  C102  1  0.50118000  0.27531000  0.72234000  1.0
  C  C103  1  0.44441000  0.30778000  0.69080000  1.0
  C  C104  1  0.44479000  0.37224000  0.62763000  1.0
  C  C105  1  0.49986000  0.40714000  0.59317000  1.0
  C  C106  1  0.55540000  0.37222000  0.62760000  1.0
  C  C107  1  0.55705000  0.30774000  0.69079000  1.0
  C  C108  1  0.49962000  0.47224000  0.52855000  1.0
  C  C109  1  0.49961000  0.52854000  0.47225000  1.0
  C  C110  1  0.49986000  0.59314000  0.40713000  1.0
  C  C111  1  0.44481000  0.62757000  0.37221000  1.0
  C  C112  1  0.44445000  0.69075000  0.30773000  1.0
  C  C113  1  0.50121000  0.72229000  0.27530000  1.0
  C  C114  1  0.55706000  0.69075000  0.30775000  1.0
  C  C115  1  0.55540000  0.62757000  0.37222000  1.0
  C  C116  1  0.77532000  0.00122000  0.00114000  1.0
  C  C117  1  0.80779000  0.94446000  0.05698000  1.0
  C  C118  1  0.87226000  0.94483000  0.05532000  1.0
  C  C119  1  0.90716000  0.99992000  0.99978000  1.0
  C  C120  1  0.87222000  0.05544000  0.94474000  1.0
  C  C121  1  0.80775000  0.05709000  0.94438000  1.0
  C  C122  1  0.97224000  0.99969000  0.99954000  1.0
  C  C123  1  0.02854000  0.99969000  0.99956000  1.0
  C  C124  1  0.09314000  0.99992000  0.99983000  1.0
  C  C125  1  0.12756000  0.94487000  0.05537000  1.0
  C  C126  1  0.19075000  0.94448000  0.05704000  1.0
  C  C127  1  0.22230000  0.00124000  0.00118000  1.0
  C  C128  1  0.19077000  0.05709000  0.94442000  1.0
  C  C129  1  0.12759000  0.05544000  0.94478000  1.0
  O  O130  1  0.55421000  0.17896000  0.94915000  1.0
  O  O131  1  0.31768000  0.94915000  0.17895000  1.0
  O  O132  1  0.44915000  0.81767000  0.05422000  1.0
  O  O133  1  0.67895000  0.05422000  0.81768000  1.0
  O  O134  1  0.44915000  0.17896000  0.81767000  1.0
  O  O135  1  0.67898000  0.94916000  0.05420000  1.0
  O  O136  1  0.55423000  0.81767000  0.17895000  1.0
  O  O137  1  0.31767000  0.05424000  0.94913000  1.0
  O  O138  1  0.31768000  0.17895000  0.05423000  1.0
  O  O139  1  0.55423000  0.94914000  0.81767000  1.0
  O  O140  1  0.67897000  0.81768000  0.94914000  1.0
  O  O141  1  0.44916000  0.05421000  0.17894000  1.0
  O  O142  1  0.44914000  0.05423000  0.81767000  1.0
  O  O143  1  0.67897000  0.81768000  0.05423000  1.0
  O  O144  1  0.55425000  0.94914000  0.17893000  1.0
  O  O145  1  0.31767000  0.17896000  0.94914000  1.0
  O  O146  1  0.55423000  0.17895000  0.81769000  1.0
  O  O147  1  0.31768000  0.94915000  0.05421000  1.0
  O  O148  1  0.44915000  0.81767000  0.17895000  1.0
  O  O149  1  0.67896000  0.05425000  0.94912000  1.0
  O  O150  1  0.67897000  0.94914000  0.81766000  1.0
  O  O151  1  0.44913000  0.17894000  0.05424000  1.0
  O  O152  1  0.31769000  0.05423000  0.17894000  1.0
  O  O153  1  0.55424000  0.81767000  0.94914000  1.0
  O  O154  1  0.63811000  0.95396000  0.95397000  1.0
  O  O155  1  0.45398000  0.95396000  0.95395000  1.0
  O  O156  1  0.45399000  0.95394000  0.13809000  1.0
  O  O157  1  0.45396000  0.13809000  0.95396000  1.0
  O  O158  1  0.39826000  0.03389000  0.03389000  1.0
  O  O159  1  0.53394000  0.03389000  0.03392000  1.0
  O  O160  1  0.53393000  0.89826000  0.03390000  1.0
  O  O161  1  0.53391000  0.03391000  0.89827000  1.0
  F  F162  1  0.39043000  0.40400000  0.10908000  1.0
  F  F163  1  0.60903000  0.40403000  0.89038000  1.0
  F  F164  1  0.39044000  0.59651000  0.10906000  1.0
  F  F165  1  0.60909000  0.59650000  0.89043000  1.0
  F  F166  1  0.90400000  0.89044000  0.59650000  1.0
  F  F167  1  0.90403000  0.10903000  0.59657000  1.0
  F  F168  1  0.09650000  0.89044000  0.40399000  1.0
  F  F169  1  0.09650000  0.10909000  0.40398000  1.0
  F  F170  1  0.60912000  0.89045000  0.40395000  1.0
  F  F171  1  0.39044000  0.10905000  0.40399000  1.0
  F  F172  1  0.60909000  0.89045000  0.59648000  1.0
  F  F173  1  0.39047000  0.10911000  0.59646000  1.0
  F  F174  1  0.90401000  0.59654000  0.10907000  1.0
  F  F175  1  0.90406000  0.59662000  0.89035000  1.0
  F  F176  1  0.09652000  0.40400000  0.10907000  1.0
  F  F177  1  0.09652000  0.40402000  0.89041000  1.0
  F  F178  1  0.60908000  0.40398000  0.59653000  1.0
  F  F179  1  0.39040000  0.40403000  0.59656000  1.0
  F  F180  1  0.60907000  0.59650000  0.40400000  1.0
  F  F181  1  0.39044000  0.59649000  0.40399000  1.0
  F  F182  1  0.90397000  0.10913000  0.89037000  1.0
  F  F183  1  0.90406000  0.89045000  0.10897000  1.0
  F  F184  1  0.09653000  0.10911000  0.89039000  1.0
  F  F185  1  0.09648000  0.89048000  0.10905000  1.0
