# generated using pymatgen
data_CuH4C10(NO)3
_symmetry_space_group_name_H-M   'P 1'
_cell_length_a   7.07121000
_cell_length_b   8.66932000
_cell_length_c   15.60650000
_cell_angle_alpha   89.99990000
_cell_angle_beta   84.30320000
_cell_angle_gamma   89.99990000
_symmetry_Int_Tables_number   1
_chemical_formula_structural   CuH4C10(NO)3
_chemical_formula_sum   'Cu4 H16 C40 N12 O12'
_cell_volume   951.99362687
_cell_formula_units_Z   4
loop_
 _symmetry_equiv_pos_site_id
 _symmetry_equiv_pos_as_xyz
  1  'x, y, z'
loop_
 _atom_site_type_symbol
 _atom_site_label
 _atom_site_symmetry_multiplicity
 _atom_site_fract_x
 _atom_site_fract_y
 _atom_site_fract_z
 _atom_site_occupancy
  Cu  Cu0  1  0.38448000  0.10995000  0.52438000  1.0
  Cu  Cu1  1  0.11551000  0.60994000  0.47562000  1.0
  Cu  Cu2  1  0.61551000  0.89006000  0.47562000  1.0
  Cu  Cu3  1  0.88449000  0.39005000  0.52438000  1.0
  H  H4  1  0.44137000  0.45378000  0.60530000  1.0
  H  H5  1  0.05863000  0.95378000  0.39470000  1.0
  H  H6  1  0.55863000  0.54622000  0.39470000  1.0
  H  H7  1  0.94137000  0.04622000  0.60530000  1.0
  H  H8  1  0.55452000  0.49859000  0.75382000  1.0
  H  H9  1  0.94548000  0.99860000  0.24618000  1.0
  H  H10  1  0.44548000  0.50141000  0.24618000  1.0
  H  H11  1  0.05452000  0.00141000  0.75382000  1.0
  H  H12  1  0.48685000  0.89365000  0.67687000  1.0
  H  H13  1  0.01316000  0.39365000  0.32313000  1.0
  H  H14  1  0.51316000  0.10635000  0.32313000  1.0
  H  H15  1  0.98685000  0.60635000  0.67687000  1.0
  H  H16  1  0.65810000  0.30113000  0.89391000  1.0
  H  H17  1  0.84190000  0.80114000  0.10609000  1.0
  H  H18  1  0.34190000  0.69886000  0.10609000  1.0
  H  H19  1  0.15809000  0.19887000  0.89391000  1.0
  C  C20  1  0.28484000  0.91029000  0.52943000  1.0
  C  C21  1  0.21514000  0.41027000  0.47057000  1.0
  C  C22  1  0.71515000  0.08973000  0.47057000  1.0
  C  C23  1  0.78484000  0.58972000  0.52943000  1.0
  C  C24  1  0.47445000  0.36299000  0.64935000  1.0
  C  C25  1  0.02555000  0.86300000  0.35065000  1.0
  C  C26  1  0.52555000  0.63701000  0.35065000  1.0
  C  C27  1  0.97445000  0.13701000  0.64935000  1.0
  C  C28  1  0.51368000  0.13855000  0.70600000  1.0
  C  C29  1  0.98632000  0.63855000  0.29400000  1.0
  C  C30  1  0.48632000  0.86145000  0.29400000  1.0
  C  C31  1  0.01368000  0.36145000  0.70600000  1.0
  C  C32  1  0.56205000  0.25190000  0.76706000  1.0
  C  C33  1  0.93795000  0.75191000  0.23294000  1.0
  C  C34  1  0.43795000  0.74809000  0.23294000  1.0
  C  C35  1  0.06206000  0.24810000  0.76706000  1.0
  C  C36  1  0.52288000  0.98045000  0.72313000  1.0
  C  C37  1  0.97712000  0.48045000  0.27688000  1.0
  C  C38  1  0.47712000  0.01955000  0.27688000  1.0
  C  C39  1  0.02288000  0.51955000  0.72312000  1.0
  C  C40  1  0.62228000  0.21463000  0.84735000  1.0
  C  C41  1  0.87773000  0.71463000  0.15265000  1.0
  C  C42  1  0.37773000  0.78537000  0.15265000  1.0
  C  C43  1  0.12228000  0.28537000  0.84735000  1.0
  C  C44  1  0.58248000  0.94460000  0.80276000  1.0
  C  C45  1  0.91752000  0.44461000  0.19725000  1.0
  C  C46  1  0.41752000  0.05539000  0.19725000  1.0
  C  C47  1  0.08248000  0.55540000  0.80275000  1.0
  C  C48  1  0.63149000  0.05682000  0.86257000  1.0
  C  C49  1  0.86852000  0.55683000  0.13743000  1.0
  C  C50  1  0.36852000  0.94317000  0.13743000  1.0
  C  C51  1  0.13148000  0.44318000  0.86257000  1.0
  C  C52  1  0.60429000  0.79269000  0.84175000  1.0
  C  C53  1  0.89572000  0.29270000  0.15825000  1.0
  C  C54  1  0.39572000  0.20730000  0.15825000  1.0
  C  C55  1  0.10429000  0.70731000  0.84175000  1.0
  C  C56  1  0.68749000  0.97350000  0.93820000  1.0
  C  C57  1  0.81251000  0.47350000  0.06180000  1.0
  C  C58  1  0.31251000  0.02650000  0.06180000  1.0
  C  C59  1  0.18748000  0.52650000  0.93820000  1.0
  N  N60  1  0.29796000  0.29149000  0.46838000  1.0
  N  N61  1  0.20201000  0.79149000  0.53163000  1.0
  N  N62  1  0.70203000  0.70851000  0.53163000  1.0
  N  N63  1  0.79796000  0.20851000  0.46837000  1.0
  N  N64  1  0.45936000  0.21281000  0.63406000  1.0
  N  N65  1  0.04063000  0.71282000  0.36594000  1.0
  N  N66  1  0.54064000  0.78719000  0.36594000  1.0
  N  N67  1  0.95936000  0.28719000  0.63406000  1.0
  N  N68  1  0.53474000  0.39142000  0.72792000  1.0
  N  N69  1  0.96526000  0.89143000  0.27208000  1.0
  N  N70  1  0.46526000  0.60857000  0.27208000  1.0
  N  N71  1  0.03474000  0.10858000  0.72792000  1.0
  O  O72  1  0.66719000  0.81297000  0.92212000  1.0
  O  O73  1  0.83281000  0.31297000  0.07789000  1.0
  O  O74  1  0.33282000  0.18703000  0.07789000  1.0
  O  O75  1  0.16719000  0.68703000  0.92211000  1.0
  O  O76  1  0.57520000  0.66383000  0.81460000  1.0
  O  O77  1  0.92481000  0.16384000  0.18540000  1.0
  O  O78  1  0.42480000  0.33617000  0.18540000  1.0
  O  O79  1  0.07520000  0.83617000  0.81460000  1.0
  O  O80  1  0.74106000  0.01567000  0.00544000  1.0
  O  O81  1  0.75895000  0.51567000  0.99456000  1.0
  O  O82  1  0.25894000  0.98433000  0.99456000  1.0
  O  O83  1  0.24105000  0.48434000  0.00544000  1.0
