# generated using pymatgen
data_Ag2H7C12(NO2)3
_symmetry_space_group_name_H-M   'P 1'
_cell_length_a   7.71477000
_cell_length_b   7.98113000
_cell_length_c   12.49960000
_cell_angle_alpha   75.63880000
_cell_angle_beta   83.75110000
_cell_angle_gamma   62.57530000
_symmetry_Int_Tables_number   1
_chemical_formula_structural   Ag2H7C12(NO2)3
_chemical_formula_sum   'Ag4 H14 C24 N6 O12'
_cell_volume   661.77877235
_cell_formula_units_Z   2
loop_
 _symmetry_equiv_pos_site_id
 _symmetry_equiv_pos_as_xyz
  1  'x, y, z'
loop_
 _atom_site_type_symbol
 _atom_site_label
 _atom_site_symmetry_multiplicity
 _atom_site_fract_x
 _atom_site_fract_y
 _atom_site_fract_z
 _atom_site_occupancy
  Ag  Ag0  1  0.23127000  0.82006000  0.50338000  1.0
  Ag  Ag1  1  0.76872000  0.17994000  0.49663000  1.0
  Ag  Ag2  1  0.69410000  0.52232000  0.57927000  1.0
  Ag  Ag3  1  0.30589000  0.47769000  0.42072000  1.0
  H  H4  1  0.66282000  0.91025000  0.69757000  1.0
  H  H5  1  0.33717000  0.08976000  0.30243000  1.0
  H  H6  1  0.71744000  0.68654000  0.88469000  1.0
  H  H7  1  0.28255000  0.31347000  0.11531000  1.0
  H  H8  1  0.43279000  0.65477000  0.98693000  1.0
  H  H9  1  0.56721000  0.34523000  0.01307000  1.0
  H  H10  1  0.97804000  0.66942000  0.66321000  1.0
  H  H11  1  0.02196000  0.33058000  0.33679000  1.0
  H  H12  1  0.35752000  0.20515000  0.91940000  1.0
  H  H13  1  0.64248000  0.79484000  0.08060000  1.0
  H  H14  1  0.63066000  0.27289000  0.81716000  1.0
  H  H15  1  0.36934000  0.72711000  0.18284000  1.0
  H  H16  1  0.01851000  0.41069000  0.83885000  1.0
  H  H17  1  0.98149000  0.58930000  0.16115000  1.0
  C  C18  1  0.19313000  0.98363000  0.75382000  1.0
  C  C19  1  0.80687000  0.01637000  0.24618000  1.0
  C  C20  1  0.32712000  0.13124000  0.58306000  1.0
  C  C21  1  0.67288000  0.86876000  0.41694000  1.0
  C  C22  1  0.35520000  0.99677000  0.69558000  1.0
  C  C23  1  0.64480000  0.00323000  0.30442000  1.0
  C  C24  1  0.99483000  0.10945000  0.69961000  1.0
  C  C25  1  0.00517000  0.89055000  0.30038000  1.0
  C  C26  1  0.54203000  0.89123000  0.74302000  1.0
  C  C27  1  0.45797000  0.10878000  0.25698000  1.0
  C  C28  1  0.57225000  0.76705000  0.84749000  1.0
  C  C29  1  0.42775000  0.23296000  0.15251000  1.0
  C  C30  1  0.41544000  0.74817000  0.90502000  1.0
  C  C31  1  0.58456000  0.25184000  0.09498000  1.0
  C  C32  1  0.22851000  0.85681000  0.85801000  1.0
  C  C33  1  0.77149000  0.14320000  0.14199000  1.0
  C  C34  1  0.11798000  0.57616000  0.70540000  1.0
  C  C35  1  0.88202000  0.42383000  0.29461000  1.0
  C  C36  1  0.32834000  0.32057000  0.84538000  1.0
  C  C37  1  0.67167000  0.67942000  0.15462000  1.0
  C  C38  1  0.47875000  0.35755000  0.79024000  1.0
  C  C39  1  0.52125000  0.64245000  0.20976000  1.0
  C  C40  1  0.14180000  0.43378000  0.80151000  1.0
  C  C41  1  0.85820000  0.56621000  0.19850000  1.0
  N  N42  1  0.06819000  0.83394000  0.92236000  1.0
  N  N43  1  0.93182000  0.16606000  0.07764000  1.0
  N  N44  1  0.26767000  0.60671000  0.65728000  1.0
  N  N45  1  0.73233000  0.39329000  0.34272000  1.0
  N  N46  1  0.44789000  0.49797000  0.69942000  1.0
  N  N47  1  0.55210000  0.50203000  0.30058000  1.0
  O  O48  1  0.89930000  0.96720000  0.90379000  1.0
  O  O49  1  0.10070000  0.03280000  0.09621000  1.0
  O  O50  1  0.10879000  0.68036000  0.99311000  1.0
  O  O51  1  0.89122000  0.31963000  0.00689000  1.0
  O  O52  1  0.39578000  0.25243000  0.57435000  1.0
  O  O53  1  0.60422000  0.74758000  0.42565000  1.0
  O  O54  1  0.24011000  0.12010000  0.50715000  1.0
  O  O55  1  0.75988000  0.87990000  0.49285000  1.0
  O  O56  1  0.91649000  0.02829000  0.66028000  1.0
  O  O57  1  0.08351000  0.97170000  0.33972000  1.0
  O  O58  1  0.93423000  0.28847000  0.69306000  1.0
  O  O59  1  0.06577000  0.71153000  0.30694000  1.0
