# generated using pymatgen
data_ZnH28C30(N2Cl)2
_symmetry_space_group_name_H-M   'P 1'
_cell_length_a   10.11890000
_cell_length_b   14.37290000
_cell_length_c   22.52220000
_cell_angle_alpha   89.99970000
_cell_angle_beta   89.99990000
_cell_angle_gamma   90.00000000
_symmetry_Int_Tables_number   1
_chemical_formula_structural   ZnH28C30(N2Cl)2
_chemical_formula_sum   'Zn4 H112 C120 N16 Cl8'
_cell_volume   3275.58232289
_cell_formula_units_Z   4
loop_
 _symmetry_equiv_pos_site_id
 _symmetry_equiv_pos_as_xyz
  1  'x, y, z'
loop_
 _atom_site_type_symbol
 _atom_site_label
 _atom_site_symmetry_multiplicity
 _atom_site_fract_x
 _atom_site_fract_y
 _atom_site_fract_z
 _atom_site_occupancy
  Zn  Zn0  1  0.25000000  0.67112000  0.25000000  1.0
  Zn  Zn1  1  0.25000000  0.82888000  0.75000000  1.0
  Zn  Zn2  1  0.75000000  0.32888000  0.75000000  1.0
  Zn  Zn3  1  0.75000000  0.17112000  0.25000000  1.0
  H  H4  1  0.02262000  0.89982000  0.87449000  1.0
  H  H5  1  0.02262000  0.60018000  0.12551000  1.0
  H  H6  1  0.47739000  0.60017000  0.37449000  1.0
  H  H7  1  0.47738000  0.89982000  0.62551000  1.0
  H  H8  1  0.97738000  0.10018000  0.12551000  1.0
  H  H9  1  0.97738000  0.39982000  0.87449000  1.0
  H  H10  1  0.52261000  0.39982000  0.62551000  1.0
  H  H11  1  0.52262000  0.10018000  0.37449000  1.0
  H  H12  1  0.13963000  0.74357000  0.13888000  1.0
  H  H13  1  0.13963000  0.75643000  0.86112000  1.0
  H  H14  1  0.36037000  0.75643000  0.63888000  1.0
  H  H15  1  0.36037000  0.74357000  0.36112000  1.0
  H  H16  1  0.86037000  0.25643000  0.86112000  1.0
  H  H17  1  0.86037000  0.24357000  0.13888000  1.0
  H  H18  1  0.63963000  0.24357000  0.36112000  1.0
  H  H19  1  0.63963000  0.25643000  0.63888000  1.0
  H  H20  1  0.85809000  0.95980000  0.18203000  1.0
  H  H21  1  0.85810000  0.54020000  0.81797000  1.0
  H  H22  1  0.64191000  0.54020000  0.68203000  1.0
  H  H23  1  0.64191000  0.95980000  0.31797000  1.0
  H  H24  1  0.14190000  0.04020000  0.81797000  1.0
  H  H25  1  0.14190000  0.45980000  0.18203000  1.0
  H  H26  1  0.35810000  0.45980000  0.31797000  1.0
  H  H27  1  0.35809000  0.04021000  0.68203000  1.0
  H  H28  1  0.05969000  0.79699000  0.31575000  1.0
  H  H29  1  0.05969000  0.70300000  0.68425000  1.0
  H  H30  1  0.44032000  0.70300000  0.81575000  1.0
  H  H31  1  0.44032000  0.79700000  0.18425000  1.0
  H  H32  1  0.94031000  0.20300000  0.68425000  1.0
  H  H33  1  0.94031000  0.29699000  0.31575000  1.0
  H  H34  1  0.55968000  0.29700000  0.18425000  1.0
  H  H35  1  0.55968000  0.20300000  0.81575000  1.0
  H  H36  1  0.15375000  0.88087000  0.95805000  1.0
  H  H37  1  0.15375000  0.61913000  0.04195000  1.0
  H  H38  1  0.34625000  0.61913000  0.45805000  1.0
  H  H39  1  0.34625000  0.88087000  0.54195000  1.0
  H  H40  1  0.84626000  0.11912000  0.04195000  1.0
  H  H41  1  0.84626000  0.38087000  0.95805000  1.0
  H  H42  1  0.65375000  0.38087000  0.54195000  1.0
  H  H43  1  0.65375000  0.11913000  0.45805000  1.0
  H  H44  1  0.92398000  0.90604000  0.79144000  1.0
  H  H45  1  0.92398000  0.59396000  0.20855000  1.0
  H  H46  1  0.57603000  0.59396000  0.29144000  1.0
  H  H47  1  0.57603000  0.90604000  0.70855000  1.0
  H  H48  1  0.07603000  0.09396000  0.20856000  1.0
  H  H49  1  0.07602000  0.40604000  0.79145000  1.0
  H  H50  1  0.42397000  0.40604000  0.70856000  1.0
  H  H51  1  0.42397000  0.09396000  0.29144000  1.0
  H  H52  1  0.64968000  0.81790000  0.80172000  1.0
  H  H53  1  0.64967000  0.68210000  0.19828000  1.0
  H  H54  1  0.85033000  0.68210000  0.30172000  1.0
  H  H55  1  0.85033000  0.81790000  0.69828000  1.0
  H  H56  1  0.35033000  0.18210000  0.19828000  1.0
  H  H57  1  0.35033000  0.31790000  0.80172000  1.0
  H  H58  1  0.14967000  0.31790000  0.69828000  1.0
  H  H59  1  0.14967000  0.18211000  0.30172000  1.0
  H  H60  1  0.80017000  0.75585000  0.80077000  1.0
  H  H61  1  0.80016000  0.74415000  0.19923000  1.0
  H  H62  1  0.69984000  0.74415000  0.30076000  1.0
  H  H63  1  0.69984000  0.75584000  0.69924000  1.0
  H  H64  1  0.19984000  0.24415000  0.19923000  1.0
  H  H65  1  0.19984000  0.25585000  0.80077000  1.0
  H  H66  1  0.30016000  0.25584000  0.69924000  1.0
  H  H67  1  0.30016000  0.24416000  0.30076000  1.0
  H  H68  1  0.76391000  0.88092000  0.09249000  1.0
  H  H69  1  0.76391000  0.61907000  0.90751000  1.0
  H  H70  1  0.73609000  0.61908000  0.59249000  1.0
  H  H71  1  0.73609000  0.88093000  0.40751000  1.0
  H  H72  1  0.23609000  0.11908000  0.90751000  1.0
  H  H73  1  0.23609000  0.38092000  0.09249000  1.0
  H  H74  1  0.26391000  0.38092000  0.40751000  1.0
  H  H75  1  0.26390000  0.11908000  0.59249000  1.0
  H  H76  1  0.18533000  0.86173000  0.06670000  1.0
  H  H77  1  0.18533000  0.63827000  0.93330000  1.0
  H  H78  1  0.31467000  0.63828000  0.56670000  1.0
  H  H79  1  0.31467000  0.86173000  0.43330000  1.0
  H  H80  1  0.81467000  0.13827000  0.93330000  1.0
  H  H81  1  0.81467000  0.36173000  0.06670000  1.0
  H  H82  1  0.68533000  0.36173000  0.43330000  1.0
  H  H83  1  0.68533000  0.13828000  0.56670000  1.0
  H  H84  1  0.89997000  0.92542000  0.28904000  1.0
  H  H85  1  0.89996000  0.57458000  0.71096000  1.0
  H  H86  1  0.60004000  0.57458000  0.78904000  1.0
  H  H87  1  0.60004000  0.92542000  0.21096000  1.0
  H  H88  1  0.10003000  0.07458000  0.71096000  1.0
  H  H89  1  0.10004000  0.42542000  0.28904000  1.0
  H  H90  1  0.39997000  0.42542000  0.21096000  1.0
  H  H91  1  0.39996000  0.07458000  0.78904000  1.0
  H  H92  1  0.73332000  0.89861000  0.98304000  1.0
  H  H93  1  0.73332000  0.60139000  0.01696000  1.0
  H  H94  1  0.76668000  0.60139000  0.48305000  1.0
  H  H95  1  0.76668000  0.89862000  0.51695000  1.0
  H  H96  1  0.26669000  0.10139000  0.01695000  1.0
  H  H97  1  0.26669000  0.39861000  0.98305000  1.0
  H  H98  1  0.23332000  0.39861000  0.51695000  1.0
  H  H99  1  0.23331000  0.10139000  0.48304000  1.0
  H  H100  1  0.79751000  0.05514000  0.80117000  1.0
  H  H101  1  0.79751000  0.44486000  0.19883000  1.0
  H  H102  1  0.70250000  0.44486000  0.30118000  1.0
  H  H103  1  0.70249000  0.05514000  0.69882000  1.0
  H  H104  1  0.20249000  0.94486000  0.19882000  1.0
  H  H105  1  0.20249000  0.55514000  0.80117000  1.0
  H  H106  1  0.29750000  0.55514000  0.69882000  1.0
  H  H107  1  0.29751000  0.94486000  0.30118000  1.0
  H  H108  1  0.64795000  0.99176000  0.80105000  1.0
  H  H109  1  0.64795000  0.50824000  0.19895000  1.0
  H  H110  1  0.85206000  0.50824000  0.30105000  1.0
  H  H111  1  0.85205000  0.99176000  0.69895000  1.0
  H  H112  1  0.35205000  0.00824000  0.19895000  1.0
  H  H113  1  0.35205000  0.49176000  0.80105000  1.0
  H  H114  1  0.14794000  0.49176000  0.69895000  1.0
  H  H115  1  0.14795000  0.00824000  0.30105000  1.0
  C  C116  1  0.92797000  0.89879000  0.89926000  1.0
  C  C117  1  0.92796000  0.60121000  0.10074000  1.0
  C  C118  1  0.57202000  0.60121000  0.39926000  1.0
  C  C119  1  0.57203000  0.89878000  0.60074000  1.0
  C  C120  1  0.07202000  0.10121000  0.10074000  1.0
  C  C121  1  0.07204000  0.39879000  0.89926000  1.0
  C  C122  1  0.42798000  0.39879000  0.60074000  1.0
  C  C123  1  0.42798000  0.10122000  0.39926000  1.0
  C  C124  1  0.97661000  0.86895000  0.08686000  1.0
  C  C125  1  0.97661000  0.63105000  0.91314000  1.0
  C  C126  1  0.52339000  0.63106000  0.58686000  1.0
  C  C127  1  0.52339000  0.86895000  0.41314000  1.0
  C  C128  1  0.02339000  0.13106000  0.91314000  1.0
  C  C129  1  0.02339000  0.36895000  0.08686000  1.0
  C  C130  1  0.47661000  0.36895000  0.41314000  1.0
  C  C131  1  0.47660000  0.13106000  0.58686000  1.0
  C  C132  1  0.08396000  0.78593000  0.17038000  1.0
  C  C133  1  0.08397000  0.71407000  0.82962000  1.0
  C  C134  1  0.41603000  0.71407000  0.67038000  1.0
  C  C135  1  0.41604000  0.78593000  0.32962000  1.0
  C  C136  1  0.91603000  0.21407000  0.82962000  1.0
  C  C137  1  0.91604000  0.28593000  0.17038000  1.0
  C  C138  1  0.58396000  0.28593000  0.32962000  1.0
  C  C139  1  0.58396000  0.21407000  0.67038000  1.0
  C  C140  1  0.94129000  0.89008000  0.96376000  1.0
  C  C141  1  0.94129000  0.60992000  0.03624000  1.0
  C  C142  1  0.55871000  0.60992000  0.46376000  1.0
  C  C143  1  0.55871000  0.89008000  0.53624000  1.0
  C  C144  1  0.05871000  0.10992000  0.03624000  1.0
  C  C145  1  0.05871000  0.39008000  0.96376000  1.0
  C  C146  1  0.44129000  0.39008000  0.53624000  1.0
  C  C147  1  0.44129000  0.10992000  0.46376000  1.0
  C  C148  1  0.99513000  0.85416000  0.15098000  1.0
  C  C149  1  0.99513000  0.64584000  0.84902000  1.0
  C  C150  1  0.50487000  0.64585000  0.65098000  1.0
  C  C151  1  0.50487000  0.85416000  0.34902000  1.0
  C  C152  1  0.00487000  0.14585000  0.84902000  1.0
  C  C153  1  0.00487000  0.35416000  0.15098000  1.0
  C  C154  1  0.49513000  0.35416000  0.34902000  1.0
  C  C155  1  0.49512000  0.14585000  0.65098000  1.0
  C  C156  1  0.92686000  0.90461000  0.19472000  1.0
  C  C157  1  0.92686000  0.59539000  0.80528000  1.0
  C  C158  1  0.57314000  0.59539000  0.69472000  1.0
  C  C159  1  0.57314000  0.90461000  0.30528000  1.0
  C  C160  1  0.07314000  0.09539000  0.80528000  1.0
  C  C161  1  0.07314000  0.40461000  0.19472000  1.0
  C  C162  1  0.42686000  0.40461000  0.30528000  1.0
  C  C163  1  0.42686000  0.09539000  0.69472000  1.0
  C  C164  1  0.03895000  0.81563000  0.26972000  1.0
  C  C165  1  0.03895000  0.68437000  0.73028000  1.0
  C  C166  1  0.46105000  0.68437000  0.76972000  1.0
  C  C167  1  0.46105000  0.81563000  0.23028000  1.0
  C  C168  1  0.96105000  0.18437000  0.73028000  1.0
  C  C169  1  0.96105000  0.31563000  0.26972000  1.0
  C  C170  1  0.53895000  0.31563000  0.23028000  1.0
  C  C171  1  0.53895000  0.18437000  0.76972000  1.0
  C  C172  1  0.06839000  0.87957000  0.98770000  1.0
  C  C173  1  0.06840000  0.62043000  0.01230000  1.0
  C  C174  1  0.43160000  0.62043000  0.48770000  1.0
  C  C175  1  0.43161000  0.87957000  0.51230000  1.0
  C  C176  1  0.93161000  0.12043000  0.01230000  1.0
  C  C177  1  0.93161000  0.37957000  0.98770000  1.0
  C  C178  1  0.56839000  0.37957000  0.51230000  1.0
  C  C179  1  0.56839000  0.12043000  0.48770000  1.0
  C  C180  1  0.82036000  0.90561000  0.80798000  1.0
  C  C181  1  0.82036000  0.59439000  0.19202000  1.0
  C  C182  1  0.67964000  0.59439000  0.30798000  1.0
  C  C183  1  0.67964000  0.90560000  0.69202000  1.0
  C  C184  1  0.17964000  0.09440000  0.19202000  1.0
  C  C185  1  0.17964000  0.40560000  0.80798000  1.0
  C  C186  1  0.32036000  0.40560000  0.69202000  1.0
  C  C187  1  0.32036000  0.09440000  0.30798000  1.0
  C  C188  1  0.75105000  0.81856000  0.78387000  1.0
  C  C189  1  0.75104000  0.68144000  0.21613000  1.0
  C  C190  1  0.74896000  0.68144000  0.28387000  1.0
  C  C191  1  0.74896000  0.81856000  0.71613000  1.0
  C  C192  1  0.24896000  0.18144000  0.21613000  1.0
  C  C193  1  0.24896000  0.31856000  0.78387000  1.0
  C  C194  1  0.25104000  0.31856000  0.71613000  1.0
  C  C195  1  0.25104000  0.18144000  0.28387000  1.0
  C  C196  1  0.84930000  0.88122000  0.06292000  1.0
  C  C197  1  0.84931000  0.61877000  0.93708000  1.0
  C  C198  1  0.65070000  0.61878000  0.56292000  1.0
  C  C199  1  0.65070000  0.88122000  0.43708000  1.0
  C  C200  1  0.15070000  0.11878000  0.93708000  1.0
  C  C201  1  0.15070000  0.38122000  0.06292000  1.0
  C  C202  1  0.34930000  0.38122000  0.43708000  1.0
  C  C203  1  0.34930000  0.11878000  0.56292000  1.0
  C  C204  1  0.08591000  0.86837000  0.04849000  1.0
  C  C205  1  0.08591000  0.63163000  0.95151000  1.0
  C  C206  1  0.41409000  0.63164000  0.54849000  1.0
  C  C207  1  0.41409000  0.86837000  0.45151000  1.0
  C  C208  1  0.91409000  0.13164000  0.95151000  1.0
  C  C209  1  0.91409000  0.36837000  0.04849000  1.0
  C  C210  1  0.58591000  0.36836000  0.45151000  1.0
  C  C211  1  0.58591000  0.13164000  0.54849000  1.0
  C  C212  1  0.94967000  0.88536000  0.25451000  1.0
  C  C213  1  0.94967000  0.61464000  0.74549000  1.0
  C  C214  1  0.55033000  0.61464000  0.75451000  1.0
  C  C215  1  0.55033000  0.88536000  0.24549000  1.0
  C  C216  1  0.05032000  0.11464000  0.74549000  1.0
  C  C217  1  0.05032000  0.38536000  0.25451000  1.0
  C  C218  1  0.44968000  0.38536000  0.24549000  1.0
  C  C219  1  0.44967000  0.11464000  0.75451000  1.0
  C  C220  1  0.83168000  0.89081000  0.00213000  1.0
  C  C221  1  0.83168000  0.60919000  0.99786000  1.0
  C  C222  1  0.66831000  0.60919000  0.50213000  1.0
  C  C223  1  0.66832000  0.89081000  0.49786000  1.0
  C  C224  1  0.16832000  0.10919000  0.99787000  1.0
  C  C225  1  0.16832000  0.39081000  0.00214000  1.0
  C  C226  1  0.33168000  0.39081000  0.49787000  1.0
  C  C227  1  0.33168000  0.10920000  0.50213000  1.0
  C  C228  1  0.74994000  0.99207000  0.78395000  1.0
  C  C229  1  0.74995000  0.50793000  0.21605000  1.0
  C  C230  1  0.75006000  0.50793000  0.28395000  1.0
  C  C231  1  0.75006000  0.99207000  0.71605000  1.0
  C  C232  1  0.25006000  0.00793000  0.21605000  1.0
  C  C233  1  0.25005000  0.49207000  0.78395000  1.0
  C  C234  1  0.24994000  0.49207000  0.71605000  1.0
  C  C235  1  0.24994000  0.00793000  0.28395000  1.0
  N  N236  1  0.81683000  0.90337000  0.87233000  1.0
  N  N237  1  0.81683000  0.59663000  0.12767000  1.0
  N  N238  1  0.68319000  0.59663000  0.37233000  1.0
  N  N239  1  0.68317000  0.90337000  0.62767000  1.0
  N  N240  1  0.18319000  0.09663000  0.12767000  1.0
  N  N241  1  0.18317000  0.40337000  0.87233000  1.0
  N  N242  1  0.31681000  0.40337000  0.62768000  1.0
  N  N243  1  0.31681000  0.09663000  0.37233000  1.0
  N  N244  1  0.10477000  0.76690000  0.22802000  1.0
  N  N245  1  0.10477000  0.73310000  0.77198000  1.0
  N  N246  1  0.39524000  0.73310000  0.72803000  1.0
  N  N247  1  0.39523000  0.76690000  0.27198000  1.0
  N  N248  1  0.89523000  0.23311000  0.77198000  1.0
  N  N249  1  0.89523000  0.26690000  0.22802000  1.0
  N  N250  1  0.60476000  0.26689000  0.27198000  1.0
  N  N251  1  0.60476000  0.23311000  0.72802000  1.0
  Cl  Cl252  1  0.19245000  0.59838000  0.33361000  1.0
  Cl  Cl253  1  0.19245000  0.90162000  0.66639000  1.0
  Cl  Cl254  1  0.30755000  0.90163000  0.83361000  1.0
  Cl  Cl255  1  0.30755000  0.59838000  0.16639000  1.0
  Cl  Cl256  1  0.80755000  0.40162000  0.66639000  1.0
  Cl  Cl257  1  0.80755000  0.09838000  0.33361000  1.0
  Cl  Cl258  1  0.69245000  0.09838000  0.16639000  1.0
  Cl  Cl259  1  0.69245000  0.40162000  0.83361000  1.0
