# generated using pymatgen
data_Al4H28C45(NO10)2
_symmetry_space_group_name_H-M   'P 1'
_cell_length_a   6.66418000
_cell_length_b   15.32550000
_cell_length_c   17.60590000
_cell_angle_alpha   78.42910000
_cell_angle_beta   85.00810000
_cell_angle_gamma   86.78990000
_symmetry_Int_Tables_number   1
_chemical_formula_structural   Al4H28C45(NO10)2
_chemical_formula_sum   'Al4 H28 C45 N2 O20'
_cell_volume   1753.53025192
_cell_formula_units_Z   1
loop_
 _symmetry_equiv_pos_site_id
 _symmetry_equiv_pos_as_xyz
  1  'x, y, z'
loop_
 _atom_site_type_symbol
 _atom_site_label
 _atom_site_symmetry_multiplicity
 _atom_site_fract_x
 _atom_site_fract_y
 _atom_site_fract_z
 _atom_site_occupancy
  Al  Al0  1  0.86252000  0.49987000  0.50054000  1.0
  Al  Al1  1  0.36324000  0.49979000  0.50140000  1.0
  Al  Al2  1  0.37267000  0.99865000  0.99804000  1.0
  Al  Al3  1  0.86998000  0.99993000  0.99839000  1.0
  H  H4  1  0.77180000  0.10423000  0.20141000  1.0
  H  H5  1  0.50229000  0.31542000  0.18821000  1.0
  H  H6  1  0.73900000  0.19704000  0.30402000  1.0
  H  H7  1  0.47136000  0.40288000  0.29405000  1.0
  H  H8  1  0.87888000  0.30749000  0.36793000  1.0
  H  H9  1  0.30206000  0.19571000  0.63999000  1.0
  H  H10  1  0.47187000  0.21780000  0.77808000  1.0
  H  H11  1  0.26147000  0.38718000  0.76426000  1.0
  H  H12  1  0.93098000  0.30094000  0.85959000  1.0
  H  H13  1  0.76145000  0.27872000  0.72213000  1.0
  H  H14  1  0.97226000  0.10970000  0.73530000  1.0
  H  H15  1  0.62252000  0.90026000  0.27372000  1.0
  H  H16  1  0.32545000  0.77429000  0.34024000  1.0
  H  H17  1  0.60826000  0.59629000  0.22623000  1.0
  H  H18  1  0.89958000  0.72482000  0.15774000  1.0
  H  H19  1  0.92967000  0.76469000  0.30775000  1.0
  H  H20  1  0.38079000  0.81093000  0.86831000  1.0
  H  H21  1  0.98411000  0.89380000  0.79541000  1.0
  H  H22  1  0.22978000  0.70064000  0.80540000  1.0
  H  H23  1  0.00924000  0.80034000  0.69356000  1.0
  H  H24  1  0.25462000  0.60715000  0.70364000  1.0
  H  H25  1  0.85769000  0.69013000  0.63040000  1.0
  H  H26  1  0.16598000  0.68849000  0.21792000  1.0
  H  H27  1  0.27626000  0.72391000  0.12970000  1.0
  H  H28  1  0.61715000  0.38616000  0.53906000  1.0
  H  H29  1  0.10680000  0.61595000  0.46992000  1.0
  H  H30  1  0.60412000  0.11202000  0.01254000  1.0
  H  H31  1  0.12114000  0.89104000  0.04728000  1.0
  C  C32  1  0.62876000  0.62037000  0.38976000  1.0
  C  C33  1  0.57220000  0.58943000  0.59973000  1.0
  C  C34  1  0.09621000  0.37961000  0.61203000  1.0
  C  C35  1  0.15544000  0.41236000  0.40036000  1.0
  C  C36  1  0.06658000  0.14810000  0.15644000  1.0
  C  C37  1  0.17191000  0.35987000  0.33683000  1.0
  C  C38  1  0.36672000  0.31289000  0.22790000  1.0
  C  C39  1  0.34967000  0.36176000  0.28599000  1.0
  C  C40  1  0.01515000  0.30785000  0.32877000  1.0
  C  C41  1  0.03087000  0.25448000  0.27141000  1.0
  C  C42  1  0.20973000  0.25740000  0.21945000  1.0
  C  C43  1  0.22364000  0.20309000  0.16149000  1.0
  C  C44  1  0.89162000  0.14687000  0.20810000  1.0
  C  C45  1  0.87425000  0.19833000  0.26418000  1.0
  C  C46  1  0.31491000  0.23221000  0.76464000  1.0
  C  C47  1  0.22058000  0.21808000  0.68977000  1.0
  C  C48  1  0.10075000  0.31043000  0.68360000  1.0
  C  C49  1  0.19780000  0.32455000  0.75906000  1.0
  C  C50  1  0.01323000  0.27873000  0.80990000  1.0
  C  C51  1  0.91890000  0.26461000  0.73503000  1.0
  C  C52  1  0.03602000  0.17227000  0.74060000  1.0
  C  C53  1  0.13282000  0.18649000  0.81598000  1.0
  C  C54  1  0.45409000  0.76341000  0.29967000  1.0
  C  C55  1  0.61913000  0.83200000  0.26416000  1.0
  C  C56  1  0.60598000  0.80803000  0.18128000  1.0
  C  C57  1  0.43903000  0.73975000  0.21784000  1.0
  C  C58  1  0.61180000  0.66470000  0.23567000  1.0
  C  C59  1  0.77439000  0.73388000  0.20001000  1.0
  C  C60  1  0.78987000  0.75779000  0.28161000  1.0
  C  C61  1  0.62418000  0.68969000  0.31820000  1.0
  C  C62  1  0.67967000  0.85676000  0.83757000  1.0
  C  C63  1  0.55878000  0.64430000  0.66119000  1.0
  C  C64  1  0.36618000  0.69878000  0.76660000  1.0
  C  C65  1  0.37947000  0.64699000  0.71077000  1.0
  C  C66  1  0.72087000  0.69395000  0.66857000  1.0
  C  C67  1  0.70992000  0.74932000  0.72422000  1.0
  C  C68  1  0.52871000  0.75180000  0.77445000  1.0
  C  C69  1  0.51761000  0.80715000  0.83011000  1.0
  C  C70  1  0.85913000  0.85410000  0.78804000  1.0
  C  C71  1  0.87251000  0.80231000  0.73219000  1.0
  C  C72  1  0.66523000  0.91141000  0.89922000  1.0
  C  C73  1  0.60385000  0.87760000  0.10960000  1.0
  C  C74  1  0.07905000  0.09047000  0.09663000  1.0
  C  C75  1  0.13846000  0.11713000  0.88757000  1.0
  C  C76  1  0.40070000  0.20949000  0.10908000  1.0
  N  N77  1  0.55050000  0.22208000  0.06934000  1.0
  N  N78  1  0.25434000  0.73636000  0.18477000  1.0
  O  O79  1  0.40946000  0.55753000  0.58600000  1.0
  O  O80  1  0.79960000  0.58470000  0.40853000  1.0
  O  O81  1  0.98138000  0.42034000  0.43498000  1.0
  O  O82  1  0.74516000  0.58016000  0.56442000  1.0
  O  O83  1  0.92598000  0.41460000  0.59186000  1.0
  O  O84  1  0.45889000  0.59997000  0.42657000  1.0
  O  O85  1  0.61915000  0.44404000  0.50448000  1.0
  O  O86  1  0.26683000  0.39960000  0.57537000  1.0
  O  O87  1  0.31758000  0.44328000  0.41534000  1.0
  O  O88  1  0.10670000  0.55451000  0.49739000  1.0
  O  O89  1  0.77478000  0.89730000  0.07320000  1.0
  O  O90  1  0.49276000  0.91918000  0.93512000  1.0
  O  O91  1  0.30805000  0.07994000  0.90549000  1.0
  O  O92  1  0.43332000  0.91318000  0.09061000  1.0
  O  O93  1  0.25233000  0.08000000  0.06256000  1.0
  O  O94  1  0.82628000  0.94459000  0.91275000  1.0
  O  O95  1  0.61404000  0.05393000  0.99745000  1.0
  O  O96  1  0.91634000  0.05761000  0.08501000  1.0
  O  O97  1  0.96934000  0.09977000  0.92597000  1.0
  O  O98  1  0.12610000  0.94313000  0.00537000  1.0
