# generated using pymatgen
data_ErH9C9NO11
_symmetry_space_group_name_H-M   'P 1'
_cell_length_a   7.34652000
_cell_length_b   9.25814000
_cell_length_c   11.39298583
_cell_angle_alpha   100.17766354
_cell_angle_beta   108.03958840
_cell_angle_gamma   99.95640000
_symmetry_Int_Tables_number   1
_chemical_formula_structural   ErH9C9NO11
_chemical_formula_sum   'Er2 H18 C18 N2 O22'
_cell_volume   703.43362516
_cell_formula_units_Z   2
loop_
 _symmetry_equiv_pos_site_id
 _symmetry_equiv_pos_as_xyz
  1  'x, y, z'
loop_
 _atom_site_type_symbol
 _atom_site_label
 _atom_site_symmetry_multiplicity
 _atom_site_fract_x
 _atom_site_fract_y
 _atom_site_fract_z
 _atom_site_occupancy
  Er  Er0  1  0.67348000  0.05282000  0.78046000  1.0
  Er  Er1  1  0.32651000  0.94718000  0.21954000  1.0
  H  H2  1  0.72009000  0.09772000  0.54026000  1.0
  H  H3  1  0.27989000  0.90228000  0.45976000  1.0
  H  H4  1  0.94195000  0.10099000  0.62741000  1.0
  H  H5  1  0.05805000  0.89901000  0.37260000  1.0
  H  H6  1  0.29216000  0.05628000  0.77224000  1.0
  H  H7  1  0.70785000  0.94372000  0.22777000  1.0
  H  H8  1  0.36067000  0.01448000  0.90778000  1.0
  H  H9  1  0.63932000  0.98551000  0.09223000  1.0
  H  H10  1  0.50907000  0.51570000  0.72095000  1.0
  H  H11  1  0.49092000  0.48432000  0.27905000  1.0
  H  H12  1  0.03563000  0.19663000  0.40548000  1.0
  H  H13  1  0.96438000  0.80337000  0.59452000  1.0
  H  H14  1  0.18976000  0.66529000  0.39863000  1.0
  H  H15  1  0.81022000  0.33470000  0.60136000  1.0
  H  H16  1  0.73621000  0.35721000  0.84042000  1.0
  H  H17  1  0.26383000  0.64279000  0.15959000  1.0
  H  H18  1  0.95795000  0.35954000  0.87956000  1.0
  H  H19  1  0.04208000  0.64045000  0.12046000  1.0
  C  C20  1  0.47941000  0.76512000  0.63665000  1.0
  C  C21  1  0.52060000  0.23487000  0.36334000  1.0
  C  C22  1  0.36019000  0.60764000  0.56904000  1.0
  C  C23  1  0.63981000  0.39236000  0.43096000  1.0
  C  C24  1  0.39334000  0.48978000  0.62798000  1.0
  C  C25  1  0.60665000  0.51023000  0.37201000  1.0
  C  C26  1  0.27787000  0.34185000  0.57065000  1.0
  C  C27  1  0.72214000  0.65816000  0.42935000  1.0
  C  C28  1  0.12873000  0.31039000  0.45172000  1.0
  C  C29  1  0.87128000  0.68960000  0.54828000  1.0
  C  C30  1  0.10424000  0.42867000  0.39185000  1.0
  C  C31  1  0.89577000  0.57133000  0.60817000  1.0
  C  C32  1  0.21571000  0.57655000  0.44816000  1.0
  C  C33  1  0.78427000  0.42345000  0.55184000  1.0
  C  C34  1  0.32019000  0.21849000  0.63747000  1.0
  C  C35  1  0.67982000  0.78152000  0.36254000  1.0
  C  C36  1  0.93005000  0.99020000  0.03772000  1.0
  C  C37  1  0.06991000  0.00982000  0.96226000  1.0
  N  N38  1  0.94912000  0.39762000  0.26608000  1.0
  N  N39  1  0.05088000  0.60238000  0.73392000  1.0
  O  O40  1  0.43079000  0.87795000  0.59435000  1.0
  O  O41  1  0.56919000  0.12205000  0.40565000  1.0
  O  O42  1  0.62759000  0.78734000  0.73801000  1.0
  O  O43  1  0.37243000  0.21266000  0.26196000  1.0
  O  O44  1  0.50352000  0.22318000  0.68953000  1.0
  O  O45  1  0.49650000  0.77682000  0.31047000  1.0
  O  O46  1  0.17906000  0.12035000  0.63936000  1.0
  O  O47  1  0.82095000  0.87967000  0.36067000  1.0
  O  O48  1  0.84175000  0.26855000  0.22002000  1.0
  O  O49  1  0.15830000  0.73143000  0.77995000  1.0
  O  O50  1  0.93102000  0.50482000  0.21406000  1.0
  O  O51  1  0.06895000  0.49519000  0.78596000  1.0
  O  O52  1  0.80263000  0.08643000  0.62445000  1.0
  O  O53  1  0.19736000  0.91356000  0.37556000  1.0
  O  O54  1  0.40696000  0.04196000  0.83953000  1.0
  O  O55  1  0.59305000  0.95803000  0.16048000  1.0
  O  O56  1  0.83600000  0.31243000  0.89010000  1.0
  O  O57  1  0.16401000  0.68755000  0.10990000  1.0
  O  O58  1  0.75968000  0.01154000  0.98752000  1.0
  O  O59  1  0.24026000  0.98846000  0.01245000  1.0
  O  O60  1  0.99478000  0.95489000  0.14221000  1.0
  O  O61  1  0.00519000  0.04513000  0.85777000  1.0
