# generated using pymatgen
data_CdH28C32(NO2)4
_symmetry_space_group_name_H-M   'P 1'
_cell_length_a   11.67360000
_cell_length_b   12.32190000
_cell_length_c   13.19810000
_cell_angle_alpha   102.56400000
_cell_angle_beta   90.00640000
_cell_angle_gamma   118.26200000
_symmetry_Int_Tables_number   1
_chemical_formula_structural   CdH28C32(NO2)4
_chemical_formula_sum   'Cd2 H56 C64 N8 O16'
_cell_volume   1620.29548060
_cell_formula_units_Z   2
loop_
 _symmetry_equiv_pos_site_id
 _symmetry_equiv_pos_as_xyz
  1  'x, y, z'
loop_
 _atom_site_type_symbol
 _atom_site_label
 _atom_site_symmetry_multiplicity
 _atom_site_fract_x
 _atom_site_fract_y
 _atom_site_fract_z
 _atom_site_occupancy
  Cd  Cd0  1  0.79926000  0.99996000  0.74991000  1.0
  Cd  Cd1  1  0.20074000  0.00004000  0.25009000  1.0
  H  H2  1  0.55116000  0.60433000  0.85243000  1.0
  H  H3  1  0.94699000  0.39566000  0.64754000  1.0
  H  H4  1  0.44884000  0.39567000  0.14757000  1.0
  H  H5  1  0.05301000  0.60434000  0.35246000  1.0
  H  H6  1  0.70698000  0.62747000  0.88925000  1.0
  H  H7  1  0.07967000  0.37257000  0.61070000  1.0
  H  H8  1  0.29302000  0.37253000  0.11074000  1.0
  H  H9  1  0.92033000  0.62743000  0.38930000  1.0
  H  H10  1  0.76477000  0.62651000  0.04314000  1.0
  H  H11  1  0.13834000  0.37344000  0.45687000  1.0
  H  H12  1  0.23523000  0.37349000  0.95686000  1.0
  H  H13  1  0.86166000  0.62657000  0.54313000  1.0
  H  H14  1  0.73253000  0.61726000  0.22654000  1.0
  H  H15  1  0.11546000  0.38294000  0.27346000  1.0
  H  H16  1  0.26747000  0.38274000  0.77346000  1.0
  H  H17  1  0.88453000  0.61706000  0.72654000  1.0
  H  H18  1  0.34380000  0.65597000  0.26841000  1.0
  H  H19  1  0.68814000  0.34449000  0.23163000  1.0
  H  H20  1  0.65620000  0.34403000  0.73159000  1.0
  H  H21  1  0.31186000  0.65551000  0.76837000  1.0
  H  H22  1  0.19182000  0.67963000  0.15075000  1.0
  H  H23  1  0.51236000  0.32054000  0.34909000  1.0
  H  H24  1  0.80818000  0.32037000  0.84924000  1.0
  H  H25  1  0.48763000  0.67946000  0.65092000  1.0
  H  H26  1  0.24352000  0.69753000  0.96852000  1.0
  H  H27  1  0.54609000  0.30273000  0.53138000  1.0
  H  H28  1  0.75648000  0.30247000  0.03148000  1.0
  H  H29  1  0.45390000  0.69727000  0.46863000  1.0
  H  H30  1  0.43951000  0.69245000  0.90708000  1.0
  H  H31  1  0.74720000  0.30794000  0.59299000  1.0
  H  H32  1  0.56049000  0.30755000  0.09292000  1.0
  H  H33  1  0.25279000  0.69205000  0.40701000  1.0
  H  H34  1  0.94673000  0.88222000  0.85154000  1.0
  H  H35  1  0.06426000  0.11758000  0.64826000  1.0
  H  H36  1  0.05327000  0.11778000  0.14846000  1.0
  H  H37  1  0.93574000  0.88242000  0.35173000  1.0
  H  H38  1  0.15673000  0.87571000  0.85506000  1.0
  H  H39  1  0.28099000  0.12432000  0.64482000  1.0
  H  H40  1  0.84327000  0.12429000  0.14494000  1.0
  H  H41  1  0.71902000  0.87568000  0.35517000  1.0
  H  H42  1  0.37549000  0.99048000  0.91149000  1.0
  H  H43  1  0.38475000  0.00937000  0.58858000  1.0
  H  H44  1  0.62451000  0.00952000  0.08851000  1.0
  H  H45  1  0.61525000  0.99063000  0.41142000  1.0
  H  H46  1  0.58973000  0.99063000  0.90463000  1.0
  H  H47  1  0.59889000  0.00931000  0.59529000  1.0
  H  H48  1  0.41027000  0.00937000  0.09537000  1.0
  H  H49  1  0.40111000  0.99069000  0.40471000  1.0
  H  H50  1  0.81610000  0.02997000  0.95836000  1.0
  H  H51  1  0.78633000  0.97011000  0.54146000  1.0
  H  H52  1  0.18391000  0.97003000  0.04163000  1.0
  H  H53  1  0.21367000  0.02989000  0.45854000  1.0
  H  H54  1  0.93035000  0.17329000  0.96190000  1.0
  H  H55  1  0.75705000  0.82670000  0.53798000  1.0
  H  H56  1  0.06965000  0.82671000  0.03809000  1.0
  H  H57  1  0.24295000  0.17330000  0.46202000  1.0
  C  C58  1  0.70276000  0.80110000  0.89482000  1.0
  C  C59  1  0.90189000  0.19893000  0.60513000  1.0
  C  C60  1  0.29724000  0.19890000  0.10518000  1.0
  C  C61  1  0.09812000  0.80107000  0.39487000  1.0
  C  C62  1  0.63901000  0.66496000  0.90905000  1.0
  C  C63  1  0.97422000  0.33506000  0.59092000  1.0
  C  C64  1  0.36099000  0.33504000  0.09095000  1.0
  C  C65  1  0.02578000  0.66494000  0.40909000  1.0
  C  C66  1  0.68550000  0.63759000  0.07878000  1.0
  C  C67  1  0.04805000  0.36245000  0.42121000  1.0
  C  C68  1  0.31450000  0.36241000  0.92122000  1.0
  C  C69  1  0.95195000  0.63756000  0.57879000  1.0
  C  C70  1  0.66630000  0.63177000  0.18007000  1.0
  C  C71  1  0.03470000  0.36837000  0.31994000  1.0
  C  C72  1  0.33370000  0.36823000  0.81993000  1.0
  C  C73  1  0.96529000  0.63163000  0.68006000  1.0
  C  C74  1  0.56106000  0.64565000  0.22686000  1.0
  C  C75  1  0.91565000  0.35467000  0.27321000  1.0
  C  C76  1  0.43894000  0.35435000  0.77314000  1.0
  C  C77  1  0.08434000  0.64533000  0.72679000  1.0
  C  C78  1  0.47415000  0.65878000  0.15480000  1.0
  C  C79  1  0.81566000  0.34162000  0.34527000  1.0
  C  C80  1  0.52585000  0.34122000  0.84520000  1.0
  C  C81  1  0.18434000  0.65837000  0.65473000  1.0
  C  C82  1  0.36181000  0.66346000  0.18854000  1.0
  C  C83  1  0.69867000  0.33699000  0.31150000  1.0
  C  C84  1  0.63819000  0.33654000  0.81146000  1.0
  C  C85  1  0.30132000  0.66300000  0.68850000  1.0
  C  C86  1  0.27850000  0.67633000  0.12322000  1.0
  C  C87  1  0.60240000  0.32401000  0.37673000  1.0
  C  C88  1  0.72150000  0.32367000  0.87678000  1.0
  C  C89  1  0.39760000  0.67599000  0.62327000  1.0
  C  C90  1  0.30789000  0.68740000  0.02127000  1.0
  C  C91  1  0.62069000  0.31293000  0.47870000  1.0
  C  C92  1  0.69211000  0.31260000  0.97872000  1.0
  C  C93  1  0.37931000  0.68707000  0.52130000  1.0
  C  C94  1  0.41815000  0.68353000  0.98600000  1.0
  C  C95  1  0.73483000  0.31684000  0.51403000  1.0
  C  C96  1  0.58185000  0.31647000  0.01400000  1.0
  C  C97  1  0.26517000  0.68316000  0.48597000  1.0
  C  C98  1  0.50127000  0.66676000  0.05108000  1.0
  C  C99  1  0.83472000  0.33353000  0.44897000  1.0
  C  C100  1  0.49873000  0.33324000  0.94891000  1.0
  C  C101  1  0.16527000  0.66646000  0.55104000  1.0
  C  C102  1  0.02386000  0.93464000  0.80709000  1.0
  C  C103  1  0.08911000  0.06523000  0.69273000  1.0
  C  C104  1  0.97615000  0.06537000  0.19291000  1.0
  C  C105  1  0.91089000  0.93477000  0.30727000  1.0
  C  C106  1  0.14136000  0.93239000  0.80943000  1.0
  C  C107  1  0.20893000  0.06757000  0.69044000  1.0
  C  C108  1  0.85864000  0.06761000  0.19057000  1.0
  C  C109  1  0.79107000  0.93243000  0.30955000  1.0
  C  C110  1  0.23688000  0.99999000  0.74996000  1.0
  C  C111  1  0.76312000  0.00001000  0.25003000  1.0
  C  C112  1  0.36272000  0.99997000  0.75001000  1.0
  C  C113  1  0.63728000  0.00003000  0.24999000  1.0
  C  C114  1  0.42118000  0.99314000  0.83950000  1.0
  C  C115  1  0.42791000  0.00674000  0.66051000  1.0
  C  C116  1  0.57882000  0.00686000  0.16050000  1.0
  C  C117  1  0.57209000  0.99327000  0.33949000  1.0
  C  C118  1  0.54031000  0.99394000  0.83626000  1.0
  C  C119  1  0.54626000  0.00600000  0.66369000  1.0
  C  C120  1  0.45969000  0.00606000  0.16374000  1.0
  C  C121  1  0.45375000  0.99401000  0.33631000  1.0
  N  N122  1  0.60785000  0.65509000  0.01458000  1.0
  N  N123  1  0.95291000  0.34499000  0.48541000  1.0
  N  N124  1  0.39215000  0.34491000  0.98542000  1.0
  N  N125  1  0.04708000  0.65501000  0.51459000  1.0
  N  N126  1  0.99757000  0.99993000  0.74990000  1.0
  N  N127  1  0.00243000  0.00007000  0.25010000  1.0
  N  N128  1  0.60194000  0.00000000  0.74997000  1.0
  N  N129  1  0.39807000  0.00001000  0.25003000  1.0
  O  O130  1  0.70551000  0.80766000  0.79994000  1.0
  O  O131  1  0.89796000  0.19232000  0.70000000  1.0
  O  O132  1  0.29449000  0.19234000  0.20006000  1.0
  O  O133  1  0.10205000  0.80768000  0.30000000  1.0
  O  O134  1  0.74857000  0.89199000  0.97600000  1.0
  O  O135  1  0.85690000  0.10804000  0.52393000  1.0
  O  O136  1  0.25143000  0.10801000  0.02400000  1.0
  O  O137  1  0.14310000  0.89196000  0.47607000  1.0
  O  O138  1  0.54382000  0.64689000  0.32106000  1.0
  O  O139  1  0.89719000  0.35355000  0.17904000  1.0
  O  O140  1  0.45618000  0.35311000  0.67894000  1.0
  O  O141  1  0.10280000  0.64644000  0.82096000  1.0
  O  O142  1  0.84169000  0.10927000  0.93164000  1.0
  O  O143  1  0.73250000  0.89082000  0.56818000  1.0
  O  O144  1  0.15831000  0.89073000  0.06836000  1.0
  O  O145  1  0.26750000  0.10918000  0.43182000  1.0
