# generated using pymatgen
data_ZnH4C22I4NO7
_symmetry_space_group_name_H-M   'P 1'
_cell_length_a   14.78320000
_cell_length_b   14.98550000
_cell_length_c   16.04170000
_cell_angle_alpha   89.98480000
_cell_angle_beta   88.97110000
_cell_angle_gamma   92.46370000
_symmetry_Int_Tables_number   1
_chemical_formula_structural   ZnH4C22I4NO7
_chemical_formula_sum   'Zn2 H8 C44 I8 N2 O14'
_cell_volume   3549.91696283
_cell_formula_units_Z   2
loop_
 _symmetry_equiv_pos_site_id
 _symmetry_equiv_pos_as_xyz
  1  'x, y, z'
loop_
 _atom_site_type_symbol
 _atom_site_label
 _atom_site_symmetry_multiplicity
 _atom_site_fract_x
 _atom_site_fract_y
 _atom_site_fract_z
 _atom_site_occupancy
  Zn  Zn0  1  0.39718000  0.49248000  0.50872000  1.0
  Zn  Zn1  1  0.58944000  0.49916000  0.50156000  1.0
  H  H2  1  0.59186000  0.76443000  0.58105000  1.0
  H  H3  1  0.45888000  0.23120000  0.38594000  1.0
  H  H4  1  0.35640000  0.80739000  0.32873000  1.0
  H  H5  1  0.52860000  0.28360000  0.66264000  1.0
  H  H6  1  0.56121000  0.73525000  0.95457000  1.0
  H  H7  1  0.48538000  0.33851000  0.14811000  1.0
  H  H8  1  0.48801000  0.66238000  0.17688000  1.0
  H  H9  1  0.53097000  0.31408000  0.89449000  1.0
  C  C10  1  0.49797000  0.52133000  0.66337000  1.0
  C  C11  1  0.48779000  0.52441000  0.91687000  1.0
  C  C12  1  0.48352000  0.49696000  0.18081000  1.0
  C  C13  1  0.49278000  0.53034000  0.82895000  1.0
  C  C14  1  0.49752000  0.52788000  0.75317000  1.0
  C  C15  1  0.48242000  0.48603000  0.25609000  1.0
  C  C16  1  0.03449000  0.41122000  0.53858000  1.0
  C  C17  1  0.95053000  0.56392000  0.47380000  1.0
  C  C18  1  0.04525000  0.56351000  0.47638000  1.0
  C  C19  1  0.93979000  0.41047000  0.53421000  1.0
  C  C20  1  0.08590000  0.48739000  0.50942000  1.0
  C  C21  1  0.48193000  0.47760000  0.34593000  1.0
  C  C22  1  0.89939000  0.48721000  0.50240000  1.0
  C  C23  1  0.18180000  0.48790000  0.51321000  1.0
  C  C24  1  0.80360000  0.48841000  0.49942000  1.0
  C  C25  1  0.49665000  0.32520000  0.52032000  1.0
  C  C26  1  0.50139000  0.66491000  0.47678000  1.0
  C  C27  1  0.47927000  0.81535000  0.40464000  1.0
  C  C28  1  0.55067000  0.17641000  0.57258000  1.0
  C  C29  1  0.51360000  0.76506000  0.46994000  1.0
  C  C30  1  0.51026000  0.22679000  0.51001000  1.0
  C  C31  1  0.56367000  0.80598000  0.53308000  1.0
  C  C32  1  0.63412000  0.03605000  0.60428000  1.0
  C  C33  1  0.48815000  0.18963000  0.43328000  1.0
  C  C34  1  0.57648000  0.89888000  0.53686000  1.0
  C  C35  1  0.50066000  0.09898000  0.41717000  1.0
  C  C36  1  0.53960000  0.95169000  0.47237000  1.0
  C  C37  1  0.54018000  0.04618000  0.48035000  1.0
  C  C38  1  0.49790000  0.90914000  0.40222000  1.0
  C  C39  1  0.57495000  0.08782000  0.55411000  1.0
  C  C40  1  0.63157000  0.94431000  0.59857000  1.0
  C  C41  1  0.47978000  0.05637000  0.33866000  1.0
  C  C42  1  0.41603000  0.76873000  0.34613000  1.0
  C  C43  1  0.48066000  0.96483000  0.33064000  1.0
  C  C44  1  0.54568000  0.21220000  0.65876000  1.0
  C  C45  1  0.50634000  0.69154000  0.92794000  1.0
  C  C46  1  0.47764000  0.34035000  0.07933000  1.0
  C  C47  1  0.48370000  0.67300000  0.10855000  1.0
  C  C48  1  0.47128000  0.35669000  0.89934000  1.0
  C  C49  1  0.48867000  0.59274000  0.05570000  1.0
  C  C50  1  0.48066000  0.43866000  0.95454000  1.0
  C  C51  1  0.49265000  0.60131000  0.96832000  1.0
  C  C52  1  0.48160000  0.43012000  0.04144000  1.0
  C  C53  1  0.48523000  0.50696000  0.09342000  1.0
  I  I54  1  0.71195000  0.86592000  0.67415000  1.0
  I  I55  1  0.45538000  0.13770000  0.23489000  1.0
  I  I56  1  0.74121000  0.10359000  0.66730000  1.0
  I  I57  1  0.47505000  0.90204000  0.21287000  1.0
  I  I58  1  0.85564000  0.30045000  0.57233000  1.0
  I  I59  1  0.12865000  0.67004000  0.43321000  1.0
  I  I60  1  0.88223000  0.67328000  0.43045000  1.0
  I  I61  1  0.10293000  0.30461000  0.58725000  1.0
  N  N62  1  0.72551000  0.49222000  0.49640000  1.0
  N  N63  1  0.26023000  0.48916000  0.51609000  1.0
  O  O64  1  0.42229000  0.49702000  0.63208000  1.0
  O  O65  1  0.55236000  0.16769000  0.72239000  1.0
  O  O66  1  0.46486000  0.71347000  0.86668000  1.0
  O  O67  1  0.46735000  0.27114000  0.03887000  1.0
  O  O68  1  0.47364000  0.74815000  0.07970000  1.0
  O  O69  1  0.40329000  0.34225000  0.85878000  1.0
  O  O70  1  0.55691000  0.46113000  0.37878000  1.0
  O  O71  1  0.40598000  0.48816000  0.38199000  1.0
  O  O72  1  0.57258000  0.53887000  0.62495000  1.0
  O  O73  1  0.41929000  0.35463000  0.50714000  1.0
  O  O74  1  0.57472000  0.62503000  0.46379000  1.0
  O  O75  1  0.42551000  0.63076000  0.50031000  1.0
  O  O76  1  0.56891000  0.37088000  0.53698000  1.0
  O  O77  1  0.42188000  0.69057000  0.32466000  1.0
