# generated using pymatgen
data_TlH2(C2O)2
_symmetry_space_group_name_H-M   'P 1'
_cell_length_a   6.25791000
_cell_length_b   7.51337000
_cell_length_c   10.69200000
_cell_angle_alpha   101.49200000
_cell_angle_beta   89.99960000
_cell_angle_gamma   89.99980000
_symmetry_Int_Tables_number   1
_chemical_formula_structural   TlH2(C2O)2
_chemical_formula_sum   'Tl4 H8 C16 O8'
_cell_volume   492.63819331
_cell_formula_units_Z   4
loop_
 _symmetry_equiv_pos_site_id
 _symmetry_equiv_pos_as_xyz
  1  'x, y, z'
loop_
 _atom_site_type_symbol
 _atom_site_label
 _atom_site_symmetry_multiplicity
 _atom_site_fract_x
 _atom_site_fract_y
 _atom_site_fract_z
 _atom_site_occupancy
  Tl  Tl0  1  0.91347000  0.34897000  0.05347000  1.0
  Tl  Tl1  1  0.41347000  0.65104000  0.94653000  1.0
  Tl  Tl2  1  0.37365000  0.09430000  0.78389000  1.0
  Tl  Tl3  1  0.87365000  0.90570000  0.21611000  1.0
  H  H4  1  0.89174000  0.05762000  0.74252000  1.0
  H  H5  1  0.39176000  0.94238000  0.25748000  1.0
  H  H6  1  0.79595000  0.98828000  0.51237000  1.0
  H  H7  1  0.29596000  0.01172000  0.48762000  1.0
  H  H8  1  0.73243000  0.66409000  0.40217000  1.0
  H  H9  1  0.23243000  0.33591000  0.59783000  1.0
  H  H10  1  0.76775000  0.41811000  0.52314000  1.0
  H  H11  1  0.26774000  0.58188000  0.47686000  1.0
  C  C12  1  0.85204000  0.59580000  0.70062000  1.0
  C  C13  1  0.35204000  0.40420000  0.29938000  1.0
  C  C14  1  0.88794000  0.77748000  0.76260000  1.0
  C  C15  1  0.38793000  0.22252000  0.23740000  1.0
  C  C16  1  0.86899000  0.91691000  0.69315000  1.0
  C  C17  1  0.36900000  0.08309000  0.30685000  1.0
  C  C18  1  0.81363000  0.87760000  0.56409000  1.0
  C  C19  1  0.31363000  0.12239000  0.43591000  1.0
  C  C20  1  0.77760000  0.69775000  0.50279000  1.0
  C  C21  1  0.27760000  0.30225000  0.49722000  1.0
  C  C22  1  0.79671000  0.55838000  0.57111000  1.0
  C  C23  1  0.29671000  0.44162000  0.42889000  1.0
  C  C24  1  0.87719000  0.43930000  0.76933000  1.0
  C  C25  1  0.37718000  0.56071000  0.23068000  1.0
  C  C26  1  0.93948000  0.82506000  0.90286000  1.0
  C  C27  1  0.43949000  0.17494000  0.09714000  1.0
  O  O28  1  0.06695000  0.39377000  0.79286000  1.0
  O  O29  1  0.56694000  0.60624000  0.20714000  1.0
  O  O30  1  0.70759000  0.36221000  0.79684000  1.0
  O  O31  1  0.20758000  0.63778000  0.20316000  1.0
  O  O32  1  0.87072000  0.71746000  0.97283000  1.0
  O  O33  1  0.37072000  0.28254000  0.02717000  1.0
  O  O34  1  0.04902000  0.96690000  0.94473000  1.0
  O  O35  1  0.54902000  0.03310000  0.05527000  1.0
