# generated using pymatgen
data_CuH8C6IN2
_symmetry_space_group_name_H-M   'P 1'
_cell_length_a   10.25070000
_cell_length_b   10.95930000
_cell_length_c   14.43300000
_cell_angle_alpha   90.00020000
_cell_angle_beta   90.00030000
_cell_angle_gamma   96.54140000
_symmetry_Int_Tables_number   1
_chemical_formula_structural   CuH8C6IN2
_chemical_formula_sum   'Cu8 H64 C48 I8 N16'
_cell_volume   1610.85467936
_cell_formula_units_Z   8
loop_
 _symmetry_equiv_pos_site_id
 _symmetry_equiv_pos_as_xyz
  1  'x, y, z'
loop_
 _atom_site_type_symbol
 _atom_site_label
 _atom_site_symmetry_multiplicity
 _atom_site_fract_x
 _atom_site_fract_y
 _atom_site_fract_z
 _atom_site_occupancy
  Cu  Cu0  1  0.52087000  0.58225000  0.57543000  1.0
  Cu  Cu1  1  0.02087000  0.08226000  0.92457000  1.0
  Cu  Cu2  1  0.47913000  0.41773000  0.42457000  1.0
  Cu  Cu3  1  0.97913000  0.91774000  0.07543000  1.0
  Cu  Cu4  1  0.62320000  0.45550000  0.70979000  1.0
  Cu  Cu5  1  0.12321000  0.95550000  0.79022000  1.0
  Cu  Cu6  1  0.37679000  0.54449000  0.29022000  1.0
  Cu  Cu7  1  0.87679000  0.04450000  0.20978000  1.0
  H  H8  1  0.08886000  0.76172000  0.65021000  1.0
  H  H9  1  0.58886000  0.26173000  0.84979000  1.0
  H  H10  1  0.91114000  0.23827000  0.34979000  1.0
  H  H11  1  0.41115000  0.73827000  0.15021000  1.0
  H  H12  1  0.40737000  0.90244000  0.81046000  1.0
  H  H13  1  0.90736000  0.40243000  0.68954000  1.0
  H  H14  1  0.59262000  0.09756000  0.18954000  1.0
  H  H15  1  0.09263000  0.59756000  0.31046000  1.0
  H  H16  1  0.55129000  0.76835000  0.72387000  1.0
  H  H17  1  0.05129000  0.26835000  0.77613000  1.0
  H  H18  1  0.44870000  0.23165000  0.27613000  1.0
  H  H19  1  0.94871000  0.73165000  0.22387000  1.0
  H  H20  1  0.28748000  0.56617000  0.50573000  1.0
  H  H21  1  0.78748000  0.06617000  0.99427000  1.0
  H  H22  1  0.71251000  0.43383000  0.49427000  1.0
  H  H23  1  0.21252000  0.93382000  0.00573000  1.0
  H  H24  1  0.15327000  0.65500000  0.49951000  1.0
  H  H25  1  0.65327000  0.15499000  0.00050000  1.0
  H  H26  1  0.84673000  0.34500000  0.50049000  1.0
  H  H27  1  0.34673000  0.84500000  0.99951000  1.0
  H  H28  1  0.07832000  0.43383000  0.53461000  1.0
  H  H29  1  0.57832000  0.93383000  0.96539000  1.0
  H  H30  1  0.92167000  0.56617000  0.46539000  1.0
  H  H31  1  0.42168000  0.06617000  0.03461000  1.0
  H  H32  1  0.03814000  0.53101000  0.62689000  1.0
  H  H33  1  0.53814000  0.03101000  0.87311000  1.0
  H  H34  1  0.96185000  0.46899000  0.37311000  1.0
  H  H35  1  0.46186000  0.96898000  0.12689000  1.0
  H  H36  1  0.17435000  0.44263000  0.63713000  1.0
  H  H37  1  0.67435000  0.94263000  0.86287000  1.0
  H  H38  1  0.82563000  0.55737000  0.36287000  1.0
  H  H39  1  0.32565000  0.05736000  0.13712000  1.0
  H  H40  1  0.35049000  0.42817000  0.79624000  1.0
  H  H41  1  0.85049000  0.92817000  0.70376000  1.0
  H  H42  1  0.64950000  0.57183000  0.20376000  1.0
  H  H43  1  0.14951000  0.07183000  0.29624000  1.0
  H  H44  1  0.70634000  0.63441000  0.85498000  1.0
  H  H45  1  0.20635000  0.13440000  0.64502000  1.0
  H  H46  1  0.29366000  0.36559000  0.14502000  1.0
  H  H47  1  0.79367000  0.86560000  0.35498000  1.0
  H  H48  1  0.60388000  0.72728000  0.99267000  1.0
  H  H49  1  0.10389000  0.22728000  0.50733000  1.0
  H  H50  1  0.39612000  0.27272000  0.00733000  1.0
  H  H51  1  0.89613000  0.77273000  0.49267000  1.0
  H  H52  1  0.18904000  0.41161000  0.94952000  1.0
  H  H53  1  0.68904000  0.91162000  0.55047000  1.0
  H  H54  1  0.81096000  0.58840000  0.05048000  1.0
  H  H55  1  0.31098000  0.08839000  0.44952000  1.0
  H  H56  1  0.18641000  0.55485000  0.00696000  1.0
  H  H57  1  0.68642000  0.05485000  0.49304000  1.0
  H  H58  1  0.81359000  0.44516000  0.99304000  1.0
  H  H59  1  0.31360000  0.94516000  0.50695000  1.0
  H  H60  1  0.01192000  0.52574000  0.88261000  1.0
  H  H61  1  0.51193000  0.02574000  0.61737000  1.0
  H  H62  1  0.98807000  0.47427000  0.11739000  1.0
  H  H63  1  0.48808000  0.97425000  0.38261000  1.0
  H  H64  1  0.13439000  0.50975000  0.79788000  1.0
  H  H65  1  0.63439000  0.00976000  0.70212000  1.0
  H  H66  1  0.86560000  0.49025000  0.20212000  1.0
  H  H67  1  0.36561000  0.99024000  0.29787000  1.0
  H  H68  1  0.12896000  0.65217000  0.85583000  1.0
  H  H69  1  0.62896000  0.15218000  0.64416000  1.0
  H  H70  1  0.87104000  0.34783000  0.14417000  1.0
  H  H71  1  0.37105000  0.84782000  0.35583000  1.0
  C  C72  1  0.27046000  0.68742000  0.61926000  1.0
  C  C73  1  0.77046000  0.18742000  0.88074000  1.0
  C  C74  1  0.72953000  0.31258000  0.38074000  1.0
  C  C75  1  0.22954000  0.81258000  0.11926000  1.0
  C  C76  1  0.19245000  0.76289000  0.66760000  1.0
  C  C77  1  0.69245000  0.26289000  0.83240000  1.0
  C  C78  1  0.80754000  0.23711000  0.33240000  1.0
  C  C79  1  0.30756000  0.73710000  0.16760000  1.0
  C  C80  1  0.36836000  0.84009000  0.75592000  1.0
  C  C81  1  0.86835000  0.34008000  0.74408000  1.0
  C  C82  1  0.63164000  0.15991000  0.24408000  1.0
  C  C83  1  0.13165000  0.65992000  0.25592000  1.0
  C  C84  1  0.44691000  0.76672000  0.70832000  1.0
  C  C85  1  0.94690000  0.26672000  0.79168000  1.0
  C  C86  1  0.55309000  0.23327000  0.29168000  1.0
  C  C87  1  0.05310000  0.73328000  0.20832000  1.0
  C  C88  1  0.20981000  0.60198000  0.54658000  1.0
  C  C89  1  0.70981000  0.10198000  0.95342000  1.0
  C  C90  1  0.79019000  0.39802000  0.45342000  1.0
  C  C91  1  0.29019000  0.89802000  0.04658000  1.0
  C  C92  1  0.11945000  0.49596000  0.58942000  1.0
  C  C93  1  0.61945000  0.99596000  0.91058000  1.0
  C  C94  1  0.88054000  0.50405000  0.41058000  1.0
  C  C95  1  0.38055000  0.00404000  0.08942000  1.0
  C  C96  1  0.34847000  0.54754000  0.91732000  1.0
  C  C97  1  0.84847000  0.04754000  0.58268000  1.0
  C  C98  1  0.65153000  0.45246000  0.08268000  1.0
  C  C99  1  0.15154000  0.95246000  0.41732000  1.0
  C  C100  1  0.40633000  0.49578000  0.84075000  1.0
  C  C101  1  0.90634000  0.99578000  0.65924000  1.0
  C  C102  1  0.59366000  0.50422000  0.15925000  1.0
  C  C103  1  0.09367000  0.00422000  0.34075000  1.0
  C  C104  1  0.60363000  0.60877000  0.87340000  1.0
  C  C105  1  0.10364000  0.10876000  0.62660000  1.0
  C  C106  1  0.39636000  0.39123000  0.12660000  1.0
  C  C107  1  0.89637000  0.89123000  0.37340000  1.0
  C  C108  1  0.54582000  0.66047000  0.94856000  1.0
  C  C109  1  0.04583000  0.16047000  0.55144000  1.0
  C  C110  1  0.45418000  0.33953000  0.05145000  1.0
  C  C111  1  0.95419000  0.83954000  0.44856000  1.0
  C  C112  1  0.20634000  0.51209000  0.94036000  1.0
  C  C113  1  0.70635000  0.01209000  0.55963000  1.0
  C  C114  1  0.79366000  0.48792000  0.05964000  1.0
  C  C115  1  0.29367000  0.98791000  0.44036000  1.0
  C  C116  1  0.11536000  0.55214000  0.86474000  1.0
  C  C117  1  0.61536000  0.05214000  0.63526000  1.0
  C  C118  1  0.88464000  0.44786000  0.13526000  1.0
  C  C119  1  0.38464000  0.94786000  0.36474000  1.0
  I  I120  1  0.76908000  0.64866000  0.64435000  1.0
  I  I121  1  0.26908000  0.14866000  0.85566000  1.0
  I  I122  1  0.23092000  0.35134000  0.35566000  1.0
  I  I123  1  0.73092000  0.85134000  0.14434000  1.0
  I  I124  1  0.55496000  0.65582000  0.40079000  1.0
  I  I125  1  0.05496000  0.15582000  0.09922000  1.0
  I  I126  1  0.44504000  0.34417000  0.59922000  1.0
  I  I127  1  0.94504000  0.84417000  0.90079000  1.0
  N  N128  1  0.39970000  0.68942000  0.63995000  1.0
  N  N129  1  0.89969000  0.18942000  0.86005000  1.0
  N  N130  1  0.60030000  0.31058000  0.36005000  1.0
  N  N131  1  0.10031000  0.81058000  0.13995000  1.0
  N  N132  1  0.23937000  0.83909000  0.73586000  1.0
  N  N133  1  0.73936000  0.33908000  0.76415000  1.0
  N  N134  1  0.76063000  0.16091000  0.26414000  1.0
  N  N135  1  0.26064000  0.66091000  0.23585000  1.0
  N  N136  1  0.41892000  0.63122000  0.97090000  1.0
  N  N137  1  0.91893000  0.13122000  0.52910000  1.0
  N  N138  1  0.58108000  0.36879000  0.02910000  1.0
  N  N139  1  0.08109000  0.86879000  0.47090000  1.0
  N  N140  1  0.53296000  0.52634000  0.81855000  1.0
  N  N141  1  0.03296000  0.02633000  0.68145000  1.0
  N  N142  1  0.46704000  0.47367000  0.18145000  1.0
  N  N143  1  0.96705000  0.97367000  0.31855000  1.0
