# generated using pymatgen
data_DyH19C21NO8
_symmetry_space_group_name_H-M   'P 1'
_cell_length_a   12.10790000
_cell_length_b   12.11740000
_cell_length_c   18.30960000
_cell_angle_alpha   102.17800000
_cell_angle_beta   107.50800000
_cell_angle_gamma   103.04900000
_symmetry_Int_Tables_number   1
_chemical_formula_structural   DyH19C21NO8
_chemical_formula_sum   'Dy4 H76 C84 N4 O32'
_cell_volume   2380.62839658
_cell_formula_units_Z   4
loop_
 _symmetry_equiv_pos_site_id
 _symmetry_equiv_pos_as_xyz
  1  'x, y, z'
loop_
 _atom_site_type_symbol
 _atom_site_label
 _atom_site_symmetry_multiplicity
 _atom_site_fract_x
 _atom_site_fract_y
 _atom_site_fract_z
 _atom_site_occupancy
  Dy  Dy0  1  0.58474000  0.16028000  0.98763000  1.0
  Dy  Dy1  1  0.67270000  0.59695000  0.51228000  1.0
  Dy  Dy2  1  0.41526000  0.83972000  0.01237000  1.0
  Dy  Dy3  1  0.32730000  0.40304000  0.48772000  1.0
  H  H4  1  0.68033000  0.01166000  0.89142000  1.0
  H  H5  1  0.62092000  0.78871000  0.60852000  1.0
  H  H6  1  0.31967000  0.98834000  0.10858000  1.0
  H  H7  1  0.37908000  0.21128000  0.39147000  1.0
  H  H8  1  0.56588000  0.91312000  0.89342000  1.0
  H  H9  1  0.52009000  0.67262000  0.60675000  1.0
  H  H10  1  0.43412000  0.08687000  0.10658000  1.0
  H  H11  1  0.47991000  0.32738000  0.39325000  1.0
  H  H12  1  0.31657000  0.72377000  0.45476000  1.0
  H  H13  1  0.76857000  0.86140000  0.04538000  1.0
  H  H14  1  0.68341000  0.27623000  0.54524000  1.0
  H  H15  1  0.23143000  0.13859000  0.95462000  1.0
  H  H16  1  0.14398000  0.78334000  0.37958000  1.0
  H  H17  1  0.90318000  0.76397000  0.12057000  1.0
  H  H18  1  0.85602000  0.21666000  0.62041000  1.0
  H  H19  1  0.09682000  0.23603000  0.87943000  1.0
  H  H20  1  0.06730000  0.72034000  0.22887000  1.0
  H  H21  1  0.99141000  0.83848000  0.27129000  1.0
  H  H22  1  0.93271000  0.27966000  0.77113000  1.0
  H  H23  1  0.00859000  0.16152000  0.72871000  1.0
  H  H24  1  0.16102000  0.59813000  0.15745000  1.0
  H  H25  1  0.94089000  0.00384000  0.34264000  1.0
  H  H26  1  0.83899000  0.40188000  0.84255000  1.0
  H  H27  1  0.05911000  0.99616000  0.65736000  1.0
  H  H28  1  0.35686000  0.39825000  0.29123000  1.0
  H  H29  1  0.60676000  0.06540000  0.20881000  1.0
  H  H30  1  0.64314000  0.60175000  0.70877000  1.0
  H  H31  1  0.39324000  0.93461000  0.79119000  1.0
  H  H32  1  0.43502000  0.26902000  0.20950000  1.0
  H  H33  1  0.55881000  0.22480000  0.29051000  1.0
  H  H34  1  0.56498000  0.73099000  0.79050000  1.0
  H  H35  1  0.44120000  0.77521000  0.70949000  1.0
  H  H36  1  0.40720000  0.47717000  0.04515000  1.0
  H  H37  1  0.93137000  0.36174000  0.45488000  1.0
  H  H38  1  0.59280000  0.52283000  0.95485000  1.0
  H  H39  1  0.06863000  0.63826000  0.54512000  1.0
  H  H40  1  0.33595000  0.61183000  0.12953000  1.0
  H  H41  1  0.98221000  0.20668000  0.37045000  1.0
  H  H42  1  0.66405000  0.38818000  0.87046000  1.0
  H  H43  1  0.01780000  0.79333000  0.62955000  1.0
  H  H44  1  0.84805000  0.56103000  0.05175000  1.0
  H  H45  1  0.01004000  0.79670000  0.44835000  1.0
  H  H46  1  0.15194000  0.43897000  0.94825000  1.0
  H  H47  1  0.98996000  0.20331000  0.55165000  1.0
  H  H48  1  0.97103000  0.28420000  0.94799000  1.0
  H  H49  1  0.83575000  0.02241000  0.55190000  1.0
  H  H50  1  0.02896000  0.71580000  0.05201000  1.0
  H  H51  1  0.16425000  0.97759000  0.44810000  1.0
  H  H52  1  0.44075000  0.10378000  0.72165000  1.0
  H  H53  1  0.88205000  0.71866000  0.77810000  1.0
  H  H54  1  0.55925000  0.89622000  0.27835000  1.0
  H  H55  1  0.11795000  0.28133000  0.22190000  1.0
  H  H56  1  0.42895000  0.20668000  0.66332000  1.0
  H  H57  1  0.04335000  0.76514000  0.83639000  1.0
  H  H58  1  0.57105000  0.79332000  0.33668000  1.0
  H  H59  1  0.95665000  0.23486000  0.16361000  1.0
  H  H60  1  0.29501000  0.09851000  0.65561000  1.0
  H  H61  1  0.94284000  0.63913000  0.84421000  1.0
  H  H62  1  0.70499000  0.90149000  0.34439000  1.0
  H  H63  1  0.05716000  0.36087000  0.15578000  1.0
  H  H64  1  0.30796000  0.37907000  0.79665000  1.0
  H  H65  1  0.08262000  0.51104000  0.70313000  1.0
  H  H66  1  0.69205000  0.62092000  0.20336000  1.0
  H  H67  1  0.91739000  0.48896000  0.29687000  1.0
  H  H68  1  0.21822000  0.27628000  0.69902000  1.0
  H  H69  1  0.07734000  0.51883000  0.80077000  1.0
  H  H70  1  0.78179000  0.72372000  0.30098000  1.0
  H  H71  1  0.92266000  0.48117000  0.19923000  1.0
  H  H72  1  0.35884000  0.38113000  0.71432000  1.0
  H  H73  1  0.16689000  0.64414000  0.78548000  1.0
  H  H74  1  0.64116000  0.61887000  0.28568000  1.0
  H  H75  1  0.83311000  0.35586000  0.21452000  1.0
  H  H76  1  0.41271000  0.31088000  0.88248000  1.0
  H  H77  1  0.92812000  0.52971000  0.61726000  1.0
  H  H78  1  0.58729000  0.68912000  0.11753000  1.0
  H  H79  1  0.07188000  0.47029000  0.38273000  1.0
  C  C80  1  0.29538000  0.59392000  0.26408000  1.0
  C  C81  1  0.82992000  0.03143000  0.23595000  1.0
  C  C82  1  0.70461000  0.40608000  0.73592000  1.0
  C  C83  1  0.17008000  0.96857000  0.76405000  1.0
  C  C84  1  0.33917000  0.63093000  0.34874000  1.0
  C  C85  1  0.78224000  0.99040000  0.15129000  1.0
  C  C86  1  0.66083000  0.36906000  0.65126000  1.0
  C  C87  1  0.21777000  0.00960000  0.84871000  1.0
  C  C88  1  0.28313000  0.69760000  0.38939000  1.0
  C  C89  1  0.80791000  0.89346000  0.11072000  1.0
  C  C90  1  0.71686000  0.30239000  0.61061000  1.0
  C  C91  1  0.19210000  0.10654000  0.88928000  1.0
  C  C92  1  0.18610000  0.73095000  0.34706000  1.0
  C  C93  1  0.88350000  0.83873000  0.15307000  1.0
  C  C94  1  0.81389000  0.26905000  0.65293000  1.0
  C  C95  1  0.11651000  0.16127000  0.84693000  1.0
  C  C96  1  0.14367000  0.69635000  0.26333000  1.0
  C  C97  1  0.93287000  0.88030000  0.23681000  1.0
  C  C98  1  0.85633000  0.30365000  0.73667000  1.0
  C  C99  1  0.06713000  0.11969000  0.76319000  1.0
  C  C100  1  0.19740000  0.62820000  0.22277000  1.0
  C  C101  1  0.90551000  0.97480000  0.27732000  1.0
  C  C102  1  0.80260000  0.37180000  0.77723000  1.0
  C  C103  1  0.09449000  0.02520000  0.72268000  1.0
  C  C104  1  0.34328000  0.51601000  0.21691000  1.0
  C  C105  1  0.79898000  0.12645000  0.28299000  1.0
  C  C106  1  0.65672000  0.48400000  0.78308000  1.0
  C  C107  1  0.20102000  0.87355000  0.71701000  1.0
  C  C108  1  0.37084000  0.41825000  0.23877000  1.0
  C  C109  1  0.67919000  0.13195000  0.26116000  1.0
  C  C110  1  0.62916000  0.58176000  0.76123000  1.0
  C  C111  1  0.32082000  0.86805000  0.73884000  1.0
  C  C112  1  0.41261000  0.34415000  0.19218000  1.0
  C  C113  1  0.65145000  0.22012000  0.30772000  1.0
  C  C114  1  0.58738000  0.65585000  0.80782000  1.0
  C  C115  1  0.34855000  0.77988000  0.69228000  1.0
  C  C116  1  0.39639000  0.46069000  0.09928000  1.0
  C  C117  1  0.86096000  0.29695000  0.40063000  1.0
  C  C118  1  0.60361000  0.53931000  0.90072000  1.0
  C  C119  1  0.13905000  0.70305000  0.59937000  1.0
  C  C120  1  0.35586000  0.53544000  0.14636000  1.0
  C  C121  1  0.88888000  0.20960000  0.35355000  1.0
  C  C122  1  0.64414000  0.46457000  0.85364000  1.0
  C  C123  1  0.11113000  0.79040000  0.64645000  1.0
  C  C124  1  0.44900000  0.60747000  0.39898000  1.0
  C  C125  1  0.70866000  0.04991000  0.10094000  1.0
  C  C126  1  0.55099000  0.39252000  0.60102000  1.0
  C  C127  1  0.29135000  0.95009000  0.89906000  1.0
  C  C128  1  0.47374000  0.28734000  0.07376000  1.0
  C  C129  1  0.71297000  0.39956000  0.42614000  1.0
  C  C130  1  0.52626000  0.71266000  0.92623000  1.0
  C  C131  1  0.28703000  0.60044000  0.57386000  1.0
  C  C132  1  0.90089000  0.41485000  0.00040000  1.0
  C  C133  1  0.91454000  0.90038000  0.49950000  1.0
  C  C134  1  0.09912000  0.58515000  0.99960000  1.0
  C  C135  1  0.08546000  0.09962000  0.50050000  1.0
  C  C136  1  0.91584000  0.53609000  0.02964000  1.0
  C  C137  1  0.00682000  0.88640000  0.47037000  1.0
  C  C138  1  0.08417000  0.46391000  0.97036000  1.0
  C  C139  1  0.99318000  0.11360000  0.52963000  1.0
  C  C140  1  0.98557000  0.37911000  0.97087000  1.0
  C  C141  1  0.90800000  0.01438000  0.52909000  1.0
  C  C142  1  0.01443000  0.62089000  0.02914000  1.0
  C  C143  1  0.09200000  0.98562000  0.47092000  1.0
  C  C144  1  0.79192000  0.32397000  0.99760000  1.0
  C  C145  1  0.82673000  0.79414000  0.50239000  1.0
  C  C146  1  0.20807000  0.67603000  0.00240000  1.0
  C  C147  1  0.17327000  0.20586000  0.49762000  1.0
  C  C148  1  0.38626000  0.15695000  0.69658000  1.0
  C  C149  1  0.96033000  0.68926000  0.80317000  1.0
  C  C150  1  0.61374000  0.84305000  0.30343000  1.0
  C  C151  1  0.03967000  0.31074000  0.19683000  1.0
  C  C152  1  0.31137000  0.32423000  0.74198000  1.0
  C  C153  1  0.08233000  0.56901000  0.75780000  1.0
  C  C154  1  0.68864000  0.67577000  0.25802000  1.0
  C  C155  1  0.91767000  0.43099000  0.24220000  1.0
  C  C156  1  0.42865000  0.24532000  0.83845000  1.0
  C  C157  1  0.90669000  0.58967000  0.66134000  1.0
  C  C158  1  0.57136000  0.75467000  0.16155000  1.0
  C  C159  1  0.09331000  0.41033000  0.33866000  1.0
  C  C160  1  0.42624000  0.36467000  0.12241000  1.0
  C  C161  1  0.74167000  0.30352000  0.37748000  1.0
  C  C162  1  0.57375000  0.63533000  0.87758000  1.0
  C  C163  1  0.25833000  0.69648000  0.62252000  1.0
  N  N164  1  0.37533000  0.24004000  0.76226000  1.0
  N  N165  1  0.97775000  0.61262000  0.73751000  1.0
  N  N166  1  0.62467000  0.75995000  0.23775000  1.0
  N  N167  1  0.02225000  0.38737000  0.26249000  1.0
  O  O168  1  0.55253000  0.65004000  0.39649000  1.0
  O  O169  1  0.75382000  0.15578000  0.10334000  1.0
  O  O170  1  0.44747000  0.34996000  0.60351000  1.0
  O  O171  1  0.24618000  0.84422000  0.89666000  1.0
  O  O172  1  0.43792000  0.54927000  0.44899000  1.0
  O  O173  1  0.60035000  0.98891000  0.05100000  1.0
  O  O174  1  0.56208000  0.45071000  0.55100000  1.0
  O  O175  1  0.39965000  0.01109000  0.94901000  1.0
  O  O176  1  0.51782000  0.20970000  0.10059000  1.0
  O  O177  1  0.60859000  0.41703000  0.39933000  1.0
  O  O178  1  0.48218000  0.79030000  0.89941000  1.0
  O  O179  1  0.39141000  0.58297000  0.60066000  1.0
  O  O180  1  0.47276000  0.29805000  0.00611000  1.0
  O  O181  1  0.79144000  0.46615000  0.49378000  1.0
  O  O182  1  0.52723000  0.70194000  0.99389000  1.0
  O  O183  1  0.20856000  0.53386000  0.50621000  1.0
  O  O184  1  0.72397000  0.35676000  0.03366000  1.0
  O  O185  1  0.82383000  0.69029000  0.46648000  1.0
  O  O186  1  0.27603000  0.64324000  0.96634000  1.0
  O  O187  1  0.17617000  0.30972000  0.53353000  1.0
  O  O188  1  0.76649000  0.21553000  0.95730000  1.0
  O  O189  1  0.75831000  0.80883000  0.54258000  1.0
  O  O190  1  0.23351000  0.78448000  0.04270000  1.0
  O  O191  1  0.24168000  0.19117000  0.45742000  1.0
  O  O192  1  0.49333000  0.18149000  0.86086000  1.0
  O  O193  1  0.82044000  0.63196000  0.63902000  1.0
  O  O194  1  0.50668000  0.81850000  0.13914000  1.0
  O  O195  1  0.17956000  0.36804000  0.36098000  1.0
  O  O196  1  0.59934000  0.99684000  0.89368000  1.0
  O  O197  1  0.60360000  0.70557000  0.60639000  1.0
  O  O198  1  0.40066000  0.00316000  0.10632000  1.0
  O  O199  1  0.39640000  0.29442000  0.39360000  1.0
