# generated using pymatgen
data_CuH28C36N8(OF)4
_symmetry_space_group_name_H-M   'P 1'
_cell_length_a   8.24869000
_cell_length_b   9.41269000
_cell_length_c   11.81560000
_cell_angle_alpha   108.37600000
_cell_angle_beta   103.97700000
_cell_angle_gamma   91.40360000
_symmetry_Int_Tables_number   1
_chemical_formula_structural   CuH28C36N8(OF)4
_chemical_formula_sum   'Cu1 H28 C36 N8 O4 F4'
_cell_volume   839.77536724
_cell_formula_units_Z   1
loop_
 _symmetry_equiv_pos_site_id
 _symmetry_equiv_pos_as_xyz
  1  'x, y, z'
loop_
 _atom_site_type_symbol
 _atom_site_label
 _atom_site_symmetry_multiplicity
 _atom_site_fract_x
 _atom_site_fract_y
 _atom_site_fract_z
 _atom_site_occupancy
  Cu  Cu0  1  0.50000000  0.00000000  0.49999000  1.0
  H  H1  1  0.85537000  0.03805000  0.45227000  1.0
  H  H2  1  0.14463000  0.96188000  0.54775000  1.0
  H  H3  1  0.10841000  0.37339000  0.89520000  1.0
  H  H4  1  0.89157000  0.62659000  0.10479000  1.0
  H  H5  1  0.91493000  0.45374000  0.88923000  1.0
  H  H6  1  0.08504000  0.54623000  0.11075000  1.0
  H  H7  1  0.68165000  0.26459000  0.76295000  1.0
  H  H8  1  0.31831000  0.73544000  0.23700000  1.0
  H  H9  1  0.33844000  0.49326000  0.87513000  1.0
  H  H10  1  0.66154000  0.50675000  0.12488000  1.0
  H  H11  1  0.29762000  0.83574000  0.70164000  1.0
  H  H12  1  0.70235000  0.16429000  0.29839000  1.0
  H  H13  1  0.11385000  0.25092000  0.62603000  1.0
  H  H14  1  0.88619000  0.74899000  0.37399000  1.0
  H  H15  1  0.98892000  0.80163000  0.66140000  1.0
  H  H16  1  0.01104000  0.19838000  0.33861000  1.0
  H  H17  1  0.47388000  0.68339000  0.81275000  1.0
  H  H18  1  0.52608000  0.31664000  0.18730000  1.0
  H  H19  1  0.74549000  0.49700000  0.70349000  1.0
  H  H20  1  0.25447000  0.50298000  0.29650000  1.0
  H  H21  1  0.76341000  0.68224000  0.80769000  1.0
  H  H22  1  0.23656000  0.31773000  0.19230000  1.0
  H  H23  1  0.58443000  0.66904000  0.33952000  1.0
  H  H24  1  0.41553000  0.33095000  0.66048000  1.0
  H  H25  1  0.73122000  0.47826000  0.46521000  1.0
  H  H26  1  0.26872000  0.52172000  0.53479000  1.0
  H  H27  1  0.65278000  0.88367000  0.72236000  1.0
  H  H28  1  0.34719000  0.11632000  0.27764000  1.0
  C  C29  1  0.86003000  0.11548000  0.54319000  1.0
  C  C30  1  0.13999000  0.88447000  0.45682000  1.0
  C  C31  1  0.48128000  0.07860000  0.91316000  1.0
  C  C32  1  0.51885000  0.92144000  0.08685000  1.0
  C  C33  1  0.00949000  0.41610000  0.83786000  1.0
  C  C34  1  0.99049000  0.58388000  0.16213000  1.0
  C  C35  1  0.45967000  0.15369000  0.81342000  1.0
  C  C36  1  0.54040000  0.84633000  0.18655000  1.0
  C  C37  1  0.76273000  0.22863000  0.70112000  1.0
  C  C38  1  0.23724000  0.77138000  0.29885000  1.0
  C  C39  1  0.63179000  0.02391000  0.95394000  1.0
  C  C40  1  0.36837000  0.97617000  0.04609000  1.0
  C  C41  1  0.64995000  0.94582000  0.03777000  1.0
  C  C42  1  0.35020000  0.05425000  0.96227000  1.0
  C  C43  1  0.26130000  0.56190000  0.82931000  1.0
  C  C44  1  0.73867000  0.43811000  0.17070000  1.0
  C  C45  1  0.08617000  0.54010000  0.80480000  1.0
  C  C46  1  0.91381000  0.45989000  0.19520000  1.0
  C  C47  1  0.23935000  0.75242000  0.73053000  1.0
  C  C48  1  0.76062000  0.24761000  0.26949000  1.0
  C  C49  1  0.98728000  0.21996000  0.62769000  1.0
  C  C50  1  0.01274000  0.77998000  0.37232000  1.0
  C  C51  1  0.06476000  0.73309000  0.70806000  1.0
  C  C52  1  0.93519000  0.26691000  0.29194000  1.0
  C  C53  1  0.33736000  0.66753000  0.79253000  1.0
  C  C54  1  0.66261000  0.33250000  0.20749000  1.0
  C  C55  1  0.98648000  0.62836000  0.74496000  1.0
  C  C56  1  0.01348000  0.37162000  0.25503000  1.0
  C  C57  1  0.79698000  0.61355000  0.72390000  1.0
  C  C58  1  0.20298000  0.38643000  0.27610000  1.0
  C  C59  1  0.61875000  0.68382000  0.43772000  1.0
  C  C60  1  0.38120000  0.31617000  0.56228000  1.0
  C  C61  1  0.69090000  0.58901000  0.49861000  1.0
  C  C62  1  0.30905000  0.41098000  0.50139000  1.0
  C  C63  1  0.65195000  0.79989000  0.63501000  1.0
  C  C64  1  0.34801000  0.20010000  0.36498000  1.0
  N  N65  1  0.72186000  0.12229000  0.59031000  1.0
  N  N66  1  0.27813000  0.87770000  0.40967000  1.0
  N  N67  1  0.92343000  0.29027000  0.72670000  1.0
  N  N68  1  0.07657000  0.70971000  0.27329000  1.0
  N  N69  1  0.59589000  0.81468000  0.52450000  1.0
  N  N70  1  0.40407000  0.18531000  0.47550000  1.0
  N  N71  1  0.71014000  0.66377000  0.62302000  1.0
  N  N72  1  0.28982000  0.33621000  0.37698000  1.0
  O  O73  1  0.41721000  0.06266000  0.70369000  1.0
  O  O74  1  0.58278000  0.93736000  0.29628000  1.0
  O  O75  1  0.49064000  0.29476000  0.84996000  1.0
  O  O76  1  0.50939000  0.70525000  0.15000000  1.0
  F  F77  1  0.76645000  0.04774000  0.91090000  1.0
  F  F78  1  0.23368000  0.95232000  0.08908000  1.0
  F  F79  1  0.80083000  0.89442000  0.07382000  1.0
  F  F80  1  0.19930000  0.10563000  0.92621000  1.0
