# generated using pymatgen
data_ZnMoH18C18(N3O2)2
_symmetry_space_group_name_H-M   'P 1'
_cell_length_a   9.01802000
_cell_length_b   11.71475000
_cell_length_c   11.71480000
_cell_angle_alpha   59.99957643
_cell_angle_beta   90.00000000
_cell_angle_gamma   89.99990000
_symmetry_Int_Tables_number   1
_chemical_formula_structural   ZnMoH18C18(N3O2)2
_chemical_formula_sum   'Zn2 Mo2 H36 C36 N12 O8'
_cell_volume   1071.78549609
_cell_formula_units_Z   2
loop_
 _symmetry_equiv_pos_site_id
 _symmetry_equiv_pos_as_xyz
  1  'x, y, z'
loop_
 _atom_site_type_symbol
 _atom_site_label
 _atom_site_symmetry_multiplicity
 _atom_site_fract_x
 _atom_site_fract_y
 _atom_site_fract_z
 _atom_site_occupancy
  Zn  Zn0  1  0.00563000  0.33333333  0.33333333  1.0
  Zn  Zn1  1  0.99436000  0.66666667  0.66666667  1.0
  Mo  Mo2  1  0.41767000  0.33333333  0.33333333  1.0
  Mo  Mo3  1  0.58233000  0.66666667  0.66666667  1.0
  H  H4  1  0.14874000  0.35695000  0.07546000  1.0
  H  H5  1  0.14874000  0.07546000  0.56759000  1.0
  H  H6  1  0.14874000  0.56758000  0.35695000  1.0
  H  H7  1  0.85126000  0.64305000  0.92454000  1.0
  H  H8  1  0.85126000  0.92454000  0.43241000  1.0
  H  H9  1  0.85126000  0.43241000  0.64306000  1.0
  H  H10  1  0.98044000  0.30285000  0.90695000  1.0
  H  H11  1  0.98044000  0.90695000  0.79020000  1.0
  H  H12  1  0.98044000  0.79019000  0.30285000  1.0
  H  H13  1  0.01956000  0.69715000  0.09305000  1.0
  H  H14  1  0.01956000  0.09304000  0.20981000  1.0
  H  H15  1  0.01956000  0.20981000  0.69715000  1.0
  H  H16  1  0.70002000  0.28588000  0.20417000  1.0
  H  H17  1  0.70002000  0.20417000  0.50994000  1.0
  H  H18  1  0.70002000  0.50994000  0.28589000  1.0
  H  H19  1  0.29998000  0.71412000  0.79583000  1.0
  H  H20  1  0.29998000  0.79583000  0.49006000  1.0
  H  H21  1  0.29998000  0.49005000  0.71412000  1.0
  H  H22  1  0.65991000  0.33611000  0.88286000  1.0
  H  H23  1  0.65991000  0.88286000  0.78103000  1.0
  H  H24  1  0.65992000  0.78103000  0.33611000  1.0
  H  H25  1  0.34008000  0.66389000  0.11714000  1.0
  H  H26  1  0.34009000  0.11714000  0.21897000  1.0
  H  H27  1  0.34008000  0.21898000  0.66388000  1.0
  H  H28  1  0.58227000  0.25612000  0.04319000  1.0
  H  H29  1  0.58227000  0.04319000  0.70069000  1.0
  H  H30  1  0.58227000  0.70069000  0.25612000  1.0
  H  H31  1  0.41773000  0.74388000  0.95681000  1.0
  H  H32  1  0.41773000  0.95681000  0.29931000  1.0
  H  H33  1  0.41773000  0.29932000  0.74388000  1.0
  H  H34  1  0.68732000  0.20548000  0.78190000  1.0
  H  H35  1  0.68732000  0.78190000  0.01262000  1.0
  H  H36  1  0.68732000  0.01262000  0.20548000  1.0
  H  H37  1  0.31268000  0.79452000  0.21810000  1.0
  H  H38  1  0.31268000  0.21810000  0.98738000  1.0
  H  H39  1  0.31268000  0.98738000  0.79452000  1.0
  C  C40  1  0.03172000  0.33475000  0.07687000  1.0
  C  C41  1  0.03172000  0.07687000  0.58838000  1.0
  C  C42  1  0.03172000  0.58837000  0.33475000  1.0
  C  C43  1  0.96828000  0.66525000  0.92313000  1.0
  C  C44  1  0.96828000  0.92313000  0.41162000  1.0
  C  C45  1  0.96828000  0.41163000  0.66525000  1.0
  C  C46  1  0.95069000  0.30841000  0.99349000  1.0
  C  C47  1  0.95068000  0.99350000  0.69809000  1.0
  C  C48  1  0.95069000  0.69809000  0.30841000  1.0
  C  C49  1  0.04931000  0.69159000  0.00651000  1.0
  C  C50  1  0.04931000  0.00650000  0.30190000  1.0
  C  C51  1  0.04931000  0.30191000  0.69159000  1.0
  C  C52  1  0.80302000  0.29857000  0.14958000  1.0
  C  C53  1  0.80302000  0.14959000  0.55184000  1.0
  C  C54  1  0.80302000  0.55184000  0.29857000  1.0
  C  C55  1  0.19698000  0.70143000  0.85041000  1.0
  C  C56  1  0.19698000  0.85041000  0.44816000  1.0
  C  C57  1  0.19697000  0.44816000  0.70143000  1.0
  C  C58  1  0.67763000  0.25577000  0.98466000  1.0
  C  C59  1  0.67762000  0.98466000  0.75957000  1.0
  C  C60  1  0.67762000  0.75957000  0.25577000  1.0
  C  C61  1  0.32237000  0.74423000  0.01534000  1.0
  C  C62  1  0.32238000  0.01534000  0.24043000  1.0
  C  C63  1  0.32238000  0.24043000  0.74423000  1.0
  C  C64  1  0.69131000  0.12365000  0.99223000  1.0
  C  C65  1  0.69131000  0.99223000  0.88412000  1.0
  C  C66  1  0.69131000  0.88412000  0.12365000  1.0
  C  C67  1  0.30869000  0.87635000  0.00777000  1.0
  C  C68  1  0.30869000  0.00777000  0.11588000  1.0
  C  C69  1  0.30869000  0.11588000  0.87635000  1.0
  C  C70  1  0.69213000  0.11517000  0.87774000  1.0
  C  C71  1  0.69213000  0.87774000  0.00709000  1.0
  C  C72  1  0.69213000  0.00709000  0.11517000  1.0
  C  C73  1  0.30787000  0.88483000  0.12227000  1.0
  C  C74  1  0.30787000  0.12226000  0.99291000  1.0
  C  C75  1  0.30787000  0.99291000  0.88483000  1.0
  N  N76  1  0.93837000  0.32777000  0.17391000  1.0
  N  N77  1  0.93837000  0.17390000  0.49833000  1.0
  N  N78  1  0.93837000  0.49832000  0.32778000  1.0
  N  N79  1  0.06163000  0.67223000  0.82609000  1.0
  N  N80  1  0.06163000  0.82610000  0.50167000  1.0
  N  N81  1  0.06163000  0.50168000  0.67222000  1.0
  N  N82  1  0.80679000  0.28672000  0.04050000  1.0
  N  N83  1  0.80679000  0.04050000  0.67278000  1.0
  N  N84  1  0.80679000  0.67278000  0.28671000  1.0
  N  N85  1  0.19321000  0.71328000  0.95950000  1.0
  N  N86  1  0.19321000  0.95950000  0.32722000  1.0
  N  N87  1  0.19321000  0.32722000  0.71328000  1.0
  O  O88  1  0.21629000  0.33333333  0.33333333  1.0
  O  O89  1  0.78371000  0.66666667  0.66666667  1.0
  O  O90  1  0.48474000  0.26540000  0.23810000  1.0
  O  O91  1  0.48474000  0.23810000  0.49651000  1.0
  O  O92  1  0.48474000  0.49650000  0.26540000  1.0
  O  O93  1  0.51526000  0.73460000  0.76190000  1.0
  O  O94  1  0.51526000  0.76190000  0.50350000  1.0
  O  O95  1  0.51526000  0.50350000  0.73460000  1.0
