# generated using pymatgen
data_Zn2H35C51N7O8
_symmetry_space_group_name_H-M   'P 1'
_cell_length_a   8.53992000
_cell_length_b   15.86360000
_cell_length_c   17.86730000
_cell_angle_alpha   94.16170000
_cell_angle_beta   90.00000000
_cell_angle_gamma   89.99990000
_symmetry_Int_Tables_number   1
_chemical_formula_structural   Zn2H35C51N7O8
_chemical_formula_sum   'Zn4 H70 C102 N14 O16'
_cell_volume   2414.16988006
_cell_formula_units_Z   2
loop_
 _symmetry_equiv_pos_site_id
 _symmetry_equiv_pos_as_xyz
  1  'x, y, z'
loop_
 _atom_site_type_symbol
 _atom_site_label
 _atom_site_symmetry_multiplicity
 _atom_site_fract_x
 _atom_site_fract_y
 _atom_site_fract_z
 _atom_site_occupancy
  Zn  Zn0  1  0.61565000  0.54203000  0.95634000  1.0
  Zn  Zn1  1  0.61565000  0.95797000  0.54366000  1.0
  Zn  Zn2  1  0.38435000  0.45797000  0.04366000  1.0
  Zn  Zn3  1  0.38435000  0.04203000  0.45634000  1.0
  H  H4  1  0.38986000  0.96740000  0.77371000  1.0
  H  H5  1  0.38986000  0.53260000  0.72628000  1.0
  H  H6  1  0.61013000  0.03260000  0.22629000  1.0
  H  H7  1  0.61014000  0.46740000  0.27371000  1.0
  H  H8  1  0.19663000  0.98527000  0.87955000  1.0
  H  H9  1  0.19664000  0.51473000  0.62045000  1.0
  H  H10  1  0.80336000  0.01472000  0.12045000  1.0
  H  H11  1  0.80336000  0.48528000  0.37955000  1.0
  H  H12  1  0.84810000  0.06454000  0.72496000  1.0
  H  H13  1  0.84810000  0.43547000  0.77504000  1.0
  H  H14  1  0.15190000  0.93547000  0.27504000  1.0
  H  H15  1  0.15190000  0.56453000  0.22496000  1.0
  H  H16  1  0.03934000  0.04396000  0.62055000  1.0
  H  H17  1  0.03935000  0.45604000  0.87945000  1.0
  H  H18  1  0.96065000  0.95604000  0.37945000  1.0
  H  H19  1  0.96065000  0.54396000  0.12055000  1.0
  H  H20  1  0.59075000  0.74977000  0.90796000  1.0
  H  H21  1  0.59075000  0.75023000  0.59204000  1.0
  H  H22  1  0.40925000  0.25023000  0.09204000  1.0
  H  H23  1  0.40925000  0.24977000  0.40796000  1.0
  H  H24  1  0.80102000  0.79780000  0.99706000  1.0
  H  H25  1  0.80102000  0.70220000  0.50294000  1.0
  H  H26  1  0.19898000  0.20220000  0.00294000  1.0
  H  H27  1  0.19898000  0.29780000  0.49706000  1.0
  H  H28  1  0.52234000  0.83526000  0.80115000  1.0
  H  H29  1  0.52234000  0.66474000  0.69884000  1.0
  H  H30  1  0.47766000  0.16474000  0.19884000  1.0
  H  H31  1  0.47767000  0.33526000  0.30116000  1.0
  H  H32  1  0.94741000  0.93083000  0.97888000  1.0
  H  H33  1  0.94741000  0.56917000  0.52112000  1.0
  H  H34  1  0.05260000  0.06917000  0.02112000  1.0
  H  H35  1  0.05260000  0.43083000  0.47888000  1.0
  H  H36  1  0.66414000  0.97109000  0.78529000  1.0
  H  H37  1  0.66415000  0.52892000  0.71471000  1.0
  H  H38  1  0.33585000  0.02892000  0.21471000  1.0
  H  H39  1  0.33586000  0.47109000  0.28529000  1.0
  H  H40  1  0.64565000  0.06231000  0.95406000  1.0
  H  H41  1  0.64565000  0.43769000  0.54595000  1.0
  H  H42  1  0.35434000  0.93769000  0.04595000  1.0
  H  H43  1  0.35435000  0.56231000  0.45406000  1.0
  H  H44  1  0.00087000  0.18512000  0.82786000  1.0
  H  H45  1  0.00087000  0.31489000  0.67214000  1.0
  H  H46  1  0.99913000  0.81488000  0.17215000  1.0
  H  H47  1  0.99913000  0.68511000  0.32786000  1.0
  H  H48  1  0.52739000  0.20158000  0.98914000  1.0
  H  H49  1  0.52739000  0.29842000  0.51086000  1.0
  H  H50  1  0.47261000  0.79842000  0.01086000  1.0
  H  H51  1  0.47261000  0.70158000  0.48914000  1.0
  H  H52  1  0.87662000  0.32308000  0.86236000  1.0
  H  H53  1  0.87662000  0.17692000  0.63764000  1.0
  H  H54  1  0.12339000  0.67692000  0.13764000  1.0
  H  H55  1  0.12338000  0.82308000  0.36236000  1.0
  H  H56  1  0.92421000  0.61353000  0.03189000  1.0
  H  H57  1  0.92421000  0.88646000  0.46811000  1.0
  H  H58  1  0.07578000  0.38647000  0.96811000  1.0
  H  H59  1  0.07578000  0.11353000  0.53190000  1.0
  H  H60  1  0.77597000  0.62582000  0.80817000  1.0
  H  H61  1  0.77596000  0.87418000  0.69183000  1.0
  H  H62  1  0.22403000  0.37417000  0.19183000  1.0
  H  H63  1  0.22403000  0.12582000  0.30817000  1.0
  H  H64  1  0.14822000  0.70169000  0.95578000  1.0
  H  H65  1  0.14822000  0.79831000  0.54422000  1.0
  H  H66  1  0.85177000  0.29831000  0.04422000  1.0
  H  H67  1  0.85177000  0.20169000  0.45578000  1.0
  H  H68  1  0.85223000  0.75000000  0.75000000  1.0
  H  H69  1  0.14777000  0.25000000  0.25000000  1.0
  H  H70  1  0.29714000  0.68367000  0.84569000  1.0
  H  H71  1  0.29713000  0.81633000  0.65430000  1.0
  H  H72  1  0.70287000  0.31633000  0.15430000  1.0
  H  H73  1  0.70286000  0.18366000  0.34570000  1.0
  C  C74  1  0.34209000  0.99692000  0.62723000  1.0
  C  C75  1  0.34209000  0.50309000  0.87277000  1.0
  C  C76  1  0.65791000  0.00308000  0.37277000  1.0
  C  C77  1  0.65791000  0.49692000  0.12723000  1.0
  C  C78  1  0.22750000  0.00622000  0.69098000  1.0
  C  C79  1  0.22751000  0.49378000  0.80902000  1.0
  C  C80  1  0.77249000  0.99378000  0.30902000  1.0
  C  C81  1  0.77249000  0.50622000  0.19098000  1.0
  C  C82  1  0.27091000  0.98846000  0.76376000  1.0
  C  C83  1  0.27091000  0.51154000  0.73623000  1.0
  C  C84  1  0.72909000  0.01153000  0.23623000  1.0
  C  C85  1  0.72909000  0.48847000  0.26377000  1.0
  C  C86  1  0.16364000  0.99837000  0.82257000  1.0
  C  C87  1  0.16364000  0.50163000  0.67743000  1.0
  C  C88  1  0.83636000  0.00163000  0.17743000  1.0
  C  C89  1  0.83636000  0.49837000  0.32257000  1.0
  C  C90  1  0.01175000  0.02620000  0.80867000  1.0
  C  C91  1  0.01175000  0.47380000  0.69133000  1.0
  C  C92  1  0.98825000  0.97380000  0.19133000  1.0
  C  C93  1  0.98825000  0.52621000  0.30867000  1.0
  C  C94  1  0.96701000  0.04345000  0.73585000  1.0
  C  C95  1  0.96701000  0.45655000  0.76414000  1.0
  C  C96  1  0.03299000  0.95655000  0.26415000  1.0
  C  C97  1  0.03299000  0.54345000  0.23585000  1.0
  C  C98  1  0.07442000  0.03320000  0.67760000  1.0
  C  C99  1  0.07442000  0.46681000  0.82240000  1.0
  C  C100  1  0.92558000  0.96680000  0.32240000  1.0
  C  C101  1  0.92558000  0.53320000  0.17760000  1.0
  C  C102  1  0.65380000  0.80816000  0.89981000  1.0
  C  C103  1  0.65381000  0.69184000  0.60018000  1.0
  C  C104  1  0.34619000  0.19184000  0.10018000  1.0
  C  C105  1  0.34620000  0.30816000  0.39982000  1.0
  C  C106  1  0.77200000  0.83517000  0.95012000  1.0
  C  C107  1  0.77200000  0.66483000  0.54988000  1.0
  C  C108  1  0.22800000  0.16483000  0.04988000  1.0
  C  C109  1  0.22800000  0.33517000  0.45012000  1.0
  C  C110  1  0.61525000  0.85659000  0.84006000  1.0
  C  C111  1  0.61526000  0.64341000  0.65994000  1.0
  C  C112  1  0.38475000  0.14341000  0.15994000  1.0
  C  C113  1  0.38475000  0.35659000  0.34006000  1.0
  C  C114  1  0.85388000  0.90988000  0.94030000  1.0
  C  C115  1  0.85388000  0.59011000  0.55970000  1.0
  C  C116  1  0.14612000  0.09011000  0.05970000  1.0
  C  C117  1  0.14612000  0.40989000  0.44030000  1.0
  C  C118  1  0.69517000  0.93189000  0.83086000  1.0
  C  C119  1  0.69518000  0.56811000  0.66914000  1.0
  C  C120  1  0.30483000  0.06811000  0.16914000  1.0
  C  C121  1  0.30483000  0.43189000  0.33086000  1.0
  C  C122  1  0.81536000  0.95826000  0.88064000  1.0
  C  C123  1  0.81536000  0.54174000  0.61936000  1.0
  C  C124  1  0.18464000  0.04174000  0.11936000  1.0
  C  C125  1  0.18464000  0.45826000  0.38064000  1.0
  C  C126  1  0.83161000  0.11297000  0.88782000  1.0
  C  C127  1  0.83162000  0.38703000  0.61218000  1.0
  C  C128  1  0.16839000  0.88703000  0.11218000  1.0
  C  C129  1  0.16839000  0.61297000  0.38782000  1.0
  C  C130  1  0.69748000  0.11926000  0.93408000  1.0
  C  C131  1  0.69748000  0.38074000  0.56592000  1.0
  C  C132  1  0.30252000  0.88074000  0.06592000  1.0
  C  C133  1  0.30252000  0.61926000  0.43408000  1.0
  C  C134  1  0.89657000  0.18810000  0.86304000  1.0
  C  C135  1  0.89658000  0.31190000  0.63696000  1.0
  C  C136  1  0.10343000  0.81189000  0.13697000  1.0
  C  C137  1  0.10343000  0.68810000  0.36304000  1.0
  C  C138  1  0.63077000  0.19745000  0.95361000  1.0
  C  C139  1  0.63077000  0.30255000  0.54639000  1.0
  C  C140  1  0.36923000  0.80255000  0.04639000  1.0
  C  C141  1  0.36923000  0.69745000  0.45361000  1.0
  C  C142  1  0.82694000  0.26563000  0.88241000  1.0
  C  C143  1  0.82694000  0.23437000  0.61759000  1.0
  C  C144  1  0.17307000  0.73437000  0.11759000  1.0
  C  C145  1  0.17306000  0.76563000  0.38241000  1.0
  C  C146  1  0.69323000  0.27199000  0.92816000  1.0
  C  C147  1  0.69323000  0.22801000  0.57184000  1.0
  C  C148  1  0.30677000  0.72801000  0.07185000  1.0
  C  C149  1  0.30677000  0.77199000  0.42816000  1.0
  C  C150  1  0.62316000  0.35558000  0.95208000  1.0
  C  C151  1  0.62316000  0.14442000  0.54792000  1.0
  C  C152  1  0.37684000  0.64442000  0.04793000  1.0
  C  C153  1  0.37685000  0.85558000  0.45207000  1.0
  C  C154  1  0.92904000  0.62873000  0.97394000  1.0
  C  C155  1  0.92904000  0.87127000  0.52606000  1.0
  C  C156  1  0.07096000  0.37127000  0.02606000  1.0
  C  C157  1  0.07096000  0.12873000  0.47394000  1.0
  C  C158  1  0.84432000  0.63448000  0.85923000  1.0
  C  C159  1  0.84431000  0.86552000  0.64077000  1.0
  C  C160  1  0.15569000  0.36552000  0.14077000  1.0
  C  C161  1  0.15568000  0.13448000  0.35923000  1.0
  C  C162  1  0.04050000  0.67135000  0.93676000  1.0
  C  C163  1  0.04050000  0.82865000  0.56324000  1.0
  C  C164  1  0.95950000  0.32865000  0.06324000  1.0
  C  C165  1  0.95950000  0.17135000  0.43676000  1.0
  C  C166  1  0.06423000  0.71339000  0.80592000  1.0
  C  C167  1  0.06423000  0.78661000  0.69408000  1.0
  C  C168  1  0.93577000  0.28661000  0.19408000  1.0
  C  C169  1  0.93577000  0.21339000  0.30592000  1.0
  C  C170  1  0.97978000  0.75000000  0.75000000  1.0
  C  C171  1  0.02022000  0.25000000  0.25000000  1.0
  C  C172  1  0.22828000  0.71413000  0.80376000  1.0
  C  C173  1  0.22828000  0.78587000  0.69624000  1.0
  C  C174  1  0.77172000  0.28587000  0.19624000  1.0
  C  C175  1  0.77172000  0.21413000  0.30376000  1.0
  N  N176  1  0.90037000  0.03471000  0.86889000  1.0
  N  N177  1  0.90037000  0.46529000  0.63111000  1.0
  N  N178  1  0.09963000  0.96529000  0.13111000  1.0
  N  N179  1  0.09963000  0.53471000  0.36889000  1.0
  N  N180  1  0.80837000  0.60593000  0.92500000  1.0
  N  N181  1  0.80836000  0.89406000  0.57500000  1.0
  N  N182  1  0.19163000  0.39406000  0.07500000  1.0
  N  N183  1  0.19163000  0.10593000  0.42500000  1.0
  N  N184  1  0.98568000  0.67486000  0.86399000  1.0
  N  N185  1  0.98567000  0.82514000  0.63601000  1.0
  N  N186  1  0.01432000  0.32514000  0.13601000  1.0
  N  N187  1  0.01432000  0.17486000  0.36399000  1.0
  N  N188  1  0.30782000  0.75000000  0.75000000  1.0
  N  N189  1  0.69219000  0.25000000  0.25000000  1.0
  O  O190  1  0.29980000  0.02655000  0.56616000  1.0
  O  O191  1  0.29981000  0.47346000  0.93384000  1.0
  O  O192  1  0.70020000  0.97345000  0.43384000  1.0
  O  O193  1  0.70020000  0.52654000  0.06616000  1.0
  O  O194  1  0.47201000  0.96005000  0.63859000  1.0
  O  O195  1  0.47201000  0.53996000  0.86141000  1.0
  O  O196  1  0.52799000  0.03995000  0.36141000  1.0
  O  O197  1  0.52799000  0.46005000  0.13859000  1.0
  O  O198  1  0.51154000  0.35612000  0.99982000  1.0
  O  O199  1  0.51154000  0.14388000  0.50018000  1.0
  O  O200  1  0.48847000  0.64388000  0.00018000  1.0
  O  O201  1  0.48847000  0.85612000  0.49982000  1.0
  O  O202  1  0.68161000  0.42083000  0.92474000  1.0
  O  O203  1  0.68161000  0.07917000  0.57526000  1.0
  O  O204  1  0.31839000  0.57917000  0.07527000  1.0
  O  O205  1  0.31840000  0.92083000  0.42473000  1.0
