# generated using pymatgen
data_AlH27(C5O)6
_symmetry_space_group_name_H-M   'P 1'
_cell_length_a   3.94537000
_cell_length_b   28.68438356
_cell_length_c   28.68400000
_cell_angle_alpha   59.99932702
_cell_angle_beta   90.00030000
_cell_angle_gamma   89.99860002
_symmetry_Int_Tables_number   1
_chemical_formula_structural   AlH27(C5O)6
_chemical_formula_sum   'Al2 H54 C60 O12'
_cell_volume   2811.25770772
_cell_formula_units_Z   2
loop_
 _symmetry_equiv_pos_site_id
 _symmetry_equiv_pos_as_xyz
  1  'x, y, z'
loop_
 _atom_site_type_symbol
 _atom_site_label
 _atom_site_symmetry_multiplicity
 _atom_site_fract_x
 _atom_site_fract_y
 _atom_site_fract_z
 _atom_site_occupancy
  Al  Al0  1  0.99820000  0.50001000  0.99999000  1.0
  Al  Al1  1  0.99808000  0.16667000  0.66667000  1.0
  H  H2  1  0.45077000  0.35624000  0.41293000  1.0
  H  H3  1  0.54935000  0.20233000  0.42222000  1.0
  H  H4  1  0.54918000  0.46442000  0.24442000  1.0
  H  H5  1  0.45101000  0.31049000  0.25374000  1.0
  H  H6  1  0.50870000  0.27789000  0.33728000  1.0
  H  H7  1  0.50854000  0.38883000  0.32938000  1.0
  H  H8  1  0.45085000  0.23082000  0.85625000  1.0
  H  H9  1  0.54935000  0.37544000  0.70233000  1.0
  H  H10  1  0.54915000  0.29116000  0.96443000  1.0
  H  H11  1  0.45102000  0.43577000  0.81048000  1.0
  H  H12  1  0.50868000  0.38482000  0.77790000  1.0
  H  H13  1  0.50853000  0.28178000  0.88883000  1.0
  H  H14  1  0.45082000  0.91293000  0.73083000  1.0
  H  H15  1  0.54937000  0.92222000  0.87545000  1.0
  H  H16  1  0.54910000  0.74443000  0.79115000  1.0
  H  H17  1  0.45094000  0.75374000  0.93577000  1.0
  H  H18  1  0.50867000  0.83728000  0.88483000  1.0
  H  H19  1  0.50848000  0.82940000  0.78178000  1.0
  H  H20  1  0.29005000  0.12174000  0.54309000  1.0
  H  H21  1  0.69603000  0.12567000  0.56662000  1.0
  H  H22  1  0.65462000  0.12391000  0.50564000  1.0
  H  H23  1  0.70532000  0.32874000  0.53063000  1.0
  H  H24  1  0.29597000  0.30341000  0.55464000  1.0
  H  H25  1  0.34609000  0.36189000  0.49007000  1.0
  H  H26  1  0.70566000  0.33795000  0.13607000  1.0
  H  H27  1  0.29629000  0.36327000  0.11204000  1.0
  H  H28  1  0.34645000  0.30481000  0.17664000  1.0
  H  H29  1  0.28991000  0.54499000  0.12353000  1.0
  H  H30  1  0.69596000  0.54106000  0.10001000  1.0
  H  H31  1  0.65447000  0.54284000  0.16098000  1.0
  H  H32  1  0.28998000  0.33517000  0.62175000  1.0
  H  H33  1  0.69596000  0.30772000  0.62566000  1.0
  H  H34  1  0.65456000  0.37045000  0.62392000  1.0
  H  H35  1  0.70536000  0.14062000  0.82875000  1.0
  H  H36  1  0.29601000  0.14195000  0.80342000  1.0
  H  H37  1  0.34613000  0.14804000  0.86189000  1.0
  H  H38  1  0.70564000  0.52598000  0.83794000  1.0
  H  H39  1  0.29628000  0.52469000  0.86325000  1.0
  H  H40  1  0.34646000  0.51856000  0.80480000  1.0
  H  H41  1  0.28988000  0.33148000  0.04498000  1.0
  H  H42  1  0.69591000  0.35893000  0.04105000  1.0
  H  H43  1  0.65445000  0.29618000  0.04283000  1.0
  H  H44  1  0.29007000  0.04308000  0.83518000  1.0
  H  H45  1  0.69602000  0.06661000  0.80772000  1.0
  H  H46  1  0.65464000  0.00563000  0.87046000  1.0
  H  H47  1  0.70536000  0.03063000  0.64064000  1.0
  H  H48  1  0.29602000  0.05464000  0.64195000  1.0
  H  H49  1  0.34615000  0.99007000  0.64804000  1.0
  H  H50  1  0.70560000  0.63606000  0.02598000  1.0
  H  H51  1  0.29622000  0.61205000  0.02468000  1.0
  H  H52  1  0.34637000  0.67663000  0.01855000  1.0
  H  H53  1  0.28982000  0.62355000  0.83146000  1.0
  H  H54  1  0.69591000  0.60002000  0.85892000  1.0
  H  H55  1  0.65440000  0.66100000  0.79616000  1.0
  C  C56  1  0.49852000  0.58349000  0.95431000  1.0
  C  C57  1  0.49854000  0.46219000  0.08349000  1.0
  C  C58  1  0.49856000  0.45432000  0.96218000  1.0
  C  C59  1  0.49840000  0.20451000  0.58317000  1.0
  C  C60  1  0.49842000  0.21231000  0.70452000  1.0
  C  C61  1  0.49843000  0.08317000  0.71232000  1.0
  C  C62  1  0.50005000  0.23147000  0.52317000  1.0
  C  C63  1  0.47919000  0.28816000  0.49220000  1.0
  C  C64  1  0.47654000  0.31256000  0.43634000  1.0
  C  C65  1  0.50312000  0.28259000  0.40992000  1.0
  C  C66  1  0.52641000  0.22636000  0.44197000  1.0
  C  C67  1  0.52146000  0.20009000  0.49807000  1.0
  C  C68  1  0.50517000  0.30678000  0.35163000  1.0
  C  C69  1  0.50512000  0.35996000  0.31501000  1.0
  C  C70  1  0.52634000  0.44038000  0.22468000  1.0
  C  C71  1  0.50308000  0.38415000  0.25674000  1.0
  C  C72  1  0.47671000  0.35418000  0.23031000  1.0
  C  C73  1  0.47941000  0.37856000  0.17446000  1.0
  C  C74  1  0.50020000  0.43525000  0.14348000  1.0
  C  C75  1  0.52144000  0.46664000  0.16857000  1.0
  C  C76  1  0.50007000  0.24536000  0.73147000  1.0
  C  C77  1  0.47923000  0.21963000  0.78817000  1.0
  C  C78  1  0.47660000  0.25109000  0.81256000  1.0
  C  C79  1  0.50313000  0.30749000  0.78259000  1.0
  C  C80  1  0.52642000  0.33167000  0.72636000  1.0
  C  C81  1  0.52145000  0.30184000  0.70009000  1.0
  C  C82  1  0.50517000  0.34158000  0.80679000  1.0
  C  C83  1  0.50512000  0.32502000  0.85996000  1.0
  C  C84  1  0.52633000  0.33494000  0.94038000  1.0
  C  C85  1  0.50309000  0.35911000  0.88415000  1.0
  C  C86  1  0.47672000  0.41551000  0.85417000  1.0
  C  C87  1  0.47943000  0.44698000  0.87855000  1.0
  C  C88  1  0.50022000  0.42127000  0.93524000  1.0
  C  C89  1  0.52145000  0.36479000  0.96663000  1.0
  C  C90  1  0.50008000  0.02317000  0.74536000  1.0
  C  C91  1  0.47923000  0.99221000  0.71964000  1.0
  C  C92  1  0.47658000  0.93636000  0.75109000  1.0
  C  C93  1  0.50313000  0.90992000  0.80750000  1.0
  C  C94  1  0.52643000  0.94197000  0.83168000  1.0
  C  C95  1  0.52148000  0.99807000  0.80185000  1.0
  C  C96  1  0.50514000  0.85163000  0.84158000  1.0
  C  C97  1  0.50506000  0.81501000  0.82503000  1.0
  C  C98  1  0.52626000  0.72470000  0.83492000  1.0
  C  C99  1  0.50301000  0.75674000  0.85911000  1.0
  C  C100  1  0.47663000  0.73032000  0.91550000  1.0
  C  C101  1  0.47936000  0.67447000  0.94697000  1.0
  C  C102  1  0.50017000  0.64349000  0.92126000  1.0
  C  C103  1  0.52139000  0.66859000  0.86477000  1.0
  C  C104  1  0.54311000  0.13966000  0.53006000  1.0
  C  C105  1  0.45385000  0.32232000  0.51828000  1.0
  C  C106  1  0.45418000  0.34437000  0.14840000  1.0
  C  C107  1  0.54301000  0.52708000  0.13656000  1.0
  C  C108  1  0.54306000  0.33028000  0.63966000  1.0
  C  C109  1  0.45390000  0.15939000  0.82233000  1.0
  C  C110  1  0.45417000  0.50723000  0.84435000  1.0
  C  C111  1  0.54299000  0.33636000  0.02707000  1.0
  C  C112  1  0.54312000  0.03006000  0.83028000  1.0
  C  C113  1  0.45390000  0.01828000  0.65940000  1.0
  C  C114  1  0.45411000  0.64841000  0.00721000  1.0
  C  C115  1  0.54296000  0.63658000  0.83635000  1.0
  O  O116  1  0.26277000  0.44593000  0.99604000  1.0
  O  O117  1  0.26271000  0.55803000  0.94591000  1.0
  O  O118  1  0.26273000  0.49606000  0.05802000  1.0
  O  O119  1  0.73318000  0.48928000  0.94998000  1.0
  O  O120  1  0.73318000  0.44999000  0.06073000  1.0
  O  O121  1  0.73319000  0.56074000  0.98926000  1.0
  O  O122  1  0.26267000  0.10863000  0.72073000  1.0
  O  O123  1  0.26262000  0.17064000  0.60863000  1.0
  O  O124  1  0.26265000  0.22072000  0.67065000  1.0
  O  O125  1  0.73306000  0.10594000  0.67737000  1.0
  O  O126  1  0.73307000  0.17736000  0.71670000  1.0
  O  O127  1  0.73302000  0.21670000  0.60594000  1.0
