# generated using pymatgen
data_Na2H32C20O9
_symmetry_space_group_name_H-M   'P 1'
_cell_length_a   4.91678000
_cell_length_b   14.17970000
_cell_length_c   16.95192838
_cell_angle_alpha   100.89760007
_cell_angle_beta   98.00775787
_cell_angle_gamma   90.06320000
_symmetry_Int_Tables_number   1
_chemical_formula_structural   Na2H32C20O9
_chemical_formula_sum   'Na4 H64 C40 O18'
_cell_volume   1148.77554766
_cell_formula_units_Z   2
loop_
 _symmetry_equiv_pos_site_id
 _symmetry_equiv_pos_as_xyz
  1  'x, y, z'
loop_
 _atom_site_type_symbol
 _atom_site_label
 _atom_site_symmetry_multiplicity
 _atom_site_fract_x
 _atom_site_fract_y
 _atom_site_fract_z
 _atom_site_occupancy
  Na  Na0  1  0.07803000  0.87069000  0.96955000  1.0
  Na  Na1  1  0.89260000  0.37083000  0.96941000  1.0
  Na  Na2  1  0.92198000  0.12932000  0.03045000  1.0
  Na  Na3  1  0.10739000  0.62917000  0.03059000  1.0
  H  H4  1  0.63489000  0.65220000  0.72670000  1.0
  H  H5  1  0.08944000  0.15161000  0.72548000  1.0
  H  H6  1  0.36512000  0.34781000  0.27330000  1.0
  H  H7  1  0.91055000  0.84839000  0.27452000  1.0
  H  H8  1  0.59023000  0.72555000  0.65089000  1.0
  H  H9  1  0.05908000  0.22470000  0.64943000  1.0
  H  H10  1  0.40977000  0.27445000  0.34910000  1.0
  H  H11  1  0.94090000  0.77530000  0.35057000  1.0
  H  H12  1  0.42319000  0.75314000  0.73780000  1.0
  H  H13  1  0.31300000  0.25220000  0.73558000  1.0
  H  H14  1  0.57681000  0.24686000  0.26220000  1.0
  H  H15  1  0.68699000  0.74780000  0.26442000  1.0
  H  H16  1  0.87464000  0.78211000  0.60957000  1.0
  H  H17  1  0.73373000  0.28140000  0.60898000  1.0
  H  H18  1  0.12537000  0.21789000  0.39042000  1.0
  H  H19  1  0.26627000  0.71860000  0.39103000  1.0
  H  H20  1  0.45980000  0.04647000  0.78173000  1.0
  H  H21  1  0.32375000  0.54655000  0.78263000  1.0
  H  H22  1  0.54020000  0.95353000  0.21826000  1.0
  H  H23  1  0.67623000  0.45346000  0.21737000  1.0
  H  H24  1  0.01508000  0.81082000  0.49244000  1.0
  H  H25  1  0.47685000  0.31043000  0.49236000  1.0
  H  H26  1  0.98493000  0.18917000  0.50756000  1.0
  H  H27  1  0.52315000  0.68958000  0.50765000  1.0
  H  H28  1  0.36547000  0.84926000  0.50418000  1.0
  H  H29  1  0.13898000  0.34899000  0.50544000  1.0
  H  H30  1  0.63454000  0.15073000  0.49581000  1.0
  H  H31  1  0.86102000  0.65101000  0.49457000  1.0
  H  H32  1  0.10400000  0.93161000  0.49099000  1.0
  H  H33  1  0.38686000  0.43125000  0.49127000  1.0
  H  H34  1  0.89601000  0.06839000  0.50901000  1.0
  H  H35  1  0.61313000  0.56876000  0.50874000  1.0
  H  H36  1  0.60552000  0.09121000  0.66820000  1.0
  H  H37  1  0.06408000  0.59104000  0.66973000  1.0
  H  H38  1  0.39450000  0.90879000  0.33180000  1.0
  H  H39  1  0.93589000  0.40896000  0.33027000  1.0
  H  H40  1  0.40009000  0.05532000  0.57188000  1.0
  H  H41  1  0.17364000  0.55530000  0.57292000  1.0
  H  H42  1  0.59992000  0.94468000  0.42811000  1.0
  H  H43  1  0.82634000  0.44470000  0.42708000  1.0
  H  H44  1  0.68379000  0.98645000  0.60075000  1.0
  H  H45  1  0.91892000  0.48628000  0.60245000  1.0
  H  H46  1  0.31623000  0.01355000  0.39924000  1.0
  H  H47  1  0.08107000  0.51372000  0.39755000  1.0
  H  H48  1  0.16713000  0.02082000  0.10478000  1.0
  H  H49  1  0.93559000  0.52069000  0.10509000  1.0
  H  H50  1  0.83288000  0.97918000  0.89522000  1.0
  H  H51  1  0.06440000  0.47931000  0.89491000  1.0
  H  H52  1  0.47717000  0.02148000  0.08745000  1.0
  H  H53  1  0.60909000  0.52173000  0.08761000  1.0
  H  H54  1  0.52285000  0.97852000  0.91255000  1.0
  H  H55  1  0.39091000  0.47828000  0.91240000  1.0
  H  H56  1  0.48638000  0.70875000  0.96306000  1.0
  H  H57  1  0.47777000  0.20891000  0.96271000  1.0
  H  H58  1  0.51363000  0.29125000  0.03694000  1.0
  H  H59  1  0.52223000  0.79108000  0.03729000  1.0
  H  H60  1  0.81641000  0.91884000  0.10685000  1.0
  H  H61  1  0.28860000  0.41925000  0.10655000  1.0
  H  H62  1  0.18360000  0.08116000  0.89315000  1.0
  H  H63  1  0.71140000  0.58075000  0.89345000  1.0
  H  H64  1  0.90942000  0.81176000  0.11893000  1.0
  H  H65  1  0.20727000  0.31201000  0.11844000  1.0
  H  H66  1  0.09057000  0.18824000  0.88107000  1.0
  H  H67  1  0.79274000  0.68799000  0.88156000  1.0
  C  C68  1  0.61412000  0.72596000  0.71597000  1.0
  C  C69  1  0.10026000  0.22529000  0.71451000  1.0
  C  C70  1  0.38589000  0.27404000  0.28403000  1.0
  C  C71  1  0.89971000  0.77471000  0.28549000  1.0
  C  C72  1  0.84491000  0.78946000  0.76705000  1.0
  C  C73  1  0.92184000  0.28918000  0.76626000  1.0
  C  C74  1  0.15509000  0.21054000  0.23294000  1.0
  C  C75  1  0.07815000  0.71082000  0.23374000  1.0
  C  C76  1  0.99800000  0.85644000  0.73288000  1.0
  C  C77  1  0.73457000  0.35599000  0.73248000  1.0
  C  C78  1  0.00202000  0.14356000  0.26712000  1.0
  C  C79  1  0.26542000  0.64401000  0.26753000  1.0
  C  C80  1  0.00062000  0.84093000  0.64804000  1.0
  C  C81  1  0.64693000  0.34040000  0.64777000  1.0
  C  C82  1  0.99939000  0.15907000  0.35196000  1.0
  C  C83  1  0.35306000  0.65960000  0.35224000  1.0
  C  C84  1  0.16359000  0.89366000  0.61071000  1.0
  C  C85  1  0.44746000  0.39328000  0.61097000  1.0
  C  C86  1  0.83642000  0.10634000  0.38928000  1.0
  C  C87  1  0.55251000  0.60672000  0.38903000  1.0
  C  C88  1  0.33347000  0.96943000  0.66035000  1.0
  C  C89  1  0.32799000  0.46922000  0.66107000  1.0
  C  C90  1  0.66655000  0.03057000  0.33965000  1.0
  C  C91  1  0.67200000  0.53078000  0.33893000  1.0
  C  C92  1  0.33073000  0.98788000  0.74352000  1.0
  C  C93  1  0.41404000  0.48777000  0.74409000  1.0
  C  C94  1  0.66928000  0.01212000  0.25648000  1.0
  C  C95  1  0.58594000  0.51223000  0.25591000  1.0
  C  C96  1  0.16658000  0.93453000  0.78332000  1.0
  C  C97  1  0.61760000  0.43436000  0.78330000  1.0
  C  C98  1  0.83342000  0.06547000  0.21667000  1.0
  C  C99  1  0.38238000  0.56564000  0.21670000  1.0
  C  C100  1  0.16172000  0.87022000  0.52039000  1.0
  C  C101  1  0.35868000  0.36986000  0.52081000  1.0
  C  C102  1  0.83831000  0.12977000  0.47961000  1.0
  C  C103  1  0.64131000  0.63015000  0.47919000  1.0
  C  C104  1  0.51433000  0.02909000  0.62358000  1.0
  C  C105  1  0.11092000  0.52895000  0.62487000  1.0
  C  C106  1  0.48570000  0.97091000  0.37642000  1.0
  C  C107  1  0.88908000  0.47105000  0.37513000  1.0
  O  O108  1  0.89763000  0.78208000  0.84016000  1.0
  O  O109  1  0.94346000  0.28227000  0.83954000  1.0
  O  O110  1  0.10238000  0.21793000  0.15984000  1.0
  O  O111  1  0.05653000  0.71773000  0.16046000  1.0
  O  O112  1  0.16991000  0.95960000  0.86191000  1.0
  O  O113  1  0.69354000  0.45959000  0.86172000  1.0
  O  O114  1  0.83008000  0.04040000  0.13808000  1.0
  O  O115  1  0.30646000  0.54041000  0.13829000  1.0
  O  O116  1  0.28425000  0.00945000  0.06128000  1.0
  O  O117  1  0.77696000  0.50954000  0.06151000  1.0
  O  O118  1  0.71576000  0.99055000  0.93872000  1.0
  O  O119  1  0.22303000  0.49046000  0.93849000  1.0
  O  O120  1  0.37439000  0.75003000  0.00010000  1.0
  O  O121  1  0.62561000  0.24997000  0.99990000  1.0
  O  O122  1  0.82466000  0.85031000  0.07931000  1.0
  O  O123  1  0.25283000  0.35080000  0.07882000  1.0
  O  O124  1  0.17535000  0.14969000  0.92069000  1.0
  O  O125  1  0.74718000  0.64920000  0.92118000  1.0
