# generated using pymatgen
data_MnH16C15N6O5
_symmetry_space_group_name_H-M   'P 1'
_cell_length_a   10.24070000
_cell_length_b   10.27970000
_cell_length_c   10.87950000
_cell_angle_alpha   62.49940000
_cell_angle_beta   78.95230000
_cell_angle_gamma   64.57440000
_symmetry_Int_Tables_number   1
_chemical_formula_structural   MnH16C15N6O5
_chemical_formula_sum   'Mn2 H32 C30 N12 O10'
_cell_volume   917.46079337
_cell_formula_units_Z   2
loop_
 _symmetry_equiv_pos_site_id
 _symmetry_equiv_pos_as_xyz
  1  'x, y, z'
loop_
 _atom_site_type_symbol
 _atom_site_label
 _atom_site_symmetry_multiplicity
 _atom_site_fract_x
 _atom_site_fract_y
 _atom_site_fract_z
 _atom_site_occupancy
  Mn  Mn0  1  0.41016000  0.96944000  0.79604000  1.0
  Mn  Mn1  1  0.58984000  0.03056000  0.20396000  1.0
  H  H2  1  0.87472000  0.12733000  0.17126000  1.0
  H  H3  1  0.12528000  0.87267000  0.82874000  1.0
  H  H4  1  0.95076000  0.27122000  0.08848000  1.0
  H  H5  1  0.04924000  0.72878000  0.91152000  1.0
  H  H6  1  0.91960000  0.17982000  0.34680000  1.0
  H  H7  1  0.08040000  0.82018000  0.65319000  1.0
  H  H8  1  0.04800000  0.98589000  0.37288000  1.0
  H  H9  1  0.95200000  0.01411000  0.62712000  1.0
  H  H10  1  0.24230000  0.09067000  0.26875000  1.0
  H  H11  1  0.75770000  0.90933000  0.73125000  1.0
  H  H12  1  0.11279000  0.28953000  0.22036000  1.0
  H  H13  1  0.88721000  0.71046000  0.77964000  1.0
  H  H14  1  0.26234000  0.72562000  0.06986000  1.0
  H  H15  1  0.73766000  0.27438000  0.93014000  1.0
  H  H16  1  0.17112000  0.20970000  0.93601000  1.0
  H  H17  1  0.82888000  0.79029000  0.06399000  1.0
  H  H18  1  0.06152000  0.26701000  0.67027000  1.0
  H  H19  1  0.93848000  0.73299000  0.32973000  1.0
  H  H20  1  0.36743000  0.96320000  0.49895000  1.0
  H  H21  1  0.63256000  0.03680000  0.50105000  1.0
  H  H22  1  0.38452000  0.45200000  0.79754000  1.0
  H  H23  1  0.61548000  0.54800000  0.20246000  1.0
  H  H24  1  0.71612000  0.25679000  0.54849000  1.0
  H  H25  1  0.28388000  0.74320000  0.45152000  1.0
  H  H26  1  0.81547000  0.45882000  0.49705000  1.0
  H  H27  1  0.18454000  0.54117000  0.50295000  1.0
  H  H28  1  0.69863000  0.65520000  0.60089000  1.0
  H  H29  1  0.30137000  0.34480000  0.39910000  1.0
  H  H30  1  0.59569000  0.80078000  0.04625000  1.0
  H  H31  1  0.40431000  0.19921000  0.95375000  1.0
  H  H32  1  0.61839000  0.70977000  0.95266000  1.0
  H  H33  1  0.38161000  0.29022000  0.04735000  1.0
  C  C34  1  0.97409000  0.14645000  0.16233000  1.0
  C  C35  1  0.02591000  0.85355000  0.83767000  1.0
  C  C36  1  0.01687000  0.11346000  0.30378000  1.0
  C  C37  1  0.98313000  0.88654000  0.69622000  1.0
  C  C38  1  0.13859000  0.16514000  0.29687000  1.0
  C  C39  1  0.86141000  0.83486000  0.70314000  1.0
  C  C40  1  0.21403000  0.84575000  0.06256000  1.0
  C  C41  1  0.78597000  0.15425000  0.93744000  1.0
  C  C42  1  0.17045000  0.09135000  0.99167000  1.0
  C  C43  1  0.82955000  0.90865000  0.00833000  1.0
  C  C44  1  0.11668000  0.21192000  0.60044000  1.0
  C  C45  1  0.88332000  0.78808000  0.39956000  1.0
  C  C46  1  0.27345000  0.05442000  0.51813000  1.0
  C  C47  1  0.72654000  0.94558000  0.48188000  1.0
  C  C48  1  0.53578000  0.56369000  0.70702000  1.0
  C  C49  1  0.46423000  0.43631000  0.29298000  1.0
  C  C50  1  0.48056000  0.45062000  0.73376000  1.0
  C  C51  1  0.51944000  0.54938000  0.26624000  1.0
  C  C52  1  0.54608000  0.33874000  0.67824000  1.0
  C  C53  1  0.45392000  0.66126000  0.32176000  1.0
  C  C54  1  0.66637000  0.34336000  0.59221000  1.0
  C  C55  1  0.33363000  0.65664000  0.40779000  1.0
  C  C56  1  0.72155000  0.45694000  0.56381000  1.0
  C  C57  1  0.27845000  0.54306000  0.43620000  1.0
  C  C58  1  0.65713000  0.56585000  0.62165000  1.0
  C  C59  1  0.34287000  0.43415000  0.37835000  1.0
  C  C60  1  0.46482000  0.68129000  0.76936000  1.0
  C  C61  1  0.53519000  0.31871000  0.23064000  1.0
  C  C62  1  0.49063000  0.21353000  0.71433000  1.0
  C  C63  1  0.50937000  0.78647000  0.28567000  1.0
  N  N64  1  0.08460000  0.04832000  0.09926000  1.0
  N  N65  1  0.91540000  0.95168000  0.90074000  1.0
  N  N66  1  0.11046000  0.89130000  0.14585000  1.0
  N  N67  1  0.88954000  0.10870000  0.85415000  1.0
  N  N68  1  0.25436000  0.96551000  0.96519000  1.0
  N  N69  1  0.74564000  0.03449000  0.03481000  1.0
  N  N70  1  0.16101000  0.15543000  0.42964000  1.0
  N  N71  1  0.83899000  0.84457000  0.57036000  1.0
  N  N72  1  0.05939000  0.25733000  0.48040000  1.0
  N  N73  1  0.94061000  0.74268000  0.51961000  1.0
  N  N74  1  0.24860000  0.08720000  0.62832000  1.0
  N  N75  1  0.75139000  0.91280000  0.37168000  1.0
  O  O76  1  0.52313000  0.78266000  0.73752000  1.0
  O  O77  1  0.47688000  0.21734000  0.26248000  1.0
  O  O78  1  0.35651000  0.67753000  0.84587000  1.0
  O  O79  1  0.64350000  0.32247000  0.15413000  1.0
  O  O80  1  0.39192000  0.19928000  0.80736000  1.0
  O  O81  1  0.60808000  0.80072000  0.19264000  1.0
  O  O82  1  0.54164000  0.11814000  0.65733000  1.0
  O  O83  1  0.45836000  0.88186000  0.34268000  1.0
  O  O84  1  0.59884000  0.81322000  0.94833000  1.0
  O  O85  1  0.40116000  0.18677000  0.05167000  1.0
