# generated using pymatgen
data_ZnH14C17N2O3
_symmetry_space_group_name_H-M   'P 1'
_cell_length_a   7.48909000
_cell_length_b   22.46850000
_cell_length_c   24.35290000
_cell_angle_alpha   89.99920000
_cell_angle_beta   83.01410000
_cell_angle_gamma   89.99920000
_symmetry_Int_Tables_number   1
_chemical_formula_structural   ZnH14C17N2O3
_chemical_formula_sum   'Zn8 H112 C136 N16 O24'
_cell_volume   4067.40702281
_cell_formula_units_Z   8
loop_
 _symmetry_equiv_pos_site_id
 _symmetry_equiv_pos_as_xyz
  1  'x, y, z'
loop_
 _atom_site_type_symbol
 _atom_site_label
 _atom_site_symmetry_multiplicity
 _atom_site_fract_x
 _atom_site_fract_y
 _atom_site_fract_z
 _atom_site_occupancy
  Zn  Zn0  1  0.29519000  0.70747000  0.39671000  1.0
  Zn  Zn1  1  0.70482000  0.20747000  0.10330000  1.0
  Zn  Zn2  1  0.70482000  0.29253000  0.60329000  1.0
  Zn  Zn3  1  0.29517000  0.79253000  0.89671000  1.0
  Zn  Zn4  1  0.17338000  0.83596000  0.15383000  1.0
  Zn  Zn5  1  0.82661000  0.33596000  0.34617000  1.0
  Zn  Zn6  1  0.82661000  0.16405000  0.84617000  1.0
  Zn  Zn7  1  0.17339000  0.66404000  0.65383000  1.0
  H  H8  1  0.89988000  0.58514000  0.35490000  1.0
  H  H9  1  0.10013000  0.08514000  0.14510000  1.0
  H  H10  1  0.10011000  0.41486000  0.64510000  1.0
  H  H11  1  0.89989000  0.91485000  0.85492000  1.0
  H  H12  1  0.12428000  0.54779000  0.27766000  1.0
  H  H13  1  0.87573000  0.04779000  0.22235000  1.0
  H  H14  1  0.87570000  0.45221000  0.72234000  1.0
  H  H15  1  0.12433000  0.95220000  0.77768000  1.0
  H  H16  1  0.07045000  0.56411000  0.18033000  1.0
  H  H17  1  0.92955000  0.06411000  0.31968000  1.0
  H  H18  1  0.92954000  0.43588000  0.81967000  1.0
  H  H19  1  0.07050000  0.93587000  0.68035000  1.0
  H  H20  1  0.79189000  0.61606000  0.15947000  1.0
  H  H21  1  0.20811000  0.11606000  0.34054000  1.0
  H  H22  1  0.20812000  0.38394000  0.84053000  1.0
  H  H23  1  0.79192000  0.88394000  0.65948000  1.0
  H  H24  1  0.56643000  0.65044000  0.23716000  1.0
  H  H25  1  0.43357000  0.15044000  0.26285000  1.0
  H  H26  1  0.43358000  0.34957000  0.76284000  1.0
  H  H27  1  0.56644000  0.84957000  0.73718000  1.0
  H  H28  1  0.05480000  0.67795000  0.50641000  1.0
  H  H29  1  0.94522000  0.17795000  0.99360000  1.0
  H  H30  1  0.94521000  0.32205000  0.49359000  1.0
  H  H31  1  0.05477000  0.82205000  0.00641000  1.0
  H  H32  1  0.92948000  0.58808000  0.55362000  1.0
  H  H33  1  0.07054000  0.08809000  0.94638000  1.0
  H  H34  1  0.07055000  0.41191000  0.44637000  1.0
  H  H35  1  0.92945000  0.91191000  0.05362000  1.0
  H  H36  1  0.15615000  0.48676000  0.40927000  1.0
  H  H37  1  0.84384000  0.98675000  0.09073000  1.0
  H  H38  1  0.84387000  0.51324000  0.59072000  1.0
  H  H39  1  0.15613000  0.01324000  0.90928000  1.0
  H  H40  1  0.27412000  0.58191000  0.36904000  1.0
  H  H41  1  0.72588000  0.08191000  0.13096000  1.0
  H  H42  1  0.72589000  0.41809000  0.63095000  1.0
  H  H43  1  0.27411000  0.91809000  0.86904000  1.0
  H  H44  1  0.89959000  0.91696000  0.30263000  1.0
  H  H45  1  0.10042000  0.41696000  0.19736000  1.0
  H  H46  1  0.10042000  0.08304000  0.69737000  1.0
  H  H47  1  0.89959000  0.58305000  0.80264000  1.0
  H  H48  1  0.66226000  0.95712000  0.37429000  1.0
  H  H49  1  0.33774000  0.45712000  0.12570000  1.0
  H  H50  1  0.33774000  0.04288000  0.62571000  1.0
  H  H51  1  0.66227000  0.54289000  0.87430000  1.0
  H  H52  1  0.37677000  0.99680000  0.34586000  1.0
  H  H53  1  0.62323000  0.49680000  0.15412000  1.0
  H  H54  1  0.62324000  0.00320000  0.65414000  1.0
  H  H55  1  0.37677000  0.50321000  0.84588000  1.0
  H  H56  1  0.32873000  0.99688000  0.24670000  1.0
  H  H57  1  0.67128000  0.49688000  0.25329000  1.0
  H  H58  1  0.67127000  0.00312000  0.75330000  1.0
  H  H59  1  0.32871000  0.50313000  0.74671000  1.0
  H  H60  1  0.56923000  0.95676000  0.17560000  1.0
  H  H61  1  0.43077000  0.45676000  0.32439000  1.0
  H  H62  1  0.43076000  0.04324000  0.82440000  1.0
  H  H63  1  0.56923000  0.54325000  0.67561000  1.0
  H  H64  1  0.41450000  0.82953000  0.04533000  1.0
  H  H65  1  0.58549000  0.32951000  0.45467000  1.0
  H  H66  1  0.58551000  0.17048000  0.95467000  1.0
  H  H67  1  0.41450000  0.67047000  0.54532000  1.0
  H  H68  1  0.55698000  0.89837000  0.97466000  1.0
  H  H69  1  0.44298000  0.39836000  0.52533000  1.0
  H  H70  1  0.44300000  0.10164000  0.02533000  1.0
  H  H71  1  0.55697000  0.60163000  0.47466000  1.0
  H  H72  1  0.34662000  0.04381000  0.08173000  1.0
  H  H73  1  0.65336000  0.54380000  0.41827000  1.0
  H  H74  1  0.65337000  0.95620000  0.91827000  1.0
  H  H75  1  0.34662000  0.45619000  0.58173000  1.0
  H  H76  1  0.21338000  0.96731000  0.14765000  1.0
  H  H77  1  0.78663000  0.46731000  0.35235000  1.0
  H  H78  1  0.78663000  0.03270000  0.85236000  1.0
  H  H79  1  0.21339000  0.53269000  0.64765000  1.0
  H  H80  1  0.93508000  0.76869000  0.42237000  1.0
  H  H81  1  0.06490000  0.26868000  0.07763000  1.0
  H  H82  1  0.06490000  0.23130000  0.57763000  1.0
  H  H83  1  0.93509000  0.73132000  0.92237000  1.0
  H  H84  1  0.68000000  0.79864000  0.37274000  1.0
  H  H85  1  0.31999000  0.29862000  0.12726000  1.0
  H  H86  1  0.31998000  0.20136000  0.62726000  1.0
  H  H87  1  0.68001000  0.70138000  0.87273000  1.0
  H  H88  1  0.98621000  0.73253000  0.22227000  1.0
  H  H89  1  0.01377000  0.23253000  0.27774000  1.0
  H  H90  1  0.01380000  0.26747000  0.77773000  1.0
  H  H91  1  0.98623000  0.76747000  0.72226000  1.0
  H  H92  1  0.22076000  0.70072000  0.28003000  1.0
  H  H93  1  0.77923000  0.20073000  0.21997000  1.0
  H  H94  1  0.77925000  0.29928000  0.71997000  1.0
  H  H95  1  0.22077000  0.79927000  0.78003000  1.0
  H  H96  1  0.81220000  0.76809000  0.17793000  1.0
  H  H97  1  0.18779000  0.26809000  0.32207000  1.0
  H  H98  1  0.18779000  0.23190000  0.82207000  1.0
  H  H99  1  0.81221000  0.73190000  0.67792000  1.0
  H  H100  1  0.55819000  0.79463000  0.12841000  1.0
  H  H101  1  0.44181000  0.29463000  0.37159000  1.0
  H  H102  1  0.44180000  0.20536000  0.87159000  1.0
  H  H103  1  0.55819000  0.70537000  0.62840000  1.0
  H  H104  1  0.23834000  0.84273000  0.27244000  1.0
  H  H105  1  0.76166000  0.34274000  0.22755000  1.0
  H  H106  1  0.76167000  0.15726000  0.72755000  1.0
  H  H107  1  0.23835000  0.65726000  0.77245000  1.0
  H  H108  1  0.47371000  0.81330000  0.33075000  1.0
  H  H109  1  0.52627000  0.31330000  0.16925000  1.0
  H  H110  1  0.52628000  0.18670000  0.66925000  1.0
  H  H111  1  0.47373000  0.68670000  0.83074000  1.0
  H  H112  1  0.46750000  0.76108000  0.45650000  1.0
  H  H113  1  0.53251000  0.26108000  0.04350000  1.0
  H  H114  1  0.53249000  0.23892000  0.54350000  1.0
  H  H115  1  0.46750000  0.73892000  0.95650000  1.0
  H  H116  1  0.14599000  0.73845000  0.11148000  1.0
  H  H117  1  0.85401000  0.23845000  0.38852000  1.0
  H  H118  1  0.85402000  0.26155000  0.88852000  1.0
  H  H119  1  0.14600000  0.76155000  0.61147000  1.0
  C  C120  1  0.59035000  0.64313000  0.34722000  1.0
  C  C121  1  0.40966000  0.14313000  0.15278000  1.0
  C  C122  1  0.40965000  0.35687000  0.65277000  1.0
  C  C123  1  0.59036000  0.85687000  0.84724000  1.0
  C  C124  1  0.71986000  0.61942000  0.30046000  1.0
  C  C125  1  0.28013000  0.11942000  0.19954000  1.0
  C  C126  1  0.28013000  0.38058000  0.69954000  1.0
  C  C127  1  0.71990000  0.88058000  0.80047000  1.0
  C  C128  1  0.87693000  0.59047000  0.31185000  1.0
  C  C129  1  0.12307000  0.09047000  0.18816000  1.0
  C  C130  1  0.12306000  0.40953000  0.68816000  1.0
  C  C131  1  0.87696000  0.90952000  0.81186000  1.0
  C  C132  1  0.00230000  0.57044000  0.26881000  1.0
  C  C133  1  0.99769000  0.07044000  0.23120000  1.0
  C  C134  1  0.99768000  0.42956000  0.73119000  1.0
  C  C135  1  0.00236000  0.92955000  0.76883000  1.0
  C  C136  1  0.97181000  0.57966000  0.21389000  1.0
  C  C137  1  0.02819000  0.07966000  0.28612000  1.0
  C  C138  1  0.02818000  0.42034000  0.78611000  1.0
  C  C139  1  0.97185000  0.92033000  0.71391000  1.0
  C  C140  1  0.81534000  0.60854000  0.20226000  1.0
  C  C141  1  0.18465000  0.10854000  0.29775000  1.0
  C  C142  1  0.18465000  0.39146000  0.79774000  1.0
  C  C143  1  0.81538000  0.89145000  0.70227000  1.0
  C  C144  1  0.68913000  0.62791000  0.24539000  1.0
  C  C145  1  0.31086000  0.12792000  0.25462000  1.0
  C  C146  1  0.31087000  0.37209000  0.75462000  1.0
  C  C147  1  0.68915000  0.87208000  0.74540000  1.0
  C  C148  1  0.07258000  0.63476000  0.48584000  1.0
  C  C149  1  0.92744000  0.13476000  0.01416000  1.0
  C  C150  1  0.92743000  0.36524000  0.51415000  1.0
  C  C151  1  0.07255000  0.86523000  0.98585000  1.0
  C  C152  1  0.00153000  0.58358000  0.51216000  1.0
  C  C153  1  0.99847000  0.08358000  0.98784000  1.0
  C  C154  1  0.99848000  0.41642000  0.48782000  1.0
  C  C155  1  0.00151000  0.91642000  0.01217000  1.0
  C  C156  1  0.03268000  0.52800000  0.48625000  1.0
  C  C157  1  0.96731000  0.02800000  0.01375000  1.0
  C  C158  1  0.96734000  0.47200000  0.51374000  1.0
  C  C159  1  0.03264000  0.97200000  0.98626000  1.0
  C  C160  1  0.13027000  0.52764000  0.43313000  1.0
  C  C161  1  0.86973000  0.02764000  0.06687000  1.0
  C  C162  1  0.86974000  0.47236000  0.56686000  1.0
  C  C163  1  0.13025000  0.97236000  0.93314000  1.0
  C  C164  1  0.19598000  0.58077000  0.40982000  1.0
  C  C165  1  0.80401000  0.08076000  0.09018000  1.0
  C  C166  1  0.80401000  0.41924000  0.59017000  1.0
  C  C167  1  0.19597000  0.91924000  0.90982000  1.0
  C  C168  1  0.88552000  0.90877000  0.19192000  1.0
  C  C169  1  0.11447000  0.40877000  0.30807000  1.0
  C  C170  1  0.11448000  0.09123000  0.80808000  1.0
  C  C171  1  0.88553000  0.59123000  0.69193000  1.0
  C  C172  1  0.74772000  0.93483000  0.23506000  1.0
  C  C173  1  0.25229000  0.43482000  0.26493000  1.0
  C  C174  1  0.25229000  0.06518000  0.76494000  1.0
  C  C175  1  0.74772000  0.56518000  0.73507000  1.0
  C  C176  1  0.77440000  0.93498000  0.29105000  1.0
  C  C177  1  0.22561000  0.43498000  0.20894000  1.0
  C  C178  1  0.22560000  0.06502000  0.70895000  1.0
  C  C179  1  0.77441000  0.56502000  0.79106000  1.0
  C  C180  1  0.64148000  0.95737000  0.33072000  1.0
  C  C181  1  0.35853000  0.45737000  0.16926000  1.0
  C  C182  1  0.35852000  0.04263000  0.66927000  1.0
  C  C183  1  0.64149000  0.54264000  0.83073000  1.0
  C  C184  1  0.48108000  0.97959000  0.31479000  1.0
  C  C185  1  0.51893000  0.47958000  0.18520000  1.0
  C  C186  1  0.51893000  0.02042000  0.68521000  1.0
  C  C187  1  0.48108000  0.52043000  0.81480000  1.0
  C  C188  1  0.45395000  0.97967000  0.25899000  1.0
  C  C189  1  0.54606000  0.47966000  0.24100000  1.0
  C  C190  1  0.54606000  0.02033000  0.74101000  1.0
  C  C191  1  0.45394000  0.52034000  0.75900000  1.0
  C  C192  1  0.58741000  0.95762000  0.21932000  1.0
  C  C193  1  0.41260000  0.45762000  0.28067000  1.0
  C  C194  1  0.41259000  0.04238000  0.78068000  1.0
  C  C195  1  0.58740000  0.54238000  0.71932000  1.0
  C  C196  1  0.40559000  0.87753000  0.05212000  1.0
  C  C197  1  0.59439000  0.37752000  0.44788000  1.0
  C  C198  1  0.59440000  0.12248000  0.94788000  1.0
  C  C199  1  0.40559000  0.62247000  0.55211000  1.0
  C  C200  1  0.48552000  0.91678000  0.01253000  1.0
  C  C201  1  0.51445000  0.41677000  0.48746000  1.0
  C  C202  1  0.51446000  0.08323000  0.98746000  1.0
  C  C203  1  0.48551000  0.58322000  0.51253000  1.0
  C  C204  1  0.46314000  0.97826000  0.02118000  1.0
  C  C205  1  0.53683000  0.47825000  0.47881000  1.0
  C  C206  1  0.53686000  0.02175000  0.97882000  1.0
  C  C207  1  0.46312000  0.52174000  0.52118000  1.0
  C  C208  1  0.36626000  0.99682000  0.07137000  1.0
  C  C209  1  0.63372000  0.49681000  0.42862000  1.0
  C  C210  1  0.63373000  0.00319000  0.92862000  1.0
  C  C211  1  0.36625000  0.50318000  0.57137000  1.0
  C  C212  1  0.29196000  0.95447000  0.10882000  1.0
  C  C213  1  0.70802000  0.45447000  0.39117000  1.0
  C  C214  1  0.70804000  0.04554000  0.89117000  1.0
  C  C215  1  0.29196000  0.54553000  0.60883000  1.0
  C  C216  1  0.93973000  0.76119000  0.37795000  1.0
  C  C217  1  0.06027000  0.26118000  0.12205000  1.0
  C  C218  1  0.06027000  0.23881000  0.62205000  1.0
  C  C219  1  0.93973000  0.73882000  0.87794000  1.0
  C  C220  1  0.79896000  0.77889000  0.34952000  1.0
  C  C221  1  0.20103000  0.27889000  0.15048000  1.0
  C  C222  1  0.20102000  0.22110000  0.65048000  1.0
  C  C223  1  0.79898000  0.72112000  0.84952000  1.0
  C  C224  1  0.81123000  0.76935000  0.29218000  1.0
  C  C225  1  0.18876000  0.26934000  0.20782000  1.0
  C  C226  1  0.18877000  0.23065000  0.70781000  1.0
  C  C227  1  0.81124000  0.73065000  0.79218000  1.0
  C  C228  1  0.96690000  0.74120000  0.26661000  1.0
  C  C229  1  0.03308000  0.24120000  0.23339000  1.0
  C  C230  1  0.03310000  0.25880000  0.73338000  1.0
  C  C231  1  0.96691000  0.75880000  0.76661000  1.0
  C  C232  1  0.09968000  0.72372000  0.29817000  1.0
  C  C233  1  0.90031000  0.22372000  0.20183000  1.0
  C  C234  1  0.90033000  0.27629000  0.70182000  1.0
  C  C235  1  0.09969000  0.77628000  0.79816000  1.0
  C  C236  1  0.66508000  0.78684000  0.25997000  1.0
  C  C237  1  0.33493000  0.28684000  0.24003000  1.0
  C  C238  1  0.33493000  0.21316000  0.74003000  1.0
  C  C239  1  0.66507000  0.71316000  0.75997000  1.0
  C  C240  1  0.68641000  0.78217000  0.20199000  1.0
  C  C241  1  0.31359000  0.28217000  0.29801000  1.0
  C  C242  1  0.31358000  0.21782000  0.79800000  1.0
  C  C243  1  0.68642000  0.71783000  0.70199000  1.0
  C  C244  1  0.54429000  0.79780000  0.17343000  1.0
  C  C245  1  0.45570000  0.29781000  0.32657000  1.0
  C  C246  1  0.45569000  0.20219000  0.82657000  1.0
  C  C247  1  0.54431000  0.70219000  0.67343000  1.0
  C  C248  1  0.36662000  0.82453000  0.25402000  1.0
  C  C249  1  0.63338000  0.32453000  0.24598000  1.0
  C  C250  1  0.63339000  0.17547000  0.74598000  1.0
  C  C251  1  0.36662000  0.67547000  0.75402000  1.0
  C  C252  1  0.50057000  0.80884000  0.28592000  1.0
  C  C253  1  0.49943000  0.30884000  0.21408000  1.0
  C  C254  1  0.49944000  0.19116000  0.71408000  1.0
  C  C255  1  0.50057000  0.69116000  0.78591000  1.0
  N  N256  1  0.17038000  0.63368000  0.43565000  1.0
  N  N257  1  0.82964000  0.13368000  0.06435000  1.0
  N  N258  1  0.82964000  0.36632000  0.56433000  1.0
  N  N259  1  0.17035000  0.86632000  0.93566000  1.0
  N  N260  1  0.30882000  0.89561000  0.09929000  1.0
  N  N261  1  0.69117000  0.39560000  0.40071000  1.0
  N  N262  1  0.69118000  0.10440000  0.90071000  1.0
  N  N263  1  0.30883000  0.60439000  0.59929000  1.0
  N  N264  1  0.08812000  0.73402000  0.35299000  1.0
  N  N265  1  0.91188000  0.23401000  0.14701000  1.0
  N  N266  1  0.91188000  0.26598000  0.64701000  1.0
  N  N267  1  0.08813000  0.76599000  0.85299000  1.0
  N  N268  1  0.38587000  0.81805000  0.19861000  1.0
  N  N269  1  0.61412000  0.31805000  0.30139000  1.0
  N  N270  1  0.61412000  0.18195000  0.80139000  1.0
  N  N271  1  0.38588000  0.68195000  0.69861000  1.0
  O  O272  1  0.44789000  0.66889000  0.33305000  1.0
  O  O273  1  0.55212000  0.16888000  0.16696000  1.0
  O  O274  1  0.55211000  0.33112000  0.66695000  1.0
  O  O275  1  0.44791000  0.83111000  0.83305000  1.0
  O  O276  1  0.62382000  0.63766000  0.39628000  1.0
  O  O277  1  0.37620000  0.13766000  0.10373000  1.0
  O  O278  1  0.37618000  0.36235000  0.60372000  1.0
  O  O279  1  0.62378000  0.86235000  0.89630000  1.0
  O  O280  1  0.37714000  0.77372000  0.43353000  1.0
  O  O281  1  0.62285000  0.27371000  0.06648000  1.0
  O  O282  1  0.62285000  0.22629000  0.56648000  1.0
  O  O283  1  0.37715000  0.72628000  0.93352000  1.0
  O  O284  1  0.02247000  0.88346000  0.21035000  1.0
  O  O285  1  0.97753000  0.38346000  0.28964000  1.0
  O  O286  1  0.97753000  0.11654000  0.78965000  1.0
  O  O287  1  0.02248000  0.61654000  0.71035000  1.0
  O  O288  1  0.86314000  0.91148000  0.14177000  1.0
  O  O289  1  0.13685000  0.41149000  0.35822000  1.0
  O  O290  1  0.13685000  0.08852000  0.85823000  1.0
  O  O291  1  0.86315000  0.58851000  0.64178000  1.0
  O  O292  1  0.06241000  0.77023000  0.12351000  1.0
  O  O293  1  0.93760000  0.27023000  0.37649000  1.0
  O  O294  1  0.93759000  0.22977000  0.87648000  1.0
  O  O295  1  0.06242000  0.72977000  0.62350000  1.0
