# generated using pymatgen
data_LaP2H17C16O11
_symmetry_space_group_name_H-M   'P 1'
_cell_length_a   5.61029000
_cell_length_b   9.69461000
_cell_length_c   18.15397465
_cell_angle_alpha   74.88439704
_cell_angle_beta   85.46212147
_cell_angle_gamma   84.82570000
_symmetry_Int_Tables_number   1
_chemical_formula_structural   LaP2H17C16O11
_chemical_formula_sum   'La2 P4 H34 C32 O22'
_cell_volume   947.75183315
_cell_formula_units_Z   2
loop_
 _symmetry_equiv_pos_site_id
 _symmetry_equiv_pos_as_xyz
  1  'x, y, z'
loop_
 _atom_site_type_symbol
 _atom_site_label
 _atom_site_symmetry_multiplicity
 _atom_site_fract_x
 _atom_site_fract_y
 _atom_site_fract_z
 _atom_site_occupancy
  La  La0  1  0.13106000  0.20264000  0.99618000  1.0
  La  La1  1  0.86893000  0.79736000  0.00382000  1.0
  P  P2  1  0.37221000  0.00711000  0.88778000  1.0
  P  P3  1  0.62779000  0.99289000  0.11223000  1.0
  P  P4  1  0.26400000  0.57696000  0.88826000  1.0
  P  P5  1  0.73599000  0.42304000  0.11174000  1.0
  H  H6  1  0.58570000  0.17884000  0.67368000  1.0
  H  H7  1  0.41430000  0.82115000  0.32633000  1.0
  H  H8  1  0.46850000  0.40925000  0.58459000  1.0
  H  H9  1  0.53151000  0.59074000  0.41542000  1.0
  H  H10  1  0.77043000  0.41195000  0.70081000  1.0
  H  H11  1  0.22959000  0.58805000  0.29919000  1.0
  H  H12  1  0.88517000  0.17830000  0.79061000  1.0
  H  H13  1  0.11484000  0.82171000  0.20939000  1.0
  H  H14  1  0.49037000  0.97642000  0.76473000  1.0
  H  H15  1  0.50963000  0.02359000  0.23527000  1.0
  H  H16  1  0.18872000  0.93927000  0.79138000  1.0
  H  H17  1  0.81128000  0.06071000  0.20863000  1.0
  H  H18  1  0.50833000  0.66815000  0.68275000  1.0
  H  H19  1  0.49167000  0.33184000  0.31725000  1.0
  H  H20  1  0.46263000  0.89779000  0.58335000  1.0
  H  H21  1  0.53736000  0.10219000  0.41665000  1.0
  H  H22  1  0.74481000  0.97192000  0.67225000  1.0
  H  H23  1  0.25520000  0.02809000  0.32774000  1.0
  H  H24  1  0.78916000  0.74299000  0.77412000  1.0
  H  H25  1  0.21082000  0.25703000  0.22588000  1.0
  H  H26  1  0.31357000  0.47737000  0.78091000  1.0
  H  H27  1  0.68642000  0.52262000  0.21910000  1.0
  H  H28  1  0.00888000  0.50270000  0.81176000  1.0
  H  H29  1  0.99110000  0.49730000  0.18824000  1.0
  H  H30  1  0.16502000  0.69883000  0.48841000  1.0
  H  H31  1  0.83498000  0.30116000  0.51159000  1.0
  H  H32  1  0.52562000  0.73418000  0.88665000  1.0
  H  H33  1  0.47436000  0.26583000  0.11335000  1.0
  H  H34  1  0.20103000  0.22331000  0.47589000  1.0
  H  H35  1  0.79899000  0.77668000  0.52410000  1.0
  H  H36  1  0.67230000  0.38666000  0.92513000  1.0
  H  H37  1  0.32771000  0.61335000  0.07487000  1.0
  H  H38  1  0.67791000  0.24266000  0.90228000  1.0
  H  H39  1  0.32209000  0.75734000  0.09773000  1.0
  C  C40  1  0.24484000  0.16180000  0.73899000  1.0
  C  C41  1  0.75517000  0.83822000  0.26100000  1.0
  C  C42  1  0.40699000  0.22934000  0.68090000  1.0
  C  C43  1  0.59303000  0.77067000  0.31910000  1.0
  C  C44  1  0.34209000  0.35896000  0.63016000  1.0
  C  C45  1  0.65791000  0.64105000  0.36984000  1.0
  C  C46  1  0.11171000  0.42538000  0.63703000  1.0
  C  C47  1  0.88830000  0.57463000  0.36297000  1.0
  C  C48  1  0.94955000  0.36023000  0.69592000  1.0
  C  C49  1  0.05047000  0.63976000  0.30408000  1.0
  C  C50  1  0.01500000  0.22929000  0.74616000  1.0
  C  C51  1  0.98501000  0.77071000  0.25384000  1.0
  C  C52  1  0.32181000  0.01745000  0.78887000  1.0
  C  C53  1  0.67818000  0.98255000  0.21114000  1.0
  C  C54  1  0.04446000  0.56171000  0.58084000  1.0
  C  C55  1  0.95553000  0.43829000  0.41915000  1.0
  C  C56  1  0.15317000  0.69139000  0.73642000  1.0
  C  C57  1  0.84684000  0.30862000  0.26358000  1.0
  C  C58  1  0.34148000  0.73535000  0.68207000  1.0
  C  C59  1  0.65852000  0.26464000  0.31793000  1.0
  C  C60  1  0.31706000  0.86386000  0.62571000  1.0
  C  C61  1  0.68294000  0.13614000  0.37429000  1.0
  C  C62  1  0.10233000  0.95022000  0.62311000  1.0
  C  C63  1  0.89768000  0.04979000  0.37688000  1.0
  C  C64  1  0.91263000  0.90547000  0.67673000  1.0
  C  C65  1  0.08739000  0.09454000  0.32326000  1.0
  C  C66  1  0.93770000  0.77808000  0.73300000  1.0
  C  C67  1  0.06229000  0.22191000  0.26700000  1.0
  C  C68  1  0.17895000  0.55455000  0.79803000  1.0
  C  C69  1  0.82104000  0.44544000  0.20198000  1.0
  C  C70  1  0.06531000  0.08829000  0.56561000  1.0
  C  C71  1  0.93468000  0.91171000  0.43437000  1.0
  O  O72  1  0.46212000  0.14538000  0.89849000  1.0
  O  O73  1  0.53788000  0.85463000  0.10152000  1.0
  O  O74  1  0.12720000  0.98967000  0.93482000  1.0
  O  O75  1  0.87278000  0.01033000  0.06518000  1.0
  O  O76  1  0.55208000  0.87553000  0.91413000  1.0
  O  O77  1  0.44792000  0.12445000  0.08588000  1.0
  O  O78  1  0.21062000  0.59951000  0.52539000  1.0
  O  O79  1  0.78939000  0.40049000  0.47461000  1.0
  O  O80  1  0.84902000  0.63290000  0.58576000  1.0
  O  O81  1  0.15099000  0.36709000  0.41424000  1.0
  O  O82  1  0.29878000  0.42723000  0.94211000  1.0
  O  O83  1  0.70121000  0.57278000  0.05789000  1.0
  O  O84  1  0.51921000  0.64184000  0.87064000  1.0
  O  O85  1  0.48077000  0.35817000  0.12936000  1.0
  O  O86  1  0.08351000  0.68064000  0.91719000  1.0
  O  O87  1  0.91648000  0.31935000  0.08282000  1.0
  O  O88  1  0.24260000  0.12503000  0.51376000  1.0
  O  O89  1  0.75741000  0.87495000  0.48624000  1.0
  O  O90  1  0.87308000  0.16370000  0.56771000  1.0
  O  O91  1  0.12692000  0.83629000  0.43228000  1.0
  O  O92  1  0.78618000  0.31088000  0.91373000  1.0
  O  O93  1  0.21382000  0.68913000  0.08627000  1.0
