# generated using pymatgen
data_CdH8C8S2(NCl)2
_symmetry_space_group_name_H-M   'P 1'
_cell_length_a   6.98968000
_cell_length_b   9.30015000
_cell_length_c   10.30350000
_cell_angle_alpha   111.68700000
_cell_angle_beta   106.21700000
_cell_angle_gamma   94.18080000
_symmetry_Int_Tables_number   1
_chemical_formula_structural   CdH8C8S2(NCl)2
_chemical_formula_sum   'Cd2 H16 C16 S4 N4 Cl4'
_cell_volume   585.85071823
_cell_formula_units_Z   2
loop_
 _symmetry_equiv_pos_site_id
 _symmetry_equiv_pos_as_xyz
  1  'x, y, z'
loop_
 _atom_site_type_symbol
 _atom_site_label
 _atom_site_symmetry_multiplicity
 _atom_site_fract_x
 _atom_site_fract_y
 _atom_site_fract_z
 _atom_site_occupancy
  Cd  Cd0  1  0.75095000  0.91651000  0.52327000  1.0
  Cd  Cd1  1  0.24905000  0.08349000  0.47673000  1.0
  H  H2  1  0.90885000  0.67364000  0.21155000  1.0
  H  H3  1  0.09114000  0.32635000  0.78845000  1.0
  H  H4  1  0.64113000  0.64328000  0.14675000  1.0
  H  H5  1  0.35887000  0.35671000  0.85325000  1.0
  H  H6  1  0.76469000  0.48264000  0.07960000  1.0
  H  H7  1  0.23530000  0.51736000  0.92039000  1.0
  H  H8  1  0.74190000  0.32481000  0.51227000  1.0
  H  H9  1  0.25810000  0.67519000  0.48773000  1.0
  H  H10  1  0.76812000  0.49068000  0.77572000  1.0
  H  H11  1  0.23188000  0.50932000  0.22428000  1.0
  H  H12  1  0.54717000  0.06168000  0.86486000  1.0
  H  H13  1  0.45284000  0.93833000  0.13514000  1.0
  H  H14  1  0.81039000  0.13427000  0.91813000  1.0
  H  H15  1  0.18961000  0.86574000  0.08187000  1.0
  H  H16  1  0.71416000  0.07515000  0.03817000  1.0
  H  H17  1  0.28585000  0.92486000  0.96183000  1.0
  C  C18  1  0.76918000  0.58676000  0.17691000  1.0
  C  C19  1  0.23081000  0.41323000  0.82308000  1.0
  C  C20  1  0.76044000  0.54316000  0.30041000  1.0
  C  C21  1  0.23956000  0.45684000  0.69959000  1.0
  C  C22  1  0.74925000  0.40983000  0.46338000  1.0
  C  C23  1  0.25076000  0.59017000  0.53663000  1.0
  C  C24  1  0.74841000  0.56897000  0.52292000  1.0
  C  C25  1  0.25159000  0.43103000  0.47708000  1.0
  C  C26  1  0.74378000  0.66113000  0.67063000  1.0
  C  C27  1  0.25622000  0.33888000  0.32937000  1.0
  C  C28  1  0.75831000  0.60884000  0.78134000  1.0
  C  C29  1  0.24169000  0.39116000  0.21866000  1.0
  C  C30  1  0.72668000  0.88513000  0.84765000  1.0
  C  C31  1  0.27332000  0.11487000  0.15235000  1.0
  C  C32  1  0.69871000  0.04852000  0.92251000  1.0
  C  C33  1  0.30129000  0.95148000  0.07748000  1.0
  S  S34  1  0.75934000  0.35386000  0.28906000  1.0
  S  S35  1  0.24066000  0.64614000  0.71094000  1.0
  S  S36  1  0.75154000  0.75865000  0.93655000  1.0
  S  S37  1  0.24846000  0.24135000  0.06345000  1.0
  N  N38  1  0.75509000  0.64253000  0.42936000  1.0
  N  N39  1  0.24490000  0.35747000  0.57064000  1.0
  N  N40  1  0.72692000  0.81764000  0.71033000  1.0
  N  N41  1  0.27308000  0.18236000  0.28967000  1.0
  Cl  Cl42  1  0.84862000  0.00551000  0.33048000  1.0
  Cl  Cl43  1  0.15138000  0.99448000  0.66952000  1.0
  Cl  Cl44  1  0.64914000  0.18263000  0.65289000  1.0
  Cl  Cl45  1  0.35087000  0.81737000  0.34711000  1.0
