# generated using pymatgen
data_AlH5C4N2O5
_symmetry_space_group_name_H-M   'P 1'
_cell_length_a   6.70685000
_cell_length_b   8.57908540
_cell_length_c   8.78181000
_cell_angle_alpha   60.75806035
_cell_angle_beta   75.05040000
_cell_angle_gamma   90.00068262
_symmetry_Int_Tables_number   1
_chemical_formula_structural   AlH5C4N2O5
_chemical_formula_sum   'Al2 H10 C8 N4 O10'
_cell_volume   421.19108860
_cell_formula_units_Z   2
loop_
 _symmetry_equiv_pos_site_id
 _symmetry_equiv_pos_as_xyz
  1  'x, y, z'
loop_
 _atom_site_type_symbol
 _atom_site_label
 _atom_site_symmetry_multiplicity
 _atom_site_fract_x
 _atom_site_fract_y
 _atom_site_fract_z
 _atom_site_occupancy
  Al  Al0  1  0.49997000  0.49998000  0.00001000  1.0
  Al  Al1  1  0.00001000  0.49998000  0.00002000  1.0
  H  H2  1  0.75000000  0.29165000  0.99998000  1.0
  H  H3  1  0.25001000  0.70836000  0.99997000  1.0
  H  H4  1  0.74669000  0.53713000  0.61726000  1.0
  H  H5  1  0.91066000  0.59042000  0.40374000  1.0
  H  H6  1  0.25332000  0.46288000  0.38271000  1.0
  H  H7  1  0.08931000  0.40955000  0.59630000  1.0
  H  H8  1  0.24666000  0.84564000  0.61730000  1.0
  H  H9  1  0.41064000  0.00577000  0.40374000  1.0
  H  H10  1  0.75333000  0.15435000  0.38270000  1.0
  H  H11  1  0.58935000  0.99422000  0.59624000  1.0
  C  C12  1  0.15856000  0.19822000  0.26342000  1.0
  C  C13  1  0.34144000  0.46167000  0.73655000  1.0
  C  C14  1  0.84142000  0.80181000  0.73657000  1.0
  C  C15  1  0.65858000  0.53834000  0.26346000  1.0
  C  C16  1  0.60400000  0.51738000  0.44692000  1.0
  C  C17  1  0.39606000  0.48266000  0.55309000  1.0
  C  C18  1  0.10397000  0.03566000  0.44699000  1.0
  C  C19  1  0.89594000  0.96428000  0.55311000  1.0
  N  N20  1  0.77462000  0.52508000  0.50455000  1.0
  N  N21  1  0.22538000  0.47498000  0.49543000  1.0
  N  N22  1  0.27464000  0.97040000  0.50459000  1.0
  N  N23  1  0.72535000  0.02963000  0.49544000  1.0
  O  O24  1  0.35310000  0.26036000  0.18105000  1.0
  O  O25  1  0.14692000  0.44147000  0.81891000  1.0
  O  O26  1  0.98891000  0.73086000  0.80397000  1.0
  O  O27  1  0.51107000  0.53477000  0.19608000  1.0
  O  O28  1  0.64695000  0.73965000  0.81893000  1.0
  O  O29  1  0.85306000  0.55854000  0.18109000  1.0
  O  O30  1  0.01101000  0.26914000  0.19604000  1.0
  O  O31  1  0.48894000  0.46522000  0.80393000  1.0
  O  O32  1  0.75003000  0.40448000  0.99998000  1.0
  O  O33  1  0.24998000  0.59551000  0.00003000  1.0
