# generated using pymatgen
data_MnH22C20N4O5
_symmetry_space_group_name_H-M   'P 1'
_cell_length_a   8.70357000
_cell_length_b   10.94900000
_cell_length_c   11.29850000
_cell_angle_alpha   95.91980000
_cell_angle_beta   107.95800000
_cell_angle_gamma   107.27400000
_symmetry_Int_Tables_number   1
_chemical_formula_structural   MnH22C20N4O5
_chemical_formula_sum   'Mn2 H44 C40 N8 O10'
_cell_volume   955.31585531
_cell_formula_units_Z   2
loop_
 _symmetry_equiv_pos_site_id
 _symmetry_equiv_pos_as_xyz
  1  'x, y, z'
loop_
 _atom_site_type_symbol
 _atom_site_label
 _atom_site_symmetry_multiplicity
 _atom_site_fract_x
 _atom_site_fract_y
 _atom_site_fract_z
 _atom_site_occupancy
  Mn  Mn0  1  0.75229000  0.89825000  0.10291000  1.0
  Mn  Mn1  1  0.24804000  0.10131000  0.89656000  1.0
  H  H2  1  0.29158000  0.45628000  0.87333000  1.0
  H  H3  1  0.20807000  0.12276000  0.54052000  1.0
  H  H4  1  0.70650000  0.54471000  0.12490000  1.0
  H  H5  1  0.79015000  0.87571000  0.46037000  1.0
  H  H6  1  0.39186000  0.67310000  0.03842000  1.0
  H  H7  1  0.10827000  0.95629000  0.32743000  1.0
  H  H8  1  0.60701000  0.32835000  0.95942000  1.0
  H  H9  1  0.89048000  0.04179000  0.67379000  1.0
  H  H10  1  0.84340000  0.82276000  0.84118000  1.0
  H  H11  1  0.65767000  0.16557000  0.18380000  1.0
  H  H12  1  0.15838000  0.17570000  0.15850000  1.0
  H  H13  1  0.34372000  0.83442000  0.81518000  1.0
  H  H14  1  0.84705000  0.66574000  0.66737000  1.0
  H  H15  1  0.65190000  0.34017000  0.34056000  1.0
  H  H16  1  0.15439000  0.33188000  0.33287000  1.0
  H  H17  1  0.34943000  0.66052000  0.65776000  1.0
  H  H18  1  0.63050000  0.44207000  0.58733000  1.0
  H  H19  1  0.86571000  0.41562000  0.55952000  1.0
  H  H20  1  0.36926000  0.55613000  0.41260000  1.0
  H  H21  1  0.13412000  0.58454000  0.43928000  1.0
  H  H22  1  0.40473000  0.36501000  0.68220000  1.0
  H  H23  1  0.09194000  0.31489000  0.63294000  1.0
  H  H24  1  0.59357000  0.63473000  0.31678000  1.0
  H  H25  1  0.90636000  0.68408000  0.36710000  1.0
  H  H26  1  0.32940000  0.85139000  0.30122000  1.0
  H  H27  1  0.17119000  0.69818000  0.15734000  1.0
  H  H28  1  0.67084000  0.15115000  0.69923000  1.0
  H  H29  1  0.82817000  0.30167000  0.84536000  1.0
  H  H30  1  0.41164000  0.01427000  0.28313000  1.0
  H  H31  1  0.10256000  0.72235000  0.99969000  1.0
  H  H32  1  0.58997000  0.98786000  0.71682000  1.0
  H  H33  1  0.89944000  0.27781000  0.00291000  1.0
  H  H34  1  0.67402000  0.05119000  0.48217000  1.0
  H  H35  1  0.82797000  0.52309000  0.95290000  1.0
  H  H36  1  0.32688000  0.95070000  0.51830000  1.0
  H  H37  1  0.17222000  0.47776000  0.04849000  1.0
  H  H38  1  0.57303000  0.89032000  0.49888000  1.0
  H  H39  1  0.92527000  0.49692000  0.10686000  1.0
  H  H40  1  0.42718000  0.11164000  0.50139000  1.0
  H  H41  1  0.07381000  0.50313000  0.89434000  1.0
  H  H42  1  0.64238000  0.04307000  0.93751000  1.0
  H  H43  1  0.84756000  0.06336000  0.96321000  1.0
  H  H44  1  0.35858000  0.95737000  0.06297000  1.0
  H  H45  1  0.15341000  0.93693000  0.03750000  1.0
  C  C46  1  0.44896000  0.65650000  0.96846000  1.0
  C  C47  1  0.05051000  0.02819000  0.34415000  1.0
  C  C48  1  0.55037000  0.34425000  0.02988000  1.0
  C  C49  1  0.94845000  0.97019000  0.65662000  1.0
  C  C50  1  0.74779000  0.72455000  0.80696000  1.0
  C  C51  1  0.75200000  0.19774000  0.28019000  1.0
  C  C52  1  0.25327000  0.27420000  0.19263000  1.0
  C  C53  1  0.24883000  0.80220000  0.71898000  1.0
  C  C54  1  0.74873000  0.63580000  0.70955000  1.0
  C  C55  1  0.75014000  0.29552000  0.36869000  1.0
  C  C56  1  0.25220000  0.36244000  0.29037000  1.0
  C  C57  1  0.25082000  0.70488000  0.63005000  1.0
  C  C58  1  0.62628000  0.50794000  0.66451000  1.0
  C  C59  1  0.87127000  0.33802000  0.49409000  1.0
  C  C60  1  0.37370000  0.49062000  0.33520000  1.0
  C  C61  1  0.12884000  0.66205000  0.50498000  1.0
  C  C62  1  0.49786000  0.46419000  0.71499000  1.0
  C  C63  1  0.99971000  0.28452000  0.53568000  1.0
  C  C64  1  0.50137000  0.53525000  0.28422000  1.0
  C  C65  1  0.99957000  0.71488000  0.46404000  1.0
  C  C66  1  0.49766000  0.55305000  0.81289000  1.0
  C  C67  1  0.00091000  0.18636000  0.44689000  1.0
  C  C68  1  0.50170000  0.44690000  0.18599000  1.0
  C  C69  1  0.99840000  0.81272000  0.55316000  1.0
  C  C70  1  0.62105000  0.68176000  0.86047000  1.0
  C  C71  1  0.87864000  0.14100000  0.32067000  1.0
  C  C72  1  0.37918000  0.31788000  0.13862000  1.0
  C  C73  1  0.12138000  0.85830000  0.67913000  1.0
  C  C74  1  0.55465000  0.89243000  0.25100000  1.0
  C  C75  1  0.95259000  0.76057000  0.10698000  1.0
  C  C76  1  0.44549000  0.10775000  0.74973000  1.0
  C  C77  1  0.04741000  0.24018000  0.89325000  1.0
  C  C78  1  0.44907000  0.93444000  0.32047000  1.0
  C  C79  1  0.05643000  0.68346000  0.07314000  1.0
  C  C80  1  0.55171000  0.06756000  0.67986000  1.0
  C  C81  1  0.94396000  0.31681000  0.92887000  1.0
  C  C82  1  0.54842000  0.97529000  0.46395000  1.0
  C  C83  1  0.95236000  0.53722000  0.02723000  1.0
  C  C84  1  0.45225000  0.02684000  0.53642000  1.0
  C  C85  1  0.04750000  0.46314000  0.97432000  1.0
  N  N86  1  0.39027000  0.54172000  0.88208000  1.0
  N  N87  1  0.10810000  0.11412000  0.45696000  1.0
  N  N88  1  0.60853000  0.45896000  0.11631000  1.0
  N  N89  1  0.89053000  0.88436000  0.54374000  1.0
  N  N90  1  0.58827000  0.74375000  0.96028000  1.0
  N  N91  1  0.91224000  0.03924000  0.25899000  1.0
  N  N92  1  0.41182000  0.25643000  0.03843000  1.0
  N  N93  1  0.08745000  0.95952000  0.74130000  1.0
  O  O94  1  0.74879000  0.03102000  0.99240000  1.0
  O  O95  1  0.25235000  0.97005000  0.00867000  1.0
  O  O96  1  0.54096000  0.91671000  0.13895000  1.0
  O  O97  1  0.96792000  0.87364000  0.07754000  1.0
  O  O98  1  0.45949000  0.08234000  0.86136000  1.0
  O  O99  1  0.03273000  0.12679000  0.92187000  1.0
  O  O100  1  0.65866000  0.83809000  0.30348000  1.0
  O  O101  1  0.84358000  0.71515000  0.15862000  1.0
  O  O102  1  0.34010000  0.16144000  0.69809000  1.0
  O  O103  1  0.15490000  0.28659000  0.84082000  1.0
