# generated using pymatgen
data_Zn2H9C20N6ClO16
_symmetry_space_group_name_H-M   'P 1'
_cell_length_a   10.00430000
_cell_length_b   10.91090000
_cell_length_c   11.08490000
_cell_angle_alpha   90.40880000
_cell_angle_beta   92.29890000
_cell_angle_gamma   90.64850000
_symmetry_Int_Tables_number   1
_chemical_formula_structural   Zn2H9C20N6ClO16
_chemical_formula_sum   'Zn2 H9 C20 N6 Cl1 O16'
_cell_volume   1208.89627384
_cell_formula_units_Z   1
loop_
 _symmetry_equiv_pos_site_id
 _symmetry_equiv_pos_as_xyz
  1  'x, y, z'
loop_
 _atom_site_type_symbol
 _atom_site_label
 _atom_site_symmetry_multiplicity
 _atom_site_fract_x
 _atom_site_fract_y
 _atom_site_fract_z
 _atom_site_occupancy
  Zn  Zn0  1  0.64175000  0.50586000  0.51076000  1.0
  Zn  Zn1  1  0.36134000  0.51651000  0.50350000  1.0
  H  H2  1  0.36736000  0.89634000  0.34268000  1.0
  H  H3  1  0.80225000  0.91693000  0.83085000  1.0
  H  H4  1  0.54395000  0.21783000  0.74598000  1.0
  H  H5  1  0.32191000  0.52342000  0.11871000  1.0
  H  H6  1  0.61082000  0.42928000  0.10815000  1.0
  H  H7  1  0.31493000  0.48951000  0.89517000  1.0
  H  H8  1  0.87314000  0.38844000  0.38776000  1.0
  H  H9  1  0.89045000  0.56355000  0.59279000  1.0
  H  H10  1  0.11638000  0.35448000  0.46325000  1.0
  C  C11  1  0.50208000  0.53600000  0.73840000  1.0
  C  C12  1  0.50839000  0.74758000  0.48146000  1.0
  C  C13  1  0.51662000  0.46976000  0.27829000  1.0
  C  C14  1  0.45494000  0.27576000  0.53117000  1.0
  C  C15  1  0.69133000  0.90448000  0.66086000  1.0
  C  C16  1  0.72531000  0.95646000  0.77136000  1.0
  C  C17  1  0.66207000  0.06612000  0.80283000  1.0
  C  C18  1  0.58152000  0.12835000  0.72120000  1.0
  C  C19  1  0.54528000  0.07387000  0.60770000  1.0
  C  C20  1  0.58693000  0.95124000  0.58212000  1.0
  C  C21  1  0.51392000  0.88573000  0.48821000  1.0
  C  C22  1  0.42547000  0.94730000  0.41195000  1.0
  C  C23  1  0.40849000  0.07499000  0.42200000  1.0
  C  C24  1  0.46364000  0.13864000  0.52092000  1.0
  C  C25  1  0.41367000  0.49865000  0.07445000  1.0
  C  C26  1  0.51850000  0.46231000  0.14511000  1.0
  C  C27  1  0.41069000  0.50553000  0.94417000  1.0
  C  C28  1  0.51195000  0.53500000  0.87294000  1.0
  C  C29  1  0.92117000  0.44785000  0.45757000  1.0
  C  C30  1  0.06896000  0.44492000  0.46755000  1.0
  N  N31  1  0.84605000  0.50764000  0.52681000  1.0
  N  N32  1  0.15223000  0.53440000  0.47993000  1.0
  N  N33  1  0.64612000  0.57120000  0.92297000  1.0
  N  N34  1  0.09942000  0.66405000  0.48167000  1.0
  N  N35  1  0.78752000  0.81363000  0.61804000  1.0
  N  N36  1  0.68986000  0.11943000  0.92405000  1.0
  Cl  Cl37  1  0.31688000  0.14599000  0.30794000  1.0
  O  O38  1  0.61251000  0.54694000  0.68672000  1.0
  O  O39  1  0.38623000  0.52470000  0.68796000  1.0
  O  O40  1  0.61526000  0.68834000  0.47245000  1.0
  O  O41  1  0.39106000  0.70234000  0.48840000  1.0
  O  O42  1  0.63019000  0.45783000  0.33406000  1.0
  O  O43  1  0.40598000  0.49060000  0.32766000  1.0
  O  O44  1  0.56753000  0.33009000  0.54666000  1.0
  O  O45  1  0.34149000  0.32643000  0.52054000  1.0
  O  O46  1  0.73170000  0.49060000  0.93211000  1.0
  O  O47  1  0.66258000  0.68064000  0.94959000  1.0
  O  O48  1  0.10128000  0.70963000  0.58214000  1.0
  O  O49  1  0.07335000  0.70724000  0.38292000  1.0
  O  O50  1  0.83347000  0.83397000  0.51831000  1.0
  O  O51  1  0.82280000  0.72991000  0.68721000  1.0
  O  O52  1  0.78036000  0.07269000  0.98738000  1.0
  O  O53  1  0.62012000  0.20660000  0.95493000  1.0
