# generated using pymatgen
data_TmH6C6SNO8
_symmetry_space_group_name_H-M   'P 1'
_cell_length_a   7.49831000
_cell_length_b   9.28060000
_cell_length_c   14.66380000
_cell_angle_alpha   89.99990000
_cell_angle_beta   90.00000000
_cell_angle_gamma   101.16600000
_symmetry_Int_Tables_number   1
_chemical_formula_structural   TmH6C6SNO8
_chemical_formula_sum   'Tm4 H24 C24 S4 N4 O32'
_cell_volume   1001.11986300
_cell_formula_units_Z   4
loop_
 _symmetry_equiv_pos_site_id
 _symmetry_equiv_pos_as_xyz
  1  'x, y, z'
loop_
 _atom_site_type_symbol
 _atom_site_label
 _atom_site_symmetry_multiplicity
 _atom_site_fract_x
 _atom_site_fract_y
 _atom_site_fract_z
 _atom_site_occupancy
  Tm  Tm0  1  0.13695000  0.27726000  0.04373000  1.0
  Tm  Tm1  1  0.36305000  0.72274000  0.54373000  1.0
  Tm  Tm2  1  0.86305000  0.72274000  0.95627000  1.0
  Tm  Tm3  1  0.63695000  0.27726000  0.45627000  1.0
  H  H4  1  0.15131000  0.04647000  0.44868000  1.0
  H  H5  1  0.34869000  0.95353000  0.94868000  1.0
  H  H6  1  0.84869000  0.95353000  0.55133000  1.0
  H  H7  1  0.65131000  0.04647000  0.05132000  1.0
  H  H8  1  0.10414000  0.12273000  0.28863000  1.0
  H  H9  1  0.39586000  0.87728000  0.78863000  1.0
  H  H10  1  0.89587000  0.87728000  0.71137000  1.0
  H  H11  1  0.60414000  0.12272000  0.21137000  1.0
  H  H12  1  0.91844000  0.66483000  0.22138000  1.0
  H  H13  1  0.58156000  0.33518000  0.72138000  1.0
  H  H14  1  0.08155000  0.33518000  0.77862000  1.0
  H  H15  1  0.41844000  0.66482000  0.27862000  1.0
  H  H16  1  0.96285000  0.60591000  0.38732000  1.0
  H  H17  1  0.53715000  0.39410000  0.88733000  1.0
  H  H18  1  0.03715000  0.39410000  0.61267000  1.0
  H  H19  1  0.46285000  0.60590000  0.11268000  1.0
  H  H20  1  0.28916000  0.36201000  0.22275000  1.0
  H  H21  1  0.21084000  0.63799000  0.72275000  1.0
  H  H22  1  0.71083000  0.63799000  0.77725000  1.0
  H  H23  1  0.78916000  0.36201000  0.27725000  1.0
  H  H24  1  0.46574000  0.34923000  0.16218000  1.0
  H  H25  1  0.03426000  0.65077000  0.66218000  1.0
  H  H26  1  0.53426000  0.65077000  0.83782000  1.0
  H  H27  1  0.96574000  0.34923000  0.33782000  1.0
  C  C28  1  0.09513000  0.96817000  0.39612000  1.0
  C  C29  1  0.40487000  0.03183000  0.89612000  1.0
  C  C30  1  0.90488000  0.03182000  0.60389000  1.0
  C  C31  1  0.59513000  0.96817000  0.10389000  1.0
  C  C32  1  0.06995000  0.00720000  0.30692000  1.0
  C  C33  1  0.43006000  0.99280000  0.80692000  1.0
  C  C34  1  0.93005000  0.99280000  0.69308000  1.0
  C  C35  1  0.56995000  0.00721000  0.19308000  1.0
  C  C36  1  0.00900000  0.89916000  0.24169000  1.0
  C  C37  1  0.49099000  0.10084000  0.74169000  1.0
  C  C38  1  0.99099000  0.10084000  0.75831000  1.0
  C  C39  1  0.50901000  0.89916000  0.25831000  1.0
  C  C40  1  0.96596000  0.75241000  0.27002000  1.0
  C  C41  1  0.53404000  0.24760000  0.77002000  1.0
  C  C42  1  0.03404000  0.24760000  0.72999000  1.0
  C  C43  1  0.46597000  0.75241000  0.22998000  1.0
  C  C44  1  0.99004000  0.71687000  0.36014000  1.0
  C  C45  1  0.50996000  0.28314000  0.86014000  1.0
  C  C46  1  0.00995000  0.28313000  0.63985000  1.0
  C  C47  1  0.49005000  0.71686000  0.13986000  1.0
  C  C48  1  0.99765000  0.94111000  0.14358000  1.0
  C  C49  1  0.50237000  0.05890000  0.64358000  1.0
  C  C50  1  0.00237000  0.05891000  0.85642000  1.0
  C  C51  1  0.49765000  0.94111000  0.35642000  1.0
  S  S52  1  0.81826000  0.40158000  0.09375000  1.0
  S  S53  1  0.68174000  0.59842000  0.59375000  1.0
  S  S54  1  0.18174000  0.59842000  0.90625000  1.0
  S  S55  1  0.31826000  0.40157000  0.40625000  1.0
  N  N56  1  0.05983000  0.82425000  0.42071000  1.0
  N  N57  1  0.44017000  0.17576000  0.92071000  1.0
  N  N58  1  0.94017000  0.17575000  0.57929000  1.0
  N  N59  1  0.55983000  0.82425000  0.07929000  1.0
  O  O60  1  0.04685000  0.07628000  0.12364000  1.0
  O  O61  1  0.45315000  0.92370000  0.62364000  1.0
  O  O62  1  0.95315000  0.92370000  0.87636000  1.0
  O  O63  1  0.54685000  0.07628000  0.37636000  1.0
  O  O64  1  0.94099000  0.83994000  0.08697000  1.0
  O  O65  1  0.55899000  0.16003000  0.58698000  1.0
  O  O66  1  0.05899000  0.16004000  0.91302000  1.0
  O  O67  1  0.44099000  0.83994000  0.41303000  1.0
  O  O68  1  0.09810000  0.78818000  0.50464000  1.0
  O  O69  1  0.40190000  0.21182000  0.00464000  1.0
  O  O70  1  0.90190000  0.21182000  0.49536000  1.0
  O  O71  1  0.59810000  0.78818000  0.99536000  1.0
  O  O72  1  0.00771000  0.44349000  0.13053000  1.0
  O  O73  1  0.49229000  0.55651000  0.63054000  1.0
  O  O74  1  0.99229000  0.55651000  0.86946000  1.0
  O  O75  1  0.50771000  0.44349000  0.36947000  1.0
  O  O76  1  0.82519000  0.27854000  0.02871000  1.0
  O  O77  1  0.67481000  0.72146000  0.52870000  1.0
  O  O78  1  0.17481000  0.72146000  0.97129000  1.0
  O  O79  1  0.32519000  0.27854000  0.47129000  1.0
  O  O80  1  0.76312000  0.52656000  0.04520000  1.0
  O  O81  1  0.73688000  0.47344000  0.54521000  1.0
  O  O82  1  0.23688000  0.47344000  0.95480000  1.0
  O  O83  1  0.26311000  0.52656000  0.45480000  1.0
  O  O84  1  0.68977000  0.35638000  0.17009000  1.0
  O  O85  1  0.81023000  0.64363000  0.67009000  1.0
  O  O86  1  0.31023000  0.64362000  0.82991000  1.0
  O  O87  1  0.18977000  0.35638000  0.32991000  1.0
  O  O88  1  0.33383000  0.35298000  0.15965000  1.0
  O  O89  1  0.16617000  0.64702000  0.65965000  1.0
  O  O90  1  0.66616000  0.64702000  0.84035000  1.0
  O  O91  1  0.83383000  0.35298000  0.34035000  1.0
