# generated using pymatgen
data_ZnH8C18S2N3O10
_symmetry_space_group_name_H-M   'P 1'
_cell_length_a   9.89280000
_cell_length_b   10.86280000
_cell_length_c   19.54300000
_cell_angle_alpha   83.19660000
_cell_angle_beta   89.86350000
_cell_angle_gamma   89.88240000
_symmetry_Int_Tables_number   1
_chemical_formula_structural   ZnH8C18S2N3O10
_chemical_formula_sum   'Zn2 H16 C36 S4 N6 O20'
_cell_volume   2085.36178786
_cell_formula_units_Z   2
loop_
 _symmetry_equiv_pos_site_id
 _symmetry_equiv_pos_as_xyz
  1  'x, y, z'
loop_
 _atom_site_type_symbol
 _atom_site_label
 _atom_site_symmetry_multiplicity
 _atom_site_fract_x
 _atom_site_fract_y
 _atom_site_fract_z
 _atom_site_occupancy
  Zn  Zn0  1  0.64751000  0.49958000  0.50002000  1.0
  Zn  Zn1  1  0.36570000  0.50050000  0.50015000  1.0
  H  H2  1  0.30266000  0.50459000  0.28873000  1.0
  H  H3  1  0.73540000  0.51011000  0.72026000  1.0
  H  H4  1  0.30102000  0.51885000  0.71052000  1.0
  H  H5  1  0.73588000  0.47416000  0.28015000  1.0
  H  H6  1  0.29045000  0.50361000  0.16187000  1.0
  H  H7  1  0.72467000  0.50723000  0.84725000  1.0
  H  H8  1  0.28940000  0.51726000  0.83775000  1.0
  H  H9  1  0.72497000  0.47665000  0.15336000  1.0
  H  H10  1  0.66124000  0.35691000  0.06894000  1.0
  H  H11  1  0.34015000  0.63739000  0.93126000  1.0
  H  H12  1  0.66100000  0.36689000  0.94216000  1.0
  H  H13  1  0.34092000  0.62807000  0.05809000  1.0
  H  H14  1  0.04862000  0.16368000  0.49326000  1.0
  H  H15  1  0.68974000  0.68272000  0.59806000  1.0
  H  H16  1  0.04886000  0.83768000  0.50632000  1.0
  H  H17  1  0.68972000  0.31667000  0.40188000  1.0
  C  C18  1  0.49653000  0.87002000  0.51085000  1.0
  C  C19  1  0.49655000  0.13019000  0.48924000  1.0
  C  C20  1  0.59242000  0.42043000  0.03884000  1.0
  C  C21  1  0.40953000  0.57436000  0.96137000  1.0
  C  C22  1  0.59235000  0.42599000  0.96747000  1.0
  C  C23  1  0.40986000  0.56901000  0.03289000  1.0
  C  C24  1  0.50185000  0.50396000  0.92731000  1.0
  C  C25  1  0.50221000  0.49282000  0.07294000  1.0
  C  C26  1  0.49272000  0.26518000  0.49912000  1.0
  C  C27  1  0.49272000  0.73506000  0.50101000  1.0
  C  C28  1  0.52385000  0.50931000  0.63244000  1.0
  C  C29  1  0.52479000  0.49223000  0.36763000  1.0
  C  C30  1  0.37366000  0.06433000  0.49027000  1.0
  C  C31  1  0.61967000  0.93492000  0.50719000  1.0
  C  C32  1  0.37361000  0.93628000  0.50983000  1.0
  C  C33  1  0.61972000  0.06488000  0.49285000  1.0
  C  C34  1  0.39446000  0.49858000  0.25851000  1.0
  C  C35  1  0.63810000  0.51184000  0.74624000  1.0
  C  C36  1  0.39312000  0.51681000  0.74099000  1.0
  C  C37  1  0.63853000  0.47935000  0.25409000  1.0
  C  C38  1  0.38838000  0.49886000  0.18757000  1.0
  C  C39  1  0.63162000  0.50910000  0.81735000  1.0
  C  C40  1  0.38728000  0.51664000  0.81199000  1.0
  C  C41  1  0.63195000  0.48024000  0.18309000  1.0
  C  C42  1  0.50704000  0.49025000  0.14848000  1.0
  C  C43  1  0.50634000  0.51067000  0.85154000  1.0
  C  C44  1  0.07846000  0.56985000  0.45072000  1.0
  C  C45  1  0.93489000  0.43206000  0.55019000  1.0
  C  C46  1  0.07861000  0.43048000  0.54943000  1.0
  C  C47  1  0.93480000  0.56715000  0.44971000  1.0
  C  C48  1  0.51973000  0.48916000  0.29245000  1.0
  C  C49  1  0.51869000  0.51387000  0.70753000  1.0
  C  C50  1  0.14696000  0.64768000  0.39796000  1.0
  C  C51  1  0.86589000  0.36139000  0.60565000  1.0
  C  C52  1  0.14737000  0.35328000  0.60232000  1.0
  C  C53  1  0.86574000  0.63709000  0.39408000  1.0
  S  S54  1  0.22877000  0.12545000  0.43795000  1.0
  S  S55  1  0.77343000  0.86158000  0.54676000  1.0
  S  S56  1  0.22801000  0.87564000  0.56193000  1.0
  S  S57  1  0.77369000  0.13760000  0.45310000  1.0
  N  N58  1  0.86518000  0.49937000  0.49991000  1.0
  N  N59  1  0.14829000  0.50045000  0.50013000  1.0
  N  N60  1  0.19330000  0.71316000  0.35229000  1.0
  N  N61  1  0.81910000  0.30331000  0.65397000  1.0
  N  N62  1  0.19413000  0.28826000  0.64803000  1.0
  N  N63  1  0.81882000  0.69453000  0.34563000  1.0
  O  O64  1  0.60291000  0.31260000  0.51670000  1.0
  O  O65  1  0.37788000  0.68392000  0.50478000  1.0
  O  O66  1  0.60301000  0.68690000  0.48359000  1.0
  O  O67  1  0.37807000  0.31708000  0.49527000  1.0
  O  O68  1  0.63787000  0.53667000  0.60038000  1.0
  O  O69  1  0.42001000  0.52426000  0.39836000  1.0
  O  O70  1  0.63812000  0.46238000  0.39967000  1.0
  O  O71  1  0.41872000  0.47822000  0.60203000  1.0
  O  O72  1  0.28857000  0.20458000  0.38218000  1.0
  O  O73  1  0.15486000  0.01693000  0.42441000  1.0
  O  O74  1  0.13323000  0.20892000  0.47908000  1.0
  O  O75  1  0.85806000  0.79414000  0.50336000  1.0
  O  O76  1  0.83272000  0.96052000  0.57887000  1.0
  O  O77  1  0.71096000  0.77094000  0.60717000  1.0
  O  O78  1  0.28703000  0.79646000  0.61788000  1.0
  O  O79  1  0.15371000  0.98441000  0.57526000  1.0
  O  O80  1  0.13326000  0.79228000  0.52073000  1.0
  O  O81  1  0.85817000  0.20476000  0.49639000  1.0
  O  O82  1  0.83306000  0.03841000  0.42093000  1.0
  O  O83  1  0.71145000  0.22840000  0.39276000  1.0
