# generated using pymatgen
data_ZnH13C15NO4
_symmetry_space_group_name_H-M   'P 1'
_cell_length_a   11.57120000
_cell_length_b   11.57120000
_cell_length_c   14.50850000
_cell_angle_alpha   73.86030000
_cell_angle_beta   73.86030000
_cell_angle_gamma   68.72830000
_symmetry_Int_Tables_number   1
_chemical_formula_structural   ZnH13C15NO4
_chemical_formula_sum   'Zn4 H52 C60 N4 O16'
_cell_volume   1704.50292307
_cell_formula_units_Z   4
loop_
 _symmetry_equiv_pos_site_id
 _symmetry_equiv_pos_as_xyz
  1  'x, y, z'
loop_
 _atom_site_type_symbol
 _atom_site_label
 _atom_site_symmetry_multiplicity
 _atom_site_fract_x
 _atom_site_fract_y
 _atom_site_fract_z
 _atom_site_occupancy
  Zn  Zn0  1  0.50396000  0.86667000  0.52503000  1.0
  Zn  Zn1  1  0.86667000  0.50396000  0.02504000  1.0
  Zn  Zn2  1  0.49603000  0.13333000  0.47497000  1.0
  Zn  Zn3  1  0.13333000  0.49604000  0.97497000  1.0
  H  H4  1  0.75570000  0.74674000  0.24170000  1.0
  H  H5  1  0.74674000  0.75570000  0.74170000  1.0
  H  H6  1  0.24430000  0.25326000  0.75830000  1.0
  H  H7  1  0.25326000  0.24430000  0.25830000  1.0
  H  H8  1  0.90970000  0.19185000  0.24862000  1.0
  H  H9  1  0.19185000  0.90970000  0.74862000  1.0
  H  H10  1  0.09030000  0.80815000  0.75138000  1.0
  H  H11  1  0.80815000  0.09030000  0.25138000  1.0
  H  H12  1  0.94689000  0.99853000  0.38263000  1.0
  H  H13  1  0.99853000  0.94689000  0.88263000  1.0
  H  H14  1  0.05311000  0.00147000  0.61737000  1.0
  H  H15  1  0.00147000  0.05311000  0.11737000  1.0
  H  H16  1  0.14113000  0.93100000  0.45314000  1.0
  H  H17  1  0.93100000  0.14113000  0.95314000  1.0
  H  H18  1  0.85887000  0.06900000  0.54686000  1.0
  H  H19  1  0.06900000  0.85887000  0.04686000  1.0
  H  H20  1  0.30415000  0.38890000  0.44456000  1.0
  H  H21  1  0.38890000  0.30415000  0.94456000  1.0
  H  H22  1  0.69585000  0.61110000  0.55544000  1.0
  H  H23  1  0.61110000  0.69585000  0.05544000  1.0
  H  H24  1  0.50990000  0.66057000  0.34308000  1.0
  H  H25  1  0.66057000  0.50990000  0.84308000  1.0
  H  H26  1  0.49010000  0.33943000  0.65692000  1.0
  H  H27  1  0.33943000  0.49010000  0.15692000  1.0
  H  H28  1  0.69536000  0.25762000  0.39500000  1.0
  H  H29  1  0.25762000  0.69536000  0.89500000  1.0
  H  H30  1  0.30464000  0.74238000  0.60500000  1.0
  H  H31  1  0.74238000  0.30464000  0.10500000  1.0
  H  H32  1  0.76863000  0.52067000  0.25304000  1.0
  H  H33  1  0.52067000  0.76863000  0.75304000  1.0
  H  H34  1  0.23137000  0.47933000  0.74696000  1.0
  H  H35  1  0.47933000  0.23137000  0.24696000  1.0
  H  H36  1  0.82280000  0.39808000  0.35006000  1.0
  H  H37  1  0.39808000  0.82280000  0.85006000  1.0
  H  H38  1  0.17720000  0.60192000  0.64994000  1.0
  H  H39  1  0.60192000  0.17721000  0.14994000  1.0
  H  H40  1  0.74626000  0.55717000  0.36876000  1.0
  H  H41  1  0.55717000  0.74626000  0.86876000  1.0
  H  H42  1  0.25374000  0.44283000  0.63124000  1.0
  H  H43  1  0.44283000  0.25374000  0.13124000  1.0
  H  H44  1  0.28166000  0.73600000  0.39165000  1.0
  H  H45  1  0.73600000  0.28166000  0.89165000  1.0
  H  H46  1  0.71833000  0.26400000  0.60835000  1.0
  H  H47  1  0.26400000  0.71833000  0.10835000  1.0
  H  H48  1  0.19740000  0.62722000  0.45986000  1.0
  H  H49  1  0.62722000  0.19741000  0.95986000  1.0
  H  H50  1  0.80260000  0.37278000  0.54014000  1.0
  H  H51  1  0.37278000  0.80260000  0.04014000  1.0
  H  H52  1  0.22632000  0.65904000  0.33047000  1.0
  H  H53  1  0.65904000  0.22632000  0.83048000  1.0
  H  H54  1  0.77368000  0.34096000  0.66952000  1.0
  H  H55  1  0.34096000  0.77368000  0.16952000  1.0
  C  C56  1  0.66948000  0.93974000  0.34469000  1.0
  C  C57  1  0.93974000  0.66948000  0.84469000  1.0
  C  C58  1  0.33052000  0.06025000  0.65531000  1.0
  C  C59  1  0.06025000  0.33052000  0.15531000  1.0
  C  C60  1  0.95061000  0.68378000  0.08936000  1.0
  C  C61  1  0.68378000  0.95061000  0.58936000  1.0
  C  C62  1  0.04938000  0.31622000  0.91065000  1.0
  C  C63  1  0.31622000  0.04938000  0.41065000  1.0
  C  C64  1  0.91447000  0.79357000  0.13808000  1.0
  C  C65  1  0.79357000  0.91447000  0.63808000  1.0
  C  C66  1  0.08554000  0.20643000  0.86192000  1.0
  C  C67  1  0.20643000  0.08553000  0.36192000  1.0
  C  C68  1  0.80944000  0.81356000  0.21476000  1.0
  C  C69  1  0.81357000  0.80944000  0.71476000  1.0
  C  C70  1  0.19056000  0.18643000  0.78524000  1.0
  C  C71  1  0.18643000  0.19056000  0.28524000  1.0
  C  C72  1  0.77430000  0.91916000  0.25693000  1.0
  C  C73  1  0.91916000  0.77430000  0.75693000  1.0
  C  C74  1  0.22570000  0.08085000  0.74307000  1.0
  C  C75  1  0.08085000  0.22570000  0.24306000  1.0
  C  C76  1  0.99301000  0.15873000  0.28103000  1.0
  C  C77  1  0.15873000  0.99301000  0.78103000  1.0
  C  C78  1  0.00699000  0.84126000  0.71897000  1.0
  C  C79  1  0.84127000  0.00699000  0.21897000  1.0
  C  C80  1  0.01400000  0.05225000  0.35567000  1.0
  C  C81  1  0.05225000  0.01400000  0.85567000  1.0
  C  C82  1  0.98600000  0.94775000  0.64433000  1.0
  C  C83  1  0.94775000  0.98600000  0.14433000  1.0
  C  C84  1  0.12213000  0.01429000  0.39498000  1.0
  C  C85  1  0.01429000  0.12213000  0.89498000  1.0
  C  C86  1  0.87787000  0.98571000  0.60502000  1.0
  C  C87  1  0.98571000  0.87787000  0.10502000  1.0
  C  C88  1  0.39165000  0.41400000  0.42045000  1.0
  C  C89  1  0.41400000  0.39165000  0.92045000  1.0
  C  C90  1  0.60836000  0.58600000  0.57955000  1.0
  C  C91  1  0.58600000  0.60836000  0.07955000  1.0
  C  C92  1  0.39018000  0.54036000  0.39214000  1.0
  C  C93  1  0.54036000  0.39018000  0.89214000  1.0
  C  C94  1  0.60982000  0.45964000  0.60786000  1.0
  C  C95  1  0.45964000  0.60982000  0.10786000  1.0
  C  C96  1  0.50693000  0.56316000  0.36340000  1.0
  C  C97  1  0.56316000  0.50693000  0.86339000  1.0
  C  C98  1  0.49307000  0.43684000  0.63661000  1.0
  C  C99  1  0.43684000  0.49307000  0.13661000  1.0
  C  C100  1  0.62034000  0.46284000  0.36247000  1.0
  C  C101  1  0.46284000  0.62034000  0.86247000  1.0
  C  C102  1  0.37966000  0.53716000  0.63753000  1.0
  C  C103  1  0.53716000  0.37966000  0.13753000  1.0
  C  C104  1  0.61116000  0.34034000  0.39224000  1.0
  C  C105  1  0.34034000  0.61116000  0.89224000  1.0
  C  C106  1  0.38884000  0.65966000  0.60776000  1.0
  C  C107  1  0.65966000  0.38884000  0.10776000  1.0
  C  C108  1  0.74634000  0.48547000  0.33242000  1.0
  C  C109  1  0.48547000  0.74634000  0.83242000  1.0
  C  C110  1  0.25366000  0.51453000  0.66758000  1.0
  C  C111  1  0.51453000  0.25366000  0.16758000  1.0
  C  C112  1  0.26753000  0.64643000  0.39379000  1.0
  C  C113  1  0.64643000  0.26753000  0.89379000  1.0
  C  C114  1  0.73247000  0.35357000  0.60621000  1.0
  C  C115  1  0.35357000  0.73247000  0.10621000  1.0
  N  N116  1  0.49948000  0.31668000  0.42101000  1.0
  N  N117  1  0.31668000  0.49948000  0.92101000  1.0
  N  N118  1  0.50053000  0.68332000  0.57899000  1.0
  N  N119  1  0.68332000  0.50053000  0.07899000  1.0
  O  O120  1  0.63219000  0.84558000  0.39446000  1.0
  O  O121  1  0.84558000  0.63219000  0.89446000  1.0
  O  O122  1  0.36781000  0.15443000  0.60554000  1.0
  O  O123  1  0.15443000  0.36781000  0.10554000  1.0
  O  O124  1  0.06695000  0.64094000  0.05082000  1.0
  O  O125  1  0.64094000  0.06695000  0.55082000  1.0
  O  O126  1  0.93306000  0.35906000  0.94918000  1.0
  O  O127  1  0.35906000  0.93306000  0.44918000  1.0
  O  O128  1  0.86124000  0.64408000  0.08942000  1.0
  O  O129  1  0.64408000  0.86124000  0.58942000  1.0
  O  O130  1  0.13876000  0.35593000  0.91058000  1.0
  O  O131  1  0.35592000  0.13876000  0.41058000  1.0
  O  O132  1  0.62867000  0.05031000  0.36365000  1.0
  O  O133  1  0.05031000  0.62867000  0.86365000  1.0
  O  O134  1  0.37133000  0.94970000  0.63635000  1.0
  O  O135  1  0.94970000  0.37133000  0.13635000  1.0
