# generated using pymatgen
data_ZnH18C20(N2O)6
_symmetry_space_group_name_H-M   'P 1'
_cell_length_a   9.66354000
_cell_length_b   10.20430000
_cell_length_c   11.22540000
_cell_angle_alpha   90.00000000
_cell_angle_beta   95.35510000
_cell_angle_gamma   90.00000000
_symmetry_Int_Tables_number   1
_chemical_formula_structural   ZnH18C20(N2O)6
_chemical_formula_sum   'Zn2 H36 C40 N24 O12'
_cell_volume   1102.10157970
_cell_formula_units_Z   2
loop_
 _symmetry_equiv_pos_site_id
 _symmetry_equiv_pos_as_xyz
  1  'x, y, z'
loop_
 _atom_site_type_symbol
 _atom_site_label
 _atom_site_symmetry_multiplicity
 _atom_site_fract_x
 _atom_site_fract_y
 _atom_site_fract_z
 _atom_site_occupancy
  Zn  Zn0  1  0.00000000  0.50000000  0.50000000  1.0
  Zn  Zn1  1  0.50000000  0.00000000  0.00000000  1.0
  H  H2  1  0.25624000  0.40292000  0.67515000  1.0
  H  H3  1  0.24376000  0.90292000  0.82485000  1.0
  H  H4  1  0.74376000  0.59708000  0.32485000  1.0
  H  H5  1  0.75624000  0.09708000  0.17515000  1.0
  H  H6  1  0.25497000  0.67270000  0.38948000  1.0
  H  H7  1  0.24503000  0.17270000  0.11051000  1.0
  H  H8  1  0.74502000  0.32730000  0.61051000  1.0
  H  H9  1  0.75498000  0.82730000  0.88949000  1.0
  H  H10  1  0.50123000  0.70000000  0.53535000  1.0
  H  H11  1  0.99877000  0.20000000  0.96465000  1.0
  H  H12  1  0.49877000  0.30000000  0.46465000  1.0
  H  H13  1  0.00123000  0.80000000  0.03535000  1.0
  H  H14  1  0.60870000  0.56231000  0.71859000  1.0
  H  H15  1  0.89130000  0.06230000  0.78141000  1.0
  H  H16  1  0.39130000  0.43769000  0.28141000  1.0
  H  H17  1  0.10870000  0.93770000  0.21859000  1.0
  H  H18  1  0.50720000  0.42962000  0.76714000  1.0
  H  H19  1  0.99280000  0.92962000  0.73286000  1.0
  H  H20  1  0.49279000  0.57038000  0.23286000  1.0
  H  H21  1  0.00720000  0.07038000  0.26714000  1.0
  H  H22  1  0.29308000  0.38863000  0.89163000  1.0
  H  H23  1  0.20692000  0.88862000  0.60837000  1.0
  H  H24  1  0.70691000  0.61138000  0.10837000  1.0
  H  H25  1  0.79309000  0.11137000  0.39163000  1.0
  H  H26  1  0.13903000  0.41347000  0.05760000  1.0
  H  H27  1  0.36097000  0.91347000  0.44240000  1.0
  H  H28  1  0.86097000  0.58653000  0.94240000  1.0
  H  H29  1  0.63903000  0.08653000  0.55760000  1.0
  H  H30  1  0.13468000  0.61476000  0.17466000  1.0
  H  H31  1  0.36532000  0.11476000  0.32533000  1.0
  H  H32  1  0.86531000  0.38524000  0.82533000  1.0
  H  H33  1  0.63468000  0.88524000  0.67467000  1.0
  H  H34  1  0.28600000  0.80755000  0.13275000  1.0
  H  H35  1  0.21400000  0.30755000  0.36725000  1.0
  H  H36  1  0.71400000  0.19245000  0.86725000  1.0
  H  H37  1  0.78600000  0.69245000  0.63275000  1.0
  C  C38  1  0.28559000  0.47999000  0.61601000  1.0
  C  C39  1  0.21441000  0.97999000  0.88399000  1.0
  C  C40  1  0.71441000  0.52001000  0.38399000  1.0
  C  C41  1  0.78559000  0.02001000  0.11601000  1.0
  C  C42  1  0.29130000  0.62068000  0.47038000  1.0
  C  C43  1  0.20869000  0.12068000  0.02961000  1.0
  C  C44  1  0.70870000  0.37932000  0.52962000  1.0
  C  C45  1  0.79130000  0.87932000  0.97038000  1.0
  C  C46  1  0.41259000  0.63663000  0.54256000  1.0
  C  C47  1  0.08741000  0.13663000  0.95744000  1.0
  C  C48  1  0.58741000  0.36337000  0.45744000  1.0
  C  C49  1  0.91259000  0.86337000  0.04256000  1.0
  C  C50  1  0.50485000  0.53259000  0.73928000  1.0
  C  C51  1  0.99515000  0.03259000  0.76072000  1.0
  C  C52  1  0.49514000  0.46741000  0.26072000  1.0
  C  C53  1  0.00485000  0.96741000  0.23928000  1.0
  C  C54  1  0.37196000  0.58856000  0.91873000  1.0
  C  C55  1  0.12804000  0.08855000  0.58127000  1.0
  C  C56  1  0.62804000  0.41145000  0.08127000  1.0
  C  C57  1  0.87196000  0.91144000  0.41873000  1.0
  C  C58  1  0.28966000  0.47991000  0.94160000  1.0
  C  C59  1  0.21034000  0.97991000  0.55840000  1.0
  C  C60  1  0.71034000  0.52009000  0.05840000  1.0
  C  C61  1  0.78966000  0.02009000  0.44160000  1.0
  C  C62  1  0.20499000  0.49433000  0.03413000  1.0
  C  C63  1  0.29501000  0.99433000  0.46587000  1.0
  C  C64  1  0.79501000  0.50567000  0.96587000  1.0
  C  C65  1  0.70499000  0.00567000  0.53413000  1.0
  C  C66  1  0.20259000  0.61103000  0.10234000  1.0
  C  C67  1  0.29741000  0.11103000  0.39766000  1.0
  C  C68  1  0.79741000  0.38897000  0.89766000  1.0
  C  C69  1  0.70259000  0.88897000  0.60234000  1.0
  C  C70  1  0.28490000  0.71794000  0.08007000  1.0
  C  C71  1  0.21510000  0.21794000  0.41993000  1.0
  C  C72  1  0.71510000  0.28206000  0.91993000  1.0
  C  C73  1  0.78490000  0.78206000  0.58007000  1.0
  C  C74  1  0.37041000  0.70547000  0.98601000  1.0
  C  C75  1  0.12959000  0.20547000  0.51399000  1.0
  C  C76  1  0.62959000  0.29453000  0.01399000  1.0
  C  C77  1  0.87041000  0.79453000  0.48601000  1.0
  N  N78  1  0.21290000  0.52324000  0.51758000  1.0
  N  N79  1  0.28710000  0.02324000  0.98242000  1.0
  N  N80  1  0.78710000  0.47676000  0.48242000  1.0
  N  N81  1  0.71290000  0.97676000  0.01758000  1.0
  N  N82  1  0.40735000  0.54618000  0.63403000  1.0
  N  N83  1  0.09265000  0.04618000  0.86597000  1.0
  N  N84  1  0.59265000  0.45382000  0.36597000  1.0
  N  N85  1  0.90735000  0.95382000  0.13403000  1.0
  N  N86  1  0.46599000  0.61388000  0.83709000  1.0
  N  N87  1  0.03401000  0.11388000  0.66291000  1.0
  N  N88  1  0.53401000  0.38612000  0.16291000  1.0
  N  N89  1  0.96599000  0.88612000  0.33709000  1.0
  N  N90  1  0.51697000  0.73695000  0.85053000  1.0
  N  N91  1  0.98303000  0.23695000  0.64947000  1.0
  N  N92  1  0.48303000  0.26305000  0.14947000  1.0
  N  N93  1  0.01697000  0.76305000  0.35053000  1.0
  N  N94  1  0.46168000  0.79200000  0.93989000  1.0
  N  N95  1  0.03832000  0.29200000  0.56011000  1.0
  N  N96  1  0.53832000  0.20800000  0.06011000  1.0
  N  N97  1  0.96168000  0.70800000  0.43989000  1.0
  N  N98  1  0.04206000  0.66289000  0.74416000  1.0
  N  N99  1  0.45794000  0.16289000  0.75584000  1.0
  N  N100  1  0.95794000  0.33711000  0.25584000  1.0
  N  N101  1  0.54206000  0.83711000  0.24416000  1.0
  O  O102  1  0.98933000  0.55768000  0.69507000  1.0
  O  O103  1  0.51067000  0.05768000  0.80493000  1.0
  O  O104  1  0.01067000  0.44232000  0.30493000  1.0
  O  O105  1  0.48933000  0.94232000  0.19507000  1.0
  O  O106  1  0.14893000  0.71404000  0.70720000  1.0
  O  O107  1  0.35106000  0.21404000  0.79280000  1.0
  O  O108  1  0.85107000  0.28596000  0.29281000  1.0
  O  O109  1  0.64893000  0.78596000  0.20719000  1.0
  O  O110  1  0.98388000  0.71416000  0.82841000  1.0
  O  O111  1  0.51612000  0.21416000  0.67159000  1.0
  O  O112  1  0.01612000  0.28584000  0.17159000  1.0
  O  O113  1  0.48388000  0.78584000  0.32841000  1.0
