# generated using pymatgen
data_ZnH12C18(N3O2)2
_symmetry_space_group_name_H-M   'P 1'
_cell_length_a   10.17550000
_cell_length_b   14.72520000
_cell_length_c   16.70920000
_cell_angle_alpha   89.99980000
_cell_angle_beta   90.00010000
_cell_angle_gamma   89.75650000
_symmetry_Int_Tables_number   1
_chemical_formula_structural   ZnH12C18(N3O2)2
_chemical_formula_sum   'Zn4 H48 C72 N24 O16'
_cell_volume   2503.62163642
_cell_formula_units_Z   4
loop_
 _symmetry_equiv_pos_site_id
 _symmetry_equiv_pos_as_xyz
  1  'x, y, z'
loop_
 _atom_site_type_symbol
 _atom_site_label
 _atom_site_symmetry_multiplicity
 _atom_site_fract_x
 _atom_site_fract_y
 _atom_site_fract_z
 _atom_site_occupancy
  Zn  Zn0  1  0.95736000  0.34141000  0.25246000  1.0
  Zn  Zn1  1  0.45736000  0.84141000  0.74754000  1.0
  Zn  Zn2  1  0.46650000  0.79625000  0.25359000  1.0
  Zn  Zn3  1  0.96651000  0.29625000  0.74641000  1.0
  H  H4  1  0.35538000  0.91871000  0.91884000  1.0
  H  H5  1  0.85537000  0.41870000  0.08116000  1.0
  H  H6  1  0.17512000  0.05635000  0.14812000  1.0
  H  H7  1  0.67512000  0.55635000  0.85188000  1.0
  H  H8  1  0.21789000  0.96234000  0.02796000  1.0
  H  H9  1  0.71789000  0.46234000  0.97204000  1.0
  H  H10  1  0.11495000  0.09519000  0.77973000  1.0
  H  H11  1  0.61497000  0.59520000  0.22027000  1.0
  H  H12  1  0.09887000  0.28832000  0.99862000  1.0
  H  H13  1  0.59888000  0.78832000  0.00138000  1.0
  H  H14  1  0.15492000  0.19915000  0.87877000  1.0
  H  H15  1  0.65493000  0.69915000  0.12123000  1.0
  H  H16  1  0.12929000  0.47284000  0.64846000  1.0
  H  H17  1  0.62930000  0.97283000  0.35154000  1.0
  H  H18  1  0.29997000  0.66213000  0.47894000  1.0
  H  H19  1  0.79997000  0.16213000  0.52106000  1.0
  H  H20  1  0.02877000  0.38939000  0.53548000  1.0
  H  H21  1  0.52878000  0.88939000  0.46452000  1.0
  H  H22  1  0.27454000  0.52045000  0.73204000  1.0
  H  H23  1  0.77454000  0.02045000  0.26796000  1.0
  H  H24  1  0.19908000  0.57856000  0.36847000  1.0
  H  H25  1  0.69908000  0.07856000  0.63153000  1.0
  H  H26  1  0.31170000  0.75769000  0.58876000  1.0
  H  H27  1  0.81170000  0.25769000  0.41125000  1.0
  H  H28  1  0.37090000  0.71867000  0.07694000  1.0
  H  H29  1  0.87090000  0.21867000  0.92306000  1.0
  H  H30  1  0.31493000  0.88166000  0.40998000  1.0
  H  H31  1  0.81493000  0.38166000  0.59002000  1.0
  H  H32  1  0.19119000  0.51091000  0.21527000  1.0
  H  H33  1  0.69118000  0.01092000  0.78473000  1.0
  H  H34  1  0.29207000  0.11974000  0.26710000  1.0
  H  H35  1  0.79207000  0.61974000  0.73290000  1.0
  H  H36  1  0.41780000  0.57933000  0.98881000  1.0
  H  H37  1  0.91781000  0.07932000  0.01119000  1.0
  H  H38  1  0.04213000  0.51794000  0.09482000  1.0
  H  H39  1  0.54213000  0.01794000  0.90517000  1.0
  H  H40  1  0.12805000  0.16221000  0.34737000  1.0
  H  H41  1  0.62804000  0.66221000  0.65263000  1.0
  H  H42  1  0.31273000  0.98090000  0.51913000  1.0
  H  H43  1  0.81273000  0.48091000  0.48088000  1.0
  H  H44  1  0.35386000  0.49434000  0.86634000  1.0
  H  H45  1  0.85386000  0.99433000  0.13365000  1.0
  H  H46  1  0.98151000  0.42967000  0.97121000  1.0
  H  H47  1  0.48151000  0.92966000  0.02878000  1.0
  H  H48  1  0.02505000  0.24647000  0.45992000  1.0
  H  H49  1  0.52505000  0.74648000  0.54008000  1.0
  H  H50  1  0.20845000  0.06480000  0.62898000  1.0
  H  H51  1  0.70845000  0.56481000  0.37102000  1.0
  C  C52  1  0.30377000  0.95083000  0.86967000  1.0
  C  C53  1  0.80376000  0.45082000  0.13034000  1.0
  C  C54  1  0.18943000  0.07469000  0.94556000  1.0
  C  C55  1  0.68943000  0.57469000  0.05444000  1.0
  C  C56  1  0.10414000  0.23464000  0.15487000  1.0
  C  C57  1  0.60413000  0.73464000  0.84513000  1.0
  C  C58  1  0.13398000  0.17871000  0.08157000  1.0
  C  C59  1  0.63398000  0.67871000  0.91843000  1.0
  C  C60  1  0.16915000  0.08691000  0.08894000  1.0
  C  C61  1  0.66915000  0.58691000  0.91106000  1.0
  C  C62  1  0.19469000  0.03428000  0.02133000  1.0
  C  C63  1  0.69469000  0.53428000  0.97867000  1.0
  C  C64  1  0.18066000  0.04057000  0.79790000  1.0
  C  C65  1  0.68066000  0.54057000  0.20210000  1.0
  C  C66  1  0.12657000  0.21728000  0.00513000  1.0
  C  C67  1  0.62657000  0.71728000  0.99487000  1.0
  C  C68  1  0.15660000  0.16646000  0.93723000  1.0
  C  C69  1  0.65661000  0.66646000  0.06277000  1.0
  C  C70  1  0.10429000  0.47899000  0.44462000  1.0
  C  C71  1  0.60429000  0.97899000  0.55538000  1.0
  C  C72  1  0.03597000  0.42707000  0.38011000  1.0
  C  C73  1  0.53598000  0.92707000  0.61990000  1.0
  C  C74  1  0.18173000  0.55547000  0.42947000  1.0
  C  C75  1  0.68173000  0.05548000  0.57053000  1.0
  C  C76  1  0.14308000  0.49675000  0.58728000  1.0
  C  C77  1  0.64309000  0.99675000  0.41272000  1.0
  C  C78  1  0.21759000  0.57424000  0.57110000  1.0
  C  C79  1  0.71760000  0.07424000  0.42890000  1.0
  C  C80  1  0.23834000  0.60359000  0.49249000  1.0
  C  C81  1  0.73834000  0.10359000  0.50751000  1.0
  C  C82  1  0.08689000  0.44992000  0.52387000  1.0
  C  C83  1  0.58690000  0.94991000  0.47614000  1.0
  C  C84  1  0.30033000  0.58878000  0.71223000  1.0
  C  C85  1  0.80033000  0.08878000  0.28777000  1.0
  C  C86  1  0.31696000  0.70986000  0.63782000  1.0
  C  C87  1  0.81697000  0.20986000  0.36218000  1.0
  C  C88  1  0.33386000  0.67929000  0.12681000  1.0
  C  C89  1  0.83386000  0.17929000  0.87318000  1.0
  C  C90  1  0.32398000  0.92936000  0.36106000  1.0
  C  C91  1  0.82398000  0.42936000  0.63894000  1.0
  C  C92  1  0.24134000  0.57310000  0.19798000  1.0
  C  C93  1  0.74134000  0.07310000  0.80201000  1.0
  C  C94  1  0.31585000  0.05115000  0.28704000  1.0
  C  C95  1  0.81585000  0.55115000  0.71296000  1.0
  C  C96  1  0.23337000  0.55220000  0.04882000  1.0
  C  C97  1  0.73336000  0.05220000  0.95118000  1.0
  C  C98  1  0.22499000  0.06589000  0.42645000  1.0
  C  C99  1  0.72499000  0.56589000  0.57355000  1.0
  C  C100  1  0.32179000  0.54711000  0.98498000  1.0
  C  C101  1  0.82180000  0.04710000  0.01502000  1.0
  C  C102  1  0.11002000  0.51132000  0.04474000  1.0
  C  C103  1  0.61002000  0.01132000  0.95525000  1.0
  C  C104  1  0.14503000  0.14077000  0.40903000  1.0
  C  C105  1  0.64503000  0.64078000  0.59097000  1.0
  C  C106  1  0.24849000  0.03831000  0.50525000  1.0
  C  C107  1  0.74849000  0.53832000  0.49475000  1.0
  C  C108  1  0.28615000  0.49898000  0.91662000  1.0
  C  C109  1  0.78615000  0.99897000  0.08337000  1.0
  C  C110  1  0.07670000  0.46257000  0.97660000  1.0
  C  C111  1  0.57670000  0.96257000  0.02339000  1.0
  C  C112  1  0.08699000  0.18760000  0.47204000  1.0
  C  C113  1  0.58699000  0.68760000  0.52796000  1.0
  C  C114  1  0.19003000  0.08642000  0.56769000  1.0
  C  C115  1  0.69004000  0.58642000  0.43231000  1.0
  C  C116  1  0.16455000  0.45507000  0.91238000  1.0
  C  C117  1  0.66455000  0.95506000  0.08761000  1.0
  C  C118  1  0.10785000  0.16068000  0.55153000  1.0
  C  C119  1  0.60785000  0.66068000  0.44848000  1.0
  C  C120  1  0.12743000  0.39993000  0.84016000  1.0
  C  C121  1  0.62744000  0.89993000  0.15983000  1.0
  C  C122  1  0.03887000  0.21224000  0.61606000  1.0
  C  C123  1  0.53886000  0.71225000  0.38394000  1.0
  N  N124  1  0.31464000  0.92691000  0.79379000  1.0
  N  N125  1  0.81464000  0.42690000  0.20621000  1.0
  N  N126  1  0.22014000  0.02331000  0.87553000  1.0
  N  N127  1  0.72014000  0.52331000  0.12447000  1.0
  N  N128  1  0.23655000  0.98303000  0.74812000  1.0
  N  N129  1  0.73655000  0.48303000  0.25189000  1.0
  N  N130  1  0.27426000  0.62236000  0.63665000  1.0
  N  N131  1  0.77426000  0.12236000  0.36335000  1.0
  N  N132  1  0.36661000  0.72751000  0.70923000  1.0
  N  N133  1  0.86662000  0.22751000  0.29077000  1.0
  N  N134  1  0.35606000  0.65131000  0.75681000  1.0
  N  N135  1  0.85606000  0.15132000  0.24320000  1.0
  N  N136  1  0.34541000  0.70028000  0.20342000  1.0
  N  N137  1  0.84541000  0.20028000  0.79657000  1.0
  N  N138  1  0.37631000  0.91079000  0.29044000  1.0
  N  N139  1  0.87631000  0.41079000  0.70956000  1.0
  N  N140  1  0.28769000  0.63332000  0.24868000  1.0
  N  N141  1  0.78769000  0.13332000  0.75132000  1.0
  N  N142  1  0.37132000  0.98751000  0.24309000  1.0
  N  N143  1  0.87132000  0.48751000  0.75691000  1.0
  N  N144  1  0.26817000  0.59913000  0.12036000  1.0
  N  N145  1  0.76817000  0.09913000  0.87963000  1.0
  N  N146  1  0.28435000  0.01764000  0.36171000  1.0
  N  N147  1  0.78436000  0.51764000  0.63830000  1.0
  O  O148  1  0.02715000  0.30401000  0.14409000  1.0
  O  O149  1  0.52714000  0.80401000  0.85592000  1.0
  O  O150  1  0.15191000  0.21207000  0.22102000  1.0
  O  O151  1  0.65190000  0.71208000  0.77898000  1.0
  O  O152  1  0.08124000  0.42907000  0.30755000  1.0
  O  O153  1  0.58124000  0.92907000  0.69245000  1.0
  O  O154  1  0.43560000  0.88139000  0.60174000  1.0
  O  O155  1  0.93560000  0.38140000  0.39826000  1.0
  O  O156  1  0.58726000  0.71053000  0.31213000  1.0
  O  O157  1  0.08727000  0.21053000  0.68787000  1.0
  O  O158  1  0.53549000  0.84059000  0.14802000  1.0
  O  O159  1  0.03549000  0.34059000  0.85198000  1.0
  O  O160  1  0.43668000  0.75701000  0.40102000  1.0
  O  O161  1  0.93668000  0.25701000  0.59898000  1.0
  O  O162  1  0.18388000  0.41206000  0.77453000  1.0
  O  O163  1  0.68389000  0.91206000  0.22546000  1.0
