# generated using pymatgen
data_CdH18C22(N2O)6
_symmetry_space_group_name_H-M   'P 1'
_cell_length_a   9.39615000
_cell_length_b   11.19650000
_cell_length_c   11.73210000
_cell_angle_alpha   89.99990000
_cell_angle_beta   95.14140000
_cell_angle_gamma   89.99990000
_symmetry_Int_Tables_number   1
_chemical_formula_structural   CdH18C22(N2O)6
_chemical_formula_sum   'Cd2 H36 C44 N24 O12'
_cell_volume   1229.29780212
_cell_formula_units_Z   2
loop_
 _symmetry_equiv_pos_site_id
 _symmetry_equiv_pos_as_xyz
  1  'x, y, z'
loop_
 _atom_site_type_symbol
 _atom_site_label
 _atom_site_symmetry_multiplicity
 _atom_site_fract_x
 _atom_site_fract_y
 _atom_site_fract_z
 _atom_site_occupancy
  Cd  Cd0  1  0.00000000  0.50000000  0.00000000  1.0
  Cd  Cd1  1  0.50000000  0.00000000  0.50000000  1.0
  H  H2  1  0.17939000  0.54250000  0.28491000  1.0
  H  H3  1  0.32062000  0.04250000  0.21509000  1.0
  H  H4  1  0.82062000  0.45750000  0.71509000  1.0
  H  H5  1  0.67939000  0.95750000  0.78491000  1.0
  H  H6  1  0.90206000  0.26835000  0.15778000  1.0
  H  H7  1  0.59794000  0.76836000  0.34222000  1.0
  H  H8  1  0.09794000  0.73164000  0.84222000  1.0
  H  H9  1  0.40206000  0.23164000  0.65778000  1.0
  H  H10  1  0.96477000  0.23324000  0.39110000  1.0
  H  H11  1  0.53523000  0.73324000  0.10890000  1.0
  H  H12  1  0.03523000  0.76676000  0.60890000  1.0
  H  H13  1  0.46477000  0.26676000  0.89110000  1.0
  H  H14  1  0.04595000  0.27128000  0.56653000  1.0
  H  H15  1  0.45405000  0.77128000  0.93347000  1.0
  H  H16  1  0.95405000  0.72872000  0.43347000  1.0
  H  H17  1  0.54595000  0.22872000  0.06653000  1.0
  H  H18  1  0.16366000  0.32379000  0.75898000  1.0
  H  H19  1  0.33633000  0.82379000  0.74102000  1.0
  H  H20  1  0.83633000  0.67621000  0.24102000  1.0
  H  H21  1  0.66366000  0.17621000  0.25898000  1.0
  H  H22  1  0.33567000  0.49327000  0.77993000  1.0
  H  H23  1  0.16433000  0.99327000  0.72007000  1.0
  H  H24  1  0.66433000  0.50673000  0.22007000  1.0
  H  H25  1  0.83567000  0.00673000  0.27993000  1.0
  H  H26  1  0.56471000  0.56943000  0.73671000  1.0
  H  H27  1  0.93529000  0.06943000  0.76329000  1.0
  H  H28  1  0.43529000  0.43057000  0.26329000  1.0
  H  H29  1  0.06471000  0.93057000  0.23671000  1.0
  H  H30  1  0.69144000  0.78519000  0.68112000  1.0
  H  H31  1  0.80856000  0.28519000  0.81888000  1.0
  H  H32  1  0.30856000  0.21481000  0.31888000  1.0
  H  H33  1  0.19144000  0.71481000  0.18112000  1.0
  H  H34  1  0.30452000  0.74465000  0.47275000  1.0
  H  H35  1  0.19548000  0.24466000  0.02724000  1.0
  H  H36  1  0.69548000  0.25534000  0.52724000  1.0
  H  H37  1  0.80452000  0.75535000  0.97276000  1.0
  C  C38  1  0.11058000  0.46513000  0.27925000  1.0
  C  C39  1  0.38942000  0.96513000  0.22075000  1.0
  C  C40  1  0.88942000  0.53487000  0.72075000  1.0
  C  C41  1  0.61058000  0.03487000  0.77925000  1.0
  C  C42  1  0.96850000  0.32058000  0.21925000  1.0
  C  C43  1  0.53151000  0.82058000  0.28075000  1.0
  C  C44  1  0.03151000  0.67942000  0.78075000  1.0
  C  C45  1  0.46850000  0.17942000  0.71925000  1.0
  C  C46  1  0.99700000  0.30314000  0.33466000  1.0
  C  C47  1  0.50300000  0.80314000  0.16534000  1.0
  C  C48  1  0.00300000  0.69686000  0.66534000  1.0
  C  C49  1  0.49700000  0.19686000  0.83466000  1.0
  C  C50  1  0.15185000  0.41714000  0.48468000  1.0
  C  C51  1  0.34815000  0.91714000  0.01532000  1.0
  C  C52  1  0.84815000  0.58286000  0.51532000  1.0
  C  C53  1  0.65185000  0.08286000  0.98468000  1.0
  C  C54  1  0.11998000  0.34592000  0.57674000  1.0
  C  C55  1  0.38002000  0.84592000  0.92326000  1.0
  C  C56  1  0.88002000  0.65408000  0.42326000  1.0
  C  C57  1  0.61998000  0.15408000  0.07674000  1.0
  C  C58  1  0.18741000  0.37465000  0.68396000  1.0
  C  C59  1  0.31258000  0.87465000  0.81604000  1.0
  C  C60  1  0.81258000  0.62535000  0.31605000  1.0
  C  C61  1  0.68741000  0.12535000  0.18396000  1.0
  C  C62  1  0.28459000  0.46871000  0.69622000  1.0
  C  C63  1  0.21540000  0.96871000  0.80378000  1.0
  C  C64  1  0.71540000  0.53129000  0.30378000  1.0
  C  C65  1  0.78459000  0.03129000  0.19622000  1.0
  C  C66  1  0.30882000  0.53152000  0.59704000  1.0
  C  C67  1  0.19118000  0.03152000  0.90296000  1.0
  C  C68  1  0.69118000  0.46848000  0.40296000  1.0
  C  C69  1  0.80882000  0.96848000  0.09704000  1.0
  C  C70  1  0.53116000  0.63849000  0.67494000  1.0
  C  C71  1  0.96884000  0.13849000  0.82506000  1.0
  C  C72  1  0.46884000  0.36151000  0.32506000  1.0
  C  C73  1  0.03116000  0.86151000  0.17494000  1.0
  C  C74  1  0.59094000  0.74540000  0.64793000  1.0
  C  C75  1  0.90906000  0.24540000  0.85207000  1.0
  C  C76  1  0.40906000  0.25460000  0.35207000  1.0
  C  C77  1  0.09094000  0.75460000  0.14793000  1.0
  C  C78  1  0.39489000  0.72828000  0.53482000  1.0
  C  C79  1  0.10511000  0.22829000  0.96518000  1.0
  C  C80  1  0.60512000  0.27171000  0.46518000  1.0
  C  C81  1  0.89489000  0.77171000  0.03482000  1.0
  N  N82  1  0.03969000  0.42141000  0.18590000  1.0
  N  N83  1  0.46031000  0.92142000  0.31410000  1.0
  N  N84  1  0.96031000  0.57858000  0.81410000  1.0
  N  N85  1  0.53969000  0.07858000  0.68590000  1.0
  N  N86  1  0.08794000  0.39607000  0.37229000  1.0
  N  N87  1  0.41206000  0.89606000  0.12771000  1.0
  N  N88  1  0.91206000  0.60394000  0.62771000  1.0
  N  N89  1  0.58794000  0.10394000  0.87229000  1.0
  N  N90  1  0.24393000  0.50837000  0.49372000  1.0
  N  N91  1  0.25607000  0.00837000  0.00628000  1.0
  N  N92  1  0.75607000  0.49163000  0.50628000  1.0
  N  N93  1  0.74393000  0.99163000  0.99372000  1.0
  N  N94  1  0.40693000  0.62827000  0.60195000  1.0
  N  N95  1  0.09307000  0.12827000  0.89804000  1.0
  N  N96  1  0.59307000  0.37173000  0.39804000  1.0
  N  N97  1  0.90693000  0.87173000  0.10196000  1.0
  N  N98  1  0.50454000  0.80072000  0.56151000  1.0
  N  N99  1  0.99546000  0.30072000  0.93849000  1.0
  N  N100  1  0.49546000  0.19928000  0.43849000  1.0
  N  N101  1  0.00454000  0.69928000  0.06151000  1.0
  N  N102  1  0.33943000  0.47708000  0.04846000  1.0
  N  N103  1  0.16057000  0.97708000  0.45154000  1.0
  N  N104  1  0.66057000  0.52292000  0.95154000  1.0
  N  N105  1  0.83943000  0.02292000  0.54846000  1.0
  O  O106  1  0.24647000  0.49431000  0.96261000  1.0
  O  O107  1  0.25353000  0.99431000  0.53739000  1.0
  O  O108  1  0.75353000  0.50569000  0.03739000  1.0
  O  O109  1  0.74647000  0.00569000  0.46261000  1.0
  O  O110  1  0.41973000  0.38686000  0.04820000  1.0
  O  O111  1  0.08027000  0.88686000  0.45180000  1.0
  O  O112  1  0.58027000  0.61314000  0.95180000  1.0
  O  O113  1  0.91973000  0.11314000  0.54820000  1.0
  O  O114  1  0.34849000  0.54942000  0.13111000  1.0
  O  O115  1  0.15151000  0.04942000  0.36889000  1.0
  O  O116  1  0.65151000  0.45058000  0.86889000  1.0
  O  O117  1  0.84849000  0.95058000  0.63111000  1.0
