# generated using pymatgen
data_Cu5H14C12(N4O)2
_symmetry_space_group_name_H-M   'P 1'
_cell_length_a   9.17259000
_cell_length_b   9.17268000
_cell_length_c   16.03570000
_cell_angle_alpha   86.99920000
_cell_angle_beta   86.99740000
_cell_angle_gamma   74.47100000
_symmetry_Int_Tables_number   1
_chemical_formula_structural   Cu5H14C12(N4O)2
_chemical_formula_sum   'Cu10 H28 C24 N16 O4'
_cell_volume   1297.13209363
_cell_formula_units_Z   2
loop_
 _symmetry_equiv_pos_site_id
 _symmetry_equiv_pos_as_xyz
  1  'x, y, z'
loop_
 _atom_site_type_symbol
 _atom_site_label
 _atom_site_symmetry_multiplicity
 _atom_site_fract_x
 _atom_site_fract_y
 _atom_site_fract_z
 _atom_site_occupancy
  Cu  Cu0  1  0.52550000  0.85533000  0.49213000  1.0
  Cu  Cu1  1  0.14466000  0.47452000  0.00787000  1.0
  Cu  Cu2  1  0.47450000  0.14467000  0.50787000  1.0
  Cu  Cu3  1  0.85530000  0.52553000  0.99212000  1.0
  Cu  Cu4  1  0.41776000  0.58223000  0.74999000  1.0
  Cu  Cu5  1  0.58223000  0.41777000  0.25000000  1.0
  Cu  Cu6  1  0.35212000  0.64790000  0.25000000  1.0
  Cu  Cu7  1  0.64787000  0.35210000  0.75001000  1.0
  Cu  Cu8  1  0.00000000  0.00000000  0.50000000  1.0
  Cu  Cu9  1  0.00001000  0.00000000  0.00000000  1.0
  H  H10  1  0.22974000  0.99623000  0.35239000  1.0
  H  H11  1  0.35666000  0.04436000  0.24233000  1.0
  H  H12  1  0.30678000  0.24099000  0.21018000  1.0
  H  H13  1  0.24900000  0.10813000  0.15094000  1.0
  H  H14  1  0.91045000  0.29788000  0.28726000  1.0
  H  H15  1  0.95157000  0.23585000  0.18246000  1.0
  H  H16  1  0.03102000  0.37809000  0.21714000  1.0
  H  H17  1  0.00379000  0.77023000  0.14762000  1.0
  H  H18  1  0.95565000  0.64333000  0.25767000  1.0
  H  H19  1  0.75901000  0.69320000  0.28982000  1.0
  H  H20  1  0.89187000  0.75098000  0.34907000  1.0
  H  H21  1  0.70214000  0.08952000  0.21275000  1.0
  H  H22  1  0.76415000  0.04841000  0.31754000  1.0
  H  H23  1  0.62191000  0.96897000  0.28286000  1.0
  H  H24  1  0.77026000  0.00378000  0.64763000  1.0
  H  H25  1  0.64333000  0.95564000  0.75767000  1.0
  H  H26  1  0.69321000  0.75900000  0.78982000  1.0
  H  H27  1  0.75098000  0.89187000  0.84907000  1.0
  H  H28  1  0.08954000  0.70211000  0.71274000  1.0
  H  H29  1  0.04843000  0.76414000  0.81754000  1.0
  H  H30  1  0.96897000  0.62190000  0.78287000  1.0
  H  H31  1  0.99622000  0.22975000  0.85237000  1.0
  H  H32  1  0.04436000  0.35666000  0.74233000  1.0
  H  H33  1  0.24100000  0.30679000  0.71018000  1.0
  H  H34  1  0.10814000  0.24903000  0.65093000  1.0
  H  H35  1  0.29787000  0.91047000  0.78725000  1.0
  H  H36  1  0.23586000  0.95157000  0.68245000  1.0
  H  H37  1  0.37811000  0.03102000  0.71713000  1.0
  C  C38  1  0.68968000  0.94371000  0.48639000  1.0
  C  C39  1  0.47763000  0.67266000  0.65374000  1.0
  C  C40  1  0.42081000  0.73213000  0.33659000  1.0
  C  C41  1  0.12239000  0.07653000  0.33524000  1.0
  C  C42  1  0.26890000  0.13676000  0.21430000  1.0
  C  C43  1  0.99704000  0.27499000  0.23647000  1.0
  C  C44  1  0.05627000  0.31034000  0.01361000  1.0
  C  C45  1  0.32733000  0.52236000  0.84625000  1.0
  C  C46  1  0.26788000  0.57920000  0.16340000  1.0
  C  C47  1  0.92349000  0.87758000  0.16476000  1.0
  C  C48  1  0.86325000  0.73107000  0.28570000  1.0
  C  C49  1  0.72501000  0.00295000  0.26353000  1.0
  C  C50  1  0.31033000  0.05628000  0.51361000  1.0
  C  C51  1  0.52237000  0.32734000  0.34625000  1.0
  C  C52  1  0.57917000  0.26788000  0.66341000  1.0
  C  C53  1  0.87760000  0.92348000  0.66476000  1.0
  C  C54  1  0.73109000  0.86324000  0.78570000  1.0
  C  C55  1  0.00295000  0.72500000  0.76353000  1.0
  C  C56  1  0.94371000  0.68968000  0.98639000  1.0
  C  C57  1  0.67265000  0.47766000  0.15375000  1.0
  C  C58  1  0.73211000  0.42081000  0.83660000  1.0
  C  C59  1  0.07653000  0.12241000  0.83523000  1.0
  C  C60  1  0.13677000  0.26892000  0.71430000  1.0
  C  C61  1  0.27501000  0.99704000  0.73646000  1.0
  N  N62  1  0.81180000  0.96321000  0.48403000  1.0
  N  N63  1  0.50476000  0.73615000  0.59198000  1.0
  N  N64  1  0.46324000  0.78199000  0.39375000  1.0
  N  N65  1  0.12922000  0.15978000  0.26561000  1.0
  N  N66  1  0.03678000  0.18822000  0.01598000  1.0
  N  N67  1  0.26385000  0.49522000  0.90802000  1.0
  N  N68  1  0.21801000  0.53678000  0.10624000  1.0
  N  N69  1  0.84023000  0.87076000  0.23439000  1.0
  N  N70  1  0.18821000  0.03678000  0.51598000  1.0
  N  N71  1  0.49524000  0.26384000  0.40802000  1.0
  N  N72  1  0.53675000  0.21801000  0.60625000  1.0
  N  N73  1  0.87077000  0.84022000  0.73440000  1.0
  N  N74  1  0.96324000  0.81181000  0.98402000  1.0
  N  N75  1  0.73614000  0.50481000  0.09198000  1.0
  N  N76  1  0.78197000  0.46325000  0.89376000  1.0
  N  N77  1  0.15978000  0.12923000  0.76560000  1.0
  O  O78  1  0.00129000  0.08724000  0.37929000  1.0
  O  O79  1  0.91279000  0.99868000  0.12072000  1.0
  O  O80  1  0.99871000  0.91277000  0.62072000  1.0
  O  O81  1  0.08723000  0.00131000  0.87928000  1.0
