# generated using pymatgen
data_H10PbC14N8O
_symmetry_space_group_name_H-M   'P 1'
_cell_length_a   8.28067000
_cell_length_b   9.57700000
_cell_length_c   10.65040000
_cell_angle_alpha   73.23470000
_cell_angle_beta   77.19410000
_cell_angle_gamma   81.93310000
_symmetry_Int_Tables_number   1
_chemical_formula_structural   H10PbC14N8O
_chemical_formula_sum   'H20 Pb2 C28 N16 O2'
_cell_volume   785.95825372
_cell_formula_units_Z   2
loop_
 _symmetry_equiv_pos_site_id
 _symmetry_equiv_pos_as_xyz
  1  'x, y, z'
loop_
 _atom_site_type_symbol
 _atom_site_label
 _atom_site_symmetry_multiplicity
 _atom_site_fract_x
 _atom_site_fract_y
 _atom_site_fract_z
 _atom_site_occupancy
  H  H0  1  0.02012000  0.41319000  0.14639000  1.0
  H  H1  1  0.97988000  0.58682000  0.85361000  1.0
  H  H2  1  0.84038000  0.45894000  0.11681000  1.0
  H  H3  1  0.15962000  0.54106000  0.88319000  1.0
  H  H4  1  0.72287000  0.04439000  0.20161000  1.0
  H  H5  1  0.27714000  0.95561000  0.79838000  1.0
  H  H6  1  0.60157000  0.14173000  0.39946000  1.0
  H  H7  1  0.39843000  0.85827000  0.60053000  1.0
  H  H8  1  0.70059000  0.01783000  0.61718000  1.0
  H  H9  1  0.29941000  0.98217000  0.38282000  1.0
  H  H10  1  0.91599000  0.81121000  0.62290000  1.0
  H  H11  1  0.08401000  0.18879000  0.37709000  1.0
  H  H12  1  0.10653000  0.65868000  0.61484000  1.0
  H  H13  1  0.89346000  0.34132000  0.38516000  1.0
  H  H14  1  0.32485000  0.46004000  0.59967000  1.0
  H  H15  1  0.67514000  0.53996000  0.40033000  1.0
  H  H16  1  0.41645000  0.38952000  0.38068000  1.0
  H  H17  1  0.58356000  0.61049000  0.61932000  1.0
  H  H18  1  0.27036000  0.52148000  0.19219000  1.0
  H  H19  1  0.72964000  0.47853000  0.80780000  1.0
  Pb  Pb20  1  0.95590000  0.76074000  0.09529000  1.0
  Pb  Pb21  1  0.04410000  0.23926000  0.90471000  1.0
  C  C22  1  0.76355000  0.99669000  0.29670000  1.0
  C  C23  1  0.23646000  0.00331000  0.70329000  1.0
  C  C24  1  0.69643000  0.05017000  0.40754000  1.0
  C  C25  1  0.30357000  0.94984000  0.59246000  1.0
  C  C26  1  0.75119000  0.98171000  0.52693000  1.0
  C  C27  1  0.24881000  0.01829000  0.47307000  1.0
  C  C28  1  0.87278000  0.86517000  0.53003000  1.0
  C  C29  1  0.12722000  0.13482000  0.46997000  1.0
  C  C30  1  0.93646000  0.81857000  0.41403000  1.0
  C  C31  1  0.06355000  0.18143000  0.58597000  1.0
  C  C32  1  0.06878000  0.69698000  0.41101000  1.0
  C  C33  1  0.93121000  0.30301000  0.58900000  1.0
  C  C34  1  0.14452000  0.62861000  0.52101000  1.0
  C  C35  1  0.85548000  0.37138000  0.47898000  1.0
  C  C36  1  0.26938000  0.51609000  0.51260000  1.0
  C  C37  1  0.73061000  0.48391000  0.48740000  1.0
  C  C38  1  0.31830000  0.47566000  0.39325000  1.0
  C  C39  1  0.68169000  0.52435000  0.60675000  1.0
  C  C40  1  0.23725000  0.54798000  0.28807000  1.0
  C  C41  1  0.76275000  0.45202000  0.71193000  1.0
  C  C42  1  0.68063000  0.73053000  0.86292000  1.0
  C  C43  1  0.31938000  0.26947000  0.13708000  1.0
  C  C44  1  0.40404000  0.67716000  0.90879000  1.0
  C  C45  1  0.59596000  0.32283000  0.09121000  1.0
  C  C46  1  0.52424000  0.80810000  0.18542000  1.0
  C  C47  1  0.47576000  0.19190000  0.81459000  1.0
  C  C48  1  0.29753000  0.93022000  0.09656000  1.0
  C  C49  1  0.70247000  0.06977000  0.90345000  1.0
  N  N50  1  0.11527000  0.65465000  0.29672000  1.0
  N  N51  1  0.88472000  0.34535000  0.70327000  1.0
  N  N52  1  0.87971000  0.88379000  0.29974000  1.0
  N  N53  1  0.12029000  0.11621000  0.70026000  1.0
  N  N54  1  0.64152000  0.72375000  0.20193000  1.0
  N  N55  1  0.35849000  0.27624000  0.79808000  1.0
  N  N56  1  0.39646000  0.90263000  0.18014000  1.0
  N  N57  1  0.60354000  0.09736000  0.81988000  1.0
  N  N58  1  0.19826000  0.96339000  0.02597000  1.0
  N  N59  1  0.80174000  0.03661000  0.97405000  1.0
  N  N60  1  0.82130000  0.72918000  0.87067000  1.0
  N  N61  1  0.17869000  0.27083000  0.12933000  1.0
  N  N62  1  0.53286000  0.74327000  0.83853000  1.0
  N  N63  1  0.46714000  0.25673000  0.16146000  1.0
  N  N64  1  0.27591000  0.62621000  0.96190000  1.0
  N  N65  1  0.72410000  0.37378000  0.03809000  1.0
  O  O66  1  0.92090000  0.48200000  0.16319000  1.0
  O  O67  1  0.07909000  0.51800000  0.83681000  1.0
