# generated using pymatgen
data_ZnH18C28(NO)4
_symmetry_space_group_name_H-M   'P 1'
_cell_length_a   14.44350000
_cell_length_b   15.66940000
_cell_length_c   15.66910000
_cell_angle_alpha   80.59980000
_cell_angle_beta   82.57550000
_cell_angle_gamma   82.57730000
_symmetry_Int_Tables_number   1
_chemical_formula_structural   ZnH18C28(NO)4
_chemical_formula_sum   'Zn2 H36 C56 N8 O8'
_cell_volume   3448.05511846
_cell_formula_units_Z   2
loop_
 _symmetry_equiv_pos_site_id
 _symmetry_equiv_pos_as_xyz
  1  'x, y, z'
loop_
 _atom_site_type_symbol
 _atom_site_label
 _atom_site_symmetry_multiplicity
 _atom_site_fract_x
 _atom_site_fract_y
 _atom_site_fract_z
 _atom_site_occupancy
  Zn  Zn0  1  0.58485000  0.52858000  0.51370000  1.0
  Zn  Zn1  1  0.41515000  0.48630000  0.47142000  1.0
  H  H2  1  0.66752000  0.94128000  0.67180000  1.0
  H  H3  1  0.26538000  0.06822000  0.42946000  1.0
  H  H4  1  0.33248000  0.32820000  0.05873000  1.0
  H  H5  1  0.73462000  0.57057000  0.93176000  1.0
  H  H6  1  0.51071000  0.78182000  0.54553000  1.0
  H  H7  1  0.46647000  0.22760000  0.49420000  1.0
  H  H8  1  0.48932000  0.45445000  0.21818000  1.0
  H  H9  1  0.53352000  0.50582000  0.77239000  1.0
  H  H10  1  0.71931000  0.08647000  0.67180000  1.0
  H  H11  1  0.22955000  0.92467000  0.40734000  1.0
  H  H12  1  0.28070000  0.32820000  0.91354000  1.0
  H  H13  1  0.77046000  0.59268000  0.07531000  1.0
  H  H14  1  0.56683000  0.85099000  0.62036000  1.0
  H  H15  1  0.36802000  0.15831000  0.47817000  1.0
  H  H16  1  0.43317000  0.37965000  0.14901000  1.0
  H  H17  1  0.63197000  0.52185000  0.84168000  1.0
  H  H18  1  0.04093000  0.28891000  0.40407000  1.0
  H  H19  1  0.95907000  0.59595000  0.71109000  1.0
  H  H20  1  0.77840000  0.46182000  0.47881000  1.0
  H  H21  1  0.22160000  0.52121000  0.53815000  1.0
  H  H22  1  0.64147000  0.63546000  0.63719000  1.0
  H  H23  1  0.35853000  0.36281000  0.36453000  1.0
  H  H24  1  0.21111000  0.29786000  0.35398000  1.0
  H  H25  1  0.78889000  0.64603000  0.70213000  1.0
  H  H26  1  0.88495000  0.28461000  0.45009000  1.0
  H  H27  1  0.82397000  0.33552000  0.53025000  1.0
  H  H28  1  0.11506000  0.54993000  0.71538000  1.0
  H  H29  1  0.17604000  0.46978000  0.66446000  1.0
  H  H30  1  0.27792000  0.68933000  0.41608000  1.0
  H  H31  1  0.21147000  0.78301000  0.37103000  1.0
  H  H32  1  0.69050000  0.32220000  0.62795000  1.0
  H  H33  1  0.74739000  0.23239000  0.68618000  1.0
  H  H34  1  0.72208000  0.58391000  0.31067000  1.0
  H  H35  1  0.78853000  0.62898000  0.21699000  1.0
  H  H36  1  0.30948000  0.37206000  0.67781000  1.0
  H  H37  1  0.25260000  0.31382000  0.76762000  1.0
  C  C38  1  0.56813000  0.51668000  0.32934000  1.0
  C  C39  1  0.43601000  0.47547000  0.65851000  1.0
  C  C40  1  0.43188000  0.67066000  0.48331000  1.0
  C  C41  1  0.56397000  0.34148000  0.52455000  1.0
  C  C42  1  0.61275000  0.97184000  0.63116000  1.0
  C  C43  1  0.32663000  0.03754000  0.46161000  1.0
  C  C44  1  0.38726000  0.36884000  0.02816000  1.0
  C  C45  1  0.67336000  0.53842000  0.96244000  1.0
  C  C46  1  0.21084000  0.34633000  0.39671000  1.0
  C  C47  1  0.78915000  0.60330000  0.65367000  1.0
  C  C48  1  0.29175000  0.38193000  0.40122000  1.0
  C  C49  1  0.70824000  0.59877000  0.61807000  1.0
  C  C50  1  0.21521000  0.46962000  0.50119000  1.0
  C  C51  1  0.78479000  0.49880000  0.53041000  1.0
  C  C52  1  0.12930000  0.43499000  0.50459000  1.0
  C  C53  1  0.87069000  0.49541000  0.56504000  1.0
  C  C54  1  0.12622000  0.37351000  0.44675000  1.0
  C  C55  1  0.87378000  0.55325000  0.62651000  1.0
  C  C56  1  0.04366000  0.46448000  0.55542000  1.0
  C  C57  1  0.95634000  0.44458000  0.53553000  1.0
  C  C58  1  0.95709000  0.37358000  0.48569000  1.0
  C  C59  1  0.04291000  0.51432000  0.62642000  1.0
  C  C60  1  0.04104000  0.34105000  0.44252000  1.0
  C  C61  1  0.95896000  0.55749000  0.65894000  1.0
  C  C62  1  0.58192000  0.24624000  0.55536000  1.0
  C  C63  1  0.39454000  0.76374000  0.48414000  1.0
  C  C64  1  0.41807000  0.44466000  0.75376000  1.0
  C  C65  1  0.60548000  0.51586000  0.23626000  1.0
  C  C66  1  0.66332000  0.11741000  0.63259000  1.0
  C  C67  1  0.29037000  0.89300000  0.43964000  1.0
  C  C68  1  0.33668000  0.36742000  0.88260000  1.0
  C  C69  1  0.70965000  0.56036000  0.10700000  1.0
  C  C70  1  0.65506000  0.20750000  0.60772000  1.0
  C  C71  1  0.31102000  0.80263000  0.44608000  1.0
  C  C72  1  0.34494000  0.39228000  0.79251000  1.0
  C  C73  1  0.68899000  0.55392000  0.19736000  1.0
  C  C74  1  0.52070000  0.19396000  0.53345000  1.0
  C  C75  1  0.44744000  0.81494000  0.51884000  1.0
  C  C76  1  0.47929000  0.46657000  0.80603000  1.0
  C  C77  1  0.55257000  0.48116000  0.18506000  1.0
  C  C78  1  0.52756000  0.10348000  0.55819000  1.0
  C  C79  1  0.42516000  0.90518000  0.51632000  1.0
  C  C80  1  0.47243000  0.44182000  0.89652000  1.0
  C  C81  1  0.57486000  0.48369000  0.09481000  1.0
  C  C82  1  0.60239000  0.06433000  0.60822000  1.0
  C  C83  1  0.34583000  0.94492000  0.47230000  1.0
  C  C84  1  0.39761000  0.39179000  0.93567000  1.0
  C  C85  1  0.65417000  0.52773000  0.05507000  1.0
  C  C86  1  0.46452000  0.05023000  0.53253000  1.0
  C  C87  1  0.48201000  0.95844000  0.55045000  1.0
  C  C88  1  0.53548000  0.46748000  0.94976000  1.0
  C  C89  1  0.51801000  0.44956000  0.04155000  1.0
  C  C90  1  0.55606000  0.92147000  0.60218000  1.0
  C  C91  1  0.38447000  0.08776000  0.48898000  1.0
  C  C92  1  0.44396000  0.39782000  0.07853000  1.0
  C  C93  1  0.61552000  0.51104000  0.91223000  1.0
  N  N94  1  0.29304000  0.44463000  0.45152000  1.0
  N  N95  1  0.70696000  0.54845000  0.55538000  1.0
  N  N96  1  0.87638000  0.33835000  0.47989000  1.0
  N  N97  1  0.12362000  0.52014000  0.66164000  1.0
  N  N98  1  0.25390000  0.75330000  0.41611000  1.0
  N  N99  1  0.71766000  0.25822000  0.63105000  1.0
  N  N100  1  0.74612000  0.58388000  0.24670000  1.0
  N  N101  1  0.28233000  0.36895000  0.74179000  1.0
  O  O102  1  0.62541000  0.52294000  0.38384000  1.0
  O  O103  1  0.38428000  0.45306000  0.60695000  1.0
  O  O104  1  0.37460000  0.61616000  0.47705000  1.0
  O  O105  1  0.61570000  0.39305000  0.54696000  1.0
  O  O106  1  0.48045000  0.51199000  0.34874000  1.0
  O  O107  1  0.50335000  0.52163000  0.63311000  1.0
  O  O108  1  0.51958000  0.65126000  0.48798000  1.0
  O  O109  1  0.49662000  0.36687000  0.47841000  1.0
