# generated using pymatgen
data_Ag2HC5O4
_symmetry_space_group_name_H-M   'P 1'
_cell_length_a   6.38481000
_cell_length_b   11.83270000
_cell_length_c   14.57230000
_cell_angle_alpha   89.99960000
_cell_angle_beta   89.99900000
_cell_angle_gamma   89.99980000
_symmetry_Int_Tables_number   1
_chemical_formula_structural   Ag2HC5O4
_chemical_formula_sum   'Ag16 H8 C40 O32'
_cell_volume   1100.93058030
_cell_formula_units_Z   8
loop_
 _symmetry_equiv_pos_site_id
 _symmetry_equiv_pos_as_xyz
  1  'x, y, z'
loop_
 _atom_site_type_symbol
 _atom_site_label
 _atom_site_symmetry_multiplicity
 _atom_site_fract_x
 _atom_site_fract_y
 _atom_site_fract_z
 _atom_site_occupancy
  Ag  Ag0  1  0.11437000  0.94739000  0.53144000  1.0
  Ag  Ag1  1  0.88563000  0.44740000  0.46856000  1.0
  Ag  Ag2  1  0.61435000  0.44739000  0.96855000  1.0
  Ag  Ag3  1  0.38564000  0.94739000  0.03145000  1.0
  Ag  Ag4  1  0.41347000  0.65496000  0.50205000  1.0
  Ag  Ag5  1  0.58654000  0.15496000  0.49796000  1.0
  Ag  Ag6  1  0.91346000  0.15495000  0.99795000  1.0
  Ag  Ag7  1  0.08654000  0.65495000  0.00205000  1.0
  Ag  Ag8  1  0.46739000  0.47777000  0.34668000  1.0
  Ag  Ag9  1  0.53261000  0.97778000  0.65332000  1.0
  Ag  Ag10  1  0.96739000  0.97778000  0.15332000  1.0
  Ag  Ag11  1  0.03261000  0.47778000  0.84668000  1.0
  Ag  Ag12  1  0.49669000  0.55001000  0.16193000  1.0
  Ag  Ag13  1  0.50330000  0.05002000  0.83807000  1.0
  Ag  Ag14  1  0.99669000  0.05002000  0.33807000  1.0
  Ag  Ag15  1  0.00331000  0.55002000  0.66193000  1.0
  H  H16  1  0.55475000  0.80338000  0.14022000  1.0
  H  H17  1  0.44526000  0.30338000  0.85978000  1.0
  H  H18  1  0.05473000  0.30338000  0.35977000  1.0
  H  H19  1  0.94525000  0.80339000  0.64023000  1.0
  H  H20  1  0.88710000  0.69423000  0.14315000  1.0
  H  H21  1  0.11291000  0.19423000  0.85686000  1.0
  H  H22  1  0.38709000  0.19424000  0.35685000  1.0
  H  H23  1  0.61290000  0.69425000  0.64314000  1.0
  C  C24  1  0.56060000  0.84114000  0.28440000  1.0
  C  C25  1  0.43940000  0.34113000  0.71560000  1.0
  C  C26  1  0.06058000  0.34112000  0.21560000  1.0
  C  C27  1  0.93940000  0.84113000  0.78440000  1.0
  C  C28  1  0.63965000  0.79203000  0.20420000  1.0
  C  C29  1  0.36036000  0.29202000  0.79580000  1.0
  C  C30  1  0.13964000  0.29203000  0.29579000  1.0
  C  C31  1  0.86035000  0.79204000  0.70420000  1.0
  C  C32  1  0.82173000  0.72819000  0.20627000  1.0
  C  C33  1  0.17830000  0.22819000  0.79373000  1.0
  C  C34  1  0.32172000  0.22818000  0.29372000  1.0
  C  C35  1  0.67828000  0.72819000  0.70627000  1.0
  C  C36  1  0.92207000  0.70379000  0.28935000  1.0
  C  C37  1  0.07793000  0.20378000  0.71066000  1.0
  C  C38  1  0.42206000  0.20378000  0.21065000  1.0
  C  C39  1  0.57794000  0.70379000  0.78934000  1.0
  C  C40  1  0.83687000  0.74591000  0.37148000  1.0
  C  C41  1  0.16315000  0.24589000  0.62853000  1.0
  C  C42  1  0.33685000  0.24589000  0.12852000  1.0
  C  C43  1  0.66314000  0.74590000  0.87147000  1.0
  C  C44  1  0.66425000  0.82058000  0.36812000  1.0
  C  C45  1  0.33575000  0.32057000  0.63188000  1.0
  C  C46  1  0.16422000  0.32056000  0.13187000  1.0
  C  C47  1  0.83577000  0.82057000  0.86812000  1.0
  C  C48  1  0.11941000  0.63517000  0.28448000  1.0
  C  C49  1  0.88060000  0.13517000  0.71553000  1.0
  C  C50  1  0.61941000  0.13517000  0.21552000  1.0
  C  C51  1  0.38059000  0.63517000  0.78448000  1.0
  C  C52  1  0.92053000  0.71064000  0.46404000  1.0
  C  C53  1  0.07949000  0.21064000  0.53596000  1.0
  C  C54  1  0.42053000  0.21063000  0.03596000  1.0
  C  C55  1  0.57948000  0.71063000  0.96404000  1.0
  C  C56  1  0.61449000  0.88652000  0.45382000  1.0
  C  C57  1  0.38551000  0.38652000  0.54618000  1.0
  C  C58  1  0.11449000  0.38652000  0.04617000  1.0
  C  C59  1  0.88550000  0.88651000  0.95383000  1.0
  C  C60  1  0.36238000  0.90873000  0.27750000  1.0
  C  C61  1  0.63762000  0.40873000  0.72250000  1.0
  C  C62  1  0.86238000  0.40873000  0.22249000  1.0
  C  C63  1  0.13761000  0.90873000  0.77751000  1.0
  O  O64  1  0.21038000  0.63467000  0.20722000  1.0
  O  O65  1  0.78963000  0.13467000  0.79278000  1.0
  O  O66  1  0.71038000  0.13467000  0.29278000  1.0
  O  O67  1  0.28962000  0.63467000  0.70722000  1.0
  O  O68  1  0.17937000  0.58338000  0.35704000  1.0
  O  O69  1  0.82063000  0.08338000  0.64296000  1.0
  O  O70  1  0.67935000  0.08337000  0.14295000  1.0
  O  O71  1  0.32065000  0.58338000  0.85705000  1.0
  O  O72  1  0.07153000  0.76279000  0.50101000  1.0
  O  O73  1  0.92851000  0.26278000  0.49899000  1.0
  O  O74  1  0.57152000  0.26279000  0.99899000  1.0
  O  O75  1  0.42850000  0.76278000  0.00101000  1.0
  O  O76  1  0.82455000  0.62852000  0.50308000  1.0
  O  O77  1  0.17546000  0.12852000  0.49692000  1.0
  O  O78  1  0.32455000  0.12852000  0.99690000  1.0
  O  O79  1  0.67547000  0.62851000  0.00309000  1.0
  O  O80  1  0.50871000  0.84193000  0.51853000  1.0
  O  O81  1  0.49129000  0.34192000  0.48147000  1.0
  O  O82  1  0.00873000  0.34191000  0.98146000  1.0
  O  O83  1  0.99127000  0.84192000  0.01853000  1.0
  O  O84  1  0.70186000  0.98291000  0.45880000  1.0
  O  O85  1  0.29813000  0.48290000  0.54121000  1.0
  O  O86  1  0.20187000  0.48288000  0.04120000  1.0
  O  O87  1  0.79812000  0.98289000  0.95880000  1.0
  O  O88  1  0.28532000  0.94862000  0.35111000  1.0
  O  O89  1  0.71467000  0.44861000  0.64889000  1.0
  O  O90  1  0.78530000  0.44859000  0.14888000  1.0
  O  O91  1  0.21467000  0.94861000  0.85111000  1.0
  O  O92  1  0.28220000  0.91907000  0.19759000  1.0
  O  O93  1  0.71780000  0.41907000  0.80241000  1.0
  O  O94  1  0.78221000  0.41907000  0.30241000  1.0
  O  O95  1  0.21779000  0.91907000  0.69759000  1.0
