# generated using pymatgen
data_CdH18C23(NO2)2
_symmetry_space_group_name_H-M   'P 1'
_cell_length_a   8.69853000
_cell_length_b   10.91380000
_cell_length_c   22.82820000
_cell_angle_alpha   89.19330000
_cell_angle_beta   89.99960000
_cell_angle_gamma   89.99910000
_symmetry_Int_Tables_number   1
_chemical_formula_structural   CdH18C23(NO2)2
_chemical_formula_sum   'Cd4 H72 C92 N8 O16'
_cell_volume   2166.95791958
_cell_formula_units_Z   4
loop_
 _symmetry_equiv_pos_site_id
 _symmetry_equiv_pos_as_xyz
  1  'x, y, z'
loop_
 _atom_site_type_symbol
 _atom_site_label
 _atom_site_symmetry_multiplicity
 _atom_site_fract_x
 _atom_site_fract_y
 _atom_site_fract_z
 _atom_site_occupancy
  Cd  Cd0  1  0.57688000  0.64755000  0.01959000  1.0
  Cd  Cd1  1  0.07686000  0.85245000  0.48041000  1.0
  Cd  Cd2  1  0.42315000  0.35245000  0.98042000  1.0
  Cd  Cd3  1  0.92310000  0.14756000  0.51959000  1.0
  H  H4  1  0.69172000  0.76930000  0.14641000  1.0
  H  H5  1  0.19170000  0.73068000  0.35358000  1.0
  H  H6  1  0.30827000  0.23070000  0.85359000  1.0
  H  H7  1  0.80828000  0.26932000  0.64641000  1.0
  H  H8  1  0.64793000  0.95777000  0.20524000  1.0
  H  H9  1  0.14790000  0.54221000  0.29475000  1.0
  H  H10  1  0.35207000  0.04224000  0.79475000  1.0
  H  H11  1  0.85208000  0.45779000  0.70524000  1.0
  H  H12  1  0.45728000  0.11573000  0.16812000  1.0
  H  H13  1  0.95726000  0.38426000  0.33188000  1.0
  H  H14  1  0.54270000  0.88428000  0.83188000  1.0
  H  H15  1  0.04273000  0.61574000  0.66811000  1.0
  H  H16  1  0.27137000  0.18174000  0.09095000  1.0
  H  H17  1  0.77135000  0.31824000  0.40906000  1.0
  H  H18  1  0.72861000  0.81823000  0.90904000  1.0
  H  H19  1  0.22864000  0.68175000  0.59094000  1.0
  H  H20  1  0.13027000  0.13714000  0.99975000  1.0
  H  H21  1  0.63027000  0.36288000  0.50026000  1.0
  H  H22  1  0.86973000  0.86283000  0.00024000  1.0
  H  H23  1  0.36974000  0.63714000  0.49974000  1.0
  H  H24  1  0.07401000  0.99318000  0.91764000  1.0
  H  H25  1  0.57401000  0.50685000  0.58237000  1.0
  H  H26  1  0.92603000  0.00679000  0.08235000  1.0
  H  H27  1  0.42599000  0.49316000  0.41763000  1.0
  H  H28  1  0.13094000  0.79482000  0.86761000  1.0
  H  H29  1  0.63094000  0.70522000  0.63240000  1.0
  H  H30  1  0.86911000  0.20516000  0.13238000  1.0
  H  H31  1  0.36904000  0.29480000  0.36760000  1.0
  H  H32  1  0.33676000  0.65751000  0.90906000  1.0
  H  H33  1  0.83676000  0.84251000  0.59093000  1.0
  H  H34  1  0.66327000  0.34248000  0.09094000  1.0
  H  H35  1  0.16321000  0.15751000  0.40907000  1.0
  H  H36  1  0.83522000  0.13290000  0.89552000  1.0
  H  H37  1  0.33521000  0.36710000  0.60448000  1.0
  H  H38  1  0.16477000  0.86710000  0.10447000  1.0
  H  H39  1  0.66479000  0.63290000  0.39553000  1.0
  H  H40  1  0.90713000  0.97550000  0.82315000  1.0
  H  H41  1  0.40713000  0.52450000  0.67685000  1.0
  H  H42  1  0.09286000  0.02450000  0.17684000  1.0
  H  H43  1  0.59288000  0.47551000  0.32316000  1.0
  H  H44  1  0.06385000  0.03446000  0.73574000  1.0
  H  H45  1  0.56386000  0.46554000  0.76426000  1.0
  H  H46  1  0.93616000  0.96554000  0.26426000  1.0
  H  H47  1  0.43615000  0.53446000  0.23575000  1.0
  H  H48  1  0.15348000  0.25141000  0.72381000  1.0
  H  H49  1  0.65348000  0.24857000  0.77617000  1.0
  H  H50  1  0.84654000  0.74858000  0.27619000  1.0
  H  H51  1  0.34654000  0.75142000  0.22382000  1.0
  H  H52  1  0.07534000  0.40772000  0.79459000  1.0
  H  H53  1  0.57530000  0.09227000  0.70540000  1.0
  H  H54  1  0.92471000  0.59227000  0.20542000  1.0
  H  H55  1  0.42469000  0.90773000  0.29459000  1.0
  H  H56  1  0.85298000  0.32969000  0.93285000  1.0
  H  H57  1  0.35294000  0.17032000  0.56715000  1.0
  H  H58  1  0.14705000  0.67030000  0.06715000  1.0
  H  H59  1  0.64703000  0.82971000  0.43286000  1.0
  H  H60  1  0.76533000  0.47695000  0.82243000  1.0
  H  H61  1  0.26529000  0.02306000  0.67756000  1.0
  H  H62  1  0.23470000  0.52305000  0.17756000  1.0
  H  H63  1  0.73469000  0.97695000  0.32244000  1.0
  H  H64  1  0.65199000  0.36227000  0.85828000  1.0
  H  H65  1  0.15195000  0.13773000  0.64172000  1.0
  H  H66  1  0.34803000  0.63772000  0.14171000  1.0
  H  H67  1  0.84802000  0.86227000  0.35829000  1.0
  H  H68  1  0.95564000  0.53571000  0.94059000  1.0
  H  H69  1  0.45561000  0.96430000  0.55941000  1.0
  H  H70  1  0.04437000  0.46429000  0.05941000  1.0
  H  H71  1  0.54435000  0.03572000  0.44058000  1.0
  H  H72  1  0.02701000  0.53474000  0.86788000  1.0
  H  H73  1  0.52695000  0.96526000  0.63212000  1.0
  H  H74  1  0.97301000  0.46526000  0.13212000  1.0
  H  H75  1  0.47299000  0.03474000  0.36788000  1.0
  C  C76  1  0.60998000  0.83920000  0.13188000  1.0
  C  C77  1  0.10997000  0.66079000  0.36812000  1.0
  C  C78  1  0.39002000  0.16080000  0.86812000  1.0
  C  C79  1  0.89004000  0.33921000  0.63188000  1.0
  C  C80  1  0.58427000  0.94533000  0.16472000  1.0
  C  C81  1  0.08425000  0.55466000  0.33528000  1.0
  C  C82  1  0.41573000  0.05467000  0.83528000  1.0
  C  C83  1  0.91575000  0.44535000  0.66472000  1.0
  C  C84  1  0.47967000  0.03135000  0.14447000  1.0
  C  C85  1  0.97966000  0.46864000  0.35554000  1.0
  C  C86  1  0.52031000  0.96865000  0.85553000  1.0
  C  C87  1  0.02034000  0.53137000  0.64446000  1.0
  C  C88  1  0.40018000  0.01093000  0.09149000  1.0
  C  C89  1  0.90017000  0.48906000  0.40851000  1.0
  C  C90  1  0.59981000  0.98907000  0.90850000  1.0
  C  C91  1  0.09983000  0.51095000  0.59149000  1.0
  C  C92  1  0.43314000  0.90081000  0.06133000  1.0
  C  C93  1  0.93313000  0.59919000  0.43868000  1.0
  C  C94  1  0.56688000  0.09918000  0.93867000  1.0
  C  C95  1  0.06687000  0.40082000  0.56133000  1.0
  C  C96  1  0.28915000  0.09545000  0.06830000  1.0
  C  C97  1  0.78914000  0.40455000  0.43172000  1.0
  C  C98  1  0.71083000  0.90454000  0.93170000  1.0
  C  C99  1  0.21086000  0.59545000  0.56829000  1.0
  C  C100  1  0.21167000  0.07055000  0.01774000  1.0
  C  C101  1  0.71167000  0.42946000  0.48227000  1.0
  C  C102  1  0.78832000  0.92943000  0.98225000  1.0
  C  C103  1  0.28833000  0.57054000  0.51773000  1.0
  C  C104  1  0.23919000  0.95951000  0.98681000  1.0
  C  C105  1  0.73918000  0.54051000  0.51320000  1.0
  C  C106  1  0.76083000  0.04047000  0.01319000  1.0
  C  C107  1  0.26082000  0.45950000  0.48680000  1.0
  C  C108  1  0.35174000  0.87498000  0.00755000  1.0
  C  C109  1  0.85174000  0.62502000  0.49246000  1.0
  C  C110  1  0.64828000  0.12500000  0.99245000  1.0
  C  C111  1  0.14826000  0.37498000  0.50755000  1.0
  C  C112  1  0.15945000  0.92945000  0.93509000  1.0
  C  C113  1  0.65945000  0.57056000  0.56493000  1.0
  C  C114  1  0.84059000  0.07052000  0.06491000  1.0
  C  C115  1  0.34056000  0.42943000  0.43508000  1.0
  C  C116  1  0.19166000  0.82084000  0.90728000  1.0
  C  C117  1  0.69165000  0.67919000  0.59272000  1.0
  C  C118  1  0.80837000  0.17912000  0.09271000  1.0
  C  C119  1  0.30833000  0.32082000  0.40728000  1.0
  C  C120  1  0.30713000  0.74360000  0.93007000  1.0
  C  C121  1  0.80711000  0.75642000  0.56993000  1.0
  C  C122  1  0.69291000  0.25638000  0.06993000  1.0
  C  C123  1  0.19286000  0.24360000  0.43007000  1.0
  C  C124  1  0.94492000  0.28208000  0.84962000  1.0
  C  C125  1  0.44488000  0.21792000  0.65038000  1.0
  C  C126  1  0.05509000  0.71792000  0.15038000  1.0
  C  C127  1  0.55510000  0.78209000  0.34962000  1.0
  C  C128  1  0.90247000  0.15903000  0.85710000  1.0
  C  C129  1  0.40245000  0.34098000  0.64289000  1.0
  C  C130  1  0.09754000  0.84097000  0.14290000  1.0
  C  C131  1  0.59755000  0.65903000  0.35711000  1.0
  C  C132  1  0.94388000  0.07041000  0.81654000  1.0
  C  C133  1  0.44387000  0.42958000  0.68346000  1.0
  C  C134  1  0.05610000  0.92959000  0.18345000  1.0
  C  C135  1  0.55612000  0.57042000  0.31655000  1.0
  C  C136  1  0.03269000  0.10323000  0.76782000  1.0
  C  C137  1  0.53268000  0.39676000  0.73218000  1.0
  C  C138  1  0.96731000  0.89677000  0.23218000  1.0
  C  C139  1  0.46732000  0.60323000  0.26782000  1.0
  C  C140  1  0.08073000  0.22479000  0.76078000  1.0
  C  C141  1  0.58070000  0.27519000  0.73921000  1.0
  C  C142  1  0.91931000  0.77520000  0.23922000  1.0
  C  C143  1  0.41929000  0.72480000  0.26079000  1.0
  C  C144  1  0.03648000  0.31343000  0.80106000  1.0
  C  C145  1  0.53645000  0.18655000  0.69894000  1.0
  C  C146  1  0.96353000  0.68657000  0.19894000  1.0
  C  C147  1  0.46353000  0.81344000  0.30106000  1.0
  C  C148  1  0.88445000  0.37698000  0.89171000  1.0
  C  C149  1  0.38442000  0.12302000  0.60829000  1.0
  C  C150  1  0.11556000  0.62302000  0.10829000  1.0
  C  C151  1  0.61556000  0.87699000  0.39171000  1.0
  C  C152  1  0.73755000  0.43493000  0.86514000  1.0
  C  C153  1  0.23750000  0.06507000  0.63485000  1.0
  C  C154  1  0.26247000  0.56506000  0.13485000  1.0
  C  C155  1  0.76246000  0.93493000  0.36515000  1.0
  C  C156  1  0.66588000  0.53217000  0.90368000  1.0
  C  C157  1  0.16586000  0.96783000  0.59632000  1.0
  C  C158  1  0.33413000  0.46782000  0.09632000  1.0
  C  C159  1  0.83412000  0.03219000  0.40368000  1.0
  C  C160  1  0.00286000  0.47622000  0.90632000  1.0
  C  C161  1  0.50283000  0.02378000  0.59368000  1.0
  C  C162  1  0.99715000  0.52378000  0.09368000  1.0
  C  C163  1  0.49713000  0.97622000  0.40632000  1.0
  C  C164  1  0.15258000  0.42278000  0.92915000  1.0
  C  C165  1  0.65254000  0.07724000  0.57086000  1.0
  C  C166  1  0.84744000  0.57723000  0.07085000  1.0
  C  C167  1  0.34742000  0.92277000  0.42914000  1.0
  N  N168  1  0.38438000  0.77070000  0.97858000  1.0
  N  N169  1  0.88438000  0.72930000  0.52142000  1.0
  N  N170  1  0.61565000  0.22929000  0.02141000  1.0
  N  N171  1  0.11561000  0.27071000  0.47858000  1.0
  N  N172  1  0.53657000  0.81802000  0.08189000  1.0
  N  N173  1  0.03657000  0.68196000  0.41811000  1.0
  N  N174  1  0.46344000  0.18197000  0.91811000  1.0
  N  N175  1  0.96344000  0.31804000  0.58189000  1.0
  O  O176  1  0.65639000  0.64079000  0.88638000  1.0
  O  O177  1  0.15639000  0.85922000  0.61362000  1.0
  O  O178  1  0.34361000  0.35921000  0.11362000  1.0
  O  O179  1  0.84359000  0.14080000  0.38638000  1.0
  O  O180  1  0.62046000  0.49353000  0.95511000  1.0
  O  O181  1  0.12042000  0.00648000  0.54489000  1.0
  O  O182  1  0.37957000  0.50647000  0.04489000  1.0
  O  O183  1  0.87955000  0.99353000  0.45511000  1.0
  O  O184  1  0.27876000  0.45734000  0.90556000  1.0
  O  O185  1  0.77872000  0.04268000  0.59446000  1.0
  O  O186  1  0.72127000  0.54266000  0.09444000  1.0
  O  O187  1  0.22124000  0.95733000  0.40556000  1.0
  O  O188  1  0.14761000  0.34580000  0.97186000  1.0
  O  O189  1  0.64760000  0.15419000  0.52814000  1.0
  O  O190  1  0.85239000  0.65420000  0.02814000  1.0
  O  O191  1  0.35239000  0.84581000  0.47186000  1.0
