# generated using pymatgen
data_CdH12C12(BrN)2
_symmetry_space_group_name_H-M   'P 1'
_cell_length_a   7.58529000
_cell_length_b   9.61636000
_cell_length_c   10.43530000
_cell_angle_alpha   62.67400000
_cell_angle_beta   79.58430000
_cell_angle_gamma   89.98500000
_symmetry_Int_Tables_number   1
_chemical_formula_structural   CdH12C12(BrN)2
_chemical_formula_sum   'Cd2 H24 C24 Br4 N4'
_cell_volume   662.10894345
_cell_formula_units_Z   2
loop_
 _symmetry_equiv_pos_site_id
 _symmetry_equiv_pos_as_xyz
  1  'x, y, z'
loop_
 _atom_site_type_symbol
 _atom_site_label
 _atom_site_symmetry_multiplicity
 _atom_site_fract_x
 _atom_site_fract_y
 _atom_site_fract_z
 _atom_site_occupancy
  Cd  Cd0  1  0.24992000  0.57560000  0.00036000  1.0
  Cd  Cd1  1  0.75007000  0.42441000  0.99962000  1.0
  H  H2  1  0.94983000  0.52356000  0.28556000  1.0
  H  H3  1  0.55000000  0.80719000  0.71511000  1.0
  H  H4  1  0.05016000  0.47645000  0.71444000  1.0
  H  H5  1  0.45001000  0.19281000  0.28490000  1.0
  H  H6  1  0.83555000  0.54093000  0.55265000  1.0
  H  H7  1  0.66443000  0.09051000  0.44778000  1.0
  H  H8  1  0.16445000  0.45906000  0.44735000  1.0
  H  H9  1  0.33558000  0.90949000  0.55222000  1.0
  H  H10  1  0.66474000  0.59194000  0.44886000  1.0
  H  H11  1  0.83521000  0.03801000  0.55164000  1.0
  H  H12  1  0.33525000  0.40806000  0.55114000  1.0
  H  H13  1  0.16480000  0.96199000  0.44837000  1.0
  H  H14  1  0.73625000  0.71812000  0.51567000  1.0
  H  H15  1  0.76387000  0.23084000  0.48467000  1.0
  H  H16  1  0.26375000  0.28188000  0.48433000  1.0
  H  H17  1  0.23614000  0.76915000  0.51534000  1.0
  H  H18  1  0.92708000  0.95285000  0.32245000  1.0
  H  H19  1  0.57283000  0.27357000  0.67744000  1.0
  H  H20  1  0.07292000  0.04715000  0.67756000  1.0
  H  H21  1  0.42717000  0.72644000  0.32256000  1.0
  H  H22  1  0.15532000  0.07916000  0.09512000  1.0
  H  H23  1  0.34460000  0.17381000  0.90479000  1.0
  H  H24  1  0.84469000  0.92084000  0.90489000  1.0
  H  H25  1  0.65540000  0.82619000  0.09521000  1.0
  C  C26  1  0.99418000  0.64631000  0.24967000  1.0
  C  C27  1  0.50573000  0.89434000  0.75087000  1.0
  C  C28  1  0.00582000  0.35369000  0.75033000  1.0
  C  C29  1  0.49428000  0.10566000  0.24914000  1.0
  C  C30  1  0.92084000  0.72437000  0.32896000  1.0
  C  C31  1  0.57910000  0.05133000  0.67139000  1.0
  C  C32  1  0.07916000  0.27563000  0.67104000  1.0
  C  C33  1  0.42091000  0.94867000  0.32861000  1.0
  C  C34  1  0.78240000  0.64046000  0.46833000  1.0
  C  C35  1  0.71765000  0.10607000  0.53206000  1.0
  C  C36  1  0.21759000  0.35954000  0.53167000  1.0
  C  C37  1  0.28236000  0.89393000  0.46795000  1.0
  C  C38  1  0.98175000  0.88322000  0.26904000  1.0
  C  C39  1  0.51810000  0.15075000  0.73102000  1.0
  C  C40  1  0.01825000  0.11678000  0.73096000  1.0
  C  C41  1  0.48191000  0.84925000  0.26898000  1.0
  C  C42  1  0.11117000  0.95515000  0.13943000  1.0
  C  C43  1  0.38876000  0.09380000  0.86063000  1.0
  C  C44  1  0.88883000  0.04486000  0.86057000  1.0
  C  C45  1  0.61124000  0.90620000  0.13937000  1.0
  C  C46  1  0.18033000  0.86725000  0.06901000  1.0
  C  C47  1  0.31963000  0.93577000  0.93131000  1.0
  C  C48  1  0.81966000  0.13275000  0.93099000  1.0
  C  C49  1  0.68037000  0.06424000  0.06869000  1.0
  Br  Br50  1  0.03095000  0.31020000  0.18022000  1.0
  Br  Br51  1  0.46824000  0.48926000  0.82013000  1.0
  Br  Br52  1  0.96905000  0.68980000  0.81977000  1.0
  Br  Br53  1  0.53175000  0.51073000  0.17987000  1.0
  N  N54  1  0.11965000  0.71473000  0.12557000  1.0
  N  N55  1  0.38029000  0.83935000  0.87497000  1.0
  N  N56  1  0.88034000  0.28528000  0.87443000  1.0
  N  N57  1  0.61971000  0.16065000  0.12504000  1.0
