# generated using pymatgen
data_ZnH8C15S2NO4
_symmetry_space_group_name_H-M   'P 1'
_cell_length_a   9.33180000
_cell_length_b   14.01570000
_cell_length_c   14.10710000
_cell_angle_alpha   101.65300000
_cell_angle_beta   101.29400000
_cell_angle_gamma   101.50600000
_symmetry_Int_Tables_number   1
_chemical_formula_structural   ZnH8C15S2NO4
_chemical_formula_sum   'Zn4 H32 C60 S8 N4 O16'
_cell_volume   1716.31053858
_cell_formula_units_Z   4
loop_
 _symmetry_equiv_pos_site_id
 _symmetry_equiv_pos_as_xyz
  1  'x, y, z'
loop_
 _atom_site_type_symbol
 _atom_site_label
 _atom_site_symmetry_multiplicity
 _atom_site_fract_x
 _atom_site_fract_y
 _atom_site_fract_z
 _atom_site_occupancy
  Zn  Zn0  1  0.09230000  0.17428000  0.72525000  1.0
  Zn  Zn1  1  0.40779000  0.27535000  0.82385000  1.0
  Zn  Zn2  1  0.90769000  0.82572000  0.27475000  1.0
  Zn  Zn3  1  0.59221000  0.72465000  0.17615000  1.0
  H  H4  1  0.93891000  0.10317000  0.50946000  1.0
  H  H5  1  0.56249000  0.49171000  0.89708000  1.0
  H  H6  1  0.06109000  0.89683000  0.49054000  1.0
  H  H7  1  0.43751000  0.50829000  0.10292000  1.0
  H  H8  1  0.68061000  0.03001000  0.40407000  1.0
  H  H9  1  0.82112000  0.59712000  0.97062000  1.0
  H  H10  1  0.31939000  0.96999000  0.59593000  1.0
  H  H11  1  0.17888000  0.40288000  0.02938000  1.0
  H  H12  1  0.53190000  0.02419000  0.67616000  1.0
  H  H13  1  0.96640000  0.32223000  0.97546000  1.0
  H  H14  1  0.46810000  0.97581000  0.32384000  1.0
  H  H15  1  0.03360000  0.67777000  0.02454000  1.0
  H  H16  1  0.79804000  0.09622000  0.76905000  1.0
  H  H17  1  0.70000000  0.22942000  0.90284000  1.0
  H  H18  1  0.20196000  0.90378000  0.23095000  1.0
  H  H19  1  0.30000000  0.77058000  0.09716000  1.0
  H  H20  1  0.91555000  0.47238000  0.72661000  1.0
  H  H21  1  0.58312000  0.27315000  0.52576000  1.0
  H  H22  1  0.08445000  0.52762000  0.27338000  1.0
  H  H23  1  0.41688000  0.72685000  0.47424000  1.0
  H  H24  1  0.96618000  0.66964000  0.74511000  1.0
  H  H25  1  0.53368000  0.25504000  0.33031000  1.0
  H  H26  1  0.03382000  0.33036000  0.25489000  1.0
  H  H27  1  0.46632000  0.74496000  0.66970000  1.0
  H  H28  1  0.54349000  0.00027000  0.92565000  1.0
  H  H29  1  0.95684000  0.07411000  0.00173000  1.0
  H  H30  1  0.45651000  0.99974000  0.07435000  1.0
  H  H31  1  0.04316000  0.92589000  0.99827000  1.0
  H  H32  1  0.47402000  0.81191000  0.94024000  1.0
  H  H33  1  0.02514000  0.05942000  0.18839000  1.0
  H  H34  1  0.52598000  0.18809000  0.05977000  1.0
  H  H35  1  0.97486000  0.94057000  0.81161000  1.0
  C  C36  1  0.84440000  0.08412000  0.54268000  1.0
  C  C37  1  0.65631000  0.45788000  0.91581000  1.0
  C  C38  1  0.15560000  0.91588000  0.45732000  1.0
  C  C39  1  0.34368000  0.54212000  0.08419000  1.0
  C  C40  1  0.69813000  0.04372000  0.48454000  1.0
  C  C41  1  0.80270000  0.51604000  0.95656000  1.0
  C  C42  1  0.30186000  0.95628000  0.51546000  1.0
  C  C43  1  0.19730000  0.48396000  0.04344000  1.0
  C  C44  1  0.57885000  0.02099000  0.52990000  1.0
  C  C45  1  0.92112000  0.46995000  0.97900000  1.0
  C  C46  1  0.42114000  0.97900000  0.47010000  1.0
  C  C47  1  0.07888000  0.53005000  0.02100000  1.0
  C  C48  1  0.61640000  0.03994000  0.63453000  1.0
  C  C49  1  0.88264000  0.36451000  0.95982000  1.0
  C  C50  1  0.38360000  0.96006000  0.36547000  1.0
  C  C51  1  0.11736000  0.63549000  0.04018000  1.0
  C  C52  1  0.76538000  0.08041000  0.68781000  1.0
  C  C53  1  0.73356000  0.31124000  0.91892000  1.0
  C  C54  1  0.23462000  0.91959000  0.31219000  1.0
  C  C55  1  0.26644000  0.68876000  0.08108000  1.0
  C  C56  1  0.18214000  0.39470000  0.77945000  1.0
  C  C57  1  0.31647000  0.22051000  0.60379000  1.0
  C  C58  1  0.81786000  0.60530000  0.22055000  1.0
  C  C59  1  0.68353000  0.77949000  0.39621000  1.0
  C  C60  1  0.15717000  0.49539000  0.78127000  1.0
  C  C61  1  0.34120000  0.21893000  0.50340000  1.0
  C  C62  1  0.84283000  0.50461000  0.21872000  1.0
  C  C63  1  0.65880000  0.78107000  0.49660000  1.0
  C  C64  1  0.02596000  0.52535000  0.75301000  1.0
  C  C65  1  0.47267000  0.24707000  0.47340000  1.0
  C  C66  1  0.97404000  0.47465000  0.24699000  1.0
  C  C67  1  0.52733000  0.75293000  0.52660000  1.0
  C  C68  1  0.05336000  0.63000000  0.76243000  1.0
  C  C69  1  0.44591000  0.23781000  0.36952000  1.0
  C  C70  1  0.94664000  0.37000000  0.23757000  1.0
  C  C71  1  0.55409000  0.76219000  0.63048000  1.0
  C  C72  1  0.20591000  0.67902000  0.79863000  1.0
  C  C73  1  0.29344000  0.20182000  0.32071000  1.0
  C  C74  1  0.79409000  0.32099000  0.20137000  1.0
  C  C75  1  0.70656000  0.79818000  0.67929000  1.0
  C  C76  1  0.27792000  0.78408000  0.81532000  1.0
  C  C77  1  0.22216000  0.18512000  0.21624000  1.0
  C  C78  1  0.72209000  0.21592000  0.18468000  1.0
  C  C79  1  0.77784000  0.81488000  0.78377000  1.0
  C  C80  1  0.34180000  0.96135000  0.80490000  1.0
  C  C81  1  0.15952000  0.19525000  0.03963000  1.0
  C  C82  1  0.65820000  0.03865000  0.19510000  1.0
  C  C83  1  0.84048000  0.80475000  0.96037000  1.0
  C  C84  1  0.44711000  0.94180000  0.87762000  1.0
  C  C85  1  0.05353000  0.12244000  0.05949000  1.0
  C  C86  1  0.55289000  0.05820000  0.12238000  1.0
  C  C87  1  0.94647000  0.87756000  0.94052000  1.0
  C  C88  1  0.41023000  0.84143000  0.88478000  1.0
  C  C89  1  0.08966000  0.11533000  0.15922000  1.0
  C  C90  1  0.58978000  0.15857000  0.11522000  1.0
  C  C91  1  0.91033000  0.88467000  0.84078000  1.0
  C  C92  1  0.32531000  0.05898000  0.78782000  1.0
  C  C93  1  0.17622000  0.21210000  0.94216000  1.0
  C  C94  1  0.67469000  0.94102000  0.21218000  1.0
  C  C95  1  0.82378000  0.78790000  0.05784000  1.0
  S  S96  1  0.31379000  0.59529000  0.81954000  1.0
  S  S97  1  0.18496000  0.18091000  0.40405000  1.0
  S  S98  1  0.68621000  0.40472000  0.18046000  1.0
  S  S99  1  0.81504000  0.81909000  0.59595000  1.0
  S  S100  1  0.20137000  0.85467000  0.74182000  1.0
  S  S101  1  0.29980000  0.25875000  0.14575000  1.0
  S  S102  1  0.79863000  0.14533000  0.25818000  1.0
  S  S103  1  0.70020000  0.74125000  0.85425000  1.0
  N  N104  1  0.87815000  0.10288000  0.64305000  1.0
  N  N105  1  0.62178000  0.35676000  0.89633000  1.0
  N  N106  1  0.12185000  0.89712000  0.35695000  1.0
  N  N107  1  0.37822000  0.64324000  0.10367000  1.0
  O  O108  1  0.06823000  0.32021000  0.75706000  1.0
  O  O109  1  0.43077000  0.24344000  0.67741000  1.0
  O  O110  1  0.93178000  0.67979000  0.24294000  1.0
  O  O111  1  0.56923000  0.75656000  0.32259000  1.0
  O  O112  1  0.17782000  0.19872000  0.60698000  1.0
  O  O113  1  0.32110000  0.39234000  0.80054000  1.0
  O  O114  1  0.82218000  0.80128000  0.39302000  1.0
  O  O115  1  0.67891000  0.60767000  0.19946000  1.0
  O  O116  1  0.20361000  0.05837000  0.72732000  1.0
  O  O117  1  0.29781000  0.27307000  0.94226000  1.0
  O  O118  1  0.79639000  0.94163000  0.27268000  1.0
  O  O119  1  0.70219000  0.72693000  0.05774000  1.0
  O  O120  1  0.43196000  0.13608000  0.83618000  1.0
  O  O121  1  0.06954000  0.16287000  0.86574000  1.0
  O  O122  1  0.56804000  0.86392000  0.16382000  1.0
  O  O123  1  0.93046000  0.83713000  0.13426000  1.0
