# generated using pymatgen
data_CdH48C30(N2O3)3
_symmetry_space_group_name_H-M   'P 1'
_cell_length_a   6.55560000
_cell_length_b   11.69580000
_cell_length_c   12.25750000
_cell_angle_alpha   64.68900000
_cell_angle_beta   79.16400000
_cell_angle_gamma   88.69950000
_symmetry_Int_Tables_number   1
_chemical_formula_structural   CdH48C30(N2O3)3
_chemical_formula_sum   'Cd1 H48 C30 N6 O9'
_cell_volume   832.68545076
_cell_formula_units_Z   1
loop_
 _symmetry_equiv_pos_site_id
 _symmetry_equiv_pos_as_xyz
  1  'x, y, z'
loop_
 _atom_site_type_symbol
 _atom_site_label
 _atom_site_symmetry_multiplicity
 _atom_site_fract_x
 _atom_site_fract_y
 _atom_site_fract_z
 _atom_site_occupancy
  Cd  Cd0  1  0.45752000  0.71183000  0.53942000  1.0
  H  H1  1  0.49673000  0.43103000  0.34617000  1.0
  H  H2  1  0.69409000  0.50297000  0.21504000  1.0
  H  H3  1  0.59766000  0.22906000  0.38078000  1.0
  H  H4  1  0.76617000  0.29458000  0.23701000  1.0
  H  H5  1  0.05625000  0.31670000  0.32592000  1.0
  H  H6  1  0.08253000  0.51840000  0.24919000  1.0
  H  H7  1  0.07108000  0.59457000  0.34838000  1.0
  H  H8  1  0.92346000  0.64690000  0.22937000  1.0
  H  H9  1  0.09765000  0.26289000  0.59118000  1.0
  H  H10  1  0.02974000  0.41768000  0.57151000  1.0
  H  H11  1  0.19520000  0.39643000  0.45045000  1.0
  H  H12  1  0.73117000  0.17583000  0.64603000  1.0
  H  H13  1  0.54296000  0.26019000  0.56061000  1.0
  H  H14  1  0.66043000  0.32391000  0.64447000  1.0
  H  H15  1  0.66979000  0.95754000  0.73960000  1.0
  H  H16  1  0.30449000  0.05152000  0.92362000  1.0
  H  H17  1  0.16078000  0.90536000  0.98220000  1.0
  H  H18  1  0.35672000  0.06234000  0.72230000  1.0
  H  H19  1  0.20200000  0.91965000  0.78253000  1.0
  H  H20  1  0.62338000  0.04612000  0.99782000  1.0
  H  H21  1  0.72406000  0.04185000  0.85531000  1.0
  H  H22  1  0.80907000  0.93522000  0.99075000  1.0
  H  H23  1  0.41451000  0.63343000  0.90802000  1.0
  H  H24  1  0.22939000  0.71599000  0.96495000  1.0
  H  H25  1  0.40181000  0.62074000  0.05887000  1.0
  H  H26  1  0.78949000  0.68893000  0.00742000  1.0
  H  H27  1  0.89031000  0.82957000  0.87334000  1.0
  H  H28  1  0.80073000  0.69836000  0.85722000  1.0
  H  H29  1  0.41272000  0.03374000  0.36970000  1.0
  H  H30  1  0.90570000  0.82735000  0.28888000  1.0
  H  H31  1  0.97417000  0.12981000  0.01963000  1.0
  H  H32  1  0.12407000  0.00940000  0.11068000  1.0
  H  H33  1  0.15335000  0.14179000  0.22899000  1.0
  H  H34  1  0.03062000  0.26277000  0.12274000  1.0
  H  H35  1  0.45135000  0.15886000  0.06984000  1.0
  H  H36  1  0.32387000  0.26024000  0.95176000  1.0
  H  H37  1  0.33003000  0.42746000  0.02387000  1.0
  H  H38  1  0.42356000  0.32363000  0.15526000  1.0
  H  H39  1  0.75448000  0.31120000  0.02992000  1.0
  H  H40  1  0.71104000  0.46927000  0.00630000  1.0
  H  H41  1  0.63207000  0.35483000  0.83312000  1.0
  H  H42  1  0.60806000  0.51591000  0.80569000  1.0
  H  H43  1  0.36049000  0.37578000  0.73317000  1.0
  H  H44  1  0.93150000  0.65890000  0.67325000  1.0
  H  H45  1  0.79604000  0.96424000  0.55268000  1.0
  H  H46  1  0.53681000  0.67997000  0.26349000  1.0
  H  H47  1  0.22195000  0.81539000  0.34705000  1.0
  H  H48  1  0.13301000  0.88069000  0.43435000  1.0
  C  C49  1  0.66498000  0.54570000  0.44941000  1.0
  C  C50  1  0.79236000  0.47089000  0.38669000  1.0
  C  C51  1  0.66397000  0.43252000  0.31158000  1.0
  C  C52  1  0.72614000  0.30047000  0.32510000  1.0
  C  C53  1  0.91076000  0.27166000  0.39189000  1.0
  C  C54  1  0.86575000  0.34097000  0.47785000  1.0
  C  C55  1  0.94829000  0.13172000  0.45165000  1.0
  C  C56  1  0.97914000  0.56317000  0.29895000  1.0
  C  C57  1  0.05869000  0.35542000  0.52503000  1.0
  C  C58  1  0.68852000  0.27092000  0.58841000  1.0
  C  C59  1  0.52967000  0.82783000  0.69400000  1.0
  C  C60  1  0.53001000  0.89227000  0.77863000  1.0
  C  C61  1  0.55133000  0.79874000  0.91212000  1.0
  C  C62  1  0.49303000  0.88647000  0.98038000  1.0
  C  C63  1  0.30835000  0.95727000  0.92477000  1.0
  C  C64  1  0.33662000  0.96442000  0.79402000  1.0
  C  C65  1  0.43796000  0.81453000  0.12065000  1.0
  C  C66  1  0.67422000  0.98262000  0.95447000  1.0
  C  C67  1  0.38940000  0.68607000  0.96454000  1.0
  C  C68  1  0.77035000  0.75104000  0.91360000  1.0
  C  C69  1  0.55425000  0.00825000  0.32549000  1.0
  C  C70  1  0.80272000  0.90137000  0.28774000  1.0
  C  C71  1  0.02205000  0.08532000  0.10923000  1.0
  C  C72  1  0.13134000  0.18371000  0.13317000  1.0
  C  C73  1  0.34175000  0.23424000  0.04673000  1.0
  C  C74  1  0.43075000  0.34814000  0.05719000  1.0
  C  C75  1  0.65684000  0.39029000  0.99045000  1.0
  C  C76  1  0.68918000  0.43065000  0.85210000  1.0
  C  C77  1  0.21917000  0.42387000  0.74129000  1.0
  C  C78  1  0.00627000  0.56981000  0.70803000  1.0
  N  N79  1  0.62321000  0.88877000  0.36591000  1.0
  N  N80  1  0.68078000  0.09265000  0.22719000  1.0
  N  N81  1  0.83853000  0.02337000  0.20474000  1.0
  N  N82  1  0.90790000  0.45878000  0.79207000  1.0
  N  N83  1  0.04145000  0.36391000  0.81481000  1.0
  N  N84  1  0.20548000  0.55039000  0.67431000  1.0
  O  O85  1  0.70382000  0.54799000  0.54574000  1.0
  O  O86  1  0.52141000  0.61263000  0.39704000  1.0
  O  O87  1  0.77396000  0.05845000  0.51233000  1.0
  O  O88  1  0.12115000  0.08824000  0.44243000  1.0
  O  O89  1  0.70537000  0.81311000  0.63585000  1.0
  O  O90  1  0.35721000  0.79018000  0.68336000  1.0
  O  O91  1  0.56995000  0.72855000  0.16695000  1.0
  O  O92  1  0.28924000  0.83912000  0.18494000  1.0
  O  O93  1  0.16599000  0.79907000  0.43368000  1.0
