# generated using pymatgen
data_TbH8C12N2O7
_symmetry_space_group_name_H-M   'P 1'
_cell_length_a   8.61270000
_cell_length_b   11.72830000
_cell_length_c   13.81860000
_cell_angle_alpha   90.00000000
_cell_angle_beta   90.00000000
_cell_angle_gamma   91.21210000
_symmetry_Int_Tables_number   1
_chemical_formula_structural   TbH8C12N2O7
_chemical_formula_sum   'Tb4 H32 C48 N8 O28'
_cell_volume   1395.53663787
_cell_formula_units_Z   4
loop_
 _symmetry_equiv_pos_site_id
 _symmetry_equiv_pos_as_xyz
  1  'x, y, z'
loop_
 _atom_site_type_symbol
 _atom_site_label
 _atom_site_symmetry_multiplicity
 _atom_site_fract_x
 _atom_site_fract_y
 _atom_site_fract_z
 _atom_site_occupancy
  Tb  Tb0  1  0.26809000  0.56577000  0.63900000  1.0
  Tb  Tb1  1  0.73192000  0.93424000  0.13900000  1.0
  Tb  Tb2  1  0.73193000  0.43424000  0.36100000  1.0
  Tb  Tb3  1  0.26808000  0.06577000  0.86100000  1.0
  H  H4  1  0.83681000  0.80148000  0.52756000  1.0
  H  H5  1  0.16314000  0.69850000  0.02755000  1.0
  H  H6  1  0.16318000  0.19850000  0.47245000  1.0
  H  H7  1  0.83682000  0.30150000  0.97245000  1.0
  H  H8  1  0.64284000  0.99758000  0.82212000  1.0
  H  H9  1  0.35716000  0.50242000  0.32210000  1.0
  H  H10  1  0.35716000  0.00243000  0.17789000  1.0
  H  H11  1  0.64283000  0.49757000  0.67788000  1.0
  H  H12  1  0.67389000  0.97252000  0.51061000  1.0
  H  H13  1  0.32609000  0.52748000  0.01059000  1.0
  H  H14  1  0.32610000  0.02747000  0.48940000  1.0
  H  H15  1  0.67389000  0.47254000  0.98939000  1.0
  H  H16  1  0.90131000  0.72751000  0.69054000  1.0
  H  H17  1  0.09867000  0.77248000  0.19053000  1.0
  H  H18  1  0.09871000  0.27250000  0.30948000  1.0
  H  H19  1  0.90129000  0.22750000  0.80948000  1.0
  H  H20  1  0.80343000  0.82576000  0.83783000  1.0
  H  H21  1  0.19656000  0.67423000  0.33782000  1.0
  H  H22  1  0.19655000  0.17424000  0.16218000  1.0
  H  H23  1  0.80345000  0.32577000  0.66218000  1.0
  H  H24  1  0.63150000  0.16747000  0.52069000  1.0
  H  H25  1  0.36852000  0.33253000  0.02068000  1.0
  H  H26  1  0.36848000  0.83253000  0.47931000  1.0
  H  H27  1  0.63151000  0.66747000  0.97930000  1.0
  H  H28  1  0.06287000  0.61408000  0.82144000  1.0
  H  H29  1  0.93715000  0.88592000  0.32143000  1.0
  H  H30  1  0.93715000  0.38592000  0.17856000  1.0
  H  H31  1  0.06287000  0.11409000  0.67855000  1.0
  H  H32  1  0.01006000  0.49905000  0.77226000  1.0
  H  H33  1  0.98995000  0.00094000  0.27224000  1.0
  H  H34  1  0.98996000  0.50094000  0.22775000  1.0
  H  H35  1  0.01005000  0.99907000  0.72773000  1.0
  C  C36  1  0.30456000  0.31137000  0.75265000  1.0
  C  C37  1  0.69544000  0.18863000  0.25264000  1.0
  C  C38  1  0.69543000  0.68863000  0.24736000  1.0
  C  C39  1  0.30455000  0.81137000  0.74735000  1.0
  C  C40  1  0.55350000  0.09845000  0.65715000  1.0
  C  C41  1  0.44650000  0.40154000  0.15714000  1.0
  C  C42  1  0.44650000  0.90155000  0.34285000  1.0
  C  C43  1  0.55349000  0.59845000  0.84285000  1.0
  C  C44  1  0.40306000  0.24207000  0.68758000  1.0
  C  C45  1  0.59694000  0.25792000  0.18757000  1.0
  C  C46  1  0.59693000  0.75792000  0.31243000  1.0
  C  C47  1  0.40305000  0.74208000  0.81243000  1.0
  C  C48  1  0.46927000  0.26320000  0.59706000  1.0
  C  C49  1  0.53074000  0.23680000  0.09705000  1.0
  C  C50  1  0.53071000  0.73681000  0.40294000  1.0
  C  C51  1  0.46927000  0.76320000  0.90294000  1.0
  C  C52  1  0.45727000  0.35179000  0.52113000  1.0
  C  C53  1  0.54274000  0.14822000  0.02111000  1.0
  C  C54  1  0.54272000  0.64822000  0.47889000  1.0
  C  C55  1  0.45727000  0.85179000  0.97888000  1.0
  C  C56  1  0.64578000  0.99612000  0.66555000  1.0
  C  C57  1  0.35422000  0.50388000  0.16553000  1.0
  C  C58  1  0.35422000  0.00389000  0.33446000  1.0
  C  C59  1  0.64577000  0.49612000  0.83445000  1.0
  C  C60  1  0.79418000  0.84499000  0.59177000  1.0
  C  C61  1  0.20579000  0.65500000  0.09176000  1.0
  C  C62  1  0.20582000  0.15501000  0.40824000  1.0
  C  C63  1  0.79417000  0.34500000  0.90824000  1.0
  C  C64  1  0.68250000  0.95326000  0.75754000  1.0
  C  C65  1  0.31750000  0.54673000  0.25753000  1.0
  C  C66  1  0.31751000  0.04674000  0.24246000  1.0
  C  C67  1  0.68250000  0.45327000  0.74246000  1.0
  C  C68  1  0.70303000  0.94123000  0.58261000  1.0
  C  C69  1  0.29695000  0.55877000  0.08260000  1.0
  C  C70  1  0.29696000  0.05877000  0.41739000  1.0
  C  C71  1  0.70303000  0.44124000  0.91739000  1.0
  C  C72  1  0.82954000  0.80241000  0.68349000  1.0
  C  C73  1  0.17043000  0.69758000  0.18348000  1.0
  C  C74  1  0.17046000  0.19760000  0.31652000  1.0
  C  C75  1  0.82954000  0.30241000  0.81652000  1.0
  C  C76  1  0.77349000  0.85688000  0.76607000  1.0
  C  C77  1  0.22650000  0.64311000  0.26606000  1.0
  C  C78  1  0.22650000  0.14313000  0.23394000  1.0
  C  C79  1  0.77350000  0.35688000  0.73394000  1.0
  C  C80  1  0.98462000  0.44344000  0.52806000  1.0
  C  C81  1  0.01542000  0.05658000  0.02806000  1.0
  C  C82  1  0.01543000  0.55657000  0.47195000  1.0
  C  C83  1  0.98459000  0.94344000  0.97195000  1.0
  N  N84  1  0.56290000  0.17168000  0.58063000  1.0
  N  N85  1  0.43712000  0.32832000  0.08062000  1.0
  N  N86  1  0.43709000  0.82832000  0.41937000  1.0
  N  N87  1  0.56290000  0.67168000  0.91936000  1.0
  N  N88  1  0.45300000  0.13893000  0.72241000  1.0
  N  N89  1  0.54700000  0.36107000  0.22240000  1.0
  N  N90  1  0.54700000  0.86107000  0.27759000  1.0
  N  N91  1  0.45298000  0.63893000  0.77759000  1.0
  O  O92  1  0.23197000  0.25790000  0.81917000  1.0
  O  O93  1  0.76803000  0.24210000  0.31917000  1.0
  O  O94  1  0.76802000  0.74209000  0.18083000  1.0
  O  O95  1  0.23197000  0.75791000  0.68083000  1.0
  O  O96  1  0.30422000  0.41870000  0.74269000  1.0
  O  O97  1  0.69579000  0.08131000  0.24269000  1.0
  O  O98  1  0.69576000  0.58130000  0.25732000  1.0
  O  O99  1  0.30421000  0.91870000  0.75731000  1.0
  O  O100  1  0.36699000  0.43402000  0.53296000  1.0
  O  O101  1  0.63303000  0.06597000  0.03296000  1.0
  O  O102  1  0.63303000  0.56597000  0.46704000  1.0
  O  O103  1  0.36699000  0.93403000  0.96704000  1.0
  O  O104  1  0.54038000  0.33563000  0.44629000  1.0
  O  O105  1  0.45965000  0.16437000  0.94628000  1.0
  O  O106  1  0.45964000  0.66438000  0.55372000  1.0
  O  O107  1  0.54037000  0.83562000  0.05371000  1.0
  O  O108  1  0.06148000  0.42901000  0.60463000  1.0
  O  O109  1  0.93853000  0.07100000  0.10464000  1.0
  O  O110  1  0.93854000  0.57099000  0.39537000  1.0
  O  O111  1  0.06146000  0.92902000  0.89537000  1.0
  O  O112  1  0.05018000  0.57621000  0.75927000  1.0
  O  O113  1  0.94983000  0.92378000  0.25926000  1.0
  O  O114  1  0.94982000  0.42379000  0.24073000  1.0
  O  O115  1  0.05019000  0.07622000  0.74072000  1.0
  O  O116  1  0.88412000  0.37451000  0.49234000  1.0
  O  O117  1  0.11591000  0.12549000  0.99235000  1.0
  O  O118  1  0.11592000  0.62548000  0.50765000  1.0
  O  O119  1  0.88410000  0.87453000  0.00766000  1.0
