# generated using pymatgen
data_CuH14C11Br2N4Cl
_symmetry_space_group_name_H-M   'P 1'
_cell_length_a   3.99683000
_cell_length_b   8.28794000
_cell_length_c   21.27010000
_cell_angle_alpha   89.99980000
_cell_angle_beta   89.99960000
_cell_angle_gamma   91.59140000
_symmetry_Int_Tables_number   1
_chemical_formula_structural   CuH14C11Br2N4Cl
_chemical_formula_sum   'Cu2 H28 C22 Br4 N8 Cl2'
_cell_volume   704.31066479
_cell_formula_units_Z   2
loop_
 _symmetry_equiv_pos_site_id
 _symmetry_equiv_pos_as_xyz
  1  'x, y, z'
loop_
 _atom_site_type_symbol
 _atom_site_label
 _atom_site_symmetry_multiplicity
 _atom_site_fract_x
 _atom_site_fract_y
 _atom_site_fract_z
 _atom_site_occupancy
  Cu  Cu0  1  0.44356000  0.40346000  0.25000000  1.0
  Cu  Cu1  1  0.55644000  0.59654000  0.75000000  1.0
  H  H2  1  0.73040000  0.32865000  0.37751000  1.0
  H  H3  1  0.26962000  0.67135000  0.87751000  1.0
  H  H4  1  0.26962000  0.67135000  0.62250000  1.0
  H  H5  1  0.73038000  0.32865000  0.12249000  1.0
  H  H6  1  0.65235000  0.41310000  0.45344000  1.0
  H  H7  1  0.34766000  0.58690000  0.95344000  1.0
  H  H8  1  0.34765000  0.58691000  0.54656000  1.0
  H  H9  1  0.65234000  0.41309000  0.04656000  1.0
  H  H10  1  0.03869000  0.45357000  0.41507000  1.0
  H  H11  1  0.96132000  0.54642000  0.91507000  1.0
  H  H12  1  0.96132000  0.54643000  0.58493000  1.0
  H  H13  1  0.03867000  0.45358000  0.08493000  1.0
  H  H14  1  0.11331000  0.02407000  0.34659000  1.0
  H  H15  1  0.88669000  0.97593000  0.84659000  1.0
  H  H16  1  0.88669000  0.97593000  0.65341000  1.0
  H  H17  1  0.11330000  0.02406000  0.15341000  1.0
  H  H18  1  0.50621000  0.06899000  0.31162000  1.0
  H  H19  1  0.49380000  0.93102000  0.81162000  1.0
  H  H20  1  0.49380000  0.93101000  0.68838000  1.0
  H  H21  1  0.50619000  0.06898000  0.18838000  1.0
  H  H22  1  0.47034000  0.06095000  0.39473000  1.0
  H  H23  1  0.52967000  0.93905000  0.89473000  1.0
  H  H24  1  0.52967000  0.93905000  0.60527000  1.0
  H  H25  1  0.47032000  0.06095000  0.10527000  1.0
  H  H26  1  0.08011000  0.86733000  0.25000000  1.0
  H  H27  1  0.91989000  0.13266000  0.75000000  1.0
  H  H28  1  0.96885000  0.65453000  0.25000000  1.0
  H  H29  1  0.03115000  0.34547000  0.75000000  1.0
  C  C30  1  0.76881000  0.43541000  0.40730000  1.0
  C  C31  1  0.23121000  0.56460000  0.90730000  1.0
  C  C32  1  0.23121000  0.56460000  0.59270000  1.0
  C  C33  1  0.76878000  0.43541000  0.09270000  1.0
  C  C34  1  0.62622000  0.57846000  0.37627000  1.0
  C  C35  1  0.37380000  0.42154000  0.87627000  1.0
  C  C36  1  0.37379000  0.42155000  0.62373000  1.0
  C  C37  1  0.62620000  0.57846000  0.12373000  1.0
  C  C38  1  0.62604000  0.74038000  0.39706000  1.0
  C  C39  1  0.37397000  0.25962000  0.89706000  1.0
  C  C40  1  0.37397000  0.25963000  0.60294000  1.0
  C  C41  1  0.62602000  0.74038000  0.10294000  1.0
  C  C42  1  0.46090000  0.83104000  0.35225000  1.0
  C  C43  1  0.53912000  0.16895000  0.85225000  1.0
  C  C44  1  0.53910000  0.16896000  0.64775000  1.0
  C  C45  1  0.46087000  0.83105000  0.14775000  1.0
  C  C46  1  0.38286000  0.00457000  0.35087000  1.0
  C  C47  1  0.61714000  0.99543000  0.85087000  1.0
  C  C48  1  0.61714000  0.99543000  0.64912000  1.0
  C  C49  1  0.38285000  0.00457000  0.14913000  1.0
  C  C50  1  0.17587000  0.74485000  0.25000000  1.0
  C  C51  1  0.82413000  0.25515000  0.75000000  1.0
  Br  Br52  1  0.80876000  0.82072000  0.47250000  1.0
  Br  Br53  1  0.19125000  0.17929000  0.97250000  1.0
  Br  Br54  1  0.19124000  0.17929000  0.52750000  1.0
  Br  Br55  1  0.80875000  0.82071000  0.02750000  1.0
  N  N56  1  0.46534000  0.56860000  0.32078000  1.0
  N  N57  1  0.53468000  0.43140000  0.82078000  1.0
  N  N58  1  0.53467000  0.43140000  0.67922000  1.0
  N  N59  1  0.46532000  0.56860000  0.17922000  1.0
  N  N60  1  0.36921000  0.72185000  0.30674000  1.0
  N  N61  1  0.63079000  0.27815000  0.80674000  1.0
  N  N62  1  0.63080000  0.27815000  0.69326000  1.0
  N  N63  1  0.36920000  0.72185000  0.19326000  1.0
  Cl  Cl64  1  0.93373000  0.25545000  0.25000000  1.0
  Cl  Cl65  1  0.06627000  0.74455000  0.75000000  1.0
