# generated using pymatgen
data_Zr3H12C26S5(NO8)2
_symmetry_space_group_name_H-M   'P 1'
_cell_length_a   16.43340000
_cell_length_b   16.46250000
_cell_length_c   16.46247674
_cell_angle_alpha   88.45403738
_cell_angle_beta   60.25374170
_cell_angle_gamma   60.24350000
_symmetry_Int_Tables_number   1
_chemical_formula_structural   Zr3H12C26S5(NO8)2
_chemical_formula_sum   'Zr6 H24 C52 S10 N4 O32'
_cell_volume   3211.76324269
_cell_formula_units_Z   2
loop_
 _symmetry_equiv_pos_site_id
 _symmetry_equiv_pos_as_xyz
  1  'x, y, z'
loop_
 _atom_site_type_symbol
 _atom_site_label
 _atom_site_symmetry_multiplicity
 _atom_site_fract_x
 _atom_site_fract_y
 _atom_site_fract_z
 _atom_site_occupancy
  Zr  Zr0  1  0.51191000  0.09727000  0.59980000  1.0
  Zr  Zr1  1  0.49341000  0.89467000  0.39736000  1.0
  Zr  Zr2  1  0.29251000  0.10207000  0.60527000  1.0
  Zr  Zr3  1  0.71287000  0.88928000  0.39255000  1.0
  Zr  Zr4  1  0.50274000  0.10524000  0.38916000  1.0
  Zr  Zr5  1  0.50271000  0.88632000  0.60821000  1.0
  H  H6  1  0.34368000  0.24514000  0.57743000  1.0
  H  H7  1  0.66169000  0.91694000  0.24947000  1.0
  H  H8  1  0.32888000  0.91432000  0.58846000  1.0
  H  H9  1  0.67653000  0.90605000  0.58015000  1.0
  H  H10  1  0.51882000  0.59244000  0.62125000  1.0
  H  H11  1  0.51354000  0.38663000  0.36146000  1.0
  H  H12  1  0.49256000  0.13247000  0.10767000  1.0
  H  H13  1  0.48726000  0.87296000  0.90157000  1.0
  H  H14  1  0.99275000  0.12797000  0.88892000  1.0
  H  H15  1  0.01311000  0.87597000  0.12268000  1.0
  H  H16  1  0.99263000  0.37137000  0.61783000  1.0
  H  H17  1  0.01264000  0.60569000  0.36634000  1.0
  H  H18  1  0.30452000  0.35232000  0.82859000  1.0
  H  H19  1  0.70109000  0.66533000  0.14267000  1.0
  H  H20  1  0.23731000  0.88470000  0.36892000  1.0
  H  H21  1  0.76749000  0.12630000  0.61025000  1.0
  H  H22  1  0.83958000  0.51378000  0.91949000  1.0
  H  H23  1  0.72140000  0.57197000  0.03020000  1.0
  H  H24  1  0.06032000  0.28307000  0.83347000  1.0
  H  H25  1  0.92172000  0.37671000  0.93295000  1.0
  H  H26  1  0.16601000  0.57547000  0.98042000  1.0
  H  H27  1  0.28432000  0.46484000  0.92164000  1.0
  H  H28  1  0.94538000  0.66179000  0.21085000  1.0
  H  H29  1  0.08395000  0.56225000  0.11740000  1.0
  C  C30  1  0.52052000  0.26010000  0.48504000  1.0
  C  C31  1  0.48515000  0.00903000  0.23431000  1.0
  C  C32  1  0.50115000  0.72381000  0.50315000  1.0
  C  C33  1  0.50444000  0.99134000  0.77059000  1.0
  C  C34  1  0.24937000  0.25695000  0.76613000  1.0
  C  C35  1  0.78038000  0.99569000  0.48855000  1.0
  C  C36  1  0.75619000  0.72830000  0.23771000  1.0
  C  C37  1  0.22463000  0.00642000  0.49919000  1.0
  C  C38  1  0.23256000  0.26537000  0.49308000  1.0
  C  C39  1  0.23271000  0.99809000  0.77693000  1.0
  C  C40  1  0.77274000  0.71764000  0.49638000  1.0
  C  C41  1  0.77310000  0.00097000  0.22897000  1.0
  C  C42  1  0.51663000  0.57341000  0.55995000  1.0
  C  C43  1  0.51709000  0.40499000  0.42207000  1.0
  C  C44  1  0.50899000  0.63108000  0.49799000  1.0
  C  C45  1  0.52242000  0.34832000  0.48514000  1.0
  C  C46  1  0.51566000  0.48665000  0.44880000  1.0
  C  C47  1  0.52028000  0.49076000  0.53211000  1.0
  C  C48  1  0.48905000  0.07185000  0.08924000  1.0
  C  C49  1  0.48952000  0.93418000  0.92065000  1.0
  C  C50  1  0.48359000  0.00880000  0.14590000  1.0
  C  C51  1  0.49706000  0.99625000  0.86311000  1.0
  C  C52  1  0.48599000  0.96189000  0.00326000  1.0
  C  C53  1  0.49061000  0.04518000  0.00748000  1.0
  C  C54  1  0.02842000  0.06749000  0.91562000  1.0
  C  C55  1  0.97790000  0.93718000  0.09649000  1.0
  C  C56  1  0.14360000  0.00028000  0.86805000  1.0
  C  C57  1  0.86270000  0.00337000  0.14275000  1.0
  C  C58  1  0.03842000  0.96065000  0.01416000  1.0
  C  C59  1  0.96803000  0.04505000  0.99901000  1.0
  C  C60  1  0.02776000  0.39763000  0.55667000  1.0
  C  C61  1  0.97705000  0.57887000  0.42673000  1.0
  C  C62  1  0.14294000  0.35142000  0.49049000  1.0
  C  C63  1  0.86189000  0.62638000  0.49396000  1.0
  C  C64  1  0.03749000  0.49532000  0.44898000  1.0
  C  C65  1  0.96718000  0.48002000  0.53326000  1.0
  C  C66  1  0.05073000  0.38960000  0.90484000  1.0
  C  C67  1  0.21364000  0.38640000  0.87534000  1.0
  C  C68  1  0.14757000  0.46680000  0.95438000  1.0
  C  C69  1  0.02734000  0.51274000  0.01396000  1.0
  C  C70  1  0.95499000  0.59000000  0.10463000  1.0
  C  C71  1  0.79202000  0.61878000  0.10844000  1.0
  C  C72  1  0.85813000  0.53973000  0.02807000  1.0
  C  C73  1  0.97839000  0.48038000  0.98194000  1.0
  C  C74  1  0.16906000  0.34437000  0.85062000  1.0
  C  C75  1  0.83660000  0.64386000  0.15019000  1.0
  C  C76  1  0.15340000  0.94435000  0.42725000  1.0
  C  C77  1  0.85141000  0.06789000  0.55068000  1.0
  C  C78  1  0.13628000  0.00966000  0.49446000  1.0
  C  C79  1  0.86860000  0.00054000  0.48544000  1.0
  C  C80  1  0.95492000  0.04819000  0.52908000  1.0
  C  C81  1  0.04988000  0.96596000  0.44697000  1.0
  S  S82  1  0.50720000  0.58508000  0.40536000  1.0
  S  S83  1  0.52668000  0.39320000  0.57656000  1.0
  S  S84  1  0.47948000  0.91736000  0.10082000  1.0
  S  S85  1  0.49898000  0.08877000  0.90913000  1.0
  S  S86  1  0.17905000  0.90993000  0.92483000  1.0
  S  S87  1  0.82737000  0.09488000  0.08719000  1.0
  S  S88  1  0.17818000  0.40710000  0.39908000  1.0
  S  S89  1  0.82653000  0.56939000  0.58409000  1.0
  S  S90  1  0.99483000  0.09824000  0.58106000  1.0
  S  S91  1  0.01004000  0.91385000  0.39701000  1.0
  N  N92  1  0.80546000  0.51885000  0.99202000  1.0
  N  N93  1  0.00551000  0.34788000  0.88687000  1.0
  N  N94  1  0.20037000  0.50285000  0.97502000  1.0
  N  N95  1  0.00029000  0.60866000  0.14583000  1.0
  O  O96  1  0.52271000  0.22240000  0.55355000  1.0
  O  O97  1  0.48282000  0.94061000  0.27211000  1.0
  O  O98  1  0.49380000  0.76400000  0.43729000  1.0
  O  O99  1  0.51141000  0.05739000  0.73059000  1.0
  O  O100  1  0.21247000  0.22158000  0.73382000  1.0
  O  O101  1  0.81142000  0.92688000  0.42357000  1.0
  O  O102  1  0.79307000  0.76065000  0.27304000  1.0
  O  O103  1  0.19367000  0.07134000  0.56800000  1.0
  O  O104  1  0.33465000  0.23330000  0.42469000  1.0
  O  O105  1  0.33479000  0.92775000  0.74246000  1.0
  O  O106  1  0.67068000  0.75205000  0.56670000  1.0
  O  O107  1  0.67101000  0.06944000  0.26105000  1.0
  O  O108  1  0.20005000  0.06626000  0.73883000  1.0
  O  O109  1  0.80536000  0.75589000  0.42836000  1.0
  O  O110  1  0.80513000  0.92948000  0.26375000  1.0
  O  O111  1  0.20047000  0.23077000  0.56470000  1.0
  O  O112  1  0.35501000  0.22006000  0.72558000  1.0
  O  O113  1  0.32600000  0.93686000  0.43416000  1.0
  O  O114  1  0.65057000  0.76869000  0.27465000  1.0
  O  O115  1  0.67896000  0.06062000  0.55813000  1.0
  O  O116  1  0.50467000  0.92188000  0.73716000  1.0
  O  O117  1  0.51457000  0.22944000  0.41883000  1.0
  O  O118  1  0.49095000  0.07532000  0.26502000  1.0
  O  O119  1  0.50093000  0.75724000  0.57259000  1.0
  O  O120  1  0.62715000  0.93077000  0.55700000  1.0
  O  O121  1  0.37819000  0.93753000  0.56381000  1.0
  O  O122  1  0.61595000  0.94074000  0.32027000  1.0
  O  O123  1  0.38941000  0.17433000  0.55364000  1.0
  O  O124  1  0.41121000  0.04382000  0.45562000  1.0
  O  O125  1  0.59418000  0.03896000  0.45065000  1.0
  O  O126  1  0.58556000  0.86464000  0.45876000  1.0
  O  O127  1  0.41984000  0.03580000  0.62985000  1.0
