# generated using pymatgen
data_K4Ti2H24C12N2O23
_symmetry_space_group_name_H-M   'P 1'
_cell_length_a   7.71240000
_cell_length_b   9.78734851
_cell_length_c   10.70910000
_cell_angle_alpha   103.83434858
_cell_angle_beta   102.42580000
_cell_angle_gamma   112.98846893
_symmetry_Int_Tables_number   1
_chemical_formula_structural   K4Ti2H24C12N2O23
_chemical_formula_sum   'K4 Ti2 H24 C12 N2 O23'
_cell_volume   678.16430168
_cell_formula_units_Z   1
loop_
 _symmetry_equiv_pos_site_id
 _symmetry_equiv_pos_as_xyz
  1  'x, y, z'
loop_
 _atom_site_type_symbol
 _atom_site_label
 _atom_site_symmetry_multiplicity
 _atom_site_fract_x
 _atom_site_fract_y
 _atom_site_fract_z
 _atom_site_occupancy
  K  K0  1  0.70150000  0.97411000  0.70151000  1.0
  K  K1  1  0.29850000  0.02589000  0.29850000  1.0
  K  K2  1  0.16153000  0.94471000  0.63496000  1.0
  K  K3  1  0.83847000  0.05529000  0.36504000  1.0
  Ti  Ti4  1  0.53614000  0.58445000  0.86592000  1.0
  Ti  Ti5  1  0.46386000  0.41555000  0.13408000  1.0
  H  H6  1  0.93004000  0.36939000  0.76881000  1.0
  H  H7  1  0.06996000  0.63061000  0.23119000  1.0
  H  H8  1  0.11324000  0.37372000  0.90654000  1.0
  H  H9  1  0.88677000  0.62629000  0.09346000  1.0
  H  H10  1  0.24483000  0.61157000  0.04955000  1.0
  H  H11  1  0.75517000  0.38843000  0.95045000  1.0
  H  H12  1  0.13151000  0.71201000  0.97161000  1.0
  H  H13  1  0.86850000  0.28800000  0.02839000  1.0
  H  H14  1  0.13318000  0.72328000  0.76953000  1.0
  H  H15  1  0.86681000  0.27672000  0.23047000  1.0
  H  H16  1  0.01403000  0.52730000  0.65293000  1.0
  H  H17  1  0.98597000  0.47270000  0.34707000  1.0
  H  H18  1  0.96029000  0.86547000  0.87888000  1.0
  H  H19  1  0.03971000  0.13453000  0.12112000  1.0
  H  H20  1  0.15395000  0.03357000  0.92326000  1.0
  H  H21  1  0.84605000  0.96643000  0.07674000  1.0
  H  H22  1  0.70663000  0.63997000  0.61499000  1.0
  H  H23  1  0.29337000  0.36002000  0.38501000  1.0
  H  H24  1  0.70585000  0.65217000  0.47130000  1.0
  H  H25  1  0.29415000  0.34783000  0.52871000  1.0
  H  H26  1  0.60438000  0.22734000  0.55307000  1.0
  H  H27  1  0.39562000  0.77266000  0.44693000  1.0
  H  H28  1  0.49091000  0.24950000  0.65460000  1.0
  H  H29  1  0.50909000  0.75050000  0.34539000  1.0
  C  C30  1  0.14292000  0.29560000  0.71494000  1.0
  C  C31  1  0.85709000  0.70440000  0.28506000  1.0
  C  C32  1  0.08937000  0.40033000  0.81173000  1.0
  C  C33  1  0.91063000  0.59967000  0.18827000  1.0
  C  C34  1  0.45681000  0.82052000  0.03931000  1.0
  C  C35  1  0.54319000  0.17948000  0.96069000  1.0
  C  C36  1  0.25033000  0.67574000  0.97760000  1.0
  C  C37  1  0.74967000  0.32426000  0.02240000  1.0
  C  C38  1  0.30974000  0.66767000  0.65745000  1.0
  C  C39  1  0.69026000  0.33233000  0.34255000  1.0
  C  C40  1  0.15875000  0.62109000  0.72979000  1.0
  C  C41  1  0.84124000  0.37891000  0.27021000  1.0
  N  N42  1  0.22314000  0.56959000  0.84294000  1.0
  N  N43  1  0.77686000  0.43041000  0.15706000  1.0
  O  O44  1  0.32660000  0.35756000  0.71620000  1.0
  O  O45  1  0.67340000  0.64244000  0.28380000  1.0
  O  O46  1  0.01439000  0.15587000  0.64178000  1.0
  O  O47  1  0.98561000  0.84413000  0.35823000  1.0
  O  O48  1  0.59233000  0.80706000  0.99046000  1.0
  O  O49  1  0.40767000  0.19294000  0.00954000  1.0
  O  O50  1  0.49079000  0.93926000  0.13539000  1.0
  O  O51  1  0.50921000  0.06074000  0.86461000  1.0
  O  O52  1  0.47359000  0.66067000  0.70205000  1.0
  O  O53  1  0.52641000  0.33933000  0.29795000  1.0
  O  O54  1  0.26962000  0.71420000  0.56034000  1.0
  O  O55  1  0.73038000  0.28580000  0.43966000  1.0
  O  O56  1  0.82048000  0.69119000  0.91000000  1.0
  O  O57  1  0.17952000  0.30881000  0.09000000  1.0
  O  O58  1  0.72376000  0.53238000  0.80263000  1.0
  O  O59  1  0.27623000  0.46762000  0.19736000  1.0
  O  O60  1  0.50000000  0.50000000  0.00000000  1.0
  O  O61  1  0.02219000  0.95770000  0.85148000  1.0
  O  O62  1  0.97781000  0.04230000  0.14852000  1.0
  O  O63  1  0.78645000  0.70016000  0.56901000  1.0
  O  O64  1  0.21356000  0.29984000  0.43099000  1.0
  O  O65  1  0.52598000  0.17238000  0.60429000  1.0
  O  O66  1  0.47402000  0.82762000  0.39571000  1.0
