# generated using pymatgen
data_ZnH9C18N3O8
_symmetry_space_group_name_H-M   'P 1'
_cell_length_a   7.34491000
_cell_length_b   13.75350000
_cell_length_c   20.04180000
_cell_angle_alpha   89.99900000
_cell_angle_beta   91.47740000
_cell_angle_gamma   89.99900000
_symmetry_Int_Tables_number   1
_chemical_formula_structural   ZnH9C18N3O8
_chemical_formula_sum   'Zn4 H36 C72 N12 O32'
_cell_volume   2023.91392639
_cell_formula_units_Z   4
loop_
 _symmetry_equiv_pos_site_id
 _symmetry_equiv_pos_as_xyz
  1  'x, y, z'
loop_
 _atom_site_type_symbol
 _atom_site_label
 _atom_site_symmetry_multiplicity
 _atom_site_fract_x
 _atom_site_fract_y
 _atom_site_fract_z
 _atom_site_occupancy
  Zn  Zn0  1  0.86282000  0.98949000  0.84182000  1.0
  Zn  Zn1  1  0.13722000  0.48948000  0.65817000  1.0
  Zn  Zn2  1  0.13718000  0.01051000  0.15818000  1.0
  Zn  Zn3  1  0.86278000  0.51052000  0.34182000  1.0
  H  H4  1  0.66890000  0.80273000  0.84236000  1.0
  H  H5  1  0.61885000  0.14115000  0.00925000  1.0
  H  H6  1  0.31260000  0.34462000  0.07770000  1.0
  H  H7  1  0.89427000  0.90235000  0.06815000  1.0
  H  H8  1  0.13577000  0.64563000  0.15596000  1.0
  H  H9  1  0.06615000  0.66613000  0.94233000  1.0
  H  H10  1  0.48283000  0.25658000  0.00509000  1.0
  H  H11  1  0.49788000  0.18311000  0.79544000  1.0
  H  H12  1  0.26533000  0.45478000  0.85823000  1.0
  H  H13  1  0.33115000  0.30271000  0.65764000  1.0
  H  H14  1  0.38120000  0.64116000  0.49076000  1.0
  H  H15  1  0.68741000  0.84463000  0.42230000  1.0
  H  H16  1  0.10572000  0.40235000  0.43186000  1.0
  H  H17  1  0.86423000  0.14565000  0.34404000  1.0
  H  H18  1  0.93387000  0.16614000  0.55768000  1.0
  H  H19  1  0.51718000  0.75659000  0.49491000  1.0
  H  H20  1  0.50221000  0.68311000  0.70457000  1.0
  H  H21  1  0.73470000  0.95478000  0.64176000  1.0
  H  H22  1  0.33110000  0.19727000  0.15764000  1.0
  H  H23  1  0.38113000  0.85885000  0.99074000  1.0
  H  H24  1  0.68739000  0.65538000  0.92229000  1.0
  H  H25  1  0.10571000  0.09765000  0.93186000  1.0
  H  H26  1  0.86423000  0.35436000  0.84404000  1.0
  H  H27  1  0.93382000  0.33386000  0.05768000  1.0
  H  H28  1  0.51715000  0.74342000  0.99490000  1.0
  H  H29  1  0.50210000  0.81690000  0.20455000  1.0
  H  H30  1  0.73466000  0.54522000  0.14176000  1.0
  H  H31  1  0.66885000  0.69730000  0.34235000  1.0
  H  H32  1  0.61880000  0.35884000  0.50924000  1.0
  H  H33  1  0.31260000  0.15536000  0.57770000  1.0
  H  H34  1  0.89428000  0.59765000  0.56814000  1.0
  H  H35  1  0.13579000  0.85434000  0.65596000  1.0
  H  H36  1  0.06618000  0.83385000  0.44232000  1.0
  H  H37  1  0.48282000  0.24341000  0.50509000  1.0
  H  H38  1  0.49780000  0.31690000  0.29543000  1.0
  H  H39  1  0.26533000  0.04521000  0.35824000  1.0
  C  C40  1  0.88421000  0.83722000  0.93874000  1.0
  C  C41  1  0.96934000  0.78916000  0.99908000  1.0
  C  C42  1  0.95624000  0.83087000  0.06255000  1.0
  C  C43  1  0.01678000  0.77890000  0.11908000  1.0
  C  C44  1  0.09316000  0.68642000  0.11164000  1.0
  C  C45  1  0.11722000  0.64732000  0.04795000  1.0
  C  C46  1  0.05336000  0.69885000  0.99156000  1.0
  C  C47  1  0.99551000  0.81903000  0.18889000  1.0
  C  C48  1  0.20110000  0.55214000  0.03818000  1.0
  C  C49  1  0.31198000  0.43034000  0.98843000  1.0
  C  C50  1  0.37109000  0.36285000  0.93737000  1.0
  C  C51  1  0.45593000  0.27421000  0.95270000  1.0
  C  C52  1  0.50174000  0.20956000  0.90172000  1.0
  C  C53  1  0.46367000  0.23370000  0.83488000  1.0
  C  C54  1  0.38041000  0.32243000  0.81966000  1.0
  C  C55  1  0.33398000  0.38663000  0.87039000  1.0
  C  C56  1  0.33036000  0.34802000  0.74974000  1.0
  C  C57  1  0.59393000  0.11589000  0.91481000  1.0
  C  C58  1  0.11580000  0.33722000  0.56126000  1.0
  C  C59  1  0.03067000  0.28916000  0.50093000  1.0
  C  C60  1  0.04376000  0.33087000  0.43745000  1.0
  C  C61  1  0.98322000  0.27892000  0.38092000  1.0
  C  C62  1  0.90684000  0.18643000  0.38837000  1.0
  C  C63  1  0.88280000  0.14733000  0.45205000  1.0
  C  C64  1  0.94666000  0.19885000  0.50845000  1.0
  C  C65  1  0.00448000  0.31905000  0.31111000  1.0
  C  C66  1  0.79891000  0.05215000  0.46182000  1.0
  C  C67  1  0.68803000  0.93035000  0.51157000  1.0
  C  C68  1  0.62894000  0.86285000  0.56263000  1.0
  C  C69  1  0.54410000  0.77421000  0.54730000  1.0
  C  C70  1  0.49831000  0.70956000  0.59829000  1.0
  C  C71  1  0.53640000  0.73370000  0.66513000  1.0
  C  C72  1  0.61965000  0.82243000  0.68034000  1.0
  C  C73  1  0.66606000  0.88663000  0.62961000  1.0
  C  C74  1  0.66969000  0.84804000  0.75026000  1.0
  C  C75  1  0.40611000  0.61590000  0.58520000  1.0
  C  C76  1  0.11577000  0.16278000  0.06126000  1.0
  C  C77  1  0.03064000  0.21083000  0.00093000  1.0
  C  C78  1  0.04374000  0.16913000  0.93745000  1.0
  C  C79  1  0.98321000  0.22110000  0.88093000  1.0
  C  C80  1  0.90683000  0.31358000  0.88837000  1.0
  C  C81  1  0.88277000  0.35268000  0.95205000  1.0
  C  C82  1  0.94662000  0.30115000  0.00845000  1.0
  C  C83  1  0.00449000  0.18096000  0.81112000  1.0
  C  C84  1  0.79889000  0.44786000  0.96182000  1.0
  C  C85  1  0.68801000  0.56966000  0.01156000  1.0
  C  C86  1  0.62890000  0.63716000  0.06263000  1.0
  C  C87  1  0.54406000  0.72580000  0.04730000  1.0
  C  C88  1  0.49825000  0.79044000  0.09828000  1.0
  C  C89  1  0.53632000  0.76630000  0.16512000  1.0
  C  C90  1  0.61958000  0.67758000  0.18034000  1.0
  C  C91  1  0.66600000  0.61338000  0.12961000  1.0
  C  C92  1  0.66962000  0.65198000  0.25026000  1.0
  C  C93  1  0.40605000  0.88411000  0.08518000  1.0
  C  C94  1  0.88420000  0.66278000  0.43874000  1.0
  C  C95  1  0.96935000  0.71083000  0.49907000  1.0
  C  C96  1  0.95625000  0.66912000  0.56255000  1.0
  C  C97  1  0.01680000  0.72108000  0.61908000  1.0
  C  C98  1  0.09318000  0.81356000  0.61163000  1.0
  C  C99  1  0.11723000  0.85266000  0.54795000  1.0
  C  C100  1  0.05338000  0.80114000  0.49155000  1.0
  C  C101  1  0.99553000  0.68095000  0.68889000  1.0
  C  C102  1  0.20111000  0.94784000  0.53818000  1.0
  C  C103  1  0.31198000  0.06965000  0.48843000  1.0
  C  C104  1  0.37108000  0.13714000  0.43736000  1.0
  C  C105  1  0.45591000  0.22579000  0.45270000  1.0
  C  C106  1  0.50170000  0.29044000  0.40171000  1.0
  C  C107  1  0.46361000  0.26630000  0.33487000  1.0
  C  C108  1  0.38037000  0.17757000  0.31966000  1.0
  C  C109  1  0.33397000  0.11337000  0.37039000  1.0
  C  C110  1  0.33033000  0.15196000  0.24974000  1.0
  C  C111  1  0.59389000  0.38410000  0.41480000  1.0
  N  N112  1  0.25094000  0.52025000  0.97669000  1.0
  N  N113  1  0.30126000  0.41100000  0.05477000  1.0
  N  N114  1  0.22933000  0.48713000  0.08739000  1.0
  N  N115  1  0.74906000  0.02025000  0.52331000  1.0
  N  N116  1  0.69876000  0.91101000  0.44523000  1.0
  N  N117  1  0.77068000  0.98714000  0.41261000  1.0
  N  N118  1  0.74904000  0.47976000  0.02331000  1.0
  N  N119  1  0.69873000  0.58901000  0.94522000  1.0
  N  N120  1  0.77066000  0.51287000  0.91261000  1.0
  N  N121  1  0.25096000  0.97974000  0.47669000  1.0
  N  N122  1  0.30126000  0.08899000  0.55477000  1.0
  N  N123  1  0.22933000  0.01286000  0.58739000  1.0
  O  O124  1  0.96059000  0.91425000  0.91726000  1.0
  O  O125  1  0.74162000  0.79818000  0.91329000  1.0
  O  O126  1  0.98543000  0.91358000  0.19522000  1.0
  O  O127  1  0.98294000  0.76151000  0.23611000  1.0
  O  O128  1  0.24214000  0.42447000  0.73808000  1.0
  O  O129  1  0.38735000  0.28783000  0.70448000  1.0
  O  O130  1  0.62882000  0.05911000  0.86861000  1.0
  O  O131  1  0.64189000  0.08942000  0.97704000  1.0
  O  O132  1  0.03942000  0.41425000  0.58274000  1.0
  O  O133  1  0.25840000  0.29818000  0.58671000  1.0
  O  O134  1  0.01457000  0.41361000  0.30479000  1.0
  O  O135  1  0.01703000  0.26153000  0.26389000  1.0
  O  O136  1  0.75788000  0.92449000  0.76191000  1.0
  O  O137  1  0.61272000  0.78785000  0.79552000  1.0
  O  O138  1  0.37121000  0.55912000  0.63140000  1.0
  O  O139  1  0.35814000  0.58944000  0.52297000  1.0
  O  O140  1  0.03940000  0.08574000  0.08274000  1.0
  O  O141  1  0.25836000  0.20182000  0.08672000  1.0
  O  O142  1  0.01462000  0.08641000  0.80480000  1.0
  O  O143  1  0.01703000  0.23848000  0.76389000  1.0
  O  O144  1  0.75782000  0.57553000  0.26192000  1.0
  O  O145  1  0.61265000  0.71217000  0.29551000  1.0
  O  O146  1  0.37118000  0.94090000  0.13139000  1.0
  O  O147  1  0.35809000  0.91058000  0.02295000  1.0
  O  O148  1  0.96057000  0.58575000  0.41725000  1.0
  O  O149  1  0.74160000  0.70183000  0.41329000  1.0
  O  O150  1  0.98543000  0.58639000  0.69521000  1.0
  O  O151  1  0.98298000  0.73847000  0.73611000  1.0
  O  O152  1  0.24211000  0.07552000  0.23809000  1.0
  O  O153  1  0.38731000  0.21215000  0.20448000  1.0
  O  O154  1  0.62879000  0.44089000  0.36860000  1.0
  O  O155  1  0.64187000  0.41056000  0.47704000  1.0
