# generated using pymatgen
data_CdH14C12(BrN)2
_symmetry_space_group_name_H-M   'P 1'
_cell_length_a   3.99617000
_cell_length_b   11.47210000
_cell_length_c   14.85020000
_cell_angle_alpha   89.99960000
_cell_angle_beta   89.99990000
_cell_angle_gamma   91.96740000
_symmetry_Int_Tables_number   1
_chemical_formula_structural   CdH14C12(BrN)2
_chemical_formula_sum   'Cd2 H28 C24 Br4 N4'
_cell_volume   680.39811135
_cell_formula_units_Z   2
loop_
 _symmetry_equiv_pos_site_id
 _symmetry_equiv_pos_as_xyz
  1  'x, y, z'
loop_
 _atom_site_type_symbol
 _atom_site_label
 _atom_site_symmetry_multiplicity
 _atom_site_fract_x
 _atom_site_fract_y
 _atom_site_fract_z
 _atom_site_occupancy
  Cd  Cd0  1  0.99999000  0.00002000  0.99999000  1.0
  Cd  Cd1  1  0.99999000  0.50000000  0.50000000  1.0
  H  H2  1  0.25368000  0.90290000  0.19376000  1.0
  H  H3  1  0.25366000  0.40290000  0.30623000  1.0
  H  H4  1  0.74633000  0.09709000  0.80625000  1.0
  H  H5  1  0.74634000  0.59710000  0.69377000  1.0
  H  H6  1  0.98433000  0.13600000  0.40868000  1.0
  H  H7  1  0.98436000  0.63602000  0.09132000  1.0
  H  H8  1  0.01559000  0.86399000  0.59131000  1.0
  H  H9  1  0.01569000  0.36399000  0.90869000  1.0
  H  H10  1  0.73671000  0.26252000  0.29331000  1.0
  H  H11  1  0.73672000  0.76254000  0.20668000  1.0
  H  H12  1  0.26321000  0.73746000  0.70668000  1.0
  H  H13  1  0.26327000  0.23747000  0.79332000  1.0
  H  H14  1  0.76110000  0.20217000  0.12946000  1.0
  H  H15  1  0.76110000  0.70216000  0.37053000  1.0
  H  H16  1  0.23892000  0.79782000  0.87052000  1.0
  H  H17  1  0.23891000  0.29783000  0.62947000  1.0
  H  H18  1  0.09285000  0.88627000  0.42323000  1.0
  H  H19  1  0.09286000  0.38626000  0.07677000  1.0
  H  H20  1  0.90714000  0.11374000  0.57678000  1.0
  H  H21  1  0.90717000  0.61373000  0.92323000  1.0
  H  H22  1  0.46943000  0.97188000  0.42189000  1.0
  H  H23  1  0.46945000  0.47189000  0.07811000  1.0
  H  H24  1  0.53055000  0.02812000  0.57812000  1.0
  H  H25  1  0.53058000  0.52812000  0.92189000  1.0
  H  H26  1  0.41140000  0.85363000  0.34547000  1.0
  H  H27  1  0.41140000  0.35363000  0.15452000  1.0
  H  H28  1  0.58860000  0.14637000  0.65453000  1.0
  H  H29  1  0.58863000  0.64636000  0.84548000  1.0
  C  C30  1  0.14000000  0.98155000  0.21935000  1.0
  C  C31  1  0.13997000  0.48156000  0.28065000  1.0
  C  C32  1  0.86000000  0.01844000  0.78065000  1.0
  C  C33  1  0.86004000  0.51844000  0.71935000  1.0
  C  C34  1  0.13820000  0.00673000  0.31151000  1.0
  C  C35  1  0.13817000  0.50673000  0.18849000  1.0
  C  C36  1  0.86183000  0.99327000  0.68849000  1.0
  C  C37  1  0.86183000  0.49326000  0.81152000  1.0
  C  C38  1  0.99135000  0.11043000  0.33795000  1.0
  C  C39  1  0.99138000  0.61043000  0.16204000  1.0
  C  C40  1  0.00861000  0.88957000  0.66204000  1.0
  C  C41  1  0.00864000  0.38957000  0.83796000  1.0
  C  C42  1  0.85496000  0.18244000  0.27317000  1.0
  C  C43  1  0.85495000  0.68245000  0.22683000  1.0
  C  C44  1  0.14502000  0.81754000  0.72683000  1.0
  C  C45  1  0.14505000  0.31755000  0.77318000  1.0
  C  C46  1  0.86822000  0.15002000  0.18300000  1.0
  C  C47  1  0.86819000  0.65001000  0.31699000  1.0
  C  C48  1  0.13179000  0.84998000  0.81700000  1.0
  C  C49  1  0.13179000  0.34998000  0.68301000  1.0
  C  C50  1  0.28597000  0.92540000  0.37868000  1.0
  C  C51  1  0.28595000  0.42541000  0.12132000  1.0
  C  C52  1  0.71404000  0.07460000  0.62133000  1.0
  C  C53  1  0.71406000  0.57459000  0.87868000  1.0
  Br  Br54  1  0.51368000  0.16861000  0.96764000  1.0
  Br  Br55  1  0.51370000  0.66860000  0.53235000  1.0
  Br  Br56  1  0.48636000  0.83143000  0.03234000  1.0
  Br  Br57  1  0.48628000  0.33141000  0.46765000  1.0
  N  N58  1  0.00824000  0.05087000  0.15653000  1.0
  N  N59  1  0.00821000  0.55088000  0.34346000  1.0
  N  N60  1  0.99177000  0.94912000  0.84346000  1.0
  N  N61  1  0.99176000  0.44912000  0.65653000  1.0
