# generated using pymatgen
data_CuH8C6(N5O6)2
_symmetry_space_group_name_H-M   'P 1'
_cell_length_a   5.14644000
_cell_length_b   10.68040000
_cell_length_c   14.56720000
_cell_angle_alpha   89.99910000
_cell_angle_beta   89.99810000
_cell_angle_gamma   88.99500000
_symmetry_Int_Tables_number   1
_chemical_formula_structural   CuH8C6(N5O6)2
_chemical_formula_sum   'Cu2 H16 C12 N20 O24'
_cell_volume   800.57809175
_cell_formula_units_Z   2
loop_
 _symmetry_equiv_pos_site_id
 _symmetry_equiv_pos_as_xyz
  1  'x, y, z'
loop_
 _atom_site_type_symbol
 _atom_site_label
 _atom_site_symmetry_multiplicity
 _atom_site_fract_x
 _atom_site_fract_y
 _atom_site_fract_z
 _atom_site_occupancy
  Cu  Cu0  1  0.50001000  0.00000000  0.49999000  1.0
  Cu  Cu1  1  0.49994000  0.50001000  0.00001000  1.0
  H  H2  1  0.47628000  0.77100000  0.51639000  1.0
  H  H3  1  0.52374000  0.72901000  0.01642000  1.0
  H  H4  1  0.52384000  0.22901000  0.48357000  1.0
  H  H5  1  0.47619000  0.27100000  0.98358000  1.0
  H  H6  1  0.77559000  0.91493000  0.36802000  1.0
  H  H7  1  0.22442000  0.58509000  0.86805000  1.0
  H  H8  1  0.22454000  0.08506000  0.63196000  1.0
  H  H9  1  0.77545000  0.41492000  0.13196000  1.0
  H  H10  1  0.89180000  0.05098000  0.39608000  1.0
  H  H11  1  0.10817000  0.44904000  0.89609000  1.0
  H  H12  1  0.10829000  0.94902000  0.60391000  1.0
  H  H13  1  0.89170000  0.55096000  0.10392000  1.0
  H  H14  1  0.21170000  0.81452000  0.47155000  1.0
  H  H15  1  0.78821000  0.68548000  0.97147000  1.0
  H  H16  1  0.78821000  0.18548000  0.52861000  1.0
  H  H17  1  0.21172000  0.31451000  0.02853000  1.0
  C  C18  1  0.38680000  0.50426000  0.63091000  1.0
  C  C19  1  0.61301000  0.99581000  0.13088000  1.0
  C  C20  1  0.61293000  0.49590000  0.36919000  1.0
  C  C21  1  0.38690000  0.00418000  0.86914000  1.0
  C  C22  1  0.59055000  0.59158000  0.65254000  1.0
  C  C23  1  0.40945000  0.90841000  0.15257000  1.0
  C  C24  1  0.40958000  0.40842000  0.34743000  1.0
  C  C25  1  0.59047000  0.09157000  0.84745000  1.0
  C  C26  1  0.18501000  0.50675000  0.56106000  1.0
  C  C27  1  0.81506000  0.99323000  0.06112000  1.0
  C  C28  1  0.81517000  0.49324000  0.43888000  1.0
  C  C29  1  0.18490000  0.00675000  0.93892000  1.0
  N  N30  1  0.83965000  0.76579000  0.62530000  1.0
  N  N31  1  0.16036000  0.73420000  0.12534000  1.0
  N  N32  1  0.16046000  0.23422000  0.37466000  1.0
  N  N33  1  0.83956000  0.26579000  0.87468000  1.0
  N  N34  1  0.16966000  0.60072000  0.50590000  1.0
  N  N35  1  0.82998000  0.89942000  0.00580000  1.0
  N  N36  1  0.82973000  0.39956000  0.49432000  1.0
  N  N37  1  0.16989000  0.10059000  0.99420000  1.0
  N  N38  1  0.63123000  0.69974000  0.60393000  1.0
  N  N39  1  0.36886000  0.80022000  0.10400000  1.0
  N  N40  1  0.36902000  0.30020000  0.39597000  1.0
  N  N41  1  0.63108000  0.19976000  0.89602000  1.0
  N  N42  1  0.40795000  0.40590000  0.68513000  1.0
  N  N43  1  0.59178000  0.09419000  0.18507000  1.0
  N  N44  1  0.59166000  0.59429000  0.31502000  1.0
  N  N45  1  0.40812000  0.90581000  0.81495000  1.0
  N  N46  1  0.72921000  0.54314000  0.72166000  1.0
  N  N47  1  0.27082000  0.95684000  0.22171000  1.0
  N  N48  1  0.27103000  0.45682000  0.27826000  1.0
  N  N49  1  0.72911000  0.04315000  0.77831000  1.0
  O  O50  1  0.39819000  0.82982000  0.46767000  1.0
  O  O51  1  0.60170000  0.67020000  0.96767000  1.0
  O  O52  1  0.60170000  0.17019000  0.53234000  1.0
  O  O53  1  0.39821000  0.32981000  0.03233000  1.0
  O  O54  1  0.73042000  0.99783000  0.39160000  1.0
  O  O55  1  0.26956000  0.50218000  0.89162000  1.0
  O  O56  1  0.26970000  0.00215000  0.60839000  1.0
  O  O57  1  0.73029000  0.49783000  0.10840000  1.0
  O  O58  1  0.87342000  0.86222000  0.57199000  1.0
  O  O59  1  0.12662000  0.63776000  0.07203000  1.0
  O  O60  1  0.12672000  0.13777000  0.42796000  1.0
  O  O61  1  0.87330000  0.36223000  0.92798000  1.0
  O  O62  1  0.99419000  0.74067000  0.68783000  1.0
  O  O63  1  0.00570000  0.75936000  0.18783000  1.0
  O  O64  1  0.00571000  0.25942000  0.31221000  1.0
  O  O65  1  0.99419000  0.24064000  0.81218000  1.0
  O  O66  1  0.61469000  0.42839000  0.74018000  1.0
  O  O67  1  0.38517000  0.07164000  0.24017000  1.0
  O  O68  1  0.38523000  0.57167000  0.25985000  1.0
  O  O69  1  0.61474000  0.92835000  0.75984000  1.0
  O  O70  1  0.03328000  0.40358000  0.56248000  1.0
  O  O71  1  0.96761000  0.09611000  0.06281000  1.0
  O  O72  1  0.96839000  0.59588000  0.43694000  1.0
  O  O73  1  0.03247000  0.90382000  0.93727000  1.0
