# generated using pymatgen
data_AgH12C17N7O2
_symmetry_space_group_name_H-M   'P 1'
_cell_length_a   9.00457000
_cell_length_b   9.34016000
_cell_length_c   12.85970000
_cell_angle_alpha   98.25680000
_cell_angle_beta   90.41140000
_cell_angle_gamma   112.12790000
_symmetry_Int_Tables_number   1
_chemical_formula_structural   AgH12C17N7O2
_chemical_formula_sum   'Ag2 H24 C34 N14 O4'
_cell_volume   989.28978127
_cell_formula_units_Z   2
loop_
 _symmetry_equiv_pos_site_id
 _symmetry_equiv_pos_as_xyz
  1  'x, y, z'
loop_
 _atom_site_type_symbol
 _atom_site_label
 _atom_site_symmetry_multiplicity
 _atom_site_fract_x
 _atom_site_fract_y
 _atom_site_fract_z
 _atom_site_occupancy
  Ag  Ag0  1  0.39452000  0.89441000  0.40657000  1.0
  Ag  Ag1  1  0.60549000  0.10559000  0.59344000  1.0
  H  H2  1  0.86778000  0.45942000  0.57437000  1.0
  H  H3  1  0.13222000  0.54057000  0.42563000  1.0
  H  H4  1  0.72410000  0.27686000  0.84788000  1.0
  H  H5  1  0.27590000  0.72314000  0.15212000  1.0
  H  H6  1  0.89943000  0.53038000  0.96067000  1.0
  H  H7  1  0.10056000  0.46963000  0.03933000  1.0
  H  H8  1  0.06227000  0.75413000  0.87547000  1.0
  H  H9  1  0.93773000  0.24588000  0.12452000  1.0
  H  H10  1  0.01010000  0.14509000  0.60077000  1.0
  H  H11  1  0.98990000  0.85489000  0.39922000  1.0
  H  H12  1  0.11033000  0.43372000  0.59931000  1.0
  H  H13  1  0.88966000  0.56627000  0.40068000  1.0
  H  H14  1  0.40845000  0.58717000  0.60603000  1.0
  H  H15  1  0.59154000  0.41283000  0.39398000  1.0
  H  H16  1  0.59022000  0.44040000  0.59847000  1.0
  H  H17  1  0.40977000  0.55960000  0.40154000  1.0
  H  H18  1  0.79773000  0.88170000  0.72482000  1.0
  H  H19  1  0.20227000  0.11829000  0.27519000  1.0
  H  H20  1  0.73123000  0.02859000  0.88262000  1.0
  H  H21  1  0.26878000  0.97142000  0.11739000  1.0
  H  H22  1  0.20960000  0.25130000  0.99146000  1.0
  H  H23  1  0.79042000  0.74871000  0.00853000  1.0
  H  H24  1  0.29777000  0.10609000  0.83901000  1.0
  H  H25  1  0.70224000  0.89391000  0.16098000  1.0
  C  C26  1  0.87647000  0.47980000  0.66044000  1.0
  C  C27  1  0.12353000  0.52019000  0.33956000  1.0
  C  C28  1  0.79811000  0.37805000  0.81300000  1.0
  C  C29  1  0.20189000  0.62195000  0.18699000  1.0
  C  C30  1  0.89405000  0.51895000  0.87508000  1.0
  C  C31  1  0.10595000  0.48105000  0.12492000  1.0
  C  C32  1  0.98538000  0.64511000  0.82670000  1.0
  C  C33  1  0.01462000  0.35489000  0.17329000  1.0
  C  C34  1  0.97571000  0.62611000  0.71643000  1.0
  C  C35  1  0.02429000  0.37388000  0.28357000  1.0
  C  C36  1  0.06935000  0.74829000  0.65697000  1.0
  C  C37  1  0.93065000  0.25171000  0.34302000  1.0
  C  C38  1  0.19566000  0.97552000  0.60594000  1.0
  C  C39  1  0.80435000  0.02448000  0.39406000  1.0
  C  C40  1  0.25042000  0.14362000  0.60091000  1.0
  C  C41  1  0.74959000  0.85638000  0.39909000  1.0
  C  C42  1  0.13834000  0.21441000  0.60087000  1.0
  C  C43  1  0.86166000  0.78558000  0.39912000  1.0
  C  C44  1  0.19409000  0.37519000  0.60065000  1.0
  C  C45  1  0.80591000  0.62480000  0.39934000  1.0
  C  C46  1  0.35876000  0.46015000  0.60217000  1.0
  C  C47  1  0.64124000  0.53984000  0.39783000  1.0
  C  C48  1  0.46083000  0.37873000  0.59935000  1.0
  C  C49  1  0.53916000  0.62127000  0.40065000  1.0
  C  C50  1  0.05391000  0.98571000  0.77160000  1.0
  C  C51  1  0.94608000  0.01428000  0.22840000  1.0
  C  C52  1  0.89266000  0.96065000  0.78281000  1.0
  C  C53  1  0.10733000  0.03935000  0.21720000  1.0
  C  C54  1  0.85614000  0.04458000  0.87096000  1.0
  C  C55  1  0.14386000  0.95542000  0.12904000  1.0
  C  C56  1  0.12151000  0.16849000  0.93062000  1.0
  C  C57  1  0.87849000  0.83152000  0.06938000  1.0
  C  C58  1  0.17211000  0.09031000  0.84637000  1.0
  C  C59  1  0.82789000  0.90969000  0.15362000  1.0
  N  N60  1  0.79055000  0.35799000  0.70722000  1.0
  N  N61  1  0.20945000  0.64200000  0.29277000  1.0
  N  N62  1  0.14015000  0.72366000  0.56986000  1.0
  N  N63  1  0.85986000  0.27634000  0.43014000  1.0
  N  N64  1  0.21855000  0.86578000  0.53805000  1.0
  N  N65  1  0.78145000  0.13422000  0.46195000  1.0
  N  N66  1  0.10047000  0.90602000  0.68213000  1.0
  N  N67  1  0.89953000  0.09397000  0.31787000  1.0
  N  N68  1  0.40968000  0.22380000  0.59828000  1.0
  N  N69  1  0.59032000  0.77621000  0.40173000  1.0
  N  N70  1  0.96737000  0.14765000  0.94354000  1.0
  N  N71  1  0.03263000  0.85236000  0.05646000  1.0
  N  N72  1  0.52318000  0.13015000  0.26142000  1.0
  N  N73  1  0.47682000  0.86986000  0.73859000  1.0
  O  O74  1  0.52061000  0.99295000  0.23575000  1.0
  O  O75  1  0.47942000  0.00706000  0.76428000  1.0
  O  O76  1  0.45754000  0.15151000  0.34668000  1.0
  O  O77  1  0.54245000  0.84849000  0.65333000  1.0
