# generated using pymatgen
data_ErH8(CO)8
_symmetry_space_group_name_H-M   'P 1'
_cell_length_a   8.70844000
_cell_length_b   10.59110000
_cell_length_c   12.07470000
_cell_angle_alpha   90.00010000
_cell_angle_beta   90.00030000
_cell_angle_gamma   77.54700000
_symmetry_Int_Tables_number   1
_chemical_formula_structural   ErH8(CO)8
_chemical_formula_sum   'Er4 H32 C32 O32'
_cell_volume   1087.47209440
_cell_formula_units_Z   4
loop_
 _symmetry_equiv_pos_site_id
 _symmetry_equiv_pos_as_xyz
  1  'x, y, z'
loop_
 _atom_site_type_symbol
 _atom_site_label
 _atom_site_symmetry_multiplicity
 _atom_site_fract_x
 _atom_site_fract_y
 _atom_site_fract_z
 _atom_site_occupancy
  Er  Er0  1  0.37988000  0.32070000  0.59811000  1.0
  Er  Er1  1  0.62011000  0.67930000  0.09811000  1.0
  Er  Er2  1  0.05080000  0.12095000  0.49865000  1.0
  Er  Er3  1  0.94920000  0.87905000  0.99865000  1.0
  H  H4  1  0.43312000  0.45396000  0.80182000  1.0
  H  H5  1  0.56689000  0.54604000  0.30182000  1.0
  H  H6  1  0.43414000  0.31878000  0.85612000  1.0
  H  H7  1  0.56585000  0.68122000  0.35612000  1.0
  H  H8  1  0.68631000  0.13200000  0.62871000  1.0
  H  H9  1  0.31369000  0.86800000  0.12871000  1.0
  H  H10  1  0.71408000  0.25537000  0.68261000  1.0
  H  H11  1  0.28592000  0.74463000  0.18261000  1.0
  H  H12  1  0.97561000  0.05255000  0.25544000  1.0
  H  H13  1  0.02439000  0.94745000  0.75544000  1.0
  H  H14  1  0.15466000  0.02931000  0.28474000  1.0
  H  H15  1  0.84535000  0.97070000  0.78475000  1.0
  H  H16  1  0.74246000  0.31735000  0.45199000  1.0
  H  H17  1  0.25754000  0.68265000  0.95200000  1.0
  H  H18  1  0.84007000  0.28943000  0.33929000  1.0
  H  H19  1  0.15993000  0.71057000  0.83930000  1.0
  H  H20  1  0.46787000  0.75632000  0.65018000  1.0
  H  H21  1  0.53213000  0.24366000  0.15018000  1.0
  H  H22  1  0.61270000  0.93483000  0.63143000  1.0
  H  H23  1  0.38730000  0.06516000  0.13143000  1.0
  H  H24  1  0.98949000  0.67637000  0.46365000  1.0
  H  H25  1  0.01051000  0.32363000  0.96366000  1.0
  H  H26  1  0.84245000  0.49899000  0.47844000  1.0
  H  H27  1  0.15757000  0.50101000  0.97845000  1.0
  H  H28  1  0.82524000  0.38405000  0.80862000  1.0
  H  H29  1  0.17475000  0.61595000  0.30862000  1.0
  H  H30  1  0.97735000  0.61531000  0.76069000  1.0
  H  H31  1  0.02265000  0.38469000  0.26069000  1.0
  H  H32  1  0.48254000  0.90804000  0.30840000  1.0
  H  H33  1  0.51747000  0.09196000  0.80839000  1.0
  H  H34  1  0.70794000  0.09287000  0.34548000  1.0
  H  H35  1  0.29205000  0.90714000  0.84548000  1.0
  C  C36  1  0.64560000  0.61755000  0.56448000  1.0
  C  C37  1  0.35441000  0.38244000  0.06448000  1.0
  C  C38  1  0.58187000  0.74010000  0.60912000  1.0
  C  C39  1  0.41814000  0.25989000  0.10912000  1.0
  C  C40  1  0.66313000  0.83894000  0.59898000  1.0
  C  C41  1  0.33688000  0.16105000  0.09899000  1.0
  C  C42  1  0.80909000  0.81605000  0.54505000  1.0
  C  C43  1  0.19091000  0.18394000  0.04505000  1.0
  C  C44  1  0.87481000  0.69280000  0.50351000  1.0
  C  C45  1  0.12519000  0.30720000  0.00352000  1.0
  C  C46  1  0.79289000  0.59434000  0.51230000  1.0
  C  C47  1  0.20711000  0.40566000  0.01231000  1.0
  C  C48  1  0.55595000  0.51326000  0.57382000  1.0
  C  C49  1  0.44406000  0.48673000  0.07383000  1.0
  C  C50  1  0.89338000  0.92241000  0.52708000  1.0
  C  C51  1  0.10662000  0.07759000  0.02708000  1.0
  C  C52  1  0.00238000  0.37104000  0.67578000  1.0
  C  C53  1  0.99762000  0.62897000  0.17578000  1.0
  C  C54  1  0.90269000  0.43783000  0.76728000  1.0
  C  C55  1  0.09731000  0.56217000  0.26728000  1.0
  C  C56  1  0.90344000  0.55811000  0.80121000  1.0
  C  C57  1  0.09656000  0.44189000  0.30122000  1.0
  C  C58  1  0.80891000  0.61460000  0.89785000  1.0
  C  C59  1  0.19109000  0.38540000  0.39786000  1.0
  C  C60  1  0.43080000  0.06145000  0.43386000  1.0
  C  C61  1  0.56920000  0.93855000  0.93386000  1.0
  C  C62  1  0.52935000  0.98556000  0.34619000  1.0
  C  C63  1  0.47065000  0.01444000  0.84619000  1.0
  C  C64  1  0.66310000  0.01364000  0.30900000  1.0
  C  C65  1  0.33690000  0.98637000  0.80900000  1.0
  C  C66  1  0.74792000  0.94287000  0.21387000  1.0
  C  C67  1  0.25207000  0.05714000  0.71387000  1.0
  O  O68  1  0.43512000  0.52935000  0.63610000  1.0
  O  O69  1  0.56489000  0.47064000  0.13610000  1.0
  O  O70  1  0.59906000  0.40701000  0.51975000  1.0
  O  O71  1  0.40094000  0.59299000  0.01976000  1.0
  O  O72  1  0.83588000  0.03639000  0.56603000  1.0
  O  O73  1  0.16412000  0.96361000  0.06603000  1.0
  O  O74  1  0.02072000  0.90274000  0.47245000  1.0
  O  O75  1  0.97927000  0.09727000  0.97247000  1.0
  O  O76  1  0.12461000  0.41079000  0.64928000  1.0
  O  O77  1  0.87538000  0.58921000  0.14928000  1.0
  O  O78  1  0.95437000  0.27625000  0.63175000  1.0
  O  O79  1  0.04563000  0.72376000  0.13177000  1.0
  O  O80  1  0.83821000  0.71660000  0.94241000  1.0
  O  O81  1  0.16180000  0.28340000  0.44242000  1.0
  O  O82  1  0.70498000  0.56014000  0.93783000  1.0
  O  O83  1  0.29502000  0.43986000  0.43783000  1.0
  O  O84  1  0.47787000  0.15436000  0.47949000  1.0
  O  O85  1  0.52213000  0.84565000  0.97949000  1.0
  O  O86  1  0.30226000  0.02623000  0.45430000  1.0
  O  O87  1  0.69774000  0.97378000  0.95431000  1.0
  O  O88  1  0.86210000  0.98506000  0.17131000  1.0
  O  O89  1  0.13790000  0.01493000  0.67131000  1.0
  O  O90  1  0.70363000  0.84558000  0.17436000  1.0
  O  O91  1  0.29635000  0.15443000  0.67437000  1.0
  O  O92  1  0.39461000  0.37449000  0.79386000  1.0
  O  O93  1  0.60538000  0.62551000  0.29386000  1.0
  O  O94  1  0.63160000  0.20558000  0.67625000  1.0
  O  O95  1  0.36840000  0.79442000  0.17625000  1.0
  O  O96  1  0.05395000  0.08699000  0.30100000  1.0
  O  O97  1  0.94606000  0.91301000  0.80101000  1.0
  O  O98  1  0.82678000  0.25371000  0.41187000  1.0
  O  O99  1  0.17323000  0.74629000  0.91188000  1.0
