# generated using pymatgen
data_LiH3(CO)4
_symmetry_space_group_name_H-M   'P 1'
_cell_length_a   7.68890000
_cell_length_b   8.43811000
_cell_length_c   8.52257000
_cell_angle_alpha   89.99960000
_cell_angle_beta   67.23500000
_cell_angle_gamma   89.99980000
_symmetry_Int_Tables_number   1
_chemical_formula_structural   LiH3(CO)4
_chemical_formula_sum   'Li4 H12 C16 O16'
_cell_volume   509.86811351
_cell_formula_units_Z   4
loop_
 _symmetry_equiv_pos_site_id
 _symmetry_equiv_pos_as_xyz
  1  'x, y, z'
loop_
 _atom_site_type_symbol
 _atom_site_label
 _atom_site_symmetry_multiplicity
 _atom_site_fract_x
 _atom_site_fract_y
 _atom_site_fract_z
 _atom_site_occupancy
  Li  Li0  1  0.68114000  0.51662000  0.89086000  1.0
  Li  Li1  1  0.81885000  0.01663000  0.10914000  1.0
  Li  Li2  1  0.31886000  0.48338000  0.10914000  1.0
  Li  Li3  1  0.18114000  0.98337000  0.89086000  1.0
  H  H4  1  0.36946000  0.56053000  0.41881000  1.0
  H  H5  1  0.13055000  0.06052000  0.58120000  1.0
  H  H6  1  0.63055000  0.43947000  0.58119000  1.0
  H  H7  1  0.86945000  0.93947000  0.41880000  1.0
  H  H8  1  0.47428000  0.91646000  0.37598000  1.0
  H  H9  1  0.02573000  0.41646000  0.62401000  1.0
  H  H10  1  0.52573000  0.08355000  0.62402000  1.0
  H  H11  1  0.97427000  0.58354000  0.37599000  1.0
  H  H12  1  0.20795000  0.62447000  0.86675000  1.0
  H  H13  1  0.29205000  0.12447000  0.13325000  1.0
  H  H14  1  0.79205000  0.37553000  0.13325000  1.0
  H  H15  1  0.70795000  0.87553000  0.86675000  1.0
  C  C16  1  0.30485000  0.72221000  0.63796000  1.0
  C  C17  1  0.19515000  0.22221000  0.36203000  1.0
  C  C18  1  0.69514000  0.27779000  0.36203000  1.0
  C  C19  1  0.80485000  0.77779000  0.63797000  1.0
  C  C20  1  0.38048000  0.68313000  0.45432000  1.0
  C  C21  1  0.11952000  0.18314000  0.54568000  1.0
  C  C22  1  0.61953000  0.31686000  0.54568000  1.0
  C  C23  1  0.88048000  0.81686000  0.45432000  1.0
  C  C24  1  0.46248000  0.79509000  0.33727000  1.0
  C  C25  1  0.03752000  0.29509000  0.66272000  1.0
  C  C26  1  0.53752000  0.20491000  0.66272000  1.0
  C  C27  1  0.96247000  0.70491000  0.33728000  1.0
  C  C28  1  0.54791000  0.76255000  0.15091000  1.0
  C  C29  1  0.95210000  0.26255000  0.84909000  1.0
  C  C30  1  0.45209000  0.23745000  0.84909000  1.0
  C  C31  1  0.04791000  0.73745000  0.15091000  1.0
  O  O32  1  0.29298000  0.86097000  0.69097000  1.0
  O  O33  1  0.20702000  0.36097000  0.30903000  1.0
  O  O34  1  0.70701000  0.13903000  0.30903000  1.0
  O  O35  1  0.79297000  0.63903000  0.69097000  1.0
  O  O36  1  0.25337000  0.59647000  0.73721000  1.0
  O  O37  1  0.24663000  0.09647000  0.26279000  1.0
  O  O38  1  0.74663000  0.40353000  0.26278000  1.0
  O  O39  1  0.75337000  0.90354000  0.73721000  1.0
  O  O40  1  0.52016000  0.63061000  0.09364000  1.0
  O  O41  1  0.97985000  0.13061000  0.90636000  1.0
  O  O42  1  0.47985000  0.36939000  0.90636000  1.0
  O  O43  1  0.02015000  0.86939000  0.09365000  1.0
  O  O44  1  0.64971000  0.87383000  0.05762000  1.0
  O  O45  1  0.85030000  0.37384000  0.94237000  1.0
  O  O46  1  0.35029000  0.12617000  0.94237000  1.0
  O  O47  1  0.14970000  0.62617000  0.05763000  1.0
