# generated using pymatgen
data_Cu2Mo4H18C23N6O13
_symmetry_space_group_name_H-M   'P 1'
_cell_length_a   9.41749000
_cell_length_b   12.37680000
_cell_length_c   13.01460000
_cell_angle_alpha   80.63960000
_cell_angle_beta   85.79900000
_cell_angle_gamma   76.25220000
_symmetry_Int_Tables_number   1
_chemical_formula_structural   Cu2Mo4H18C23N6O13
_chemical_formula_sum   'Cu4 Mo8 H36 C46 N12 O26'
_cell_volume   1452.93383676
_cell_formula_units_Z   2
loop_
 _symmetry_equiv_pos_site_id
 _symmetry_equiv_pos_as_xyz
  1  'x, y, z'
loop_
 _atom_site_type_symbol
 _atom_site_label
 _atom_site_symmetry_multiplicity
 _atom_site_fract_x
 _atom_site_fract_y
 _atom_site_fract_z
 _atom_site_occupancy
  Cu  Cu0  1  0.15762000  0.77974000  0.29579000  1.0
  Cu  Cu1  1  0.84237000  0.22027000  0.70421000  1.0
  Cu  Cu2  1  0.31145000  0.72806000  0.80936000  1.0
  Cu  Cu3  1  0.68856000  0.27194000  0.19064000  1.0
  Mo  Mo4  1  0.69194000  0.92591000  0.47968000  1.0
  Mo  Mo5  1  0.30806000  0.07409000  0.52032000  1.0
  Mo  Mo6  1  0.53202000  0.81492000  0.29774000  1.0
  Mo  Mo7  1  0.46798000  0.18508000  0.70226000  1.0
  Mo  Mo8  1  0.55921000  0.90672000  0.71347000  1.0
  Mo  Mo9  1  0.44079000  0.09327000  0.28653000  1.0
  Mo  Mo10  1  0.62295000  0.19435000  0.46602000  1.0
  Mo  Mo11  1  0.37705000  0.80565000  0.53398000  1.0
  H  H12  1  0.34729000  0.38444000  0.47613000  1.0
  H  H13  1  0.65272000  0.61558000  0.52387000  1.0
  H  H14  1  0.09827000  0.38373000  0.18652000  1.0
  H  H15  1  0.90173000  0.61629000  0.81348000  1.0
  H  H16  1  0.00402000  0.58354000  0.11195000  1.0
  H  H17  1  0.99598000  0.41646000  0.88805000  1.0
  H  H18  1  0.13249000  0.67249000  0.95764000  1.0
  H  H19  1  0.86751000  0.32752000  0.04236000  1.0
  H  H20  1  0.32204000  0.26956000  0.10738000  1.0
  H  H21  1  0.67795000  0.73045000  0.89262000  1.0
  H  H22  1  0.64650000  0.34444000  0.83736000  1.0
  H  H23  1  0.35349000  0.65556000  0.16263000  1.0
  H  H24  1  0.54763000  0.54555000  0.75771000  1.0
  H  H25  1  0.45236000  0.45446000  0.24228000  1.0
  H  H26  1  0.68525000  0.16383000  0.03166000  1.0
  H  H27  1  0.31475000  0.83617000  0.96833000  1.0
  H  H28  1  0.68297000  0.01481000  0.92572000  1.0
  H  H29  1  0.31703000  0.98518000  0.07429000  1.0
  H  H30  1  0.83571000  0.82163000  0.97289000  1.0
  H  H31  1  0.16427000  0.17836000  0.02713000  1.0
  H  H32  1  0.99759000  0.77721000  0.12576000  1.0
  H  H33  1  0.00239000  0.22279000  0.87425000  1.0
  H  H34  1  0.09299000  0.98444000  0.36852000  1.0
  H  H35  1  0.90701000  0.01555000  0.63148000  1.0
  H  H36  1  0.94326000  0.17653000  0.32093000  1.0
  H  H37  1  0.05674000  0.82347000  0.67908000  1.0
  H  H38  1  0.85009000  0.33685000  0.38904000  1.0
  H  H39  1  0.14992000  0.66315000  0.61097000  1.0
  H  H40  1  0.09879000  0.28293000  0.45925000  1.0
  H  H41  1  0.90123000  0.71707000  0.54076000  1.0
  H  H42  1  0.40027000  0.57871000  0.41457000  1.0
  H  H43  1  0.59973000  0.42131000  0.58543000  1.0
  H  H44  1  0.89346000  0.67604000  0.27872000  1.0
  H  H45  1  0.10654000  0.32396000  0.72128000  1.0
  H  H46  1  0.75001000  0.52897000  0.29872000  1.0
  H  H47  1  0.25000000  0.47103000  0.70129000  1.0
  C  C48  1  0.15582000  0.42111000  0.11939000  1.0
  C  C49  1  0.84419000  0.57890000  0.88061000  1.0
  C  C50  1  0.10278000  0.53543000  0.07717000  1.0
  C  C51  1  0.89723000  0.46458000  0.92282000  1.0
  C  C52  1  0.17286000  0.58483000  0.99212000  1.0
  C  C53  1  0.82714000  0.41517000  0.00787000  1.0
  C  C54  1  0.29958000  0.52125000  0.94659000  1.0
  C  C55  1  0.70042000  0.47876000  0.05341000  1.0
  C  C56  1  0.35509000  0.40584000  0.98951000  1.0
  C  C57  1  0.64491000  0.59417000  0.01049000  1.0
  C  C58  1  0.27869000  0.35722000  0.07585000  1.0
  C  C59  1  0.72130000  0.64279000  0.92414000  1.0
  C  C60  1  0.54612000  0.39338000  0.86983000  1.0
  C  C61  1  0.45388000  0.60663000  0.13016000  1.0
  C  C62  1  0.49185000  0.50601000  0.82444000  1.0
  C  C63  1  0.50815000  0.49399000  0.17555000  1.0
  C  C64  1  0.84411000  0.05544000  0.13814000  1.0
  C  C65  1  0.15590000  0.94455000  0.86186000  1.0
  C  C66  1  0.75380000  0.07921000  0.05138000  1.0
  C  C67  1  0.24620000  0.92079000  0.94862000  1.0
  C  C68  1  0.75170000  0.99590000  0.99313000  1.0
  C  C69  1  0.24829000  0.00409000  0.00688000  1.0
  C  C70  1  0.83925000  0.88621000  0.01979000  1.0
  C  C71  1  0.16075000  0.11377000  0.98022000  1.0
  C  C72  1  0.92848000  0.86108000  0.10402000  1.0
  C  C73  1  0.07151000  0.13891000  0.89599000  1.0
  C  C74  1  0.93327000  0.94456000  0.16489000  1.0
  C  C75  1  0.06673000  0.05544000  0.83511000  1.0
  C  C76  1  0.02378000  0.00300000  0.30174000  1.0
  C  C77  1  0.97622000  0.99699000  0.69826000  1.0
  C  C78  1  0.93765000  0.11175000  0.27500000  1.0
  C  C79  1  0.06235000  0.88825000  0.72500000  1.0
  C  C80  1  0.91830000  0.39788000  0.37814000  1.0
  C  C81  1  0.08170000  0.60212000  0.62187000  1.0
  C  C82  1  0.05775000  0.36693000  0.41799000  1.0
  C  C83  1  0.94226000  0.63308000  0.58201000  1.0
  C  C84  1  0.13901000  0.44933000  0.40360000  1.0
  C  C85  1  0.86100000  0.55067000  0.59641000  1.0
  C  C86  1  0.08192000  0.55954000  0.35230000  1.0
  C  C87  1  0.91809000  0.44046000  0.64771000  1.0
  C  C88  1  0.30071000  0.55427000  0.40087000  1.0
  C  C89  1  0.69930000  0.44574000  0.59913000  1.0
  C  C90  1  0.94049000  0.59030000  0.31460000  1.0
  C  C91  1  0.05952000  0.40969000  0.68541000  1.0
  C  C92  1  0.86052000  0.50760000  0.32732000  1.0
  C  C93  1  0.13948000  0.49240000  0.67269000  1.0
  N  N94  1  0.84603000  0.13860000  0.19666000  1.0
  N  N95  1  0.15397000  0.86140000  0.80334000  1.0
  N  N96  1  0.02217000  0.91941000  0.24925000  1.0
  N  N97  1  0.97782000  0.08059000  0.75075000  1.0
  N  N98  1  0.48118000  0.34339000  0.95110000  1.0
  N  N99  1  0.51881000  0.65661000  0.04889000  1.0
  N  N100  1  0.37172000  0.57002000  0.86263000  1.0
  N  N101  1  0.62827000  0.42999000  0.13736000  1.0
  N  N102  1  0.18647000  0.62302000  0.35132000  1.0
  N  N103  1  0.81353000  0.37698000  0.64868000  1.0
  N  N104  1  0.27751000  0.44970000  0.43281000  1.0
  N  N105  1  0.72250000  0.55030000  0.56719000  1.0
  O  O106  1  0.64486000  0.72434000  0.22586000  1.0
  O  O107  1  0.35514000  0.27564000  0.77415000  1.0
  O  O108  1  0.71294000  0.83763000  0.38224000  1.0
  O  O109  1  0.28706000  0.16237000  0.61775000  1.0
  O  O110  1  0.56712000  0.04121000  0.57518000  1.0
  O  O111  1  0.43288000  0.95879000  0.42482000  1.0
  O  O112  1  0.50860000  0.72777000  0.43666000  1.0
  O  O113  1  0.49140000  0.27223000  0.56334000  1.0
  O  O114  1  0.54379000  0.96214000  0.23101000  1.0
  O  O115  1  0.45621000  0.03786000  0.76899000  1.0
  O  O116  1  0.66595000  0.06676000  0.38650000  1.0
  O  O117  1  0.33404000  0.93324000  0.61350000  1.0
  O  O118  1  0.48295000  0.80508000  0.79132000  1.0
  O  O119  1  0.51705000  0.19492000  0.20867000  1.0
  O  O120  1  0.60810000  0.82903000  0.58844000  1.0
  O  O121  1  0.39190000  0.17097000  0.41156000  1.0
  O  O122  1  0.62021000  0.30037000  0.36035000  1.0
  O  O123  1  0.37979000  0.69963000  0.63965000  1.0
  O  O124  1  0.78763000  0.17859000  0.52183000  1.0
  O  O125  1  0.21236000  0.82141000  0.47816000  1.0
  O  O126  1  0.35575000  0.81659000  0.26150000  1.0
  O  O127  1  0.64425000  0.18341000  0.73850000  1.0
  O  O128  1  0.72980000  0.88642000  0.76055000  1.0
  O  O129  1  0.27020000  0.11358000  0.23945000  1.0
  O  O130  1  0.86396000  0.90943000  0.52141000  1.0
  O  O131  1  0.13603000  0.09057000  0.47859000  1.0
