# generated using pymatgen
data_ZnH16C24Br4NO5
_symmetry_space_group_name_H-M   'P 1'
_cell_length_a   10.98210000
_cell_length_b   17.85708960
_cell_length_c   19.63370000
_cell_angle_alpha   91.15321415
_cell_angle_beta   90.91910000
_cell_angle_gamma   105.53217363
_symmetry_Int_Tables_number   1
_chemical_formula_structural   ZnH16C24Br4NO5
_chemical_formula_sum   'Zn2 H32 C48 Br8 N2 O10'
_cell_volume   3708.04983062
_cell_formula_units_Z   2
loop_
 _symmetry_equiv_pos_site_id
 _symmetry_equiv_pos_as_xyz
  1  'x, y, z'
loop_
 _atom_site_type_symbol
 _atom_site_label
 _atom_site_symmetry_multiplicity
 _atom_site_fract_x
 _atom_site_fract_y
 _atom_site_fract_z
 _atom_site_occupancy
  Zn  Zn0  1  0.93639000  0.41966000  0.49675000  1.0
  Zn  Zn1  1  0.06270000  0.58180000  0.50010000  1.0
  H  H2  1  0.41331000  0.55704000  0.48907000  1.0
  H  H3  1  0.73149000  0.03741000  0.48434000  1.0
  H  H4  1  0.92916000  0.37904000  0.71109000  1.0
  H  H5  1  0.91515000  0.37555000  0.28002000  1.0
  H  H6  1  0.10540000  0.62307000  0.84661000  1.0
  H  H7  1  0.07910000  0.62086000  0.15632000  1.0
  H  H8  1  0.10211000  0.62493000  0.71910000  1.0
  H  H9  1  0.07532000  0.62266000  0.28392000  1.0
  H  H10  1  0.92150000  0.27866000  0.57428000  1.0
  H  H11  1  0.07609000  0.72457000  0.42584000  1.0
  H  H12  1  0.28927000  0.42330000  0.04757000  1.0
  H  H13  1  0.58425000  0.44276000  0.48983000  1.0
  H  H14  1  0.18008000  0.40627000  0.11612000  1.0
  H  H15  1  0.40780000  0.41752000  0.15087000  1.0
  H  H16  1  0.44894000  0.51506000  0.12486000  1.0
  H  H17  1  0.30217000  0.54703000  0.21265000  1.0
  H  H18  1  0.41713000  0.50745000  0.25210000  1.0
  H  H19  1  0.25991000  0.44895000  0.23801000  1.0
  H  H20  1  0.84576000  0.59322000  0.87749000  1.0
  H  H21  1  0.73456000  0.58170000  0.94505000  1.0
  H  H22  1  0.68384000  0.50307000  0.80298000  1.0
  H  H23  1  0.57317000  0.48994000  0.86920000  1.0
  H  H24  1  0.77986000  0.14296000  0.58047000  1.0
  H  H25  1  0.58192000  0.63331000  0.86738000  1.0
  H  H26  1  0.53799000  0.58851000  0.78591000  1.0
  H  H27  1  0.69444000  0.64690000  0.80158000  1.0
  H  H28  1  0.21857000  0.86014000  0.42037000  1.0
  H  H29  1  0.54032000  0.20417000  0.42621000  1.0
  H  H30  1  0.46117000  0.79566000  0.57106000  1.0
  H  H31  1  0.69203000  0.33680000  0.42663000  1.0
  H  H32  1  0.30894000  0.66320000  0.56965000  1.0
  H  H33  1  0.26900000  0.96419000  0.51558000  1.0
  C  C34  1  0.99241000  0.49979000  0.36554000  1.0
  C  C35  1  0.01591000  0.50088000  0.92679000  1.0
  C  C36  1  0.83611000  0.25899000  0.54241000  1.0
  C  C37  1  0.16255000  0.74351000  0.45698000  1.0
  C  C38  1  0.75735000  0.18397000  0.54526000  1.0
  C  C39  1  0.24176000  0.81846000  0.45458000  1.0
  C  C40  1  0.64867000  0.16203000  0.50312000  1.0
  C  C41  1  0.35143000  0.83952000  0.49603000  1.0
  C  C42  1  0.62316000  0.21798000  0.46010000  1.0
  C  C43  1  0.37749000  0.78265000  0.53778000  1.0
  C  C44  1  0.70704000  0.29169000  0.45985000  1.0
  C  C45  1  0.01133000  0.50259000  0.63123000  1.0
  C  C46  1  0.29328000  0.70903000  0.53752000  1.0
  C  C47  1  0.43768000  0.05828000  0.51019000  1.0
  C  C48  1  0.56273000  0.94329000  0.48957000  1.0
  C  C49  1  0.79655000  0.55037000  0.49664000  1.0
  C  C50  1  0.20140000  0.45005000  0.49324000  1.0
  C  C51  1  0.37063000  0.98014000  0.50777000  1.0
  C  C52  1  0.62983000  0.02143000  0.49207000  1.0
  C  C53  1  0.43100000  0.92080000  0.49743000  1.0
  C  C54  1  0.56937000  0.08073000  0.50216000  1.0
  C  C55  1  0.66600000  0.56133000  0.49192000  1.0
  C  C56  1  0.01515000  0.50217000  0.70771000  1.0
  C  C57  1  0.33152000  0.43864000  0.48907000  1.0
  C  C58  1  0.56312000  0.49907000  0.48911000  1.0
  C  C59  1  0.43447000  0.50071000  0.48831000  1.0
  C  C60  1  0.96768000  0.43223000  0.74116000  1.0
  C  C61  1  0.94985000  0.42908000  0.25245000  1.0
  C  C62  1  0.96971000  0.43171000  0.81201000  1.0
  C  C63  1  0.95274000  0.42866000  0.18165000  1.0
  C  C64  1  0.01809000  0.50021000  0.85122000  1.0
  C  C65  1  0.99787000  0.49750000  0.14582000  1.0
  C  C66  1  0.06662000  0.56961000  0.81665000  1.0
  C  C67  1  0.99378000  0.49938000  0.28917000  1.0
  C  C68  1  0.04229000  0.56728000  0.18373000  1.0
  C  C69  1  0.06539000  0.57097000  0.74583000  1.0
  C  C70  1  0.04040000  0.56860000  0.25448000  1.0
  C  C71  1  0.26261000  0.44830000  0.09501000  1.0
  C  C72  1  0.37196000  0.46926000  0.14623000  1.0
  C  C73  1  0.33605000  0.49473000  0.21617000  1.0
  C  C74  1  0.76126000  0.55351000  0.89921000  1.0
  C  C75  1  0.65372000  0.53233000  0.84697000  1.0
  C  C76  1  0.61496000  0.60424000  0.82428000  1.0
  C  C77  1  0.12486000  0.50864000  0.96746000  1.0
  C  C78  1  0.89351000  0.49267000  0.02974000  1.0
  C  C79  1  0.11949000  0.50782000  0.03889000  1.0
  C  C80  1  0.89899000  0.49323000  0.95852000  1.0
  C  C81  1  0.00204000  0.49866000  0.07037000  1.0
  Br  Br82  1  0.34532000  0.13229000  0.52904000  1.0
  Br  Br83  1  0.65555000  0.86958000  0.47059000  1.0
  Br  Br84  1  0.34435000  0.33466000  0.48665000  1.0
  Br  Br85  1  0.65169000  0.66507000  0.49187000  1.0
  Br  Br86  1  0.90666000  0.33486000  0.85539000  1.0
  Br  Br87  1  0.89625000  0.33113000  0.13349000  1.0
  Br  Br88  1  0.28415000  0.51901000  0.92629000  1.0
  Br  Br89  1  0.73471000  0.48415000  0.07072000  1.0
  N  N90  1  0.81179000  0.31160000  0.49997000  1.0
  N  N91  1  0.18745000  0.69004000  0.49824000  1.0
  O  O92  1  0.94597000  0.43491000  0.39361000  1.0
  O  O93  1  0.79158000  0.48263000  0.91886000  1.0
  O  O94  1  0.05615000  0.56777000  0.60335000  1.0
  O  O95  1  0.03826000  0.56504000  0.39616000  1.0
  O  O96  1  0.96327000  0.43783000  0.60022000  1.0
  O  O97  1  0.79921000  0.47956000  0.49771000  1.0
  O  O98  1  0.19904000  0.52095000  0.49624000  1.0
  O  O99  1  0.89101000  0.60965000  0.49937000  1.0
  O  O100  1  0.10695000  0.39086000  0.49381000  1.0
  O  O101  1  0.22684000  0.51889000  0.07871000  1.0
