# generated using pymatgen
data_H7PbC10N3O5
_symmetry_space_group_name_H-M   'P 1'
_cell_length_a   6.81805000
_cell_length_b   12.25420000
_cell_length_c   13.71500000
_cell_angle_alpha   67.13500000
_cell_angle_beta   90.00460000
_cell_angle_gamma   90.00110000
_symmetry_Int_Tables_number   1
_chemical_formula_structural   H7PbC10N3O5
_chemical_formula_sum   'H28 Pb4 C40 N12 O20'
_cell_volume   1055.84453143
_cell_formula_units_Z   4
loop_
 _symmetry_equiv_pos_site_id
 _symmetry_equiv_pos_as_xyz
  1  'x, y, z'
loop_
 _atom_site_type_symbol
 _atom_site_label
 _atom_site_symmetry_multiplicity
 _atom_site_fract_x
 _atom_site_fract_y
 _atom_site_fract_z
 _atom_site_occupancy
  H  H0  1  0.63309000  0.59859000  0.48634000  1.0
  H  H1  1  0.13312000  0.90138000  0.51368000  1.0
  H  H2  1  0.36689000  0.40140000  0.51366000  1.0
  H  H3  1  0.86695000  0.09857000  0.48634000  1.0
  H  H4  1  0.66063000  0.49562000  0.60269000  1.0
  H  H5  1  0.16067000  0.00437000  0.39733000  1.0
  H  H6  1  0.33933000  0.50440000  0.39731000  1.0
  H  H7  1  0.83943000  0.99558000  0.60270000  1.0
  H  H8  1  0.80617000  0.39673000  0.82435000  1.0
  H  H9  1  0.30627000  0.10327000  0.17564000  1.0
  H  H10  1  0.19378000  0.60325000  0.17565000  1.0
  H  H11  1  0.69384000  0.89676000  0.82433000  1.0
  H  H12  1  0.72183000  0.59961000  0.05258000  1.0
  H  H13  1  0.22181000  0.90039000  0.94741000  1.0
  H  H14  1  0.27819000  0.40038000  0.94741000  1.0
  H  H15  1  0.77817000  0.09962000  0.05259000  1.0
  H  H16  1  0.61946000  0.47782000  0.23768000  1.0
  H  H17  1  0.11945000  0.02219000  0.76231000  1.0
  H  H18  1  0.38056000  0.52219000  0.76232000  1.0
  H  H19  1  0.88052000  0.97782000  0.23769000  1.0
  H  H20  1  0.63537000  0.16605000  0.16698000  1.0
  H  H21  1  0.13547000  0.33396000  0.83299000  1.0
  H  H22  1  0.36454000  0.83395000  0.83302000  1.0
  H  H23  1  0.86455000  0.66605000  0.16701000  1.0
  H  H24  1  0.73172000  0.28679000  0.98124000  1.0
  H  H25  1  0.23182000  0.21322000  0.01874000  1.0
  H  H26  1  0.26810000  0.71319000  0.01875000  1.0
  H  H27  1  0.76823000  0.78680000  0.98125000  1.0
  Pb  Pb28  1  0.07026000  0.61538000  0.55599000  1.0
  Pb  Pb29  1  0.57031000  0.88462000  0.44403000  1.0
  Pb  Pb30  1  0.92971000  0.38463000  0.44400000  1.0
  Pb  Pb31  1  0.42978000  0.11538000  0.55599000  1.0
  C  C32  1  0.94430000  0.79206000  0.69331000  1.0
  C  C33  1  0.44430000  0.70793000  0.30670000  1.0
  C  C34  1  0.05570000  0.20792000  0.30669000  1.0
  C  C35  1  0.55571000  0.29208000  0.69329000  1.0
  C  C36  1  0.88978000  0.67012000  0.76987000  1.0
  C  C37  1  0.38981000  0.82987000  0.23013000  1.0
  C  C38  1  0.11019000  0.32985000  0.23013000  1.0
  C  C39  1  0.61024000  0.17015000  0.76986000  1.0
  C  C40  1  0.83249000  0.48497000  0.82192000  1.0
  C  C41  1  0.33255000  0.01503000  0.17808000  1.0
  C  C42  1  0.16747000  0.51501000  0.17808000  1.0
  C  C43  1  0.66752000  0.98499000  0.82191000  1.0
  C  C44  1  0.73840000  0.45080000  0.00736000  1.0
  C  C45  1  0.23844000  0.04920000  0.99263000  1.0
  C  C46  1  0.26153000  0.54918000  0.99263000  1.0
  C  C47  1  0.76158000  0.95081000  0.00736000  1.0
  C  C48  1  0.70591000  0.50436000  0.07909000  1.0
  C  C49  1  0.20592000  0.99565000  0.92090000  1.0
  C  C50  1  0.29407000  0.49563000  0.92091000  1.0
  C  C51  1  0.79407000  0.00437000  0.07909000  1.0
  C  C52  1  0.64939000  0.43564000  0.18233000  1.0
  C  C53  1  0.14940000  0.06437000  0.81765000  1.0
  C  C54  1  0.35061000  0.56436000  0.81767000  1.0
  C  C55  1  0.85059000  0.93565000  0.18234000  1.0
  C  C56  1  0.62485000  0.31318000  0.21434000  1.0
  C  C57  1  0.12488000  0.18683000  0.78565000  1.0
  C  C58  1  0.37514000  0.68681000  0.78567000  1.0
  C  C59  1  0.87511000  0.81319000  0.21435000  1.0
  C  C60  1  0.56559000  0.23714000  0.32516000  1.0
  C  C61  1  0.06558000  0.26287000  0.67483000  1.0
  C  C62  1  0.43447000  0.76286000  0.67486000  1.0
  C  C63  1  0.93439000  0.73715000  0.32517000  1.0
  C  C64  1  0.65456000  0.26132000  0.14074000  1.0
  C  C65  1  0.15464000  0.23869000  0.85924000  1.0
  C  C66  1  0.34536000  0.73868000  0.85926000  1.0
  C  C67  1  0.84538000  0.76132000  0.14076000  1.0
  C  C68  1  0.71072000  0.32876000  0.03747000  1.0
  C  C69  1  0.21080000  0.17125000  0.96252000  1.0
  C  C70  1  0.28916000  0.67123000  0.96253000  1.0
  C  C71  1  0.78923000  0.82876000  0.03747000  1.0
  N  N72  1  0.89031000  0.57711000  0.73789000  1.0
  N  N73  1  0.39036000  0.92288000  0.26211000  1.0
  N  N74  1  0.10967000  0.42287000  0.26211000  1.0
  N  N75  1  0.60972000  0.07714000  0.73787000  1.0
  N  N76  1  0.79894000  0.52098000  0.90271000  1.0
  N  N77  1  0.29899000  0.97902000  0.09728000  1.0
  N  N78  1  0.20100000  0.47901000  0.09728000  1.0
  N  N79  1  0.70105000  0.02099000  0.90271000  1.0
  N  N80  1  0.83471000  0.63954000  0.87027000  1.0
  N  N81  1  0.33474000  0.86046000  0.12973000  1.0
  N  N82  1  0.16524000  0.36045000  0.12972000  1.0
  N  N83  1  0.66529000  0.13956000  0.87027000  1.0
  O  O84  1  0.99069000  0.79708000  0.60060000  1.0
  O  O85  1  0.49068000  0.70292000  0.39942000  1.0
  O  O86  1  0.00931000  0.20290000  0.39940000  1.0
  O  O87  1  0.50934000  0.29709000  0.60058000  1.0
  O  O88  1  0.93882000  0.87833000  0.72072000  1.0
  O  O89  1  0.43881000  0.62165000  0.27929000  1.0
  O  O90  1  0.06120000  0.12164000  0.27928000  1.0
  O  O91  1  0.56117000  0.37836000  0.72070000  1.0
  O  O92  1  0.57029000  0.28331000  0.39491000  1.0
  O  O93  1  0.07023000  0.21671000  0.60508000  1.0
  O  O94  1  0.42984000  0.71670000  0.60511000  1.0
  O  O95  1  0.92972000  0.78332000  0.39492000  1.0
  O  O96  1  0.51126000  0.13179000  0.34497000  1.0
  O  O97  1  0.01129000  0.36823000  0.65503000  1.0
  O  O98  1  0.48876000  0.86822000  0.65507000  1.0
  O  O99  1  0.98871000  0.63180000  0.34498000  1.0
  O  O100  1  0.73032000  0.54324000  0.53597000  1.0
  O  O101  1  0.23035000  0.95673000  0.46405000  1.0
  O  O102  1  0.26965000  0.45675000  0.46403000  1.0
  O  O103  1  0.76972000  0.04323000  0.53598000  1.0
