# generated using pymatgen
data_MgH30(C4O)11
_symmetry_space_group_name_H-M   'P 1'
_cell_length_a   7.53120000
_cell_length_b   17.36370000
_cell_length_c   17.41050000
_cell_angle_alpha   102.46700000
_cell_angle_beta   95.84300000
_cell_angle_gamma   95.35230000
_symmetry_Int_Tables_number   1
_chemical_formula_structural   MgH30(C4O)11
_chemical_formula_sum   'Mg2 H60 C88 O22'
_cell_volume   2195.90407030
_cell_formula_units_Z   2
loop_
 _symmetry_equiv_pos_site_id
 _symmetry_equiv_pos_as_xyz
  1  'x, y, z'
loop_
 _atom_site_type_symbol
 _atom_site_label
 _atom_site_symmetry_multiplicity
 _atom_site_fract_x
 _atom_site_fract_y
 _atom_site_fract_z
 _atom_site_occupancy
  C  C0  1  0.02344000  0.93540500  0.07442000  1.0
  C  C1  1  0.04122000  0.71262000  0.21193000  1.0
  C  C2  1  0.04673000  0.74744000  0.14740000  1.0
  C  C3  1  0.12222000  0.99286000  0.13965000  1.0
  C  C4  1  0.16421000  0.07002000  0.13566000  1.0
  C  C5  1  0.46656000  0.43633000  0.32221500  1.0
  C  C6  1  0.38209000  0.37089000  0.25456000  1.0
  C  C7  1  0.23993000  0.31752500  0.26503000  1.0
  C  C8  1  0.16583000  0.25389500  0.20338000  1.0
  C  C9  1  0.23124000  0.24215500  0.12938000  1.0
  C  C10  1  0.37355000  0.29649000  0.11942500  1.0
  C  C11  1  0.44896000  0.35964500  0.18117000  1.0
  C  C12  1  0.14921000  0.17758500  0.06150500  1.0
  C  C13  1  0.11146000  0.09705500  0.06588000  1.0
  C  C14  1  0.02436000  0.03996500  0.99694500  1.0
  C  C15  1  0.02823000  0.14380500  0.92009500  1.0
  C  C16  1  0.10808000  0.19808500  0.98917500  1.0
  C  C17  1  0.00572000  0.17462000  0.84738500  1.0
  C  C18  1  0.05226000  0.13280500  0.77503000  1.0
  C  C19  1  0.05803000  0.16761500  0.71044500  1.0
  C  C20  1  0.01580000  0.24546000  0.71615000  1.0
  C  C21  1  0.03137000  0.28596000  0.64985000  1.0
  C  C22  1  0.52133000  0.56350000  0.67867000  1.0
  C  C23  1  0.60873000  0.62878000  0.74583500  1.0
  C  C24  1  0.74897000  0.68212500  0.73364500  1.0
  C  C25  1  0.82690000  0.74553000  0.79473000  1.0
  C  C26  1  0.76695000  0.75715000  0.86986000  1.0
  C  C27  1  0.62633000  0.70289500  0.88148500  1.0
  C  C28  1  0.54730000  0.63986000  0.82037000  1.0
  C  C29  1  0.85263000  0.82153000  0.93716500  1.0
  C  C30  1  0.89135000  0.90199500  0.93258000  1.0
  C  C31  1  0.97961000  0.95900000  0.00134500  1.0
  C  C32  1  0.97625000  0.85523500  0.07828500  1.0
  C  C33  1  0.89545000  0.80099000  0.00937000  1.0
  C  C34  1  0.99898000  0.82465500  0.15112500  1.0
  C  C35  1  0.95318000  0.86680500  0.22350500  1.0
  C  C36  1  0.94775000  0.83228000  0.28831000  1.0
  C  C37  1  0.98907000  0.75432500  0.28275500  1.0
  C  C38  1  0.97227000  0.71386000  0.34902500  1.0
  C  C39  1  0.98097000  0.06357000  0.92383500  1.0
  C  C40  1  0.96281000  0.28682000  0.78692000  1.0
  C  C41  1  0.95738000  0.25178000  0.85128500  1.0
  C  C42  1  0.88168000  0.00618500  0.85867500  1.0
  C  C43  1  0.83843000  0.92916500  0.86287000  1.0
  C  C44  1  0.96946000  0.32164000  0.43689000  1.0
  C  C45  1  0.88483000  0.25445000  0.37098500  1.0
  C  C46  1  0.74109000  0.26551500  0.31835500  1.0
  C  C47  1  0.66658000  0.20442000  0.25427000  1.0
  C  C48  1  0.73305000  0.13031000  0.24153500  1.0
  C  C49  1  0.87731000  0.11979000  0.29499000  1.0
  C  C50  1  0.95324000  0.18107000  0.35849500  1.0
  C  C51  1  0.64974000  0.06255500  0.17702000  1.0
  C  C52  1  0.61196000  0.06685500  0.09654500  1.0
  C  C53  1  0.52510000  0.99786500  0.03943500  1.0
  C  C54  1  0.48097000  0.92494000  0.06309500  1.0
  C  C55  1  0.52710000  0.92137500  0.14338500  1.0
  C  C56  1  0.60759000  0.99038000  0.19764000  1.0
  C  C57  1  0.50196000  0.84872500  0.17413000  1.0
  C  C58  1  0.54769000  0.77572500  0.13293000  1.0
  C  C59  1  0.54867000  0.71069000  0.16745000  1.0
  C  C60  1  0.50296000  0.71670500  0.24444500  1.0
  C  C61  1  0.45157000  0.78830000  0.28525500  1.0
  C  C62  1  0.45064000  0.85309500  0.25046000  1.0
  C  C63  1  0.51458000  0.64992500  0.28477500  1.0
  C  C64  1  0.38233000  0.85971000  0.00557000  1.0
  C  C65  1  0.34034000  0.86359000  0.92842000  1.0
  C  C66  1  0.02011000  0.67899500  0.56329500  1.0
  C  C67  1  0.10759000  0.74600000  0.62879500  1.0
  C  C68  1  0.25158000  0.73406500  0.68086500  1.0
  C  C69  1  0.33041000  0.79514500  0.74412000  1.0
  C  C70  1  0.26800000  0.87014500  0.75675000  1.0
  C  C71  1  0.12339000  0.88153000  0.70386500  1.0
  C  C72  1  0.04326000  0.82030500  0.64108000  1.0
  C  C73  1  0.35472000  0.93763500  0.82088000  1.0
  C  C74  1  0.39341000  0.93320000  0.90132500  1.0
  C  C75  1  0.48124000  0.00203000  0.95839000  1.0
  C  C76  1  0.52523000  0.07501500  0.93482000  1.0
  C  C77  1  0.47860000  0.07869500  0.85459500  1.0
  C  C78  1  0.39790000  0.00977000  0.80026500  1.0
  C  C79  1  0.50210000  0.15183500  0.82457500  1.0
  C  C80  1  0.45437000  0.22404500  0.86668000  1.0
  C  C81  1  0.45117000  0.28970000  0.83321000  1.0
  C  C82  1  0.49750000  0.28524000  0.75651500  1.0
  C  C83  1  0.55120000  0.21452000  0.71489000  1.0
  C  C84  1  0.55345000  0.14892500  0.74848500  1.0
  C  C85  1  0.48348000  0.35259500  0.71716000  1.0
  C  C86  1  0.62350000  0.14034000  0.99238000  1.0
  C  C87  1  0.66472000  0.13658000  0.06960500  1.0
  H  H88  1  0.07546000  0.65245500  0.20847500  1.0
  H  H89  1  0.08842000  0.71442000  0.09280500  1.0
  H  H90  1  0.16937000  0.97387000  0.19301500  1.0
  H  H91  1  0.24250000  0.11170000  0.18620000  1.0
  H  H92  1  0.19043000  0.32593500  0.32249500  1.0
  H  H93  1  0.05414000  0.21343000  0.21222000  1.0
  H  H94  1  0.42809000  0.28740000  0.06293500  1.0
  H  H95  1  0.56202000  0.40032000  0.17390000  1.0
  H  H96  1  0.14109000  0.25983000  0.98638000  1.0
  H  H97  1  0.09558000  0.07417000  0.77142000  1.0
  H  H98  1  0.10155000  0.13581500  0.65586500  1.0
  H  H99  1  0.11031000  0.27288000  0.54554500  1.0
  H  H100  1  0.79365000  0.67383000  0.67522000  1.0
  H  H101  1  0.93729000  0.78579000  0.78449500  1.0
  H  H102  1  0.57614000  0.71183500  0.93892500  1.0
  H  H103  1  0.43586000  0.59917500  0.82912000  1.0
  H  H104  1  0.86238000  0.73927500  0.01225500  1.0
  H  H105  1  0.91018000  0.92546500  0.22700500  1.0
  H  H106  1  0.90504000  0.86440500  0.34294000  1.0
  H  H107  1  0.89232000  0.72767000  0.45341500  1.0
  H  H108  1  0.77537000  0.59734000  0.48065500  1.0
  H  H109  1  0.92778000  0.34686500  0.79039500  1.0
  H  H110  1  0.91511000  0.28451500  0.90584500  1.0
  H  H111  1  0.83468000  0.02517000  0.80528000  1.0
  H  H112  1  0.75884000  0.88776000  0.81251500  1.0
  H  H113  1  0.42868000  0.62696500  0.44155500  1.0
  H  H114  1  0.30370000  0.62225500  0.51039500  1.0
  H  H115  1  0.56352000  0.37522000  0.56010000  1.0
  H  H116  1  0.68210000  0.37755000  0.48892000  1.0
  H  H117  1  0.70988000  0.52034500  0.40397500  1.0
  H  H118  1  0.93338000  0.44324500  0.62804000  1.0
  H  H119  1  0.80620000  0.51185500  0.62289500  1.0
  H  H120  1  0.06785000  0.17349500  0.39847500  1.0
  H  H121  1  0.05348000  0.55608000  0.37247000  1.0
  H  H122  1  0.17948000  0.48719000  0.37785000  1.0
  H  H123  1  0.69070000  0.32304500  0.32778000  1.0
  H  H124  1  0.55377000  0.21377000  0.21435000  1.0
  H  H125  1  0.93287000  0.06326000  0.28495000  1.0
  H  H126  1  0.64022000  0.98770500  0.25941500  1.0
  H  H127  1  0.59391000  0.77188000  0.07512000  1.0
  H  H128  1  0.59122000  0.65549500  0.13618500  1.0
  H  H129  1  0.41413000  0.79211000  0.34467500  1.0
  H  H130  1  0.40964000  0.90835000  0.28274500  1.0
  H  H131  1  0.33491000  0.80647500  0.02450500  1.0
  H  H132  1  0.26174000  0.81311000  0.88679000  1.0
  H  H133  1  0.59286000  0.54477000  0.27216000  1.0
  H  H134  1  0.29893000  0.67589000  0.67158000  1.0
  H  H135  1  0.44354000  0.78507000  0.78346500  1.0
  H  H136  1  0.07105000  0.93880000  0.71365500  1.0
  H  H137  1  0.36504000  0.01262000  0.73854500  1.0
  H  H138  1  0.40823000  0.22667500  0.92435000  1.0
  H  H139  1  0.40669000  0.34418000  0.86510000  1.0
  H  H140  1  0.58932000  0.21203500  0.65575500  1.0
  H  H141  1  0.59558000  0.09427500  0.71544500  1.0
  H  H142  1  0.67080000  0.19361000  0.97345500  1.0
  H  H143  1  0.74227000  0.18723500  0.11142000  1.0
  H  H144  1  0.39408000  0.45542500  0.72898000  1.0
  H  H145  1  0.92877000  0.82878000  0.60146500  1.0
  H  H146  1  0.27689000  0.48045000  0.59703500  1.0
  H  H147  1  0.21253000  0.40369500  0.51989000  1.0
  Mg  Mg148  1  0.49344000  0.50019000  0.50027500  1.0
  Mg  Mg149  1  0.99308000  0.50002000  0.50051000  1.0
  O  O150  1  0.00943000  0.64550500  0.34597000  1.0
  O  O151  1  0.61649000  0.47459000  0.31626000  1.0
  O  O152  1  0.38732000  0.45031000  0.38435000  1.0
  O  O153  1  0.09838000  0.24248500  0.58877500  1.0
  O  O154  1  0.37101000  0.52601500  0.68528500  1.0
  O  O155  1  0.59918000  0.54900000  0.61616000  1.0
  O  O156  1  0.90965000  0.75827000  0.41075000  1.0
  O  O157  1  0.74314000  0.53729500  0.46395500  1.0
  O  O158  1  0.98908000  0.35341000  0.65204500  1.0
  O  O159  1  0.41974000  0.61005500  0.49174000  1.0
  O  O160  1  0.24417000  0.46380000  0.53707500  1.0
  O  O161  1  0.56732000  0.39020000  0.50868500  1.0
  O  O162  1  0.09873000  0.61631500  0.54832500  1.0
  O  O163  1  0.92251000  0.49327000  0.61084500  1.0
  O  O164  1  0.12174000  0.31575500  0.47374500  1.0
  O  O165  1  0.06348000  0.50608000  0.38995500  1.0
  O  O166  1  0.88816000  0.38346000  0.45235000  1.0
  O  O167  1  0.47356000  0.65319000  0.35227000  1.0
  O  O168  1  0.57693000  0.58744500  0.24117000  1.0
  O  O169  1  0.53174000  0.35196500  0.65132000  1.0
  O  O170  1  0.41041000  0.41241000  0.75949500  1.0
  O  O171  1  0.86919000  0.68595000  0.52589500  1.0
