# generated using pymatgen
data_VCuPH10C13N2O5F
_symmetry_space_group_name_H-M   'P 1'
_cell_length_a   8.80345000
_cell_length_b   10.39180000
_cell_length_c   15.92930000
_cell_angle_alpha   100.85000000
_cell_angle_beta   90.00000000
_cell_angle_gamma   89.99920000
_symmetry_Int_Tables_number   1
_chemical_formula_structural   VCuPH10C13N2O5F
_chemical_formula_sum   'V4 Cu4 P4 H40 C52 N8 O20 F4'
_cell_volume   1431.22005182
_cell_formula_units_Z   4
loop_
 _symmetry_equiv_pos_site_id
 _symmetry_equiv_pos_as_xyz
  1  'x, y, z'
loop_
 _atom_site_type_symbol
 _atom_site_label
 _atom_site_symmetry_multiplicity
 _atom_site_fract_x
 _atom_site_fract_y
 _atom_site_fract_z
 _atom_site_occupancy
  V  V0  1  0.45627000  0.85176000  0.77700000  1.0
  V  V1  1  0.95627000  0.64823000  0.72300000  1.0
  V  V2  1  0.54373000  0.14823000  0.22300000  1.0
  V  V3  1  0.04373000  0.35177000  0.27700000  1.0
  Cu  Cu4  1  0.25552000  0.55180000  0.83980000  1.0
  Cu  Cu5  1  0.75551000  0.94821000  0.66020000  1.0
  Cu  Cu6  1  0.74448000  0.44820000  0.16020000  1.0
  Cu  Cu7  1  0.24448000  0.05182000  0.33980000  1.0
  P  P8  1  0.28338000  0.59651000  0.66142000  1.0
  P  P9  1  0.78338000  0.90349000  0.83858000  1.0
  P  P10  1  0.71662000  0.40349000  0.33858000  1.0
  P  P11  1  0.21662000  0.09651000  0.16142000  1.0
  H  H12  1  0.60373000  0.54172000  0.64791000  1.0
  H  H13  1  0.10373000  0.95828000  0.85209000  1.0
  H  H14  1  0.39627000  0.45828000  0.35209000  1.0
  H  H15  1  0.89627000  0.04172000  0.14791000  1.0
  H  H16  1  0.22490000  0.53187000  0.47322000  1.0
  H  H17  1  0.72490000  0.96813000  0.02678000  1.0
  H  H18  1  0.77511000  0.46813000  0.52678000  1.0
  H  H19  1  0.27510000  0.03188000  0.97322000  1.0
  H  H20  1  0.05773000  0.74372000  0.95629000  1.0
  H  H21  1  0.55773000  0.75628000  0.54371000  1.0
  H  H22  1  0.94227000  0.25629000  0.04371000  1.0
  H  H23  1  0.44227000  0.24371000  0.45629000  1.0
  H  H24  1  0.97934000  0.77121000  0.11034000  1.0
  H  H25  1  0.47935000  0.72879000  0.38966000  1.0
  H  H26  1  0.02066000  0.22879000  0.88966000  1.0
  H  H27  1  0.52066000  0.27121000  0.61034000  1.0
  H  H28  1  0.07947000  0.60642000  0.19717000  1.0
  H  H29  1  0.57947000  0.89359000  0.30283000  1.0
  H  H30  1  0.92053000  0.39359000  0.80283000  1.0
  H  H31  1  0.42053000  0.10641000  0.69717000  1.0
  H  H32  1  0.25100000  0.43143000  0.12838000  1.0
  H  H33  1  0.75100000  0.06857000  0.37162000  1.0
  H  H34  1  0.74900000  0.56857000  0.87162000  1.0
  H  H35  1  0.24900000  0.93143000  0.62837000  1.0
  H  H36  1  0.39704000  0.28299000  0.05632000  1.0
  H  H37  1  0.89704000  0.21700000  0.44369000  1.0
  H  H38  1  0.60296000  0.71701000  0.94369000  1.0
  H  H39  1  0.10296000  0.78299000  0.55631000  1.0
  H  H40  1  0.56940000  0.13015000  0.96317000  1.0
  H  H41  1  0.06940000  0.36984000  0.53683000  1.0
  H  H42  1  0.43060000  0.86985000  0.03684000  1.0
  H  H43  1  0.93060000  0.63015000  0.46316000  1.0
  H  H44  1  0.62822000  0.16723000  0.81606000  1.0
  H  H45  1  0.12822000  0.33276000  0.68394000  1.0
  H  H46  1  0.37178000  0.83276000  0.18394000  1.0
  H  H47  1  0.87178000  0.66724000  0.31606000  1.0
  H  H48  1  0.49662000  0.35671000  0.76478000  1.0
  H  H49  1  0.99662000  0.14328000  0.73522000  1.0
  H  H50  1  0.50338000  0.64328000  0.23522000  1.0
  H  H51  1  0.00338000  0.85672000  0.26478000  1.0
  C  C52  1  0.40175000  0.54182000  0.56919000  1.0
  C  C53  1  0.90175000  0.95817000  0.93081000  1.0
  C  C54  1  0.59825000  0.45817000  0.43081000  1.0
  C  C55  1  0.09825000  0.04183000  0.06919000  1.0
  C  C56  1  0.55725000  0.52334000  0.58329000  1.0
  C  C57  1  0.05725000  0.97665000  0.91670000  1.0
  C  C58  1  0.44275000  0.47666000  0.41671000  1.0
  C  C59  1  0.94275000  0.02335000  0.08329000  1.0
  C  C60  1  0.34510000  0.51828000  0.48536000  1.0
  C  C61  1  0.84510000  0.98173000  0.01463000  1.0
  C  C62  1  0.65490000  0.48172000  0.51464000  1.0
  C  C63  1  0.15490000  0.01828000  0.98536000  1.0
  C  C64  1  0.09904000  0.67902000  0.99769000  1.0
  C  C65  1  0.59905000  0.82098000  0.50231000  1.0
  C  C66  1  0.90095000  0.32098000  0.00231000  1.0
  C  C67  1  0.40095000  0.17902000  0.49769000  1.0
  C  C68  1  0.05564000  0.69191000  0.08304000  1.0
  C  C69  1  0.55564000  0.80809000  0.41696000  1.0
  C  C70  1  0.94436000  0.30809000  0.91696000  1.0
  C  C71  1  0.44436000  0.19191000  0.58304000  1.0
  C  C72  1  0.11050000  0.60208000  0.13048000  1.0
  C  C73  1  0.61050000  0.89792000  0.36952000  1.0
  C  C74  1  0.88950000  0.39792000  0.86952000  1.0
  C  C75  1  0.38950000  0.10208000  0.63048000  1.0
  C  C76  1  0.20889000  0.50315000  0.09220000  1.0
  C  C77  1  0.70889000  0.99685000  0.40780000  1.0
  C  C78  1  0.79111000  0.49686000  0.90780000  1.0
  C  C79  1  0.29111000  0.00315000  0.59220000  1.0
  C  C80  1  0.24959000  0.49659000  0.00691000  1.0
  C  C81  1  0.74959000  0.00341000  0.49310000  1.0
  C  C82  1  0.75041000  0.50341000  0.99310000  1.0
  C  C83  1  0.25041000  0.99659000  0.50690000  1.0
  C  C84  1  0.35295000  0.39868000  0.95882000  1.0
  C  C85  1  0.85295000  0.10132000  0.54118000  1.0
  C  C86  1  0.64705000  0.60133000  0.04118000  1.0
  C  C87  1  0.14705000  0.89868000  0.45882000  1.0
  C  C88  1  0.41936000  0.29655000  0.99137000  1.0
  C  C89  1  0.91936000  0.20345000  0.50863000  1.0
  C  C90  1  0.58064000  0.70345000  0.00863000  1.0
  C  C91  1  0.08064000  0.79655000  0.49137000  1.0
  C  C92  1  0.51803000  0.21166000  0.93954000  1.0
  C  C93  1  0.01802000  0.28833000  0.56047000  1.0
  C  C94  1  0.48197000  0.78834000  0.06047000  1.0
  C  C95  1  0.98198000  0.71166000  0.43953000  1.0
  C  C96  1  0.54960000  0.23136000  0.85712000  1.0
  C  C97  1  0.04960000  0.26864000  0.64288000  1.0
  C  C98  1  0.45040000  0.76864000  0.14288000  1.0
  C  C99  1  0.95040000  0.73137000  0.35712000  1.0
  C  C100  1  0.47863000  0.33475000  0.82829000  1.0
  C  C101  1  0.97863000  0.16524000  0.67171000  1.0
  C  C102  1  0.52137000  0.66524000  0.17171000  1.0
  C  C103  1  0.02137000  0.83476000  0.32829000  1.0
  N  N104  1  0.19332000  0.58372000  0.96122000  1.0
  N  N105  1  0.69332000  0.91628000  0.53878000  1.0
  N  N106  1  0.80668000  0.41628000  0.03878000  1.0
  N  N107  1  0.30668000  0.08373000  0.46122000  1.0
  N  N108  1  0.38172000  0.41492000  0.87773000  1.0
  N  N109  1  0.88172000  0.08507000  0.62228000  1.0
  N  N110  1  0.61828000  0.58508000  0.12227000  1.0
  N  N111  1  0.11828000  0.91492000  0.37773000  1.0
  O  O112  1  0.32090000  0.74177000  0.69660000  1.0
  O  O113  1  0.82090000  0.75822000  0.80340000  1.0
  O  O114  1  0.67911000  0.25822000  0.30339000  1.0
  O  O115  1  0.17910000  0.24178000  0.19660000  1.0
  O  O116  1  0.32613000  0.50330000  0.72266000  1.0
  O  O117  1  0.82613000  0.99670000  0.77733000  1.0
  O  O118  1  0.67387000  0.49670000  0.27734000  1.0
  O  O119  1  0.17387000  0.00330000  0.22266000  1.0
  O  O120  1  0.11565000  0.58657000  0.63234000  1.0
  O  O121  1  0.61564000  0.91343000  0.86766000  1.0
  O  O122  1  0.88435000  0.41343000  0.36766000  1.0
  O  O123  1  0.38435000  0.08657000  0.13234000  1.0
  O  O124  1  0.35250000  0.98265000  0.79573000  1.0
  O  O125  1  0.85249000  0.51734000  0.70427000  1.0
  O  O126  1  0.64752000  0.01734000  0.20426000  1.0
  O  O127  1  0.14751000  0.48266000  0.29574000  1.0
  O  O128  1  0.08307000  0.63832000  0.80190000  1.0
  O  O129  1  0.58308000  0.86167000  0.69810000  1.0
  O  O130  1  0.91694000  0.36168000  0.19810000  1.0
  O  O131  1  0.41695000  0.13833000  0.30189000  1.0
  F  F132  1  0.41699000  0.73161000  0.84895000  1.0
  F  F133  1  0.91699000  0.76838000  0.65105000  1.0
  F  F134  1  0.58302000  0.26840000  0.15104000  1.0
  F  F135  1  0.08303000  0.23161000  0.34896000  1.0
