# generated using pymatgen
data_KH14C6IN4O
_symmetry_space_group_name_H-M   'P 1'
_cell_length_a   6.79915000
_cell_length_b   9.50861286
_cell_length_c   10.04390000
_cell_angle_alpha   100.13986993
_cell_angle_beta   109.77690000
_cell_angle_gamma   110.93788673
_symmetry_Int_Tables_number   1
_chemical_formula_structural   KH14C6IN4O
_chemical_formula_sum   'K2 H28 C12 I2 N8 O2'
_cell_volume   537.12946635
_cell_formula_units_Z   2
loop_
 _symmetry_equiv_pos_site_id
 _symmetry_equiv_pos_as_xyz
  1  'x, y, z'
loop_
 _atom_site_type_symbol
 _atom_site_label
 _atom_site_symmetry_multiplicity
 _atom_site_fract_x
 _atom_site_fract_y
 _atom_site_fract_z
 _atom_site_occupancy
  K  K0  1  0.68776000  0.66447000  0.71091000  1.0
  K  K1  1  0.31220000  0.33552000  0.28907000  1.0
  H  H2  1  0.66422000  0.71233000  0.38407000  1.0
  H  H3  1  0.56835000  0.28781000  0.61604000  1.0
  H  H4  1  0.33578000  0.28767000  0.61593000  1.0
  H  H5  1  0.43164000  0.71219000  0.38395000  1.0
  H  H6  1  0.18754000  0.11990000  0.98908000  1.0
  H  H7  1  0.07827000  0.87997000  0.01086000  1.0
  H  H8  1  0.81247000  0.88010000  0.01092000  1.0
  H  H9  1  0.92174000  0.12003000  0.98914000  1.0
  H  H10  1  0.42028000  0.31141000  0.91405000  1.0
  H  H11  1  0.19430000  0.68836000  0.08588000  1.0
  H  H12  1  0.57972000  0.68859000  0.08595000  1.0
  H  H13  1  0.80570000  0.31164000  0.91413000  1.0
  H  H14  1  0.33195000  0.45691000  0.85640000  1.0
  H  H15  1  0.01800000  0.54291000  0.14351000  1.0
  H  H16  1  0.66805000  0.54309000  0.14360000  1.0
  H  H17  1  0.98199000  0.45709000  0.85649000  1.0
  H  H18  1  0.95178000  0.97378000  0.58285000  1.0
  H  H19  1  0.39500000  0.02608000  0.41702000  1.0
  H  H20  1  0.04822000  0.02622000  0.41715000  1.0
  H  H21  1  0.60500000  0.97392000  0.58298000  1.0
  H  H22  1  0.20291000  0.03492000  0.75606000  1.0
  H  H23  1  0.41131000  0.96461000  0.24368000  1.0
  H  H24  1  0.79709000  0.96508000  0.24394000  1.0
  H  H25  1  0.58868000  0.03538000  0.75632000  1.0
  H  H26  1  0.00105000  0.37661000  0.62484000  1.0
  H  H27  1  0.99895000  0.62339000  0.37516000  1.0
  H  H28  1  0.83863000  0.17226000  0.50455000  1.0
  H  H29  1  0.16138000  0.82774000  0.49545000  1.0
  C  C30  1  0.03595000  0.14018000  0.93149000  1.0
  C  C31  1  0.96405000  0.85982000  0.06851000  1.0
  C  C32  1  0.27042000  0.33316000  0.85641000  1.0
  C  C33  1  0.08031667  0.66666667  0.14353000  1.0
  C  C34  1  0.72958000  0.66684000  0.14359000  1.0
  C  C35  1  0.91968333  0.33333333  0.85647000  1.0
  C  C36  1  0.05346000  0.05727000  0.69913000  1.0
  C  C37  1  0.29664000  0.94253000  0.30077000  1.0
  C  C38  1  0.94655000  0.94273000  0.30087000  1.0
  C  C39  1  0.70336000  0.05747000  0.69923000  1.0
  C  C40  1  0.93745000  0.25187000  0.62247000  1.0
  C  C41  1  0.06255000  0.74813000  0.37753000  1.0
  I  I42  1  0.27524000  0.74586000  0.80503000  1.0
  I  I43  1  0.72476000  0.25415000  0.19497000  1.0
  N  N44  1  0.90113000  0.02576000  0.77629000  1.0
  N  N45  1  0.09887000  0.97424000  0.22371000  1.0
  N  N46  1  0.12261000  0.30796000  0.93690000  1.0
  N  N47  1  0.87739000  0.69204000  0.06310000  1.0
  N  N48  1  0.14032000  0.22350000  0.69784000  1.0
  N  N49  1  0.21843000  0.77631000  0.30211000  1.0
  N  N50  1  0.85968000  0.77650000  0.30217000  1.0
  N  N51  1  0.78158000  0.22369000  0.69789000  1.0
  O  O52  1  0.54497000  0.66760000  0.42270000  1.0
  O  O53  1  0.45503000  0.33240000  0.57730000  1.0
