# generated using pymatgen
data_CoH24C42(N3Cl)2
_symmetry_space_group_name_H-M   'P 1'
_cell_length_a   9.28101000
_cell_length_b   19.12630000
_cell_length_c   19.12570000
_cell_angle_alpha   117.43400000
_cell_angle_beta   99.30040000
_cell_angle_gamma   99.32470000
_symmetry_Int_Tables_number   1
_chemical_formula_structural   CoH24C42(N3Cl)2
_chemical_formula_sum   'Co3 H72 C126 N18 Cl6'
_cell_volume   2863.18091441
_cell_formula_units_Z   3
loop_
 _symmetry_equiv_pos_site_id
 _symmetry_equiv_pos_as_xyz
  1  'x, y, z'
loop_
 _atom_site_type_symbol
 _atom_site_label
 _atom_site_symmetry_multiplicity
 _atom_site_fract_x
 _atom_site_fract_y
 _atom_site_fract_z
 _atom_site_occupancy
  Co  Co0  1  0.50002000  0.00002000  0.50001000  1.0
  Co  Co1  1  0.00001000  0.49999000  0.50002000  1.0
  Co  Co2  1  0.50000000  0.49999000  0.99998000  1.0
  H  H3  1  0.98243000  0.23290000  0.57714000  1.0
  H  H4  1  0.40477000  0.42263000  0.65581000  1.0
  H  H5  1  0.74937000  0.34422000  0.76700000  1.0
  H  H6  1  0.01758000  0.76711000  0.42286000  1.0
  H  H7  1  0.59524000  0.57737000  0.34421000  1.0
  H  H8  1  0.25063000  0.65577000  0.23298000  1.0
  H  H9  1  0.07848000  0.14685000  0.64626000  1.0
  H  H10  1  0.43178000  0.35348000  0.50062000  1.0
  H  H11  1  0.93117000  0.49950000  0.85294000  1.0
  H  H12  1  0.92150000  0.85316000  0.35374000  1.0
  H  H13  1  0.56821000  0.64652000  0.49939000  1.0
  H  H14  1  0.06880000  0.50049000  0.14705000  1.0
  H  H15  1  0.81755000  0.88714000  0.65708000  1.0
  H  H16  1  0.16106000  0.34301000  0.23026000  1.0
  H  H17  1  0.93064000  0.76989000  0.11270000  1.0
  H  H18  1  0.18247000  0.11286000  0.34293000  1.0
  H  H19  1  0.83895000  0.65698000  0.76974000  1.0
  H  H20  1  0.06937000  0.23012000  0.88730000  1.0
  H  H21  1  0.53314000  0.78856000  0.59931000  1.0
  H  H22  1  0.93437000  0.40065000  0.18931000  1.0
  H  H23  1  0.74501000  0.81077000  0.21139000  1.0
  H  H24  1  0.46687000  0.21145000  0.40069000  1.0
  H  H25  1  0.06563000  0.59934000  0.81069000  1.0
  H  H26  1  0.25499000  0.18924000  0.78860000  1.0
  H  H27  1  0.84965000  0.18314000  0.39506000  1.0
  H  H28  1  0.45405000  0.60509000  0.78818000  1.0
  H  H29  1  0.66621000  0.21193000  0.81688000  1.0
  H  H30  1  0.15034000  0.81686000  0.60495000  1.0
  H  H31  1  0.54593000  0.39491000  0.21181000  1.0
  H  H32  1  0.33379000  0.78808000  0.18312000  1.0
  H  H33  1  0.64370000  0.32024000  0.58299000  1.0
  H  H34  1  0.06030000  0.41699000  0.73727000  1.0
  H  H35  1  0.32325000  0.26263000  0.67962000  1.0
  H  H36  1  0.35629000  0.67975000  0.41701000  1.0
  H  H37  1  0.93968000  0.58301000  0.26273000  1.0
  H  H38  1  0.67675000  0.73738000  0.32039000  1.0
  H  H39  1  0.91697000  0.05398000  0.77494000  1.0
  H  H40  1  0.14194000  0.22516000  0.27919000  1.0
  H  H41  1  0.86308000  0.72098000  0.94589000  1.0
  H  H42  1  0.08303000  0.94602000  0.22506000  1.0
  H  H43  1  0.85806000  0.77484000  0.72081000  1.0
  H  H44  1  0.13692000  0.27902000  0.05410000  1.0
  H  H45  1  0.09551000  0.98128000  0.56511000  1.0
  H  H46  1  0.53047000  0.43496000  0.41593000  1.0
  H  H47  1  0.11391000  0.58380000  0.01867000  1.0
  H  H48  1  0.90449000  0.01873000  0.43490000  1.0
  H  H49  1  0.46952000  0.56503000  0.58407000  1.0
  H  H50  1  0.88608000  0.41620000  0.98132000  1.0
  H  H51  1  0.95118000  0.31253000  0.39498000  1.0
  H  H52  1  0.55574000  0.60510000  0.91759000  1.0
  H  H53  1  0.63868000  0.08254000  0.68750000  1.0
  H  H54  1  0.04880000  0.68747000  0.60503000  1.0
  H  H55  1  0.44424000  0.39489000  0.08239000  1.0
  H  H56  1  0.36132000  0.91748000  0.31250000  1.0
  H  H57  1  0.75341000  0.44387000  0.57496000  1.0
  H  H58  1  0.17814000  0.42489000  0.86885000  1.0
  H  H59  1  0.30969000  0.13108000  0.55600000  1.0
  H  H60  1  0.24660000  0.55613000  0.42505000  1.0
  H  H61  1  0.82185000  0.57510000  0.13115000  1.0
  H  H62  1  0.69031000  0.86893000  0.44401000  1.0
  H  H63  1  0.16162000  0.06137000  0.85777000  1.0
  H  H64  1  0.30344000  0.14225000  0.20351000  1.0
  H  H65  1  0.10058000  0.79647000  0.93871000  1.0
  H  H66  1  0.83838000  0.93863000  0.14223000  1.0
  H  H67  1  0.69655000  0.85774000  0.79649000  1.0
  H  H68  1  0.89941000  0.20353000  0.06128000  1.0
  H  H69  1  0.33681000  0.98583000  0.64649000  1.0
  H  H70  1  0.69019000  0.35349000  0.33892000  1.0
  H  H71  1  0.35089000  0.66060000  0.01425000  1.0
  H  H72  1  0.66319000  0.01418000  0.35351000  1.0
  H  H73  1  0.30979000  0.64650000  0.66108000  1.0
  H  H74  1  0.64910000  0.33940000  0.98574000  1.0
  C  C75  1  0.76054000  0.13761000  0.53084000  1.0
  C  C76  1  0.22944000  0.46907000  0.60684000  1.0
  C  C77  1  0.62272000  0.39315000  0.86229000  1.0
  C  C78  1  0.23948000  0.86241000  0.46917000  1.0
  C  C79  1  0.77056000  0.53092000  0.39317000  1.0
  C  C80  1  0.37728000  0.60684000  0.13769000  1.0
  C  C81  1  0.83888000  0.06760000  0.58622000  1.0
  C  C82  1  0.25259000  0.41371000  0.48148000  1.0
  C  C83  1  0.77096000  0.51859000  0.93222000  1.0
  C  C84  1  0.16112000  0.93242000  0.41379000  1.0
  C  C85  1  0.74740000  0.58628000  0.51853000  1.0
  C  C86  1  0.22902000  0.48140000  0.06776000  1.0
  C  C87  1  0.71432000  0.95242000  0.59863000  1.0
  C  C88  1  0.11603000  0.40148000  0.35393000  1.0
  C  C89  1  0.76197000  0.64619000  0.04754000  1.0
  C  C90  1  0.28570000  0.04760000  0.40139000  1.0
  C  C91  1  0.88397000  0.59851000  0.64608000  1.0
  C  C92  1  0.23804000  0.35381000  0.95244000  1.0
  C  C93  1  0.48311000  0.87138000  0.55041000  1.0
  C  C94  1  0.93302000  0.44960000  0.32101000  1.0
  C  C95  1  0.61206000  0.67904000  0.12869000  1.0
  C  C96  1  0.51690000  0.12863000  0.44961000  1.0
  C  C97  1  0.06696000  0.55039000  0.67900000  1.0
  C  C98  1  0.38793000  0.32095000  0.87129000  1.0
  C  C99  1  0.91855000  0.17811000  0.57382000  1.0
  C  C100  1  0.34435000  0.42600000  0.60435000  1.0
  C  C101  1  0.74027000  0.39567000  0.82179000  1.0
  C  C102  1  0.08146000  0.82191000  0.42619000  1.0
  C  C103  1  0.65565000  0.57399000  0.39566000  1.0
  C  C104  1  0.25973000  0.60431000  0.17819000  1.0
  C  C105  1  0.67009000  0.16605000  0.49013000  1.0
  C  C106  1  0.17965000  0.50990000  0.67598000  1.0
  C  C107  1  0.50372000  0.32400000  0.83386000  1.0
  C  C108  1  0.32992000  0.83397000  0.50988000  1.0
  C  C109  1  0.82034000  0.49009000  0.32403000  1.0
  C  C110  1  0.49627000  0.67600000  0.16612000  1.0
  C  C111  1  0.96715000  0.13460000  0.60817000  1.0
  C  C112  1  0.35864000  0.39164000  0.52649000  1.0
  C  C113  1  0.83219000  0.47360000  0.86522000  1.0
  C  C114  1  0.03285000  0.86542000  0.39183000  1.0
  C  C115  1  0.64135000  0.60836000  0.47353000  1.0
  C  C116  1  0.16779000  0.52639000  0.13476000  1.0
  C  C117  1  0.84282000  0.01237000  0.61467000  1.0
  C  C118  1  0.22834000  0.38537000  0.39783000  1.0
  C  C119  1  0.83027000  0.60226000  0.98748000  1.0
  C  C120  1  0.15719000  0.98765000  0.38534000  1.0
  C  C121  1  0.77165000  0.61462000  0.60218000  1.0
  C  C122  1  0.16972000  0.39773000  0.01250000  1.0
  C  C123  1  0.71754000  0.89117000  0.62256000  1.0
  C  C124  1  0.09552000  0.37753000  0.26876000  1.0
  C  C125  1  0.82664000  0.73136000  0.10874000  1.0
  C  C126  1  0.28248000  0.10884000  0.37745000  1.0
  C  C127  1  0.90448000  0.62245000  0.73125000  1.0
  C  C128  1  0.17337000  0.26863000  0.89124000  1.0
  C  C129  1  0.57415000  0.84109000  0.59287000  1.0
  C  C130  1  0.98182000  0.40715000  0.24830000  1.0
  C  C131  1  0.73347000  0.75179000  0.15889000  1.0
  C  C132  1  0.42586000  0.15893000  0.40714000  1.0
  C  C133  1  0.01817000  0.59283000  0.75171000  1.0
  C  C134  1  0.26653000  0.24820000  0.84109000  1.0
  C  C135  1  0.73891000  0.24152000  0.48972000  1.0
  C  C136  1  0.24873000  0.51034000  0.75187000  1.0
  C  C137  1  0.49706000  0.24812000  0.75842000  1.0
  C  C138  1  0.26110000  0.75848000  0.51029000  1.0
  C  C139  1  0.75127000  0.48965000  0.24813000  1.0
  C  C140  1  0.50295000  0.75188000  0.24157000  1.0
  C  C141  1  0.98905000  0.01730000  0.66424000  1.0
  C  C142  1  0.32494000  0.33579000  0.35311000  1.0
  C  C143  1  0.97164000  0.64690000  0.98256000  1.0
  C  C144  1  0.01096000  0.98273000  0.33577000  1.0
  C  C145  1  0.67506000  0.66420000  0.64691000  1.0
  C  C146  1  0.02834000  0.35308000  0.01741000  1.0
  C  C147  1  0.82730000  0.24005000  0.43661000  1.0
  C  C148  1  0.39023000  0.56346000  0.80349000  1.0
  C  C149  1  0.58702000  0.19656000  0.75994000  1.0
  C  C150  1  0.17270000  0.75994000  0.56340000  1.0
  C  C151  1  0.60976000  0.43653000  0.19649000  1.0
  C  C152  1  0.41299000  0.80346000  0.24007000  1.0
  C  C153  1  0.71219000  0.31619000  0.54066000  1.0
  C  C154  1  0.17110000  0.45933000  0.77556000  1.0
  C  C155  1  0.39581000  0.22439000  0.68371000  1.0
  C  C156  1  0.28781000  0.68381000  0.45935000  1.0
  C  C157  1  0.82890000  0.54065000  0.22443000  1.0
  C  C158  1  0.60420000  0.77563000  0.31629000  1.0
  C  C159  1  0.00923000  0.03909000  0.74676000  1.0
  C  C160  1  0.26240000  0.25328000  0.29237000  1.0
  C  C161  1  0.97018000  0.70766000  0.96082000  1.0
  C  C162  1  0.99077000  0.96092000  0.25324000  1.0
  C  C163  1  0.73760000  0.74671000  0.70764000  1.0
  C  C164  1  0.02981000  0.29232000  0.03917000  1.0
  C  C165  1  0.10910000  0.99882000  0.62918000  1.0
  C  C166  1  0.47998000  0.37086000  0.36948000  1.0
  C  C167  1  0.11014000  0.63033000  0.00112000  1.0
  C  C168  1  0.89091000  0.00121000  0.37083000  1.0
  C  C169  1  0.52002000  0.62913000  0.63053000  1.0
  C  C170  1  0.88986000  0.36965000  0.99886000  1.0
  C  C171  1  0.88351000  0.31185000  0.43632000  1.0
  C  C172  1  0.44677000  0.56370000  0.87555000  1.0
  C  C173  1  0.57162000  0.12451000  0.68815000  1.0
  C  C174  1  0.11650000  0.68814000  0.56370000  1.0
  C  C175  1  0.55322000  0.43629000  0.12444000  1.0
  C  C176  1  0.42840000  0.87551000  0.31185000  1.0
  C  C177  1  0.77286000  0.38503000  0.53624000  1.0
  C  C178  1  0.23626000  0.46367000  0.84875000  1.0
  C  C179  1  0.38784000  0.15118000  0.61487000  1.0
  C  C180  1  0.22716000  0.61497000  0.46377000  1.0
  C  C181  1  0.76374000  0.53631000  0.15123000  1.0
  C  C182  1  0.61218000  0.84884000  0.38513000  1.0
  C  C183  1  0.14538000  0.04275000  0.79333000  1.0
  C  C184  1  0.35184000  0.20669000  0.24934000  1.0
  C  C185  1  0.10285000  0.75062000  0.95730000  1.0
  C  C186  1  0.85462000  0.95727000  0.20667000  1.0
  C  C187  1  0.64816000  0.79331000  0.75067000  1.0
  C  C188  1  0.89714000  0.24937000  0.04268000  1.0
  C  C189  1  0.24517000  0.00112000  0.67463000  1.0
  C  C190  1  0.57046000  0.32536000  0.32624000  1.0
  C  C191  1  0.24403000  0.67347000  0.99889000  1.0
  C  C192  1  0.75484000  0.99890000  0.32538000  1.0
  C  C193  1  0.42954000  0.67463000  0.67377000  1.0
  C  C194  1  0.75596000  0.32652000  0.00109000  1.0
  C  C195  1  0.26288000  0.02355000  0.75669000  1.0
  C  C196  1  0.50595000  0.24329000  0.26665000  1.0
  C  C197  1  0.23951000  0.73316000  0.97653000  1.0
  C  C198  1  0.73712000  0.97647000  0.24331000  1.0
  C  C199  1  0.49405000  0.75671000  0.73336000  1.0
  C  C200  1  0.76047000  0.26683000  0.02345000  1.0
  N  N201  1  0.71263000  0.06949000  0.53806000  1.0
  N  N202  1  0.17449000  0.46188000  0.53151000  1.0
  N  N203  1  0.64288000  0.46850000  0.93037000  1.0
  N  N204  1  0.28737000  0.93052000  0.46195000  1.0
  N  N205  1  0.82549000  0.53812000  0.46850000  1.0
  N  N206  1  0.35710000  0.53149000  0.06962000  1.0
  N  N207  1  0.56905000  0.94032000  0.55496000  1.0
  N  N208  1  0.01432000  0.44508000  0.38543000  1.0
  N  N209  1  0.62883000  0.61464000  0.05970000  1.0
  N  N210  1  0.43097000  0.05969000  0.44506000  1.0
  N  N211  1  0.98568000  0.55490000  0.61457000  1.0
  N  N212  1  0.37118000  0.38536000  0.94029000  1.0
  N  N213  1  0.85755000  0.38344000  0.48510000  1.0
  N  N214  1  0.37211000  0.51482000  0.89830000  1.0
  N  N215  1  0.47417000  0.10168000  0.61651000  1.0
  N  N216  1  0.14248000  0.61655000  0.51492000  1.0
  N  N217  1  0.62789000  0.48515000  0.10167000  1.0
  N  N218  1  0.52586000  0.89835000  0.38349000  1.0
  Cl  Cl219  1  0.43333000  0.02866000  0.81398000  1.0
  Cl  Cl220  1  0.61887000  0.18586000  0.21443000  1.0
  Cl  Cl221  1  0.40494000  0.78529000  0.97140000  1.0
  Cl  Cl222  1  0.56667000  0.97136000  0.18603000  1.0
  Cl  Cl223  1  0.38112000  0.81413000  0.78558000  1.0
  Cl  Cl224  1  0.59504000  0.21471000  0.02857000  1.0
