# generated using pymatgen
data_CdH12C16(N3O2)2
_symmetry_space_group_name_H-M   'P 1'
_cell_length_a   7.07956000
_cell_length_b   9.53437000
_cell_length_c   13.03960000
_cell_angle_alpha   68.57800000
_cell_angle_beta   76.82700000
_cell_angle_gamma   89.99670000
_symmetry_Int_Tables_number   1
_chemical_formula_structural   CdH12C16(N3O2)2
_chemical_formula_sum   'Cd2 H24 C32 N12 O8'
_cell_volume   794.43016670
_cell_formula_units_Z   2
loop_
 _symmetry_equiv_pos_site_id
 _symmetry_equiv_pos_as_xyz
  1  'x, y, z'
loop_
 _atom_site_type_symbol
 _atom_site_label
 _atom_site_symmetry_multiplicity
 _atom_site_fract_x
 _atom_site_fract_y
 _atom_site_fract_z
 _atom_site_occupancy
  Cd  Cd0  1  0.24997000  0.92813000  0.00004000  1.0
  Cd  Cd1  1  0.75005000  0.07186000  0.99997000  1.0
  H  H2  1  0.98424000  0.03749000  0.58525000  1.0
  H  H3  1  0.51548000  0.62278000  0.41473000  1.0
  H  H4  1  0.01575000  0.96251000  0.41475000  1.0
  H  H5  1  0.48452000  0.37721000  0.58527000  1.0
  H  H6  1  0.42035000  0.79921000  0.55342000  1.0
  H  H7  1  0.07956000  0.35277000  0.44645000  1.0
  H  H8  1  0.57965000  0.20079000  0.44658000  1.0
  H  H9  1  0.92046000  0.64722000  0.55355000  1.0
  H  H10  1  0.09315000  0.70827000  0.68956000  1.0
  H  H11  1  0.40680000  0.39812000  0.31036000  1.0
  H  H12  1  0.90684000  0.29175000  0.31044000  1.0
  H  H13  1  0.59321000  0.60189000  0.68964000  1.0
  H  H14  1  0.96103000  0.74440000  0.97500000  1.0
  H  H15  1  0.53882000  0.71946000  0.02506000  1.0
  H  H16  1  0.03897000  0.25561000  0.02499000  1.0
  H  H17  1  0.46119000  0.28054000  0.97493000  1.0
  H  H18  1  0.96407000  0.58853000  0.92935000  1.0
  H  H19  1  0.53576000  0.51803000  0.07051000  1.0
  H  H20  1  0.03592000  0.41147000  0.07066000  1.0
  H  H21  1  0.46425000  0.48197000  0.92948000  1.0
  H  H22  1  0.85727000  0.75364000  0.86111000  1.0
  H  H23  1  0.64232000  0.61466000  0.13903000  1.0
  H  H24  1  0.14273000  0.24637000  0.13888000  1.0
  H  H25  1  0.35769000  0.38534000  0.86097000  1.0
  C  C26  1  0.47875000  0.89817000  0.77106000  1.0
  C  C27  1  0.02091000  0.66923000  0.22888000  1.0
  C  C28  1  0.52125000  0.10183000  0.22894000  1.0
  C  C29  1  0.97909000  0.33076000  0.77113000  1.0
  C  C30  1  0.52785000  0.88121000  0.66605000  1.0
  C  C31  1  0.97191000  0.54737000  0.33390000  1.0
  C  C32  1  0.47214000  0.11880000  0.33395000  1.0
  C  C33  1  0.02809000  0.45262000  0.66611000  1.0
  C  C34  1  0.38627000  0.81298000  0.63489000  1.0
  C  C35  1  0.11351000  0.44799000  0.36501000  1.0
  C  C36  1  0.61372000  0.18703000  0.36511000  1.0
  C  C37  1  0.88650000  0.55201000  0.63499000  1.0
  C  C38  1  0.20690000  0.76127000  0.71056000  1.0
  C  C39  1  0.29292000  0.47197000  0.28935000  1.0
  C  C40  1  0.79309000  0.23873000  0.28944000  1.0
  C  C41  1  0.70709000  0.52803000  0.71065000  1.0
  C  C42  1  0.16856000  0.77652000  0.81681000  1.0
  C  C43  1  0.33114000  0.59342000  0.18314000  1.0
  C  C44  1  0.83143000  0.22348000  0.18319000  1.0
  C  C45  1  0.66887000  0.40658000  0.81685000  1.0
  C  C46  1  0.97767000  0.71264000  0.90096000  1.0
  C  C47  1  0.52205000  0.61365000  0.09906000  1.0
  C  C48  1  0.02233000  0.28736000  0.09904000  1.0
  C  C49  1  0.47795000  0.38635000  0.90094000  1.0
  C  C50  1  0.62492000  0.97040000  0.80372000  1.0
  C  C51  1  0.87476000  0.77410000  0.19622000  1.0
  C  C52  1  0.37509000  0.02960000  0.19628000  1.0
  C  C53  1  0.12524000  0.22589000  0.80378000  1.0
  C  C54  1  0.72522000  0.92985000  0.59441000  1.0
  C  C55  1  0.77453000  0.52440000  0.40551000  1.0
  C  C56  1  0.27477000  0.07016000  0.40558000  1.0
  C  C57  1  0.22547000  0.47559000  0.59449000  1.0
  N  N58  1  0.30226000  0.84525000  0.84497000  1.0
  N  N59  1  0.19740000  0.69020000  0.15498000  1.0
  N  N60  1  0.69774000  0.15475000  0.15504000  1.0
  N  N61  1  0.80260000  0.30980000  0.84502000  1.0
  N  N62  1  0.79987000  0.02069000  0.73525000  1.0
  N  N63  1  0.69978000  0.75592000  0.26467000  1.0
  N  N64  1  0.20014000  0.97932000  0.26474000  1.0
  N  N65  1  0.30022000  0.24408000  0.73533000  1.0
  N  N66  1  0.84191000  0.99948000  0.63473000  1.0
  N  N67  1  0.65780000  0.63429000  0.36521000  1.0
  N  N68  1  0.15809000  0.00052000  0.36527000  1.0
  N  N69  1  0.34220000  0.36571000  0.63479000  1.0
  O  O70  1  0.58066000  0.97933000  0.90401000  1.0
  O  O71  1  0.91909000  0.88320000  0.09594000  1.0
  O  O72  1  0.41935000  0.02067000  0.09599000  1.0
  O  O73  1  0.08091000  0.11679000  0.90407000  1.0
  O  O74  1  0.78518000  0.90709000  0.50331000  1.0
  O  O75  1  0.71471000  0.41063000  0.49663000  1.0
  O  O76  1  0.21480000  0.09291000  0.49669000  1.0
  O  O77  1  0.28529000  0.58936000  0.50337000  1.0
