# generated using pymatgen
data_CdH8C14S3OF8
_symmetry_space_group_name_H-M   'P 1'
_cell_length_a   7.51411000
_cell_length_b   9.04434000
_cell_length_c   26.32330000
_cell_angle_alpha   90.00000000
_cell_angle_beta   90.00000000
_cell_angle_gamma   99.55840000
_symmetry_Int_Tables_number   1
_chemical_formula_structural   CdH8C14S3OF8
_chemical_formula_sum   'Cd4 H32 C56 S12 O4 F32'
_cell_volume   1764.09978297
_cell_formula_units_Z   4
loop_
 _symmetry_equiv_pos_site_id
 _symmetry_equiv_pos_as_xyz
  1  'x, y, z'
loop_
 _atom_site_type_symbol
 _atom_site_label
 _atom_site_symmetry_multiplicity
 _atom_site_fract_x
 _atom_site_fract_y
 _atom_site_fract_z
 _atom_site_occupancy
  Cd  Cd0  1  0.23276000  0.96073000  0.48947000  1.0
  Cd  Cd1  1  0.26724000  0.53927000  0.98947000  1.0
  Cd  Cd2  1  0.76724000  0.03927000  0.51053000  1.0
  Cd  Cd3  1  0.73276000  0.46073000  0.01053000  1.0
  H  H4  1  0.25377000  0.48862000  0.50656000  1.0
  H  H5  1  0.24622000  0.01138000  0.00656000  1.0
  H  H6  1  0.74622000  0.51138000  0.49344000  1.0
  H  H7  1  0.75377000  0.98862000  0.99344000  1.0
  H  H8  1  0.30138000  0.38698000  0.45130000  1.0
  H  H9  1  0.19862000  0.11302000  0.95130000  1.0
  H  H10  1  0.69862000  0.61302000  0.54870000  1.0
  H  H11  1  0.80138000  0.88698000  0.04870000  1.0
  H  H12  1  0.07360000  0.41831000  0.46310000  1.0
  H  H13  1  0.42640000  0.08169000  0.96310000  1.0
  H  H14  1  0.92640000  0.58168000  0.53690000  1.0
  H  H15  1  0.57360000  0.91831000  0.03690000  1.0
  H  H16  1  0.04412000  0.52870000  0.37414000  1.0
  H  H17  1  0.45587000  0.97131000  0.87414000  1.0
  H  H18  1  0.95587000  0.47130000  0.62586000  1.0
  H  H19  1  0.54412000  0.02870000  0.12586000  1.0
  H  H20  1  0.26712000  0.49418000  0.35742000  1.0
  H  H21  1  0.23288000  0.00583000  0.85742000  1.0
  H  H22  1  0.73288000  0.50583000  0.64258000  1.0
  H  H23  1  0.76712000  0.99418000  0.14258000  1.0
  H  H24  1  0.20795000  0.67626000  0.34708000  1.0
  H  H25  1  0.29205000  0.82374000  0.84708000  1.0
  H  H26  1  0.79204000  0.32374000  0.65292000  1.0
  H  H27  1  0.70795000  0.17626000  0.15292000  1.0
  H  H28  1  0.73367000  0.72418000  0.26525000  1.0
  H  H29  1  0.76633000  0.77582000  0.76525000  1.0
  H  H30  1  0.26633000  0.27582000  0.73475000  1.0
  H  H31  1  0.23368000  0.22418000  0.23475000  1.0
  H  H32  1  0.66431000  0.19333000  0.25645000  1.0
  H  H33  1  0.83569000  0.30668000  0.75644000  1.0
  H  H34  1  0.33569000  0.80667000  0.74356000  1.0
  H  H35  1  0.16431000  0.69332000  0.24356000  1.0
  C  C36  1  0.50746000  0.07247000  0.31695000  1.0
  C  C37  1  0.99254000  0.42753000  0.81695000  1.0
  C  C38  1  0.49255000  0.92753000  0.68305000  1.0
  C  C39  1  0.00746000  0.57246000  0.18305000  1.0
  C  C40  1  0.54837000  0.17478000  0.40294000  1.0
  C  C41  1  0.95163000  0.32522000  0.90293000  1.0
  C  C42  1  0.45163000  0.82523000  0.59706000  1.0
  C  C43  1  0.04837000  0.67477000  0.09706000  1.0
  C  C44  1  0.97161000  0.01050000  0.33454000  1.0
  C  C45  1  0.52840000  0.48950000  0.83454000  1.0
  C  C46  1  0.02839000  0.98950000  0.66546000  1.0
  C  C47  1  0.47161000  0.51050000  0.16546000  1.0
  C  C48  1  0.91594000  0.96920000  0.38426000  1.0
  C  C49  1  0.58407000  0.53080000  0.88426000  1.0
  C  C50  1  0.08406000  0.03079000  0.61574000  1.0
  C  C51  1  0.41593000  0.46920000  0.11574000  1.0
  C  C52  1  0.46768000  0.06566000  0.36852000  1.0
  C  C53  1  0.03233000  0.43434000  0.86852000  1.0
  C  C54  1  0.53232000  0.93434000  0.63148000  1.0
  C  C55  1  0.96768000  0.56565000  0.13148000  1.0
  C  C56  1  0.79489000  0.83382000  0.38909000  1.0
  C  C57  1  0.70511000  0.66619000  0.88909000  1.0
  C  C58  1  0.20511000  0.16618000  0.61091000  1.0
  C  C59  1  0.29489000  0.33382000  0.11091000  1.0
  C  C60  1  0.21730000  0.46473000  0.46676000  1.0
  C  C61  1  0.28269000  0.03527000  0.96676000  1.0
  C  C62  1  0.78269000  0.53527000  0.53324000  1.0
  C  C63  1  0.71730000  0.96473000  0.03324000  1.0
  C  C64  1  0.73125000  0.74799000  0.34696000  1.0
  C  C65  1  0.76875000  0.75202000  0.84696000  1.0
  C  C66  1  0.26874000  0.25201000  0.65304000  1.0
  C  C67  1  0.23125000  0.24799000  0.15304000  1.0
  C  C68  1  0.67528000  0.29027000  0.38193000  1.0
  C  C69  1  0.82472000  0.20973000  0.88193000  1.0
  C  C70  1  0.32472000  0.70973000  0.61807000  1.0
  C  C71  1  0.17528000  0.79027000  0.11807000  1.0
  C  C72  1  0.63197000  0.18800000  0.29673000  1.0
  C  C73  1  0.86803000  0.31200000  0.79673000  1.0
  C  C74  1  0.36803000  0.81200000  0.70327000  1.0
  C  C75  1  0.13197000  0.68800000  0.20327000  1.0
  C  C76  1  0.71549000  0.29627000  0.33034000  1.0
  C  C77  1  0.78451000  0.20373000  0.83034000  1.0
  C  C78  1  0.28451000  0.70373000  0.66966000  1.0
  C  C79  1  0.21548000  0.79627000  0.16966000  1.0
  C  C80  1  0.18738000  0.57674000  0.37152000  1.0
  C  C81  1  0.31262000  0.92327000  0.87152000  1.0
  C  C82  1  0.81261000  0.42326000  0.62848000  1.0
  C  C83  1  0.68738000  0.07674000  0.12848000  1.0
  C  C84  1  0.90825000  0.92348000  0.29265000  1.0
  C  C85  1  0.59175000  0.57652000  0.79265000  1.0
  C  C86  1  0.09174000  0.07652000  0.70735000  1.0
  C  C87  1  0.40826000  0.42348000  0.20735000  1.0
  C  C88  1  0.78701000  0.79058000  0.29797000  1.0
  C  C89  1  0.71299000  0.70942000  0.79797000  1.0
  C  C90  1  0.21299000  0.20942000  0.70203000  1.0
  C  C91  1  0.28702000  0.29059000  0.20202000  1.0
  S  S92  1  0.50168000  0.17448000  0.46786000  1.0
  S  S93  1  0.99832000  0.32552000  0.96786000  1.0
  S  S94  1  0.49831000  0.82552000  0.53214000  1.0
  S  S95  1  0.00169000  0.67448000  0.03214000  1.0
  S  S96  1  0.99219000  0.08812000  0.43492000  1.0
  S  S97  1  0.50782000  0.41188000  0.93492000  1.0
  S  S98  1  0.00782000  0.91187000  0.56508000  1.0
  S  S99  1  0.49218000  0.58812000  0.06508000  1.0
  S  S100  1  0.26779000  0.63881000  0.43342000  1.0
  S  S101  1  0.23221000  0.86119000  0.93342000  1.0
  S  S102  1  0.73221000  0.36119000  0.56658000  1.0
  S  S103  1  0.76779000  0.13881000  0.06658000  1.0
  O  O104  1  0.12761000  0.73239000  0.45215000  1.0
  O  O105  1  0.37239000  0.76761000  0.95215000  1.0
  O  O106  1  0.87239000  0.26761000  0.54785000  1.0
  O  O107  1  0.62761000  0.23239000  0.04785000  1.0
  F  F108  1  0.76262000  0.39921000  0.41270000  1.0
  F  F109  1  0.73737000  0.10080000  0.91270000  1.0
  F  F110  1  0.23738000  0.60080000  0.58730000  1.0
  F  F111  1  0.26262000  0.89920000  0.08730000  1.0
  F  F112  1  0.34753000  0.94629000  0.38528000  1.0
  F  F113  1  0.15248000  0.55371000  0.88528000  1.0
  F  F114  1  0.65248000  0.05371000  0.61472000  1.0
  F  F115  1  0.84753000  0.44628000  0.11472000  1.0
  F  F116  1  0.08711000  0.14077000  0.32640000  1.0
  F  F117  1  0.41291000  0.35922000  0.82640000  1.0
  F  F118  1  0.91290000  0.85922000  0.67360000  1.0
  F  F119  1  0.58711000  0.64077000  0.17360000  1.0
  F  F120  1  0.60946000  0.62081000  0.35413000  1.0
  F  F121  1  0.89054000  0.87919000  0.85413000  1.0
  F  F122  1  0.39055000  0.37918000  0.64587000  1.0
  F  F123  1  0.10945000  0.12082000  0.14587000  1.0
  F  F124  1  0.73365000  0.78575000  0.43570000  1.0
  F  F125  1  0.76636000  0.71425000  0.93570000  1.0
  F  F126  1  0.26635000  0.21424000  0.56430000  1.0
  F  F127  1  0.23364000  0.28575000  0.06430000  1.0
  F  F128  1  0.84042000  0.41030000  0.31283000  1.0
  F  F129  1  0.65957000  0.08971000  0.81283000  1.0
  F  F130  1  0.15959000  0.58971000  0.68717000  1.0
  F  F131  1  0.34041000  0.91029000  0.18717000  1.0
  F  F132  1  0.42269000  0.96169000  0.28644000  1.0
  F  F133  1  0.07731000  0.53831000  0.78644000  1.0
  F  F134  1  0.57732000  0.03831000  0.71356000  1.0
  F  F135  1  0.92268000  0.46169000  0.21356000  1.0
  F  F136  1  0.96305000  0.97353000  0.24546000  1.0
  F  F137  1  0.53695000  0.52646000  0.74546000  1.0
  F  F138  1  0.03695000  0.02646000  0.75454000  1.0
  F  F139  1  0.46307000  0.47354000  0.25454000  1.0
