# generated using pymatgen
data_ZnH16C14(NO)4
_symmetry_space_group_name_H-M   'P 1'
_cell_length_a   8.12265000
_cell_length_b   9.90824000
_cell_length_c   10.52090000
_cell_angle_alpha   97.00140000
_cell_angle_beta   109.72400000
_cell_angle_gamma   99.60780000
_symmetry_Int_Tables_number   1
_chemical_formula_structural   ZnH16C14(NO)4
_chemical_formula_sum   'Zn2 H32 C28 N8 O8'
_cell_volume   771.25088592
_cell_formula_units_Z   2
loop_
 _symmetry_equiv_pos_site_id
 _symmetry_equiv_pos_as_xyz
  1  'x, y, z'
loop_
 _atom_site_type_symbol
 _atom_site_label
 _atom_site_symmetry_multiplicity
 _atom_site_fract_x
 _atom_site_fract_y
 _atom_site_fract_z
 _atom_site_occupancy
  Zn  Zn0  1  0.96756000  0.33307000  0.22213000  1.0
  Zn  Zn1  1  0.03244000  0.66693000  0.77787000  1.0
  H  H2  1  0.50707000  0.62072000  0.10986000  1.0
  H  H3  1  0.49292000  0.37928000  0.89013000  1.0
  H  H4  1  0.88049000  0.08836000  0.54001000  1.0
  H  H5  1  0.11952000  0.91164000  0.45999000  1.0
  H  H6  1  0.87628000  0.33835000  0.90841000  1.0
  H  H7  1  0.12372000  0.66165000  0.09159000  1.0
  H  H8  1  0.07011000  0.22678000  0.76402000  1.0
  H  H9  1  0.92989000  0.77322000  0.23598000  1.0
  H  H10  1  0.20207000  0.10749000  0.15380000  1.0
  H  H11  1  0.79792000  0.89251000  0.84620000  1.0
  H  H12  1  0.20291000  0.96041000  0.84729000  1.0
  H  H13  1  0.79710000  0.03959000  0.15271000  1.0
  H  H14  1  0.33647000  0.11769000  0.83918000  1.0
  H  H15  1  0.66353000  0.88231000  0.16083000  1.0
  H  H16  1  0.39208000  0.98197000  0.09387000  1.0
  H  H17  1  0.60792000  0.01803000  0.90614000  1.0
  H  H18  1  0.52551000  0.14265000  0.08982000  1.0
  H  H19  1  0.47449000  0.85735000  0.91018000  1.0
  H  H20  1  0.36768000  0.40734000  0.22888000  1.0
  H  H21  1  0.63232000  0.59267000  0.77112000  1.0
  H  H22  1  0.60871000  0.64737000  0.39201000  1.0
  H  H23  1  0.39128000  0.35264000  0.60798000  1.0
  H  H24  1  0.11154000  0.62514000  0.44879000  1.0
  H  H25  1  0.88846000  0.37486000  0.55121000  1.0
  H  H26  1  0.58230000  0.81375000  0.61173000  1.0
  H  H27  1  0.41770000  0.18625000  0.38827000  1.0
  H  H28  1  0.35755000  0.82578000  0.59137000  1.0
  H  H29  1  0.64245000  0.17422000  0.40863000  1.0
  H  H30  1  0.56082000  0.90956000  0.40269000  1.0
  H  H31  1  0.43918000  0.09044000  0.59731000  1.0
  H  H32  1  0.33580000  0.92180000  0.37306000  1.0
  H  H33  1  0.66420000  0.07820000  0.62694000  1.0
  C  C34  1  0.70236000  0.48645000  0.15887000  1.0
  C  C35  1  0.29764000  0.51355000  0.84113000  1.0
  C  C36  1  0.54597000  0.53149000  0.06580000  1.0
  C  C37  1  0.45402000  0.46851000  0.93420000  1.0
  C  C38  1  0.00891000  0.14253000  0.39163000  1.0
  C  C39  1  0.99110000  0.85747000  0.60837000  1.0
  C  C40  1  0.96879000  0.05761000  0.48904000  1.0
  C  C41  1  0.03121000  0.94239000  0.51097000  1.0
  C  C42  1  0.97103000  0.27189000  0.93620000  1.0
  C  C43  1  0.02897000  0.72810000  0.06380000  1.0
  C  C44  1  0.06396000  0.21613000  0.86360000  1.0
  C  C45  1  0.93604000  0.78386000  0.13640000  1.0
  C  C46  1  0.14015000  0.15488000  0.06754000  1.0
  C  C47  1  0.85985000  0.84512000  0.93247000  1.0
  C  C48  1  0.28637000  0.06204000  0.90765000  1.0
  C  C49  1  0.71363000  0.93796000  0.09235000  1.0
  C  C50  1  0.44282000  0.04097000  0.02738000  1.0
  C  C51  1  0.55718000  0.95903000  0.97263000  1.0
  C  C52  1  0.34967000  0.48863000  0.29832000  1.0
  C  C53  1  0.65033000  0.51138000  0.70168000  1.0
  C  C54  1  0.46984000  0.60813000  0.37850000  1.0
  C  C55  1  0.53016000  0.39187000  0.62149000  1.0
  C  C56  1  0.21109000  0.59756000  0.40911000  1.0
  C  C57  1  0.78891000  0.40244000  0.59089000  1.0
  C  C58  1  0.44965000  0.81291000  0.53698000  1.0
  C  C59  1  0.55035000  0.18709000  0.46302000  1.0
  C  C60  1  0.46653000  0.92774000  0.45420000  1.0
  C  C61  1  0.53347000  0.07226000  0.54579000  1.0
  N  N62  1  0.01981000  0.23296000  0.06339000  1.0
  N  N63  1  0.98020000  0.76703000  0.93661000  1.0
  N  N64  1  0.17069000  0.14316000  0.94809000  1.0
  N  N65  1  0.82931000  0.85684000  0.05191000  1.0
  N  N66  1  0.18888000  0.48329000  0.31793000  1.0
  N  N67  1  0.81111000  0.51671000  0.68207000  1.0
  N  N68  1  0.37975000  0.67540000  0.44753000  1.0
  N  N69  1  0.62024000  0.32460000  0.55247000  1.0
  O  O70  1  0.74418000  0.37774000  0.10570000  1.0
  O  O71  1  0.25580000  0.62225000  0.89430000  1.0
  O  O72  1  0.78439000  0.55396000  0.27947000  1.0
  O  O73  1  0.21561000  0.44604000  0.72052000  1.0
  O  O74  1  0.90438000  0.22846000  0.35512000  1.0
  O  O75  1  0.09563000  0.77154000  0.64488000  1.0
  O  O76  1  0.12990000  0.12603000  0.34655000  1.0
  O  O77  1  0.87011000  0.87396000  0.65346000  1.0
