# generated using pymatgen
data_Cu3H16(C12N13)2
_symmetry_space_group_name_H-M   'P 1'
_cell_length_a   13.30170000
_cell_length_b   14.56040000
_cell_length_c   15.73050000
_cell_angle_alpha   89.99990000
_cell_angle_beta   92.89250000
_cell_angle_gamma   89.99990000
_symmetry_Int_Tables_number   1
_chemical_formula_structural   Cu3H16(C12N13)2
_chemical_formula_sum   'Cu6 H32 C48 N52'
_cell_volume   3042.77139880
_cell_formula_units_Z   2
loop_
 _symmetry_equiv_pos_site_id
 _symmetry_equiv_pos_as_xyz
  1  'x, y, z'
loop_
 _atom_site_type_symbol
 _atom_site_label
 _atom_site_symmetry_multiplicity
 _atom_site_fract_x
 _atom_site_fract_y
 _atom_site_fract_z
 _atom_site_occupancy
  Cu  Cu0  1  0.47050000  0.19798000  0.61137000  1.0
  Cu  Cu1  1  0.02950000  0.69798000  0.88863000  1.0
  Cu  Cu2  1  0.52949000  0.80202000  0.38863000  1.0
  Cu  Cu3  1  0.97051000  0.30202000  0.11137000  1.0
  Cu  Cu4  1  0.50000000  0.00000000  0.50000000  1.0
  Cu  Cu5  1  0.00000000  0.50000000  0.00000000  1.0
  H  H6  1  0.14851000  0.86966000  0.93733000  1.0
  H  H7  1  0.26687000  0.97479000  0.86512000  1.0
  H  H8  1  0.26721000  0.77990000  0.65849000  1.0
  H  H9  1  0.14713000  0.68360000  0.73775000  1.0
  H  H10  1  0.94250000  0.87818000  0.83345000  1.0
  H  H11  1  0.81489000  0.93385000  0.72245000  1.0
  H  H12  1  0.79166000  0.65521000  0.63030000  1.0
  H  H13  1  0.91698000  0.60987000  0.74804000  1.0
  H  H14  1  0.35149000  0.36966000  0.56267000  1.0
  H  H15  1  0.23313000  0.47479000  0.63488000  1.0
  H  H16  1  0.23279000  0.27990000  0.84151000  1.0
  H  H17  1  0.35287000  0.18360000  0.76225000  1.0
  H  H18  1  0.55750000  0.37818000  0.66655000  1.0
  H  H19  1  0.68511000  0.43386000  0.77755000  1.0
  H  H20  1  0.70835000  0.15521000  0.86970000  1.0
  H  H21  1  0.58302000  0.10987000  0.75196000  1.0
  H  H22  1  0.85149000  0.13034000  0.06267000  1.0
  H  H23  1  0.73313000  0.02521000  0.13488000  1.0
  H  H24  1  0.73279000  0.22010000  0.34150000  1.0
  H  H25  1  0.85287000  0.31640000  0.26224000  1.0
  H  H26  1  0.05750000  0.12182000  0.16655000  1.0
  H  H27  1  0.18511000  0.06615000  0.27755000  1.0
  H  H28  1  0.20834000  0.34479000  0.36970000  1.0
  H  H29  1  0.08302000  0.39013000  0.25195000  1.0
  H  H30  1  0.64851000  0.63034000  0.43733000  1.0
  H  H31  1  0.76687000  0.52521000  0.36512000  1.0
  H  H32  1  0.76721000  0.72010000  0.15850000  1.0
  H  H33  1  0.64713000  0.81640000  0.23776000  1.0
  H  H34  1  0.44250000  0.62182000  0.33345000  1.0
  H  H35  1  0.31489000  0.56615000  0.22246000  1.0
  H  H36  1  0.29166000  0.84479000  0.13030000  1.0
  H  H37  1  0.41698000  0.89013000  0.24805000  1.0
  C  C38  1  0.17526000  0.85346000  0.87471000  1.0
  C  C39  1  0.24185000  0.91086000  0.83498000  1.0
  C  C40  1  0.27645000  0.88531000  0.75553000  1.0
  C  C41  1  0.24221000  0.80182000  0.72014000  1.0
  C  C42  1  0.17495000  0.74893000  0.76339000  1.0
  C  C43  1  0.34355000  0.94299000  0.70861000  1.0
  C  C44  1  0.90612000  0.83088000  0.78779000  1.0
  C  C45  1  0.83583000  0.86161000  0.72618000  1.0
  C  C46  1  0.79213000  0.79828000  0.66809000  1.0
  C  C47  1  0.82304000  0.70630000  0.67465000  1.0
  C  C48  1  0.89255000  0.68082000  0.73903000  1.0
  C  C49  1  0.71564000  0.82692000  0.60422000  1.0
  C  C50  1  0.32474000  0.35346000  0.62529000  1.0
  C  C51  1  0.25815000  0.41086000  0.66502000  1.0
  C  C52  1  0.22355000  0.38531000  0.74447000  1.0
  C  C53  1  0.25779000  0.30182000  0.77986000  1.0
  C  C54  1  0.32505000  0.24893000  0.73661000  1.0
  C  C55  1  0.15645000  0.44299000  0.79139000  1.0
  C  C56  1  0.59388000  0.33088000  0.71221000  1.0
  C  C57  1  0.66417000  0.36161000  0.77382000  1.0
  C  C58  1  0.70787000  0.29828000  0.83191000  1.0
  C  C59  1  0.67696000  0.20630000  0.82535000  1.0
  C  C60  1  0.60745000  0.18082000  0.76098000  1.0
  C  C61  1  0.78436000  0.32692000  0.89578000  1.0
  C  C62  1  0.82474000  0.14654000  0.12529000  1.0
  C  C63  1  0.75815000  0.08914000  0.16502000  1.0
  C  C64  1  0.72355000  0.11470000  0.24447000  1.0
  C  C65  1  0.75779000  0.19818000  0.27986000  1.0
  C  C66  1  0.82505000  0.25107000  0.23661000  1.0
  C  C67  1  0.65645000  0.05701000  0.29139000  1.0
  C  C68  1  0.09387000  0.16911000  0.21221000  1.0
  C  C69  1  0.16417000  0.13839000  0.27382000  1.0
  C  C70  1  0.20787000  0.20172000  0.33191000  1.0
  C  C71  1  0.17696000  0.29370000  0.32535000  1.0
  C  C72  1  0.10745000  0.31918000  0.26097000  1.0
  C  C73  1  0.28435000  0.17308000  0.39578000  1.0
  C  C74  1  0.67526000  0.64654000  0.37471000  1.0
  C  C75  1  0.74185000  0.58914000  0.33498000  1.0
  C  C76  1  0.77645000  0.61470000  0.25553000  1.0
  C  C77  1  0.74221000  0.69818000  0.22014000  1.0
  C  C78  1  0.67495000  0.75107000  0.26340000  1.0
  C  C79  1  0.84355000  0.55701000  0.20861000  1.0
  C  C80  1  0.40613000  0.66912000  0.28779000  1.0
  C  C81  1  0.33583000  0.63839000  0.22618000  1.0
  C  C82  1  0.29213000  0.70173000  0.16809000  1.0
  C  C83  1  0.32304000  0.79370000  0.17465000  1.0
  C  C84  1  0.39255000  0.81918000  0.23903000  1.0
  C  C85  1  0.21565000  0.67308000  0.10422000  1.0
  N  N86  1  0.14143000  0.77416000  0.83950000  1.0
  N  N87  1  0.36982000  0.03034000  0.72909000  1.0
  N  N88  1  0.42623000  0.05784000  0.66659000  1.0
  N  N89  1  0.43380000  0.98856000  0.61129000  1.0
  N  N90  1  0.38316000  0.91599000  0.63528000  1.0
  N  N91  1  0.93357000  0.74203000  0.79487000  1.0
  N  N92  1  0.66934000  0.90967000  0.60425000  1.0
  N  N93  1  0.60491000  0.90601000  0.53794000  1.0
  N  N94  1  0.61148000  0.82496000  0.49853000  1.0
  N  N95  1  0.68045000  0.77352000  0.53892000  1.0
  N  N96  1  0.58238000  0.13098000  0.55754000  1.0
  N  N97  1  0.67025000  0.15272000  0.56192000  1.0
  N  N98  1  0.75571000  0.17109000  0.56451000  1.0
  N  N99  1  0.35857000  0.27417000  0.66050000  1.0
  N  N100  1  0.13018000  0.53034000  0.77091000  1.0
  N  N101  1  0.07377000  0.55784000  0.83341000  1.0
  N  N102  1  0.06620000  0.48856000  0.88870000  1.0
  N  N103  1  0.11684000  0.41599000  0.86472000  1.0
  N  N104  1  0.56643000  0.24203000  0.70513000  1.0
  N  N105  1  0.83066000  0.40967000  0.89575000  1.0
  N  N106  1  0.89510000  0.40601000  0.96206000  1.0
  N  N107  1  0.88853000  0.32496000  0.00147000  1.0
  N  N108  1  0.81955000  0.27352000  0.96109000  1.0
  N  N109  1  0.91762000  0.63098000  0.94246000  1.0
  N  N110  1  0.82975000  0.65272000  0.93808000  1.0
  N  N111  1  0.74429000  0.67109000  0.93549000  1.0
  N  N112  1  0.85858000  0.22584000  0.16049000  1.0
  N  N113  1  0.63018000  0.96966000  0.27091000  1.0
  N  N114  1  0.57377000  0.94216000  0.33341000  1.0
  N  N115  1  0.56620000  0.01144000  0.38870000  1.0
  N  N116  1  0.61684000  0.08401000  0.36472000  1.0
  N  N117  1  0.06643000  0.25797000  0.20513000  1.0
  N  N118  1  0.33065000  0.09033000  0.39575000  1.0
  N  N119  1  0.39509000  0.09399000  0.46206000  1.0
  N  N120  1  0.38852000  0.17504000  0.50148000  1.0
  N  N121  1  0.31954000  0.22648000  0.46109000  1.0
  N  N122  1  0.41762000  0.86902000  0.44246000  1.0
  N  N123  1  0.32975000  0.84728000  0.43808000  1.0
  N  N124  1  0.24430000  0.82891000  0.43549000  1.0
  N  N125  1  0.64143000  0.72584000  0.33951000  1.0
  N  N126  1  0.86982000  0.46966000  0.22909000  1.0
  N  N127  1  0.92623000  0.44216000  0.16659000  1.0
  N  N128  1  0.93380000  0.51144000  0.11130000  1.0
  N  N129  1  0.88317000  0.58401000  0.13528000  1.0
  N  N130  1  0.43357000  0.75797000  0.29487000  1.0
  N  N131  1  0.16935000  0.59033000  0.10425000  1.0
  N  N132  1  0.10491000  0.59399000  0.03794000  1.0
  N  N133  1  0.11148000  0.67504000  0.99852000  1.0
  N  N134  1  0.18046000  0.72648000  0.03891000  1.0
  N  N135  1  0.08238000  0.36902000  0.05754000  1.0
  N  N136  1  0.17025000  0.34728000  0.06192000  1.0
  N  N137  1  0.25570000  0.32891000  0.06451000  1.0
