# generated using pymatgen
data_ZnH18C28O5
_symmetry_space_group_name_H-M   'P 1'
_cell_length_a   10.37540000
_cell_length_b   14.86980000
_cell_length_c   18.17800000
_cell_angle_alpha   90.00040000
_cell_angle_beta   90.00170000
_cell_angle_gamma   80.95510000
_symmetry_Int_Tables_number   1
_chemical_formula_structural   ZnH18C28O5
_chemical_formula_sum   'Zn4 H72 C112 O20'
_cell_volume   2769.63131872
_cell_formula_units_Z   4
loop_
 _symmetry_equiv_pos_site_id
 _symmetry_equiv_pos_as_xyz
  1  'x, y, z'
loop_
 _atom_site_type_symbol
 _atom_site_label
 _atom_site_symmetry_multiplicity
 _atom_site_fract_x
 _atom_site_fract_y
 _atom_site_fract_z
 _atom_site_occupancy
  Zn  Zn0  1  0.42812000  0.93279000  0.51616000  1.0
  Zn  Zn1  1  0.07188000  0.56721000  0.01616000  1.0
  Zn  Zn2  1  0.57190000  0.06721000  0.48385000  1.0
  Zn  Zn3  1  0.92810000  0.43280000  0.98384000  1.0
  H  H4  1  0.11644000  0.68337000  0.39818000  1.0
  H  H5  1  0.38358000  0.81662000  0.89818000  1.0
  H  H6  1  0.88358000  0.31663000  0.60182000  1.0
  H  H7  1  0.61643000  0.18336000  0.10183000  1.0
  H  H8  1  0.18098000  0.67418000  0.26715000  1.0
  H  H9  1  0.31905000  0.82580000  0.76715000  1.0
  H  H10  1  0.81904000  0.32581000  0.73285000  1.0
  H  H11  1  0.68101000  0.17418000  0.23286000  1.0
  H  H12  1  0.34559000  0.54606000  0.22159000  1.0
  H  H13  1  0.15442000  0.95392000  0.72158000  1.0
  H  H14  1  0.65442000  0.45394000  0.77841000  1.0
  H  H15  1  0.84563000  0.04605000  0.27841000  1.0
  H  H16  1  0.45004000  0.42682000  0.30788000  1.0
  H  H17  1  0.04995000  0.07316000  0.80786000  1.0
  H  H18  1  0.54998000  0.57318000  0.69212000  1.0
  H  H19  1  0.95006000  0.92681000  0.19212000  1.0
  H  H20  1  0.54065000  0.32774000  0.41757000  1.0
  H  H21  1  0.95932000  0.17224000  0.91756000  1.0
  H  H22  1  0.45939000  0.67226000  0.58244000  1.0
  H  H23  1  0.04064000  0.82774000  0.08242000  1.0
  H  H24  1  0.59831000  0.25446000  0.53940000  1.0
  H  H25  1  0.90168000  0.24551000  0.03939000  1.0
  H  H26  1  0.40171000  0.74554000  0.46061000  1.0
  H  H27  1  0.09830000  0.75448000  0.96059000  1.0
  H  H28  1  0.48620000  0.31651000  0.65220000  1.0
  H  H29  1  0.01380000  0.18349000  0.15219000  1.0
  H  H30  1  0.51380000  0.68350000  0.34780000  1.0
  H  H31  1  0.98618000  0.81653000  0.84779000  1.0
  H  H32  1  0.31737000  0.45331000  0.64808000  1.0
  H  H33  1  0.18264000  0.04668000  0.14807000  1.0
  H  H34  1  0.68263000  0.54669000  0.35192000  1.0
  H  H35  1  0.81733000  0.95333000  0.85193000  1.0
  H  H36  1  0.90379000  0.58666000  0.52205000  1.0
  H  H37  1  0.59622000  0.91334000  0.02206000  1.0
  H  H38  1  0.09621000  0.41333000  0.47796000  1.0
  H  H39  1  0.40377000  0.08666000  0.97797000  1.0
  H  H40  1  0.71817000  0.71050000  0.49828000  1.0
  H  H41  1  0.78184000  0.78951000  0.99827000  1.0
  H  H42  1  0.28184000  0.28949000  0.50173000  1.0
  H  H43  1  0.21814000  0.21049000  0.00175000  1.0
  H  H44  1  0.16554000  0.78404000  0.53169000  1.0
  H  H45  1  0.33447000  0.71597000  0.03169000  1.0
  H  H46  1  0.83448000  0.21596000  0.46829000  1.0
  H  H47  1  0.66550000  0.28403000  0.96831000  1.0
  H  H48  1  0.03698000  0.46763000  0.61595000  1.0
  H  H49  1  0.46303000  0.03237000  0.11595000  1.0
  H  H50  1  0.96302000  0.53237000  0.38405000  1.0
  H  H51  1  0.53697000  0.96762000  0.88404000  1.0
  H  H52  1  0.99392000  0.44606000  0.74824000  1.0
  H  H53  1  0.50610000  0.05394000  0.24824000  1.0
  H  H54  1  0.00608000  0.55394000  0.25176000  1.0
  H  H55  1  0.49393000  0.94606000  0.75175000  1.0
  H  H56  1  0.18482000  0.67389000  0.80280000  1.0
  H  H57  1  0.31521000  0.82612000  0.30280000  1.0
  H  H58  1  0.81519000  0.32611000  0.19719000  1.0
  H  H59  1  0.68476000  0.17393000  0.69721000  1.0
  H  H60  1  0.22369000  0.69881000  0.66906000  1.0
  H  H61  1  0.27634000  0.80120000  0.16906000  1.0
  H  H62  1  0.77633000  0.30118000  0.33093000  1.0
  H  H63  1  0.72360000  0.19885000  0.83096000  1.0
  H  H64  1  0.24656000  0.90197000  0.59755000  1.0
  H  H65  1  0.25345000  0.59803000  0.09755000  1.0
  H  H66  1  0.75345000  0.09802000  0.40246000  1.0
  H  H67  1  0.74654000  0.40199000  0.90245000  1.0
  H  H68  1  0.38022000  0.89551000  0.63671000  1.0
  H  H69  1  0.11978000  0.60450000  0.13671000  1.0
  H  H70  1  0.61979000  0.10450000  0.36330000  1.0
  H  H71  1  0.88019000  0.39550000  0.86329000  1.0
  H  H72  1  0.97751000  0.90868000  0.50750000  1.0
  H  H73  1  0.52250000  0.59133000  0.00750000  1.0
  H  H74  1  0.02250000  0.09132000  0.49248000  1.0
  H  H75  1  0.47748000  0.40867000  0.99250000  1.0
  C  C76  1  0.24733000  0.56023000  0.42829000  1.0
  C  C77  1  0.25268000  0.93976000  0.92829000  1.0
  C  C78  1  0.75269000  0.43977000  0.57171000  1.0
  C  C79  1  0.74730000  0.06022000  0.07172000  1.0
  C  C80  1  0.18836000  0.62682000  0.37938000  1.0
  C  C81  1  0.31165000  0.87317000  0.87937000  1.0
  C  C82  1  0.81166000  0.37318000  0.62062000  1.0
  C  C83  1  0.68836000  0.12681000  0.12064000  1.0
  C  C84  1  0.22498000  0.62127000  0.30518000  1.0
  C  C85  1  0.27503000  0.87872000  0.80517000  1.0
  C  C86  1  0.77504000  0.37873000  0.69482000  1.0
  C  C87  1  0.72499000  0.12126000  0.19483000  1.0
  C  C88  1  0.31758000  0.54929000  0.27953000  1.0
  C  C89  1  0.18243000  0.95068000  0.77951000  1.0
  C  C90  1  0.68244000  0.45070000  0.72047000  1.0
  C  C91  1  0.81759000  0.04929000  0.22048000  1.0
  C  C92  1  0.37641000  0.48196000  0.32778000  1.0
  C  C93  1  0.12359000  0.01801000  0.82776000  1.0
  C  C94  1  0.62361000  0.51804000  0.67222000  1.0
  C  C95  1  0.87642000  0.98196000  0.17223000  1.0
  C  C96  1  0.34242000  0.48818000  0.40201000  1.0
  C  C97  1  0.15757000  0.01179000  0.90201000  1.0
  C  C98  1  0.65759000  0.51181000  0.59799000  1.0
  C  C99  1  0.84242000  0.98818000  0.09799000  1.0
  C  C100  1  0.39398000  0.43181000  0.46454000  1.0
  C  C101  1  0.10602000  0.06818000  0.96453000  1.0
  C  C102  1  0.60605000  0.56819000  0.53547000  1.0
  C  C103  1  0.89396000  0.93181000  0.03546000  1.0
  C  C104  1  0.49071000  0.35530000  0.46738000  1.0
  C  C105  1  0.00926000  0.14469000  0.96737000  1.0
  C  C106  1  0.50931000  0.64471000  0.53262000  1.0
  C  C107  1  0.99071000  0.85530000  0.03261000  1.0
  C  C108  1  0.52312000  0.31424000  0.53546000  1.0
  C  C109  1  0.97686000  0.18574000  0.03544000  1.0
  C  C110  1  0.47689000  0.68576000  0.46455000  1.0
  C  C111  1  0.02312000  0.81426000  0.96453000  1.0
  C  C112  1  0.45944000  0.34923000  0.59951000  1.0
  C  C113  1  0.04056000  0.15076000  0.09950000  1.0
  C  C114  1  0.54057000  0.65077000  0.40049000  1.0
  C  C115  1  0.95942000  0.84925000  0.90048000  1.0
  C  C116  1  0.36360000  0.42666000  0.59721000  1.0
  C  C117  1  0.13641000  0.07332000  0.09720000  1.0
  C  C118  1  0.63642000  0.57334000  0.40279000  1.0
  C  C119  1  0.86357000  0.92669000  0.90279000  1.0
  C  C120  1  0.32996000  0.46855000  0.52949000  1.0
  C  C121  1  0.17005000  0.03143000  0.02948000  1.0
  C  C122  1  0.67006000  0.53144000  0.47051000  1.0
  C  C123  1  0.82992000  0.96856000  0.97051000  1.0
  C  C124  1  0.23402000  0.54957000  0.50895000  1.0
  C  C125  1  0.26598000  0.95043000  0.00894000  1.0
  C  C126  1  0.76599000  0.45044000  0.49104000  1.0
  C  C127  1  0.73399000  0.04957000  0.99105000  1.0
  C  C128  1  0.92045000  0.65711000  0.51830000  1.0
  C  C129  1  0.57956000  0.84290000  0.01830000  1.0
  C  C130  1  0.07956000  0.34289000  0.48170000  1.0
  C  C131  1  0.42042000  0.15710000  0.98172000  1.0
  C  C132  1  0.81640000  0.72597000  0.50515000  1.0
  C  C133  1  0.68361000  0.77403000  0.00514000  1.0
  C  C134  1  0.18360000  0.27403000  0.49487000  1.0
  C  C135  1  0.31636000  0.22596000  0.99488000  1.0
  C  C136  1  0.06709000  0.76847000  0.52430000  1.0
  C  C137  1  0.43293000  0.73153000  0.02429000  1.0
  C  C138  1  0.93292000  0.23152000  0.47569000  1.0
  C  C139  1  0.56706000  0.26847000  0.97572000  1.0
  C  C140  1  0.06934000  0.51307000  0.65669000  1.0
  C  C141  1  0.43068000  0.98693000  0.15669000  1.0
  C  C142  1  0.93067000  0.48692000  0.34331000  1.0
  C  C143  1  0.56932000  0.01308000  0.84331000  1.0
  C  C144  1  0.04565000  0.50068000  0.73092000  1.0
  C  C145  1  0.45437000  0.99932000  0.23092000  1.0
  C  C146  1  0.95436000  0.49931000  0.26907000  1.0
  C  C147  1  0.54564000  0.00070000  0.76907000  1.0
  C  C148  1  0.15294000  0.62923000  0.76127000  1.0
  C  C149  1  0.34708000  0.87078000  0.26128000  1.0
  C  C150  1  0.84707000  0.37077000  0.23872000  1.0
  C  C151  1  0.65289000  0.12926000  0.73874000  1.0
  C  C152  1  0.17496000  0.64257000  0.68678000  1.0
  C  C153  1  0.32507000  0.85743000  0.18678000  1.0
  C  C154  1  0.82506000  0.35742000  0.31321000  1.0
  C  C155  1  0.67489000  0.14260000  0.81323000  1.0
  C  C156  1  0.06062000  0.54479000  0.86327000  1.0
  C  C157  1  0.43939000  0.95521000  0.36327000  1.0
  C  C158  1  0.93938000  0.45521000  0.13673000  1.0
  C  C159  1  0.56062000  0.04481000  0.63673000  1.0
  C  C160  1  0.71974000  0.88926000  0.49601000  1.0
  C  C161  1  0.78027000  0.61075000  0.99600000  1.0
  C  C162  1  0.28027000  0.11073000  0.50401000  1.0
  C  C163  1  0.21971000  0.38926000  0.00400000  1.0
  C  C164  1  0.14874000  0.60191000  0.55396000  1.0
  C  C165  1  0.35127000  0.89810000  0.05396000  1.0
  C  C166  1  0.85127000  0.39809000  0.44603000  1.0
  C  C167  1  0.64870000  0.10190000  0.94605000  1.0
  C  C168  1  0.08722000  0.55840000  0.78381000  1.0
  C  C169  1  0.41281000  0.94160000  0.28381000  1.0
  C  C170  1  0.91280000  0.44159000  0.21619000  1.0
  C  C171  1  0.58718000  0.05843000  0.71619000  1.0
  C  C172  1  0.04650000  0.67761000  0.52932000  1.0
  C  C173  1  0.45352000  0.82239000  0.02932000  1.0
  C  C174  1  0.95351000  0.32238000  0.47067000  1.0
  C  C175  1  0.54647000  0.17760000  0.97069000  1.0
  C  C176  1  0.13438000  0.58417000  0.63384000  1.0
  C  C177  1  0.36564000  0.91582000  0.13383000  1.0
  C  C178  1  0.86563000  0.41582000  0.36616000  1.0
  C  C179  1  0.63433000  0.08420000  0.86617000  1.0
  C  C180  1  0.83618000  0.81692000  0.50257000  1.0
  C  C181  1  0.66382000  0.68309000  0.00256000  1.0
  C  C182  1  0.16383000  0.18307000  0.49743000  1.0
  C  C183  1  0.33614000  0.31691000  0.99744000  1.0
  C  C184  1  0.96260000  0.83778000  0.51054000  1.0
  C  C185  1  0.53741000  0.66223000  0.01053000  1.0
  C  C186  1  0.03741000  0.16222000  0.48946000  1.0
  C  C187  1  0.46257000  0.33777000  0.98947000  1.0
  O  O188  1  0.60986000  0.86435000  0.50931000  1.0
  O  O189  1  0.89015000  0.63566000  0.00930000  1.0
  O  O190  1  0.39015000  0.13564000  0.49070000  1.0
  O  O191  1  0.10982000  0.36435000  0.99070000  1.0
  O  O192  1  0.73608000  0.97030000  0.47953000  1.0
  O  O193  1  0.76391000  0.52970000  0.97952000  1.0
  O  O194  1  0.26391000  0.02969000  0.52047000  1.0
  O  O195  1  0.23607000  0.47029000  0.02047000  1.0
  O  O196  1  0.11128000  0.59322000  0.90994000  1.0
  O  O197  1  0.38874000  0.90679000  0.40994000  1.0
  O  O198  1  0.88872000  0.40679000  0.09006000  1.0
  O  O199  1  0.61129000  0.09323000  0.59006000  1.0
  O  O200  1  0.98894000  0.48542000  0.88030000  1.0
  O  O201  1  0.51106000  0.01459000  0.38030000  1.0
  O  O202  1  0.01104000  0.51459000  0.11970000  1.0
  O  O203  1  0.48895000  0.98544000  0.61970000  1.0
  O  O204  1  0.33280000  0.86441000  0.59966000  1.0
  O  O205  1  0.16721000  0.63559000  0.09965000  1.0
  O  O206  1  0.66722000  0.13559000  0.40035000  1.0
  O  O207  1  0.83277000  0.36442000  0.90035000  1.0
