# generated using pymatgen
data_CdH16C16(NO)4
_symmetry_space_group_name_H-M   'P 1'
_cell_length_a   13.18100000
_cell_length_b   13.62870000
_cell_length_c   13.62870000
_cell_angle_alpha   61.81760000
_cell_angle_beta   79.30670000
_cell_angle_gamma   79.30680000
_symmetry_Int_Tables_number   1
_chemical_formula_structural   CdH16C16(NO)4
_chemical_formula_sum   'Cd4 H64 C64 N16 O16'
_cell_volume   2106.94450687
_cell_formula_units_Z   4
loop_
 _symmetry_equiv_pos_site_id
 _symmetry_equiv_pos_as_xyz
  1  'x, y, z'
loop_
 _atom_site_type_symbol
 _atom_site_label
 _atom_site_symmetry_multiplicity
 _atom_site_fract_x
 _atom_site_fract_y
 _atom_site_fract_z
 _atom_site_occupancy
  Cd  Cd0  1  0.35411000  0.55939000  0.01629000  1.0
  Cd  Cd1  1  0.14589000  0.98371000  0.44061000  1.0
  Cd  Cd2  1  0.64589000  0.44061000  0.98371000  1.0
  Cd  Cd3  1  0.85411000  0.01629000  0.55939000  1.0
  H  H4  1  0.19510000  0.91863000  0.82042000  1.0
  H  H5  1  0.30490000  0.17959000  0.08137000  1.0
  H  H6  1  0.80490000  0.08137000  0.17958000  1.0
  H  H7  1  0.69510000  0.82042000  0.91863000  1.0
  H  H8  1  0.36891000  0.71928000  0.30584000  1.0
  H  H9  1  0.13109000  0.69416000  0.28072000  1.0
  H  H10  1  0.63109000  0.28071000  0.69416000  1.0
  H  H11  1  0.86891000  0.30584000  0.71929000  1.0
  H  H12  1  0.13617000  0.87596000  0.02347000  1.0
  H  H13  1  0.36384000  0.97653000  0.12404000  1.0
  H  H14  1  0.86383000  0.12404000  0.97653000  1.0
  H  H15  1  0.63617000  0.02347000  0.87596000  1.0
  H  H16  1  0.03944000  0.80054000  0.02305000  1.0
  H  H17  1  0.46056000  0.97695000  0.19946000  1.0
  H  H18  1  0.96056000  0.19946000  0.97695000  1.0
  H  H19  1  0.53944000  0.02305000  0.80054000  1.0
  H  H20  1  0.40647000  0.35797000  0.45949000  1.0
  H  H21  1  0.09353000  0.54051000  0.64203000  1.0
  H  H22  1  0.59353000  0.64202000  0.54051000  1.0
  H  H23  1  0.90647000  0.45949000  0.35797000  1.0
  H  H24  1  0.40459000  0.37171000  0.26835000  1.0
  H  H25  1  0.09541000  0.73166000  0.62829000  1.0
  H  H26  1  0.59542000  0.62828000  0.73165000  1.0
  H  H27  1  0.90458000  0.26835000  0.37171000  1.0
  H  H28  1  0.97297000  0.01422000  0.87362000  1.0
  H  H29  1  0.52702000  0.12638000  0.98578000  1.0
  H  H30  1  0.02702000  0.98578000  0.12637000  1.0
  H  H31  1  0.47297000  0.87362000  0.01422000  1.0
  H  H32  1  0.05321000  0.07790000  0.74550000  1.0
  H  H33  1  0.44679000  0.25450000  0.92209000  1.0
  H  H34  1  0.94679000  0.92209000  0.25449000  1.0
  H  H35  1  0.55321000  0.74550000  0.07790000  1.0
  H  H36  1  0.08972000  0.06348000  0.87124000  1.0
  H  H37  1  0.41028000  0.12876000  0.93652000  1.0
  H  H38  1  0.91028000  0.93652000  0.12876000  1.0
  H  H39  1  0.58971000  0.87124000  0.06348000  1.0
  H  H40  1  0.34007000  0.75621000  0.76186000  1.0
  H  H41  1  0.15993000  0.23814000  0.24379000  1.0
  H  H42  1  0.65993000  0.24379000  0.23813000  1.0
  H  H43  1  0.84007000  0.76186000  0.75621000  1.0
  H  H44  1  0.32888000  0.41431000  0.90083000  1.0
  H  H45  1  0.17112000  0.09917000  0.58569000  1.0
  H  H46  1  0.67113000  0.58569000  0.09917000  1.0
  H  H47  1  0.82888000  0.90083000  0.41431000  1.0
  H  H48  1  0.09851000  0.76268000  0.83712000  1.0
  H  H49  1  0.40149000  0.16288000  0.23732000  1.0
  H  H50  1  0.90149000  0.23732000  0.16288000  1.0
  H  H51  1  0.59851000  0.83712000  0.76268000  1.0
  H  H52  1  0.98321000  0.85797000  0.81921000  1.0
  H  H53  1  0.51679000  0.18079000  0.14203000  1.0
  H  H54  1  0.01679000  0.14202000  0.18079000  1.0
  H  H55  1  0.48321000  0.81921000  0.85797000  1.0
  H  H56  1  0.36273000  0.71765000  0.12153000  1.0
  H  H57  1  0.13727000  0.87847000  0.28234000  1.0
  H  H58  1  0.63727000  0.28235000  0.87847000  1.0
  H  H59  1  0.86273000  0.12153000  0.71765000  1.0
  H  H60  1  0.34338000  0.42136000  0.71004000  1.0
  H  H61  1  0.15662000  0.28996000  0.57864000  1.0
  H  H62  1  0.65662000  0.57864000  0.28996000  1.0
  H  H63  1  0.84338000  0.71004000  0.42136000  1.0
  H  H64  1  0.34924000  0.77935000  0.56503000  1.0
  H  H65  1  0.15076000  0.43496000  0.22065000  1.0
  H  H66  1  0.65076000  0.22065000  0.43496000  1.0
  H  H67  1  0.84924000  0.56503000  0.77936000  1.0
  C  C68  1  0.11382000  0.90772000  0.85717000  1.0
  C  C69  1  0.38618000  0.14284000  0.09228000  1.0
  C  C70  1  0.88618000  0.09228000  0.14283000  1.0
  C  C71  1  0.61382000  0.85717000  0.90772000  1.0
  C  C72  1  0.37583000  0.64135000  0.29985000  1.0
  C  C73  1  0.12417000  0.70015000  0.35866000  1.0
  C  C74  1  0.62417000  0.35865000  0.70016000  1.0
  C  C75  1  0.87583000  0.29984000  0.64135000  1.0
  C  C76  1  0.35051000  0.60082000  0.62430000  1.0
  C  C77  1  0.14949000  0.37570000  0.39918000  1.0
  C  C78  1  0.64949000  0.39918000  0.37570000  1.0
  C  C79  1  0.85051000  0.62430000  0.60082000  1.0
  C  C80  1  0.11593000  0.82954000  0.98329000  1.0
  C  C81  1  0.38407000  0.01671000  0.17046000  1.0
  C  C82  1  0.88407000  0.17046000  0.01671000  1.0
  C  C83  1  0.61593000  0.98329000  0.82954000  1.0
  C  C84  1  0.39751000  0.43884000  0.38582000  1.0
  C  C85  1  0.10249000  0.61418000  0.56117000  1.0
  C  C86  1  0.60249000  0.56116000  0.61418000  1.0
  C  C87  1  0.89751000  0.38582000  0.43884000  1.0
  C  C88  1  0.39577000  0.44639000  0.28067000  1.0
  C  C89  1  0.10423000  0.71932000  0.55361000  1.0
  C  C90  1  0.60423000  0.55360000  0.71933000  1.0
  C  C91  1  0.89577000  0.28067000  0.44639000  1.0
  C  C92  1  0.38595000  0.53797000  0.39583000  1.0
  C  C93  1  0.11406000  0.60417000  0.46203000  1.0
  C  C94  1  0.61406000  0.46202000  0.60417000  1.0
  C  C95  1  0.88594000  0.39583000  0.53798000  1.0
  C  C96  1  0.05426000  0.02216000  0.83569000  1.0
  C  C97  1  0.44573000  0.16432000  0.97784000  1.0
  C  C98  1  0.94573000  0.97784000  0.16431000  1.0
  C  C99  1  0.55426000  0.83569000  0.02216000  1.0
  C  C100  1  0.34232000  0.68427000  0.74637000  1.0
  C  C101  1  0.15767000  0.25362000  0.31573000  1.0
  C  C102  1  0.65768000  0.31574000  0.25362000  1.0
  C  C103  1  0.84232000  0.74637000  0.68427000  1.0
  C  C104  1  0.33639000  0.49230000  0.82371000  1.0
  C  C105  1  0.16360000  0.17629000  0.50770000  1.0
  C  C106  1  0.66361000  0.50770000  0.17629000  1.0
  C  C107  1  0.83639000  0.82371000  0.49230000  1.0
  C  C108  1  0.19808000  0.72952000  0.00293000  1.0
  C  C109  1  0.30191000  0.99707000  0.27048000  1.0
  C  C110  1  0.80191000  0.27049000  0.99707000  1.0
  C  C111  1  0.69808000  0.00293000  0.72951000  1.0
  C  C112  1  0.06834000  0.85232000  0.80175000  1.0
  C  C113  1  0.43167000  0.19825000  0.14768000  1.0
  C  C114  1  0.93166000  0.14768000  0.19825000  1.0
  C  C115  1  0.56833000  0.80175000  0.85232000  1.0
  C  C116  1  0.37358000  0.64052000  0.19891000  1.0
  C  C117  1  0.12642000  0.80109000  0.35949000  1.0
  C  C118  1  0.62642000  0.35948000  0.80110000  1.0
  C  C119  1  0.87358000  0.19891000  0.64052000  1.0
  C  C120  1  0.34344000  0.49643000  0.71929000  1.0
  C  C121  1  0.15655000  0.28071000  0.50357000  1.0
  C  C122  1  0.65655000  0.50357000  0.28071000  1.0
  C  C123  1  0.84344000  0.71929000  0.49643000  1.0
  C  C124  1  0.09928000  0.90119000  0.67634000  1.0
  C  C125  1  0.40072000  0.32366000  0.09881000  1.0
  C  C126  1  0.90072000  0.09881000  0.32366000  1.0
  C  C127  1  0.59928000  0.67635000  0.90119000  1.0
  C  C128  1  0.34748000  0.69709000  0.63772000  1.0
  C  C129  1  0.15253000  0.36228000  0.30291000  1.0
  C  C130  1  0.65253000  0.30291000  0.36228000  1.0
  C  C131  1  0.84747000  0.63772000  0.69709000  1.0
  N  N132  1  0.38308000  0.54502000  0.18937000  1.0
  N  N133  1  0.11692000  0.81062000  0.45499000  1.0
  N  N134  1  0.61692000  0.45498000  0.81063000  1.0
  N  N135  1  0.88308000  0.18938000  0.54501000  1.0
  N  N136  1  0.33730000  0.58408000  0.83714000  1.0
  N  N137  1  0.16270000  0.16285000  0.41592000  1.0
  N  N138  1  0.66270000  0.41592000  0.16285000  1.0
  N  N139  1  0.83730000  0.83714000  0.58408000  1.0
  N  N140  1  0.38380000  0.52522000  0.50544000  1.0
  N  N141  1  0.11620000  0.49455000  0.47478000  1.0
  N  N142  1  0.61620000  0.47478000  0.49456000  1.0
  N  N143  1  0.88380000  0.50544000  0.52522000  1.0
  N  N144  1  0.35683000  0.61536000  0.51355000  1.0
  N  N145  1  0.14317000  0.48645000  0.38464000  1.0
  N  N146  1  0.64316000  0.38464000  0.48645000  1.0
  N  N147  1  0.85683000  0.51355000  0.61536000  1.0
  O  O148  1  0.29197000  0.75095000  0.96226000  1.0
  O  O149  1  0.20803000  0.03774000  0.24905000  1.0
  O  O150  1  0.70803000  0.24905000  0.03774000  1.0
  O  O151  1  0.79196000  0.96227000  0.75095000  1.0
  O  O152  1  0.17265000  0.63040000  0.05556000  1.0
  O  O153  1  0.32736000  0.94444000  0.36960000  1.0
  O  O154  1  0.82736000  0.36960000  0.94444000  1.0
  O  O155  1  0.67264000  0.05557000  0.63040000  1.0
  O  O156  1  0.19444000  0.90619000  0.63785000  1.0
  O  O157  1  0.30556000  0.36215000  0.09380000  1.0
  O  O158  1  0.80556000  0.09380000  0.36215000  1.0
  O  O159  1  0.69444000  0.63786000  0.90620000  1.0
  O  O160  1  0.02834000  0.93470000  0.61036000  1.0
  O  O161  1  0.47166000  0.38964000  0.06530000  1.0
  O  O162  1  0.97166000  0.06530000  0.38964000  1.0
  O  O163  1  0.52834000  0.61036000  0.93470000  1.0
