# generated using pymatgen
data_Hf3H2(C3O4)4
_symmetry_space_group_name_H-M   'P 1'
_cell_length_a   13.00030277
_cell_length_b   12.99940000
_cell_length_c   12.99950000
_cell_angle_alpha   119.99100000
_cell_angle_beta   90.01297484
_cell_angle_gamma   119.99351613
_symmetry_Int_Tables_number   1
_chemical_formula_structural   Hf3H2(C3O4)4
_chemical_formula_sum   'Hf6 H4 C24 O32'
_cell_volume   1553.60596172
_cell_formula_units_Z   2
loop_
 _symmetry_equiv_pos_site_id
 _symmetry_equiv_pos_as_xyz
  1  'x, y, z'
loop_
 _atom_site_type_symbol
 _atom_site_label
 _atom_site_symmetry_multiplicity
 _atom_site_fract_x
 _atom_site_fract_y
 _atom_site_fract_z
 _atom_site_occupancy
  Hf  Hf0  1  0.13627000  0.00035000  0.13854000  1.0
  Hf  Hf1  1  0.86636000  0.73045000  0.86865000  1.0
  Hf  Hf2  1  0.13627000  0.27028000  0.13853000  1.0
  Hf  Hf3  1  0.86635000  0.00037000  0.13853000  1.0
  Hf  Hf4  1  0.13625000  0.00038000  0.86863000  1.0
  Hf  Hf5  1  0.86630000  0.00032000  0.86857000  1.0
  H  H6  1  0.89469000  0.78716000  0.11018000  1.0
  H  H7  1  0.32115000  0.21361000  0.11022000  1.0
  H  H8  1  0.89465000  0.21360000  0.11017000  1.0
  H  H9  1  0.89464000  0.78710000  0.68366000  1.0
  C  C10  1  0.33864000  0.34238000  0.35045000  1.0
  C  C11  1  0.00596000  0.65825000  0.99892000  1.0
  C  C12  1  0.00603000  0.00969000  0.35028000  1.0
  C  C13  1  0.33866000  0.99094000  0.99894000  1.0
  C  C14  1  0.65447000  0.65822000  0.66629000  1.0
  C  C15  1  0.00594000  0.34231000  0.99874000  1.0
  C  C16  1  0.65451000  0.65822000  0.99887000  1.0
  C  C17  1  0.00615000  0.65833000  0.66632000  1.0
  C  C18  1  0.33864000  0.34243000  0.99884000  1.0
  C  C19  1  0.00624000  0.34261000  0.35047000  1.0
  C  C20  1  0.65447000  0.99088000  0.99888000  1.0
  C  C21  1  0.00605000  0.00983000  0.66618000  1.0
  C  C22  1  0.00785000  0.54700000  0.99700000  1.0
  C  C23  1  0.00780000  0.45354000  0.99685000  1.0
  C  C24  1  0.44795000  0.45357000  0.46363000  1.0
  C  C25  1  0.54133000  0.54695000  0.55696000  1.0
  C  C26  1  0.00792000  0.01348000  0.46341000  1.0
  C  C27  1  0.00796000  0.01361000  0.55684000  1.0
  C  C28  1  0.44798000  0.98709000  0.99701000  1.0
  C  C29  1  0.54134000  0.98708000  0.99698000  1.0
  C  C30  1  0.00814000  0.54713000  0.55702000  1.0
  C  C31  1  0.00824000  0.45383000  0.46371000  1.0
  C  C32  1  0.54134000  0.54696000  0.99692000  1.0
  C  C33  1  0.44796000  0.45360000  0.99690000  1.0
  O  O34  1  0.29638000  0.38652000  0.30532000  1.0
  O  O35  1  0.91673000  0.61415000  0.91251000  1.0
  O  O36  1  0.09243000  0.00686000  0.30521000  1.0
  O  O37  1  0.29634000  0.99367000  0.08810000  1.0
  O  O38  1  0.29643000  0.99387000  0.91256000  1.0
  O  O39  1  0.91680000  0.00690000  0.30519000  1.0
  O  O40  1  0.09237000  0.78975000  0.08814000  1.0
  O  O41  1  0.29637000  0.21086000  0.30531000  1.0
  O  O42  1  0.05739000  0.88822000  0.94751000  1.0
  O  O43  1  0.05739000  0.11254000  0.17182000  1.0
  O  O44  1  0.92515000  0.84806000  0.07974000  1.0
  O  O45  1  0.22982000  0.15272000  0.07977000  1.0
  O  O46  1  0.69959000  0.61413000  0.70861000  1.0
  O  O47  1  0.09241000  0.38645000  0.08791000  1.0
  O  O48  1  0.69959000  0.78975000  0.08808000  1.0
  O  O49  1  0.09252000  0.78986000  0.70860000  1.0
  O  O50  1  0.29635000  0.21091000  0.91243000  1.0
  O  O51  1  0.91701000  0.21109000  0.30536000  1.0
  O  O52  1  0.69953000  0.99366000  0.91245000  1.0
  O  O53  1  0.91681000  0.00699000  0.70843000  1.0
  O  O54  1  0.69959000  0.99371000  0.08813000  1.0
  O  O55  1  0.09246000  0.00701000  0.70849000  1.0
  O  O56  1  0.69964000  0.61410000  0.91252000  1.0
  O  O57  1  0.09252000  0.38671000  0.30526000  1.0
  O  O58  1  0.29640000  0.38657000  0.08808000  1.0
  O  O59  1  0.91691000  0.61418000  0.70856000  1.0
  O  O60  1  0.69955000  0.78971000  0.70850000  1.0
  O  O61  1  0.91668000  0.21081000  0.91234000  1.0
  O  O62  1  0.05734000  0.11250000  0.94748000  1.0
  O  O63  1  0.83305000  0.88821000  0.94749000  1.0
  O  O64  1  0.92509000  0.15270000  0.07973000  1.0
  O  O65  1  0.92509000  0.84798000  0.77501000  1.0
