# generated using pymatgen
data_GdH10C16N5O8
_symmetry_space_group_name_H-M   'P 1'
_cell_length_a   9.54964000
_cell_length_b   10.18990000
_cell_length_c   11.63110000
_cell_angle_alpha   66.37820000
_cell_angle_beta   65.76760000
_cell_angle_gamma   62.06010000
_symmetry_Int_Tables_number   1
_chemical_formula_structural   GdH10C16N5O8
_chemical_formula_sum   'Gd2 H20 C32 N10 O16'
_cell_volume   880.75919105
_cell_formula_units_Z   2
loop_
 _symmetry_equiv_pos_site_id
 _symmetry_equiv_pos_as_xyz
  1  'x, y, z'
loop_
 _atom_site_type_symbol
 _atom_site_label
 _atom_site_symmetry_multiplicity
 _atom_site_fract_x
 _atom_site_fract_y
 _atom_site_fract_z
 _atom_site_occupancy
  Gd  Gd0  1  0.34268000  0.25001000  0.74999000  1.0
  Gd  Gd1  1  0.65732000  0.74999000  0.25001000  1.0
  H  H2  1  0.55079000  0.89119000  0.86373000  1.0
  H  H3  1  0.30575000  0.60880000  0.63626000  1.0
  H  H4  1  0.44921000  0.10881000  0.13627000  1.0
  H  H5  1  0.69425000  0.39120000  0.36374000  1.0
  H  H6  1  0.55029000  0.62455000  0.94468000  1.0
  H  H7  1  0.11954000  0.87547000  0.55530000  1.0
  H  H8  1  0.44971000  0.37545000  0.05532000  1.0
  H  H9  1  0.88046000  0.12453000  0.44470000  1.0
  H  H10  1  0.29802000  0.58821000  0.95577000  1.0
  H  H11  1  0.84202000  0.91181000  0.54422000  1.0
  H  H12  1  0.70198000  0.41179000  0.04423000  1.0
  H  H13  1  0.15798000  0.08819000  0.45578000  1.0
  H  H14  1  0.06443000  0.81530000  0.89317000  1.0
  H  H15  1  0.77286000  0.68473000  0.60684000  1.0
  H  H16  1  0.93557000  0.18470000  0.10683000  1.0
  H  H17  1  0.22714000  0.31527000  0.39316000  1.0
  H  H18  1  0.87769000  0.00801000  0.84078000  1.0
  H  H19  1  0.72648000  0.49199000  0.65921000  1.0
  H  H20  1  0.12231000  0.99199000  0.15922000  1.0
  H  H21  1  0.27352000  0.50801000  0.34079000  1.0
  C  C22  1  0.44533000  0.86942000  0.87148000  1.0
  C  C23  1  0.18625000  0.63059000  0.62850000  1.0
  C  C24  1  0.55468000  0.13058000  0.12852000  1.0
  C  C25  1  0.81375000  0.36941000  0.37150000  1.0
  C  C26  1  0.44398000  0.72100000  0.91654000  1.0
  C  C27  1  0.08154000  0.77901000  0.58343000  1.0
  C  C28  1  0.55602000  0.27900000  0.08346000  1.0
  C  C29  1  0.91846000  0.22098000  0.41657000  1.0
  C  C30  1  0.30535000  0.70147000  0.92401000  1.0
  C  C31  1  0.93085000  0.79855000  0.57598000  1.0
  C  C32  1  0.69465000  0.29853000  0.07599000  1.0
  C  C33  1  0.06915000  0.20145000  0.42402000  1.0
  C  C34  1  0.17325000  0.83005000  0.88681000  1.0
  C  C35  1  0.89009000  0.66999000  0.61321000  1.0
  C  C36  1  0.82675000  0.16995000  0.11319000  1.0
  C  C37  1  0.10991000  0.33001000  0.38679000  1.0
  C  C38  1  0.18348000  0.97559000  0.84169000  1.0
  C  C39  1  0.00074000  0.52443000  0.65833000  1.0
  C  C40  1  0.81652000  0.02441000  0.15831000  1.0
  C  C41  1  0.99926000  0.47556000  0.34167000  1.0
  C  C42  1  0.05044000  0.11682000  0.79598000  1.0
  C  C43  1  0.96324000  0.38321000  0.70400000  1.0
  C  C44  1  0.94956000  0.88318000  0.20402000  1.0
  C  C45  1  0.03676000  0.61679000  0.29600000  1.0
  C  C46  1  0.90368000  0.11345000  0.79979000  1.0
  C  C47  1  0.81694000  0.38654000  0.70017000  1.0
  C  C48  1  0.09632000  0.88655000  0.20021000  1.0
  C  C49  1  0.18306000  0.61346000  0.29983000  1.0
  C  C50  1  0.78711000  0.25000000  0.74997000  1.0
  C  C51  1  0.21289000  0.75000000  0.25003000  1.0
  C  C52  1  0.63007000  0.25003000  0.75000000  1.0
  C  C53  1  0.36993000  0.74997000  0.25000000  1.0
  N  N54  1  0.18952000  0.33971000  0.99337000  1.0
  N  N55  1  0.52269000  0.16025000  0.50665000  1.0
  N  N56  1  0.81048000  0.66029000  0.00663000  1.0
  N  N57  1  0.47731000  0.83975000  0.49335000  1.0
  N  N58  1  0.07758000  0.25001000  0.74999000  1.0
  N  N59  1  0.92242000  0.74999000  0.25001000  1.0
  N  N60  1  0.31894000  0.99356000  0.83455000  1.0
  N  N61  1  0.14704000  0.50647000  0.66544000  1.0
  N  N62  1  0.68106000  0.00644000  0.16545000  1.0
  N  N63  1  0.85296000  0.49353000  0.33456000  1.0
  O  O64  1  0.57901000  0.14237000  0.83200000  1.0
  O  O65  1  0.55333000  0.35771000  0.66800000  1.0
  O  O66  1  0.42099000  0.85763000  0.16800000  1.0
  O  O67  1  0.44667000  0.64229000  0.33200000  1.0
  O  O68  1  0.27676000  0.40912000  0.89279000  1.0
  O  O69  1  0.57872000  0.09085000  0.60726000  1.0
  O  O70  1  0.72324000  0.59088000  0.10721000  1.0
  O  O71  1  0.42128000  0.90915000  0.39274000  1.0
  O  O72  1  0.17443000  0.22822000  0.97882000  1.0
  O  O73  1  0.38158000  0.27177000  0.52116000  1.0
  O  O74  1  0.82557000  0.77178000  0.02118000  1.0
  O  O75  1  0.61842000  0.72823000  0.47884000  1.0
  O  O76  1  0.12554000  0.37642000  0.09731000  1.0
  O  O77  1  0.59939000  0.12350000  0.40272000  1.0
  O  O78  1  0.87446000  0.62358000  0.90269000  1.0
  O  O79  1  0.40061000  0.87650000  0.59728000  1.0
