# generated using pymatgen
data_ZnH4C12NO4F
_symmetry_space_group_name_H-M   'P 1'
_cell_length_a   8.93328000
_cell_length_b   14.83860000
_cell_length_c   16.26010000
_cell_angle_alpha   89.93570000
_cell_angle_beta   89.68510000
_cell_angle_gamma   100.83840000
_symmetry_Int_Tables_number   1
_chemical_formula_structural   ZnH4C12NO4F
_chemical_formula_sum   'Zn2 H8 C24 N2 O8 F2'
_cell_volume   2116.90984816
_cell_formula_units_Z   2
loop_
 _symmetry_equiv_pos_site_id
 _symmetry_equiv_pos_as_xyz
  1  'x, y, z'
loop_
 _atom_site_type_symbol
 _atom_site_label
 _atom_site_symmetry_multiplicity
 _atom_site_fract_x
 _atom_site_fract_y
 _atom_site_fract_z
 _atom_site_occupancy
  Zn  Zn0  1  0.48592000  0.40461000  0.50002000  1.0
  Zn  Zn1  1  0.51408000  0.59539000  0.49997000  1.0
  H  H2  1  0.02998000  0.60577000  0.50001000  1.0
  H  H3  1  0.97003000  0.39422000  0.49999000  1.0
  H  H4  1  0.74208000  0.49765000  0.92392000  1.0
  H  H5  1  0.25789000  0.50235000  0.07608000  1.0
  H  H6  1  0.74619000  0.94380000  0.49993000  1.0
  H  H7  1  0.25383000  0.05621000  0.50007000  1.0
  H  H8  1  0.74643000  0.11242000  0.49991000  1.0
  H  H9  1  0.25359000  0.88758000  0.50009000  1.0
  C  C10  1  0.49877000  0.49972000  0.66128000  1.0
  C  C11  1  0.50123000  0.50029000  0.33872000  1.0
  C  C12  1  0.49982000  0.09341000  0.50000000  1.0
  C  C13  1  0.50020000  0.90660000  0.50001000  1.0
  C  C14  1  0.36043000  0.03068000  0.50004000  1.0
  C  C15  1  0.63959000  0.96932000  0.49996000  1.0
  C  C16  1  0.49710000  0.18890000  0.50003000  1.0
  C  C17  1  0.50291000  0.81111000  0.49997000  1.0
  C  C18  1  0.79564000  0.52544000  0.49996000  1.0
  C  C19  1  0.20437000  0.47456000  0.50003000  1.0
  C  C20  1  0.96444000  0.53595000  0.49999000  1.0
  C  C21  1  0.03557000  0.46405000  0.50001000  1.0
  C  C22  1  0.63305000  0.49902000  0.04147000  1.0
  C  C23  1  0.36692000  0.50098000  0.95853000  1.0
  C  C24  1  0.49962000  0.50035000  0.08771000  1.0
  C  C25  1  0.50034000  0.49964000  0.91229000  1.0
  C  C26  1  0.36440000  0.50136000  0.04351000  1.0
  C  C27  1  0.63557000  0.49864000  0.95648000  1.0
  C  C28  1  0.50121000  0.50048000  0.17463000  1.0
  C  C29  1  0.49877000  0.49952000  0.82537000  1.0
  C  C30  1  0.49875000  0.49958000  0.75046000  1.0
  C  C31  1  0.50126000  0.50042000  0.24953000  1.0
  C  C32  1  0.63966000  0.06287000  0.49996000  1.0
  C  C33  1  0.36035000  0.93713000  0.50005000  1.0
  N  N34  1  0.50903000  0.73371000  0.49993000  1.0
  N  N35  1  0.49099000  0.26629000  0.50007000  1.0
  O  O36  1  0.48500000  0.42171000  0.62673000  1.0
  O  O37  1  0.51500000  0.57829000  0.37327000  1.0
  O  O38  1  0.51270000  0.57783000  0.62669000  1.0
  O  O39  1  0.48729000  0.42217000  0.37331000  1.0
  O  O40  1  0.71689000  0.44439000  0.49999000  1.0
  O  O41  1  0.28312000  0.55561000  0.50000000  1.0
  O  O42  1  0.74336000  0.59993000  0.49995000  1.0
  O  O43  1  0.25665000  0.40007000  0.50005000  1.0
  F  F44  1  0.76520000  0.49811000  0.08230000  1.0
  F  F45  1  0.23477000  0.50188000  0.91770000  1.0
