# generated using pymatgen
data_Zn2H22C45N2O13F2
_symmetry_space_group_name_H-M   'P 1'
_cell_length_a   16.49310000
_cell_length_b   17.89060000
_cell_length_c   33.21220000
_cell_angle_alpha   90.24140000
_cell_angle_beta   89.82230000
_cell_angle_gamma   89.92290000
_symmetry_Int_Tables_number   1
_chemical_formula_structural   Zn2H22C45N2O13F2
_chemical_formula_sum   'Zn4 H44 C90 N4 O26 F4'
_cell_volume   9799.82901378
_cell_formula_units_Z   2
loop_
 _symmetry_equiv_pos_site_id
 _symmetry_equiv_pos_as_xyz
  1  'x, y, z'
loop_
 _atom_site_type_symbol
 _atom_site_label
 _atom_site_symmetry_multiplicity
 _atom_site_fract_x
 _atom_site_fract_y
 _atom_site_fract_z
 _atom_site_occupancy
  Zn  Zn0  1  0.58403000  0.49921000  0.50064000  1.0
  Zn  Zn1  1  0.41532000  0.50091000  0.50004000  1.0
  Zn  Zn2  1  0.41603000  0.50148000  0.96151000  1.0
  Zn  Zn3  1  0.58466000  0.50292000  0.96205000  1.0
  H  H4  1  0.28936000  0.58185000  0.54543000  1.0
  H  H5  1  0.13681000  0.58811000  0.54839000  1.0
  H  H6  1  0.28441000  0.41857000  0.45635000  1.0
  H  H7  1  0.71534000  0.58223000  0.54391000  1.0
  H  H8  1  0.70950000  0.41756000  0.45561000  1.0
  H  H9  1  0.86208000  0.41140000  0.45222000  1.0
  H  H10  1  0.63126000  0.73465000  0.50062000  1.0
  H  H11  1  0.63601000  0.87468000  0.50004000  1.0
  H  H12  1  0.37061000  0.74176000  0.50032000  1.0
  H  H13  1  0.63016000  0.25764000  0.50001000  1.0
  H  H14  1  0.36955000  0.26625000  0.49984000  1.0
  H  H15  1  0.36388000  0.12622000  0.49970000  1.0
  H  H16  1  0.36888000  0.50052000  0.62896000  1.0
  H  H17  1  0.62897000  0.50002000  0.62801000  1.0
  H  H18  1  0.63089000  0.50124000  0.83308000  1.0
  H  H19  1  0.37078000  0.50086000  0.83407000  1.0
  H  H20  1  0.36841000  0.50289000  0.08831000  1.0
  H  H21  1  0.36334000  0.50239000  0.16377000  1.0
  H  H22  1  0.62903000  0.50236000  0.09185000  1.0
  H  H23  1  0.37096000  0.50002000  0.37028000  1.0
  H  H24  1  0.63159000  0.50036000  0.37384000  1.0
  H  H25  1  0.63665000  0.50123000  0.29837000  1.0
  H  H26  1  0.71038000  0.58389000  0.91687000  1.0
  H  H27  1  0.86292000  0.59029000  0.91400000  1.0
  H  H28  1  0.71590000  0.42129000  0.00558000  1.0
  H  H29  1  0.28462000  0.58424000  0.91833000  1.0
  H  H30  1  0.29064000  0.42031000  0.00627000  1.0
  H  H31  1  0.13805000  0.41449000  0.00966000  1.0
  H  H32  1  0.36854000  0.73741000  0.96094000  1.0
  H  H33  1  0.36419000  0.87751000  0.96106000  1.0
  H  H34  1  0.62923000  0.74331000  0.96124000  1.0
  H  H35  1  0.37018000  0.26001000  0.96173000  1.0
  H  H36  1  0.63077000  0.26800000  0.96180000  1.0
  H  H37  1  0.63646000  0.12795000  0.96159000  1.0
  H  H38  1  0.06813000  0.41335000  0.45310000  1.0
  H  H39  1  0.93160000  0.58674000  0.54712000  1.0
  H  H40  1  0.37166000  0.94079000  0.49974000  1.0
  H  H41  1  0.62776000  0.05858000  0.49987000  1.0
  H  H42  1  0.62752000  0.50188000  0.19906000  1.0
  H  H43  1  0.37250000  0.50120000  0.26307000  1.0
  H  H44  1  0.93217000  0.41642000  0.00897000  1.0
  H  H45  1  0.06838000  0.58917000  0.91511000  1.0
  H  H46  1  0.62863000  0.94239000  0.96109000  1.0
  H  H47  1  0.37257000  0.06097000  0.96129000  1.0
  C  C48  1  0.49900000  0.64667000  0.50112000  1.0
  C  C49  1  0.49876000  0.50056000  0.57943000  1.0
  C  C50  1  0.50263000  0.35346000  0.49982000  1.0
  C  C51  1  0.49870000  0.49943000  0.42135000  1.0
  C  C52  1  0.50079000  0.64882000  0.96093000  1.0
  C  C53  1  0.50109000  0.50175000  0.88265000  1.0
  C  C54  1  0.49766000  0.35554000  0.96213000  1.0
  C  C55  1  0.50126000  0.50215000  0.04079000  1.0
  C  C56  1  0.25130000  0.54695000  0.52632000  1.0
  C  C57  1  0.16747000  0.54999000  0.52772000  1.0
  C  C58  1  0.12207000  0.50322000  0.50213000  1.0
  C  C59  1  0.16470000  0.45444000  0.47576000  1.0
  C  C60  1  0.24947000  0.45507000  0.47629000  1.0
  C  C61  1  0.03655000  0.50261000  0.50157000  1.0
  C  C62  1  0.96280000  0.49739000  0.49858000  1.0
  C  C63  1  0.87727000  0.49684000  0.49814000  1.0
  C  C64  1  0.83488000  0.54586000  0.52449000  1.0
  C  C65  1  0.75009000  0.54534000  0.52409000  1.0
  C  C66  1  0.74779000  0.45284000  0.47440000  1.0
  C  C67  1  0.83161000  0.44983000  0.47279000  1.0
  C  C68  1  0.50092000  0.73045000  0.50074000  1.0
  C  C69  1  0.57585000  0.76775000  0.50058000  1.0
  C  C70  1  0.57822000  0.84515000  0.50021000  1.0
  C  C71  1  0.50577000  0.88721000  0.50002000  1.0
  C  C72  1  0.43033000  0.84889000  0.50013000  1.0
  C  C73  1  0.42845000  0.77105000  0.50043000  1.0
  C  C74  1  0.50448000  0.96604000  0.49976000  1.0
  C  C75  1  0.49495000  0.03411000  0.49966000  1.0
  C  C76  1  0.49404000  0.11294000  0.49965000  1.0
  C  C77  1  0.56975000  0.15083000  0.49971000  1.0
  C  C78  1  0.57214000  0.22866000  0.49977000  1.0
  C  C79  1  0.49993000  0.26969000  0.49973000  1.0
  C  C80  1  0.42474000  0.23283000  0.49971000  1.0
  C  C81  1  0.42187000  0.15543000  0.49967000  1.0
  C  C82  1  0.42538000  0.50068000  0.64578000  1.0
  C  C83  1  0.42483000  0.50078000  0.68798000  1.0
  C  C84  1  0.35147000  0.50100000  0.71103000  1.0
  C  C85  1  0.57277000  0.50045000  0.64525000  1.0
  C  C86  1  0.57406000  0.50080000  0.68742000  1.0
  C  C87  1  0.64787000  0.50112000  0.70989000  1.0
  C  C88  1  0.57437000  0.50134000  0.81627000  1.0
  C  C89  1  0.57488000  0.50125000  0.77408000  1.0
  C  C90  1  0.64823000  0.50127000  0.75102000  1.0
  C  C91  1  0.42697000  0.50110000  0.81683000  1.0
  C  C92  1  0.42564000  0.50107000  0.77464000  1.0
  C  C93  1  0.35183000  0.50110000  0.75216000  1.0
  C  C94  1  0.49889000  0.50053000  0.62470000  1.0
  C  C95  1  0.49964000  0.50089000  0.70965000  1.0
  C  C96  1  0.50087000  0.50134000  0.83737000  1.0
  C  C97  1  0.50005000  0.50110000  0.75242000  1.0
  C  C98  1  0.49880000  0.50220000  0.08592000  1.0
  C  C99  1  0.42375000  0.50242000  0.10608000  1.0
  C  C100  1  0.42119000  0.50223000  0.14778000  1.0
  C  C101  1  0.49356000  0.50193000  0.17034000  1.0
  C  C102  1  0.56910000  0.50194000  0.14963000  1.0
  C  C103  1  0.57115000  0.50209000  0.10770000  1.0
  C  C104  1  0.49490000  0.50168000  0.21279000  1.0
  C  C105  1  0.50507000  0.50143000  0.24938000  1.0
  C  C106  1  0.50643000  0.50085000  0.29181000  1.0
  C  C107  1  0.43089000  0.50048000  0.31252000  1.0
  C  C108  1  0.42885000  0.50000000  0.35444000  1.0
  C  C109  1  0.50120000  0.49977000  0.37622000  1.0
  C  C110  1  0.57626000  0.50017000  0.35606000  1.0
  C  C111  1  0.57880000  0.50072000  0.31436000  1.0
  C  C112  1  0.74853000  0.54916000  0.93591000  1.0
  C  C113  1  0.83236000  0.55229000  0.93456000  1.0
  C  C114  1  0.87795000  0.50578000  0.96007000  1.0
  C  C115  1  0.83548000  0.45717000  0.98631000  1.0
  C  C116  1  0.75072000  0.45769000  0.98574000  1.0
  C  C117  1  0.96347000  0.50528000  0.96067000  1.0
  C  C118  1  0.03727000  0.50021000  0.96352000  1.0
  C  C119  1  0.12279000  0.49962000  0.96393000  1.0
  C  C120  1  0.16512000  0.54834000  0.93769000  1.0
  C  C121  1  0.24991000  0.54757000  0.93807000  1.0
  C  C122  1  0.25233000  0.45552000  0.98756000  1.0
  C  C123  1  0.16851000  0.45270000  0.98917000  1.0
  C  C124  1  0.49889000  0.73262000  0.96095000  1.0
  C  C125  1  0.42403000  0.77026000  0.96094000  1.0
  C  C126  1  0.42189000  0.84768000  0.96105000  1.0
  C  C127  1  0.49447000  0.88937000  0.96117000  1.0
  C  C128  1  0.56983000  0.85071000  0.96107000  1.0
  C  C129  1  0.57148000  0.77287000  0.96105000  1.0
  C  C130  1  0.49591000  0.96817000  0.96139000  1.0
  C  C131  1  0.50544000  0.03619000  0.96149000  1.0
  C  C132  1  0.50631000  0.11500000  0.96168000  1.0
  C  C133  1  0.43060000  0.15307000  0.96171000  1.0
  C  C134  1  0.42821000  0.23091000  0.96187000  1.0
  C  C135  1  0.50041000  0.27175000  0.96200000  1.0
  C  C136  1  0.57559000  0.23470000  0.96189000  1.0
  C  C137  1  0.57847000  0.15730000  0.96174000  1.0
  N  N138  1  0.29073000  0.50028000  0.50098000  1.0
  N  N139  1  0.70861000  0.49986000  0.49965000  1.0
  N  N140  1  0.70928000  0.50262000  0.96112000  1.0
  N  N141  1  0.29145000  0.50224000  0.96241000  1.0
  O  O142  1  0.56728000  0.61326000  0.50170000  1.0
  O  O143  1  0.42972000  0.61523000  0.50075000  1.0
  O  O144  1  0.43007000  0.50223000  0.56212000  1.0
  O  O145  1  0.56768000  0.49894000  0.56206000  1.0
  O  O146  1  0.43463000  0.38745000  0.49998000  1.0
  O  O147  1  0.57219000  0.38430000  0.49977000  1.0
  O  O148  1  0.56681000  0.49870000  0.43938000  1.0
  O  O149  1  0.42924000  0.50000000  0.43823000  1.0
  O  O150  1  0.43255000  0.61551000  0.96050000  1.0
  O  O151  1  0.57011000  0.61728000  0.96135000  1.0
  O  O152  1  0.56981000  0.50350000  0.89994000  1.0
  O  O153  1  0.43221000  0.50035000  0.90005000  1.0
  O  O154  1  0.56564000  0.38945000  0.96207000  1.0
  O  O155  1  0.42809000  0.38651000  0.96222000  1.0
  O  O156  1  0.43314000  0.50146000  0.02276000  1.0
  O  O157  1  0.57070000  0.50281000  0.02388000  1.0
  O  O158  1  0.12686000  0.40722000  0.45001000  1.0
  O  O159  1  0.87289000  0.59325000  0.55006000  1.0
  O  O160  1  0.35887000  0.88726000  0.49994000  1.0
  O  O161  1  0.64095000  0.11203000  0.49976000  1.0
  O  O162  1  0.64045000  0.50177000  0.17021000  1.0
  O  O163  1  0.35955000  0.50065000  0.29192000  1.0
  O  O164  1  0.87346000  0.41021000  0.01198000  1.0
  O  O165  1  0.12709000  0.59561000  0.91224000  1.0
  O  O166  1  0.64135000  0.88881000  0.96103000  1.0
  O  O167  1  0.35940000  0.11446000  0.96155000  1.0
  F  F168  1  0.28047000  0.50142000  0.77263000  1.0
  F  F169  1  0.27972000  0.50128000  0.69108000  1.0
  F  F170  1  0.71998000  0.50157000  0.77097000  1.0
  F  F171  1  0.71921000  0.50130000  0.68941000  1.0
