# generated using pymatgen
data_AgH11C13SN5O4F3
_symmetry_space_group_name_H-M   'P 1'
_cell_length_a   7.77215000
_cell_length_b   13.67750000
_cell_length_c   18.37990000
_cell_angle_alpha   89.99610000
_cell_angle_beta   86.28620000
_cell_angle_gamma   89.99860000
_symmetry_Int_Tables_number   1
_chemical_formula_structural   AgH11C13SN5O4F3
_chemical_formula_sum   'Ag4 H44 C52 S4 N20 O16 F12'
_cell_volume   1949.74620228
_cell_formula_units_Z   4
loop_
 _symmetry_equiv_pos_site_id
 _symmetry_equiv_pos_as_xyz
  1  'x, y, z'
loop_
 _atom_site_type_symbol
 _atom_site_label
 _atom_site_symmetry_multiplicity
 _atom_site_fract_x
 _atom_site_fract_y
 _atom_site_fract_z
 _atom_site_occupancy
  Ag  Ag0  1  0.64917000  0.74562000  0.74824000  1.0
  Ag  Ag1  1  0.35081000  0.24562000  0.75177000  1.0
  Ag  Ag2  1  0.35080000  0.25439000  0.25177000  1.0
  Ag  Ag3  1  0.64924000  0.75439000  0.24823000  1.0
  H  H4  1  0.31226000  0.86599000  0.78246000  1.0
  H  H5  1  0.68773000  0.36599000  0.71753000  1.0
  H  H6  1  0.68773000  0.13402000  0.21754000  1.0
  H  H7  1  0.31227000  0.63402000  0.28245000  1.0
  H  H8  1  0.21053000  0.04057000  0.78454000  1.0
  H  H9  1  0.78943000  0.54056000  0.71546000  1.0
  H  H10  1  0.78945000  0.95945000  0.21546000  1.0
  H  H11  1  0.21056000  0.45945000  0.28453000  1.0
  H  H12  1  0.68337000  0.12902000  0.68682000  1.0
  H  H13  1  0.31659000  0.62902000  0.81318000  1.0
  H  H14  1  0.31663000  0.87098000  0.31319000  1.0
  H  H15  1  0.68341000  0.37100000  0.18681000  1.0
  H  H16  1  0.09400000  0.99671000  0.64819000  1.0
  H  H17  1  0.90597000  0.49670000  0.85183000  1.0
  H  H18  1  0.90599000  0.00329000  0.35183000  1.0
  H  H19  1  0.09403000  0.50331000  0.14818000  1.0
  H  H20  1  0.96583000  0.07925000  0.70226000  1.0
  H  H21  1  0.03413000  0.57925000  0.79773000  1.0
  H  H22  1  0.03416000  0.92076000  0.29773000  1.0
  H  H23  1  0.96586000  0.42077000  0.20227000  1.0
  H  H24  1  0.92765000  0.06397000  0.60964000  1.0
  H  H25  1  0.07236000  0.56397000  0.89035000  1.0
  H  H26  1  0.07236000  0.93601000  0.39035000  1.0
  H  H27  1  0.92766000  0.43604000  0.10966000  1.0
  H  H28  1  0.16446000  0.53353000  0.63059000  1.0
  H  H29  1  0.83554000  0.03352000  0.86942000  1.0
  H  H30  1  0.83553000  0.46648000  0.36940000  1.0
  H  H31  1  0.16453000  0.96649000  0.13058000  1.0
  H  H32  1  0.46676000  0.48852000  0.58382000  1.0
  H  H33  1  0.53321000  0.98853000  0.91617000  1.0
  H  H34  1  0.53321000  0.51149000  0.41616000  1.0
  H  H35  1  0.46684000  0.01147000  0.08381000  1.0
  H  H36  1  0.68126000  0.62427000  0.55769000  1.0
  H  H37  1  0.31874000  0.12430000  0.94228000  1.0
  H  H38  1  0.31873000  0.37572000  0.44229000  1.0
  H  H39  1  0.68125000  0.87568000  0.05768000  1.0
  H  H40  1  0.58573000  0.79693000  0.57720000  1.0
  H  H41  1  0.41427000  0.29696000  0.92280000  1.0
  H  H42  1  0.41427000  0.20306000  0.42280000  1.0
  H  H43  1  0.58570000  0.70303000  0.07718000  1.0
  H  H44  1  0.12295000  0.85815000  0.63748000  1.0
  H  H45  1  0.87705000  0.35813000  0.86252000  1.0
  H  H46  1  0.87705000  0.14186000  0.36253000  1.0
  H  H47  1  0.12297000  0.64187000  0.13748000  1.0
  C  C48  1  0.33842000  0.02126000  0.76145000  1.0
  C  C49  1  0.66155000  0.52124000  0.73856000  1.0
  C  C50  1  0.66156000  0.97876000  0.23855000  1.0
  C  C51  1  0.33845000  0.47876000  0.26144000  1.0
  C  C52  1  0.39603000  0.92481000  0.76139000  1.0
  C  C53  1  0.60395000  0.42480000  0.73860000  1.0
  C  C54  1  0.60394000  0.07521000  0.23861000  1.0
  C  C55  1  0.39606000  0.57521000  0.26139000  1.0
  C  C56  1  0.60091000  0.06949000  0.70774000  1.0
  C  C57  1  0.39907000  0.56949000  0.79225000  1.0
  C  C58  1  0.39909000  0.93052000  0.29226000  1.0
  C  C59  1  0.60093000  0.43053000  0.20774000  1.0
  C  C60  1  0.65998000  0.97228000  0.70817000  1.0
  C  C61  1  0.34000000  0.47228000  0.79183000  1.0
  C  C62  1  0.34001000  0.02772000  0.29184000  1.0
  C  C63  1  0.66000000  0.52773000  0.20817000  1.0
  C  C64  1  0.83540000  0.94563000  0.67903000  1.0
  C  C65  1  0.16458000  0.44563000  0.82097000  1.0
  C  C66  1  0.16460000  0.05437000  0.32098000  1.0
  C  C67  1  0.83542000  0.55439000  0.17903000  1.0
  C  C68  1  0.96258000  0.02448000  0.65872000  1.0
  C  C69  1  0.03740000  0.52448000  0.84127000  1.0
  C  C70  1  0.03742000  0.97552000  0.34128000  1.0
  C  C71  1  0.96261000  0.47554000  0.15873000  1.0
  C  C72  1  0.04232000  0.71674000  0.65137000  1.0
  C  C73  1  0.95769000  0.21675000  0.84865000  1.0
  C  C74  1  0.95768000  0.28325000  0.34865000  1.0
  C  C75  1  0.04234000  0.78326000  0.15135000  1.0
  C  C76  1  0.22176000  0.68807000  0.62624000  1.0
  C  C77  1  0.77825000  0.18808000  0.87378000  1.0
  C  C78  1  0.77825000  0.31192000  0.37378000  1.0
  C  C79  1  0.22176000  0.81193000  0.12621000  1.0
  C  C80  1  0.26248000  0.58902000  0.61773000  1.0
  C  C81  1  0.73749000  0.08901000  0.88228000  1.0
  C  C82  1  0.73749000  0.41099000  0.38226000  1.0
  C  C83  1  0.26254000  0.91099000  0.11773000  1.0
  C  C84  1  0.42976000  0.56488000  0.59181000  1.0
  C  C85  1  0.57024000  0.06488000  0.90818000  1.0
  C  C86  1  0.57023000  0.43513000  0.40816000  1.0
  C  C87  1  0.42981000  0.93510000  0.09181000  1.0
  C  C88  1  0.54861000  0.63974000  0.57687000  1.0
  C  C89  1  0.45138000  0.13974000  0.92313000  1.0
  C  C90  1  0.45138000  0.36026000  0.42313000  1.0
  C  C91  1  0.54863000  0.86023000  0.07684000  1.0
  C  C92  1  0.49536000  0.73674000  0.58801000  1.0
  C  C93  1  0.50463000  0.23675000  0.91199000  1.0
  C  C94  1  0.50463000  0.26326000  0.41199000  1.0
  C  C95  1  0.49537000  0.76323000  0.08799000  1.0
  C  C96  1  0.07051000  0.81700000  0.94435000  1.0
  C  C97  1  0.92945000  0.31700000  0.55565000  1.0
  C  C98  1  0.92949000  0.18299000  0.05565000  1.0
  C  C99  1  0.07051000  0.68295000  0.44436000  1.0
  S  S100  1  0.99942000  0.80668000  0.84972000  1.0
  S  S101  1  0.00055000  0.30668000  0.65028000  1.0
  S  S102  1  0.00058000  0.19333000  0.15028000  1.0
  S  S103  1  0.99944000  0.69331000  0.34973000  1.0
  N  N104  1  0.44178000  0.09363000  0.73503000  1.0
  N  N105  1  0.55821000  0.59363000  0.76496000  1.0
  N  N106  1  0.55822000  0.90638000  0.26496000  1.0
  N  N107  1  0.44179000  0.40638000  0.23503000  1.0
  N  N108  1  0.55566000  0.90073000  0.73639000  1.0
  N  N109  1  0.44431000  0.40073000  0.76360000  1.0
  N  N110  1  0.44432000  0.09928000  0.26361000  1.0
  N  N111  1  0.55569000  0.59928000  0.23639000  1.0
  N  N112  1  0.86250000  0.85216000  0.67448000  1.0
  N  N113  1  0.13749000  0.35217000  0.82552000  1.0
  N  N114  1  0.13749000  0.14783000  0.32554000  1.0
  N  N115  1  0.86251000  0.64786000  0.17448000  1.0
  N  N116  1  0.01609000  0.81634000  0.65126000  1.0
  N  N117  1  0.98391000  0.31634000  0.84875000  1.0
  N  N118  1  0.98390000  0.18366000  0.34875000  1.0
  N  N119  1  0.01611000  0.68367000  0.15126000  1.0
  N  N120  1  0.33458000  0.76133000  0.61157000  1.0
  N  N121  1  0.66541000  0.26133000  0.88843000  1.0
  N  N122  1  0.66540000  0.23868000  0.38843000  1.0
  N  N123  1  0.33460000  0.73866000  0.11157000  1.0
  O  O124  1  0.83535000  0.75441000  0.85955000  1.0
  O  O125  1  0.16463000  0.25444000  0.64046000  1.0
  O  O126  1  0.16463000  0.24561000  0.14045000  1.0
  O  O127  1  0.83537000  0.74558000  0.35956000  1.0
  O  O128  1  0.92810000  0.65711000  0.66928000  1.0
  O  O129  1  0.07189000  0.15711000  0.83074000  1.0
  O  O130  1  0.07188000  0.34289000  0.33072000  1.0
  O  O131  1  0.92815000  0.84292000  0.16928000  1.0
  O  O132  1  0.13996000  0.75090000  0.81261000  1.0
  O  O133  1  0.85999000  0.25089000  0.68740000  1.0
  O  O134  1  0.86003000  0.24911000  0.18739000  1.0
  O  O135  1  0.13999000  0.74909000  0.31263000  1.0
  O  O136  1  0.98874000  0.90820000  0.82651000  1.0
  O  O137  1  0.01121000  0.40820000  0.67348000  1.0
  O  O138  1  0.01130000  0.09181000  0.17350000  1.0
  O  O139  1  0.98878000  0.59181000  0.32651000  1.0
  F  F140  1  0.22779000  0.86081000  0.94414000  1.0
  F  F141  1  0.77219000  0.36082000  0.55585000  1.0
  F  F142  1  0.77223000  0.13916000  0.05588000  1.0
  F  F143  1  0.22775000  0.63910000  0.44415000  1.0
  F  F144  1  0.08375000  0.72713000  0.97565000  1.0
  F  F145  1  0.91626000  0.22712000  0.52436000  1.0
  F  F146  1  0.91620000  0.27285000  0.02434000  1.0
  F  F147  1  0.08385000  0.77280000  0.47567000  1.0
  F  F148  1  0.95786000  0.87083000  0.98749000  1.0
  F  F149  1  0.04208000  0.37084000  0.51251000  1.0
  F  F150  1  0.04216000  0.12917000  0.01251000  1.0
  F  F151  1  0.95783000  0.62910000  0.48748000  1.0
