# generated using pymatgen
data_FeH16Pt(C11N4)2
_symmetry_space_group_name_H-M   'P 1'
_cell_length_a   8.96097000
_cell_length_b   9.72340000
_cell_length_c   11.95040000
_cell_angle_alpha   90.00040000
_cell_angle_beta   90.00060000
_cell_angle_gamma   101.09700000
_symmetry_Int_Tables_number   1
_chemical_formula_structural   FeH16Pt(C11N4)2
_chemical_formula_sum   'Fe2 H32 Pt2 C44 N16'
_cell_volume   1021.78290012
_cell_formula_units_Z   2
loop_
 _symmetry_equiv_pos_site_id
 _symmetry_equiv_pos_as_xyz
  1  'x, y, z'
loop_
 _atom_site_type_symbol
 _atom_site_label
 _atom_site_symmetry_multiplicity
 _atom_site_fract_x
 _atom_site_fract_y
 _atom_site_fract_z
 _atom_site_occupancy
  Fe  Fe0  1  0.00000000  0.50000000  0.00000000  1.0
  Fe  Fe1  1  0.00000000  0.00000000  0.50000000  1.0
  H  H2  1  0.47383000  0.49349000  0.70781000  1.0
  H  H3  1  0.52616000  0.00651000  0.20781000  1.0
  H  H4  1  0.52617000  0.50650000  0.29219000  1.0
  H  H5  1  0.47383000  0.99349000  0.79219000  1.0
  H  H6  1  0.94987000  0.64524000  0.77473000  1.0
  H  H7  1  0.05013000  0.85475000  0.27473000  1.0
  H  H8  1  0.05013000  0.35476000  0.22527000  1.0
  H  H9  1  0.94987000  0.14525000  0.72527000  1.0
  H  H10  1  0.72544000  0.64311000  0.65482000  1.0
  H  H11  1  0.27455000  0.85688000  0.15482000  1.0
  H  H12  1  0.27456000  0.35688000  0.34518000  1.0
  H  H13  1  0.72545000  0.14312000  0.84518000  1.0
  H  H14  1  0.32764000  0.18492000  0.02513000  1.0
  H  H15  1  0.67235000  0.31509000  0.52513000  1.0
  H  H16  1  0.67236000  0.81508000  0.97488000  1.0
  H  H17  1  0.32764000  0.68491000  0.47487000  1.0
  H  H18  1  0.55750000  0.22742000  0.14825000  1.0
  H  H19  1  0.44250000  0.27258000  0.64825000  1.0
  H  H20  1  0.44250000  0.77258000  0.85176000  1.0
  H  H21  1  0.55750000  0.72742000  0.35175000  1.0
  H  H22  1  0.32886000  0.31285000  0.84514000  1.0
  H  H23  1  0.67114000  0.18715000  0.34514000  1.0
  H  H24  1  0.67115000  0.68714000  0.15486000  1.0
  H  H25  1  0.32886000  0.81285000  0.65486000  1.0
  H  H26  1  0.85044000  0.31078000  0.13465000  1.0
  H  H27  1  0.14955000  0.18922000  0.63465000  1.0
  H  H28  1  0.14956000  0.68923000  0.86535000  1.0
  H  H29  1  0.85044000  0.81078000  0.36535000  1.0
  H  H30  1  0.81268000  0.46758000  0.16324000  1.0
  H  H31  1  0.18732000  0.03242000  0.66324000  1.0
  H  H32  1  0.18732000  0.53242000  0.83676000  1.0
  H  H33  1  0.81268000  0.96758000  0.33676000  1.0
  Pt  Pt34  1  0.00001000  0.00000000  0.00000000  1.0
  Pt  Pt35  1  0.00001000  0.50000000  0.50000000  1.0
  C  C36  1  0.87677000  0.04313000  0.12770000  1.0
  C  C37  1  0.12323000  0.45687000  0.62771000  1.0
  C  C38  1  0.12324000  0.95687000  0.87229000  1.0
  C  C39  1  0.87678000  0.54314000  0.37229000  1.0
  C  C40  1  0.69836000  0.43016000  0.92609000  1.0
  C  C41  1  0.30164000  0.06983000  0.42609000  1.0
  C  C42  1  0.30164000  0.56983000  0.07391000  1.0
  C  C43  1  0.69835000  0.93017000  0.57391000  1.0
  C  C44  1  0.56514000  0.41570000  0.85863000  1.0
  C  C45  1  0.43485000  0.08430000  0.35863000  1.0
  C  C46  1  0.43486000  0.58430000  0.14137000  1.0
  C  C47  1  0.56514000  0.91570000  0.64137000  1.0
  C  C48  1  0.57513000  0.49641000  0.75896000  1.0
  C  C49  1  0.42486000  0.00359000  0.25896000  1.0
  C  C50  1  0.42487000  0.50359000  0.24104000  1.0
  C  C51  1  0.57513000  0.99641000  0.74104000  1.0
  C  C52  1  0.84109000  0.58187000  0.79910000  1.0
  C  C53  1  0.15890000  0.91813000  0.29910000  1.0
  C  C54  1  0.15891000  0.41813000  0.20090000  1.0
  C  C55  1  0.84109000  0.08187000  0.70090000  1.0
  C  C56  1  0.71265000  0.57939000  0.73043000  1.0
  C  C57  1  0.28735000  0.92061000  0.23043000  1.0
  C  C58  1  0.28735000  0.42061000  0.26957000  1.0
  C  C59  1  0.71265000  0.07939000  0.76957000  1.0
  C  C60  1  0.69242000  0.36505000  0.03167000  1.0
  C  C61  1  0.30758000  0.13495000  0.53167000  1.0
  C  C62  1  0.30759000  0.63495000  0.96833000  1.0
  C  C63  1  0.69241000  0.86505000  0.46833000  1.0
  C  C64  1  0.43092000  0.25477000  0.99697000  1.0
  C  C65  1  0.56907000  0.24523000  0.49698000  1.0
  C  C66  1  0.56909000  0.74523000  0.00303000  1.0
  C  C67  1  0.43092000  0.75477000  0.50302000  1.0
  C  C68  1  0.56098000  0.27703000  0.06643000  1.0
  C  C69  1  0.43902000  0.22297000  0.56643000  1.0
  C  C70  1  0.43903000  0.72297000  0.93357000  1.0
  C  C71  1  0.56097000  0.77703000  0.43356000  1.0
  C  C72  1  0.43130000  0.32454000  0.89621000  1.0
  C  C73  1  0.56869000  0.17546000  0.39622000  1.0
  C  C74  1  0.56870000  0.67546000  0.10379000  1.0
  C  C75  1  0.43130000  0.82454000  0.60378000  1.0
  C  C76  1  0.98244000  0.80116000  0.04109000  1.0
  C  C77  1  0.01757000  0.69885000  0.54109000  1.0
  C  C78  1  0.01757000  0.19885000  0.95891000  1.0
  C  C79  1  0.98244000  0.30115000  0.45891000  1.0
  N  N80  1  0.80598000  0.07542000  0.20278000  1.0
  N  N81  1  0.19402000  0.42457000  0.70279000  1.0
  N  N82  1  0.19403000  0.92458000  0.79722000  1.0
  N  N83  1  0.80599000  0.57543000  0.29721000  1.0
  N  N84  1  0.83626000  0.50905000  0.89397000  1.0
  N  N85  1  0.16374000  0.99095000  0.39397000  1.0
  N  N86  1  0.16375000  0.49095000  0.10603000  1.0
  N  N87  1  0.83626000  0.00905000  0.60603000  1.0
  N  N88  1  0.82913000  0.40092000  0.09826000  1.0
  N  N89  1  0.17087000  0.09908000  0.59826000  1.0
  N  N90  1  0.17088000  0.59908000  0.90174000  1.0
  N  N91  1  0.82912000  0.90092000  0.40174000  1.0
  N  N92  1  0.98267000  0.68071000  0.04632000  1.0
  N  N93  1  0.01733000  0.81930000  0.54632000  1.0
  N  N94  1  0.01734000  0.31930000  0.95368000  1.0
  N  N95  1  0.98266000  0.18070000  0.45368000  1.0
