# generated using pymatgen
data_NaCoH12C18(NO3)3
_symmetry_space_group_name_H-M   'P 1'
_cell_length_a   9.97021000
_cell_length_b   9.97394000
_cell_length_c   13.72730000
_cell_angle_alpha   68.71380000
_cell_angle_beta   68.70940000
_cell_angle_gamma   60.03300000
_symmetry_Int_Tables_number   1
_chemical_formula_structural   NaCoH12C18(NO3)3
_chemical_formula_sum   'Na2 Co2 H24 C36 N6 O18'
_cell_volume   1073.60498965
_cell_formula_units_Z   2
loop_
 _symmetry_equiv_pos_site_id
 _symmetry_equiv_pos_as_xyz
  1  'x, y, z'
loop_
 _atom_site_type_symbol
 _atom_site_label
 _atom_site_symmetry_multiplicity
 _atom_site_fract_x
 _atom_site_fract_y
 _atom_site_fract_z
 _atom_site_occupancy
  Na  Na0  1  0.41765000  0.41703000  0.74926000  1.0
  Na  Na1  1  0.91611000  0.91690000  0.24944000  1.0
  Co  Co2  1  0.50100000  0.50571000  0.48863000  1.0
  Co  Co3  1  0.00460000  0.00592000  0.98866000  1.0
  H  H4  1  0.76883000  0.18674000  0.74225000  1.0
  H  H5  1  0.18571000  0.30116000  0.74231000  1.0
  H  H6  1  0.30164000  0.76940000  0.74204000  1.0
  H  H7  1  0.80110000  0.68792000  0.24172000  1.0
  H  H8  1  0.27079000  0.80012000  0.24224000  1.0
  H  H9  1  0.68729000  0.27013000  0.24185000  1.0
  H  H10  1  0.99318000  0.92325000  0.44804000  1.0
  H  H11  1  0.92266000  0.63525000  0.44826000  1.0
  H  H12  1  0.63597000  0.99334000  0.44835000  1.0
  H  H13  1  0.13603000  0.42349000  0.94814000  1.0
  H  H14  1  0.49243000  0.13591000  0.94859000  1.0
  H  H15  1  0.42311000  0.49243000  0.94819000  1.0
  H  H16  1  0.11489000  0.79115000  0.61026000  1.0
  H  H17  1  0.79002000  0.48404000  0.61026000  1.0
  H  H18  1  0.48358000  0.11540000  0.61027000  1.0
  H  H19  1  0.98443000  0.29124000  0.11044000  1.0
  H  H20  1  0.61486000  0.98434000  0.11041000  1.0
  H  H21  1  0.29108000  0.61469000  0.11003000  1.0
  H  H22  1  0.98858000  0.93901000  0.76104000  1.0
  H  H23  1  0.93730000  0.31195000  0.76128000  1.0
  H  H24  1  0.31102000  0.98908000  0.76100000  1.0
  H  H25  1  0.81060000  0.43993000  0.26067000  1.0
  H  H26  1  0.48984000  0.81064000  0.26107000  1.0
  H  H27  1  0.43929000  0.48964000  0.26061000  1.0
  C  C28  1  0.75740000  0.21235000  0.58989000  1.0
  C  C29  1  0.21213000  0.43905000  0.59002000  1.0
  C  C30  1  0.43986000  0.75832000  0.58978000  1.0
  C  C31  1  0.94016000  0.71303000  0.08961000  1.0
  C  C32  1  0.25818000  0.93878000  0.09021000  1.0
  C  C33  1  0.71257000  0.25826000  0.08975000  1.0
  C  C34  1  0.82050000  0.13198000  0.50434000  1.0
  C  C35  1  0.13140000  0.54313000  0.50472000  1.0
  C  C36  1  0.54408000  0.82007000  0.50465000  1.0
  C  C37  1  0.04336000  0.63251000  0.00418000  1.0
  C  C38  1  0.31986000  0.04331000  0.00503000  1.0
  C  C39  1  0.63196000  0.31971000  0.00453000  1.0
  C  C40  1  0.94678000  0.98195000  0.51409000  1.0
  C  C41  1  0.98118000  0.55707000  0.51440000  1.0
  C  C42  1  0.55763000  0.94684000  0.51439000  1.0
  C  C43  1  0.05749000  0.48235000  0.01406000  1.0
  C  C44  1  0.44638000  0.05733000  0.01472000  1.0
  C  C45  1  0.48185000  0.44624000  0.01422000  1.0
  C  C46  1  0.01373000  0.90678000  0.60449000  1.0
  C  C47  1  0.90573000  0.47520000  0.60460000  1.0
  C  C48  1  0.47514000  0.01398000  0.60458000  1.0
  C  C49  1  0.97516000  0.40726000  0.10443000  1.0
  C  C50  1  0.51381000  0.97514000  0.10479000  1.0
  C  C51  1  0.40688000  0.51369000  0.10429000  1.0
  C  C52  1  0.94774000  0.98461000  0.68692000  1.0
  C  C53  1  0.98346000  0.38081000  0.68715000  1.0
  C  C54  1  0.38061000  0.94804000  0.68698000  1.0
  C  C55  1  0.88017000  0.48546000  0.18661000  1.0
  C  C56  1  0.44844000  0.88005000  0.18712000  1.0
  C  C57  1  0.48483000  0.44823000  0.18671000  1.0
  C  C58  1  0.75252000  0.20325000  0.40686000  1.0
  C  C59  1  0.20206000  0.63752000  0.40726000  1.0
  C  C60  1  0.63932000  0.75135000  0.40762000  1.0
  C  C61  1  0.13784000  0.70369000  0.90681000  1.0
  C  C62  1  0.25248000  0.13807000  0.90753000  1.0
  C  C63  1  0.70227000  0.25060000  0.90768000  1.0
  N  N64  1  0.82447000  0.12941000  0.67829000  1.0
  N  N65  1  0.12844000  0.36733000  0.67850000  1.0
  N  N66  1  0.36770000  0.82489000  0.67823000  1.0
  N  N67  1  0.86702000  0.63043000  0.17785000  1.0
  N  N68  1  0.32554000  0.86657000  0.17847000  1.0
  N  N69  1  0.62973000  0.32523000  0.17803000  1.0
  O  O70  1  0.64693000  0.35062000  0.59468000  1.0
  O  O71  1  0.35160000  0.40361000  0.59443000  1.0
  O  O72  1  0.40513000  0.64915000  0.59415000  1.0
  O  O73  1  0.90772000  0.85116000  0.09460000  1.0
  O  O74  1  0.14968000  0.90334000  0.09469000  1.0
  O  O75  1  0.85186000  0.14896000  0.09439000  1.0
  O  O76  1  0.63730000  0.34170000  0.39540000  1.0
  O  O77  1  0.34135000  0.62574000  0.39492000  1.0
  O  O78  1  0.63329000  0.63112000  0.39859000  1.0
  O  O79  1  0.12564000  0.84234000  0.89525000  1.0
  O  O80  1  0.13757000  0.12613000  0.89489000  1.0
  O  O81  1  0.83754000  0.13051000  0.89859000  1.0
  O  O82  1  0.81153000  0.12252000  0.33609000  1.0
  O  O83  1  0.12126000  0.72996000  0.33673000  1.0
  O  O84  1  0.72791000  0.81388000  0.33520000  1.0
  O  O85  1  0.23084000  0.62267000  0.83626000  1.0
  O  O86  1  0.31115000  0.23090000  0.83730000  1.0
  O  O87  1  0.62322000  0.31272000  0.83549000  1.0
