# generated using pymatgen
data_AgH6C4(NO)2
_symmetry_space_group_name_H-M   'P 1'
_cell_length_a   6.42182000
_cell_length_b   6.71998000
_cell_length_c   12.29100000
_cell_angle_alpha   89.99980000
_cell_angle_beta   84.19670000
_cell_angle_gamma   89.99970000
_symmetry_Int_Tables_number   1
_chemical_formula_structural   AgH6C4(NO)2
_chemical_formula_sum   'Ag4 H24 C16 N8 O8'
_cell_volume   527.69356214
_cell_formula_units_Z   4
loop_
 _symmetry_equiv_pos_site_id
 _symmetry_equiv_pos_as_xyz
  1  'x, y, z'
loop_
 _atom_site_type_symbol
 _atom_site_label
 _atom_site_symmetry_multiplicity
 _atom_site_fract_x
 _atom_site_fract_y
 _atom_site_fract_z
 _atom_site_occupancy
  Ag  Ag0  1  0.00000000  0.00000000  0.00000000  1.0
  Ag  Ag1  1  0.00000000  0.00000000  0.50000000  1.0
  Ag  Ag2  1  0.50000000  0.67406000  0.25000000  1.0
  Ag  Ag3  1  0.50000000  0.32594000  0.75000000  1.0
  H  H4  1  0.14044000  0.00338000  0.24880000  1.0
  H  H5  1  0.85956000  0.00338000  0.25120000  1.0
  H  H6  1  0.85955000  0.99661000  0.75120000  1.0
  H  H7  1  0.14044000  0.99662000  0.74880000  1.0
  H  H8  1  0.21901000  0.44261000  0.07717000  1.0
  H  H9  1  0.78098000  0.44261000  0.42283000  1.0
  H  H10  1  0.78099000  0.55739000  0.92283000  1.0
  H  H11  1  0.21902000  0.55739000  0.57718000  1.0
  H  H12  1  0.34145000  0.25087000  0.14954000  1.0
  H  H13  1  0.65855000  0.25087000  0.35046000  1.0
  H  H14  1  0.65855000  0.74913000  0.85046000  1.0
  H  H15  1  0.34145000  0.74913000  0.64954000  1.0
  H  H16  1  0.69140000  0.25055000  0.15345000  1.0
  H  H17  1  0.30859000  0.25055000  0.34655000  1.0
  H  H18  1  0.30859000  0.74945000  0.84655000  1.0
  H  H19  1  0.69140000  0.74944000  0.65345000  1.0
  H  H20  1  0.83848000  0.44281000  0.08068000  1.0
  H  H21  1  0.16151000  0.44281000  0.41932000  1.0
  H  H22  1  0.16152000  0.55719000  0.91933000  1.0
  H  H23  1  0.83849000  0.55719000  0.58068000  1.0
  H  H24  1  0.01258000  0.69279000  0.17651000  1.0
  H  H25  1  0.98741000  0.69279000  0.32349000  1.0
  H  H26  1  0.98742000  0.30721000  0.82349000  1.0
  H  H27  1  0.01259000  0.30721000  0.67652000  1.0
  C  C28  1  0.00000000  0.09635000  0.25000000  1.0
  C  C29  1  0.00000000  0.90365000  0.75000000  1.0
  C  C30  1  0.20333000  0.34717000  0.14995000  1.0
  C  C31  1  0.79667000  0.34716000  0.35005000  1.0
  C  C32  1  0.79667000  0.65283000  0.85005000  1.0
  C  C33  1  0.20333000  0.65284000  0.64995000  1.0
  C  C34  1  0.82818000  0.34798000  0.15362000  1.0
  C  C35  1  0.17182000  0.34798000  0.34638000  1.0
  C  C36  1  0.17182000  0.65202000  0.84638000  1.0
  C  C37  1  0.82818000  0.65202000  0.65362000  1.0
  C  C38  1  0.00000000  0.59928000  0.25000000  1.0
  C  C39  1  0.00001000  0.40072000  0.75000000  1.0
  C  C40  1  0.48778000  0.92141000  0.04794000  1.0
  C  C41  1  0.51222000  0.92143000  0.45206000  1.0
  C  C42  1  0.51222000  0.07858000  0.95206000  1.0
  C  C43  1  0.48779000  0.07859000  0.54793000  1.0
  N  N44  1  0.01581000  0.22017000  0.14984000  1.0
  N  N45  1  0.98419000  0.22016000  0.35016000  1.0
  N  N46  1  0.98419000  0.77983000  0.85016000  1.0
  N  N47  1  0.01581000  0.77984000  0.64984000  1.0
  N  N48  1  0.19118000  0.47555000  0.24816000  1.0
  N  N49  1  0.80882000  0.47556000  0.25184000  1.0
  N  N50  1  0.80883000  0.52444000  0.75184000  1.0
  N  N51  1  0.19118000  0.52445000  0.74816000  1.0
  O  O52  1  0.63913000  0.90732000  0.10728000  1.0
  O  O53  1  0.36088000  0.90734000  0.39271000  1.0
  O  O54  1  0.36087000  0.09267000  0.89272000  1.0
  O  O55  1  0.63915000  0.09269000  0.60727000  1.0
  O  O56  1  0.67826000  0.18020000  0.93881000  1.0
  O  O57  1  0.32174000  0.18020000  0.56119000  1.0
  O  O58  1  0.32173000  0.81979000  0.06119000  1.0
  O  O59  1  0.67826000  0.81979000  0.43881000  1.0
