# generated using pymatgen
data_GdCoH12C22N5O8
_symmetry_space_group_name_H-M   'P 1'
_cell_length_a   10.52610000
_cell_length_b   12.45500000
_cell_length_c   18.18330000
_cell_angle_alpha   89.80970000
_cell_angle_beta   89.70140000
_cell_angle_gamma   90.66180000
_symmetry_Int_Tables_number   1
_chemical_formula_structural   GdCoH12C22N5O8
_chemical_formula_sum   'Gd4 Co4 H48 C88 N20 O32'
_cell_volume   2383.67243706
_cell_formula_units_Z   4
loop_
 _symmetry_equiv_pos_site_id
 _symmetry_equiv_pos_as_xyz
  1  'x, y, z'
loop_
 _atom_site_type_symbol
 _atom_site_label
 _atom_site_symmetry_multiplicity
 _atom_site_fract_x
 _atom_site_fract_y
 _atom_site_fract_z
 _atom_site_occupancy
  Gd  Gd0  1  0.92621000  0.35425000  0.00852000  1.0
  Gd  Gd1  1  0.56962000  0.85407000  0.48960000  1.0
  Gd  Gd2  1  0.06504000  0.64772000  0.99224000  1.0
  Gd  Gd3  1  0.43629000  0.14554000  0.50746000  1.0
  Co  Co4  1  0.74070000  0.34643000  0.77181000  1.0
  Co  Co5  1  0.76049000  0.84653000  0.73096000  1.0
  Co  Co6  1  0.25717000  0.65469000  0.22991000  1.0
  Co  Co7  1  0.24031000  0.15439000  0.26872000  1.0
  H  H8  1  0.49630000  0.48352000  0.71926000  1.0
  H  H9  1  0.01232000  0.98150000  0.78167000  1.0
  H  H10  1  0.50653000  0.52281000  0.28027000  1.0
  H  H11  1  0.99190000  0.01841000  0.21874000  1.0
  H  H12  1  0.33859000  0.49274000  0.61654000  1.0
  H  H13  1  0.16796000  0.00169000  0.88459000  1.0
  H  H14  1  0.66588000  0.50837000  0.38148000  1.0
  H  H15  1  0.83469000  0.00429000  0.11613000  1.0
  H  H16  1  0.38106000  0.62375000  0.51273000  1.0
  H  H17  1  0.11847000  0.13218000  0.98642000  1.0
  H  H18  1  0.62392000  0.37457000  0.48357000  1.0
  H  H19  1  0.87860000  0.87372000  0.01326000  1.0
  H  H20  1  0.73521000  0.70141000  0.59467000  1.0
  H  H21  1  0.76440000  0.19318000  0.90065000  1.0
  H  H22  1  0.26840000  0.30071000  0.40208000  1.0
  H  H23  1  0.23221000  0.80437000  0.09659000  1.0
  H  H24  1  0.69415000  0.26795000  0.23904000  1.0
  H  H25  1  0.80471000  0.76714000  0.25845000  1.0
  H  H26  1  0.30204000  0.73262000  0.75939000  1.0
  H  H27  1  0.21040000  0.22876000  0.73864000  1.0
  H  H28  1  0.50271000  0.18316000  0.03892000  1.0
  H  H29  1  0.99430000  0.68695000  0.45972000  1.0
  H  H30  1  0.49314000  0.81394000  0.96032000  1.0
  H  H31  1  0.01306000  0.30636000  0.53946000  1.0
  H  H32  1  0.49835000  0.20979000  0.30865000  1.0
  H  H33  1  0.99871000  0.70798000  0.18973000  1.0
  H  H34  1  0.49782000  0.79213000  0.69041000  1.0
  H  H35  1  0.01966000  0.29310000  0.81000000  1.0
  H  H36  1  0.31261000  0.12731000  0.11612000  1.0
  H  H37  1  0.18250000  0.62968000  0.38342000  1.0
  H  H38  1  0.68284000  0.87114000  0.88383000  1.0
  H  H39  1  0.82860000  0.36686000  0.61804000  1.0
  H  H40  1  0.43210000  0.53815000  0.94573000  1.0
  H  H41  1  0.06236000  0.03593000  0.55529000  1.0
  H  H42  1  0.55385000  0.46318000  0.05803000  1.0
  H  H43  1  0.94127000  0.96467000  0.44328000  1.0
  H  H44  1  0.28864000  0.23344000  0.87072000  1.0
  H  H45  1  0.19821000  0.73474000  0.63714000  1.0
  H  H46  1  0.69852000  0.76437000  0.13823000  1.0
  H  H47  1  0.80424000  0.26521000  0.36078000  1.0
  H  H48  1  0.63912000  0.49607000  0.88463000  1.0
  H  H49  1  0.86034000  0.00117000  0.62182000  1.0
  H  H50  1  0.35122000  0.50037000  0.12195000  1.0
  H  H51  1  0.14423000  0.00064000  0.37765000  1.0
  H  H52  1  0.49909000  0.20607000  0.80655000  1.0
  H  H53  1  0.99509000  0.71430000  0.70700000  1.0
  H  H54  1  0.49453000  0.78648000  0.20660000  1.0
  H  H55  1  0.00775000  0.28618000  0.29125000  1.0
  C  C56  1  0.88861000  0.48219000  0.87376000  1.0
  C  C57  1  0.60873000  0.97679000  0.62301000  1.0
  C  C58  1  0.10364000  0.52136000  0.12585000  1.0
  C  C59  1  0.39382000  0.02163000  0.37374000  1.0
  C  C60  1  0.83875000  0.55485000  0.81860000  1.0
  C  C61  1  0.66031000  0.04558000  0.67997000  1.0
  C  C62  1  0.15608000  0.45107000  0.18182000  1.0
  C  C63  1  0.34097000  0.95127000  0.31778000  1.0
  C  C64  1  0.84662000  0.66594000  0.80877000  1.0
  C  C65  1  0.65467000  0.15613000  0.69243000  1.0
  C  C66  1  0.15217000  0.33977000  0.19179000  1.0
  C  C67  1  0.34622000  0.84036000  0.30672000  1.0
  C  C68  1  0.88949000  0.75629000  0.85505000  1.0
  C  C69  1  0.61273000  0.24943000  0.64875000  1.0
  C  C70  1  0.10801000  0.24866000  0.14606000  1.0
  C  C71  1  0.38891000  0.74892000  0.35223000  1.0
  C  C72  1  0.72273000  0.59688000  0.72402000  1.0
  C  C73  1  0.77901000  0.08432000  0.77488000  1.0
  C  C74  1  0.27703000  0.41114000  0.27526000  1.0
  C  C75  1  0.22126000  0.91099000  0.22378000  1.0
  C  C76  1  0.62888000  0.59226000  0.66512000  1.0
  C  C77  1  0.87404000  0.08450000  0.83343000  1.0
  C  C78  1  0.37297000  0.41367000  0.33333333  1.0
  C  C79  1  0.12617000  0.91331000  0.16548000  1.0
  C  C80  1  0.51504000  0.53302000  0.67100000  1.0
  C  C81  1  0.99066000  0.03141000  0.82887000  1.0
  C  C82  1  0.48778000  0.47169000  0.32767000  1.0
  C  C83  1  0.01142000  0.96908000  0.17094000  1.0
  C  C84  1  0.42644000  0.53994000  0.61464000  1.0
  C  C85  1  0.07832000  0.04469000  0.88531000  1.0
  C  C86  1  0.57764000  0.46170000  0.38316000  1.0
  C  C87  1  0.92276000  0.95911000  0.11472000  1.0
  C  C88  1  0.44983000  0.61056000  0.55637000  1.0
  C  C89  1  0.05138000  0.11540000  0.94235000  1.0
  C  C90  1  0.55473000  0.38931000  0.44039000  1.0
  C  C91  1  0.94674000  0.88865000  0.05709000  1.0
  C  C92  1  0.64713000  0.65612000  0.60267000  1.0
  C  C93  1  0.85385000  0.15100000  0.89408000  1.0
  C  C94  1  0.35629000  0.34644000  0.39441000  1.0
  C  C95  1  0.14416000  0.84820000  0.10400000  1.0
  C  C96  1  0.72325000  0.27213000  0.09027000  1.0
  C  C97  1  0.77464000  0.77415000  0.40754000  1.0
  C  C98  1  0.27140000  0.72648000  0.90876000  1.0
  C  C99  1  0.23367000  0.22141000  0.59001000  1.0
  C  C100  1  0.61146000  0.23142000  0.13366000  1.0
  C  C101  1  0.88597000  0.73308000  0.36449000  1.0
  C  C102  1  0.38395000  0.76709000  0.86531000  1.0
  C  C103  1  0.12403000  0.26206000  0.63406000  1.0
  C  C104  1  0.61100000  0.23704000  0.21034000  1.0
  C  C105  1  0.88696000  0.73694000  0.28770000  1.0
  C  C106  1  0.38507000  0.76286000  0.78854000  1.0
  C  C107  1  0.12686000  0.25928000  0.71081000  1.0
  C  C108  1  0.50415000  0.18930000  0.09866000  1.0
  C  C109  1  0.99259000  0.69188000  0.39989000  1.0
  C  C110  1  0.49151000  0.80862000  0.90052000  1.0
  C  C111  1  0.01663000  0.30273000  0.59931000  1.0
  C  C112  1  0.50299000  0.20547000  0.24903000  1.0
  C  C113  1  0.99429000  0.70475000  0.24941000  1.0
  C  C114  1  0.49336000  0.79530000  0.75011000  1.0
  C  C115  1  0.02167000  0.29420000  0.75009000  1.0
  C  C116  1  0.39943000  0.15850000  0.14067000  1.0
  C  C117  1  0.09659000  0.66029000  0.35829000  1.0
  C  C118  1  0.59636000  0.84014000  0.85874000  1.0
  C  C119  1  0.91536000  0.33607000  0.64238000  1.0
  C  C120  1  0.21969000  0.41603000  0.94802000  1.0
  C  C121  1  0.27314000  0.91308000  0.55240000  1.0
  C  C122  1  0.76831000  0.58513000  0.05522000  1.0
  C  C123  1  0.73072000  0.08686000  0.44525000  1.0
  C  C124  1  0.34487000  0.38914000  0.91209000  1.0
  C  C125  1  0.14829000  0.88881000  0.59133000  1.0
  C  C126  1  0.64393000  0.61023000  0.09340000  1.0
  C  C127  1  0.85534000  0.11155000  0.40676000  1.0
  C  C128  1  0.44502000  0.46335000  0.91599000  1.0
  C  C129  1  0.04976000  0.96298000  0.58776000  1.0
  C  C130  1  0.54297000  0.53659000  0.08963000  1.0
  C  C131  1  0.95403000  0.03762000  0.41082000  1.0
  C  C132  1  0.36450000  0.29354000  0.87378000  1.0
  C  C133  1  0.12578000  0.79634000  0.63358000  1.0
  C  C134  1  0.62391000  0.70320000  0.13467000  1.0
  C  C135  1  0.87720000  0.20406000  0.36457000  1.0
  C  C136  1  0.55917000  0.44033000  0.88152000  1.0
  C  C137  1  0.93714000  0.94421000  0.62574000  1.0
  C  C138  1  0.43005000  0.55666000  0.12625000  1.0
  C  C139  1  0.06687000  0.05691000  0.37335000  1.0
  C  C140  1  0.48094000  0.27785000  0.83895000  1.0
  C  C141  1  0.01179000  0.78418000  0.67211000  1.0
  C  C142  1  0.50952000  0.71644000  0.17225000  1.0
  C  C143  1  0.99121000  0.21649000  0.32625000  1.0
  N  N144  1  0.75957000  0.51301000  0.76579000  1.0
  N  N145  1  0.73986000  0.00137000  0.73165000  1.0
  N  N146  1  0.23592000  0.49493000  0.23379000  1.0
  N  N147  1  0.26096000  0.99460000  0.26611000  1.0
  N  N148  1  0.77636000  0.69123000  0.74752000  1.0
  N  N149  1  0.72630000  0.17848000  0.75328000  1.0
  N  N150  1  0.22504000  0.31578000  0.25201000  1.0
  N  N151  1  0.27409000  0.81629000  0.24608000  1.0
  N  N152  1  0.55796000  0.66874000  0.55098000  1.0
  N  N153  1  0.94159000  0.16949000  0.94594000  1.0
  N  N154  1  0.44653000  0.33109000  0.44519000  1.0
  N  N155  1  0.05493000  0.83249000  0.05262000  1.0
  N  N156  1  0.39700000  0.16941000  0.21470000  1.0
  N  N157  1  0.09954000  0.66945000  0.28406000  1.0
  N  N158  1  0.59943000  0.83093000  0.78457000  1.0
  N  N159  1  0.91641000  0.33010000  0.71652000  1.0
  N  N160  1  0.57693000  0.35032000  0.84204000  1.0
  N  N161  1  0.91716000  0.85735000  0.66979000  1.0
  N  N162  1  0.41238000  0.64391000  0.16952000  1.0
  N  N163  1  0.08607000  0.14368000  0.32915000  1.0
  O  O164  1  0.85098000  0.38342000  0.87243000  1.0
  O  O165  1  0.64654000  0.87937000  0.62012000  1.0
  O  O166  1  0.14378000  0.61919000  0.12382000  1.0
  O  O167  1  0.35444000  0.11874000  0.37604000  1.0
  O  O168  1  0.96387000  0.51328000  0.92424000  1.0
  O  O169  1  0.53118000  0.01129000  0.57502000  1.0
  O  O170  1  0.02417000  0.48838000  0.07820000  1.0
  O  O171  1  0.47381000  0.98916000  0.42099000  1.0
  O  O172  1  0.93525000  0.74236000  0.91848000  1.0
  O  O173  1  0.56874000  0.24101000  0.58460000  1.0
  O  O174  1  0.06017000  0.26202000  0.08315000  1.0
  O  O175  1  0.43490000  0.76160000  0.41564000  1.0
  O  O176  1  0.86635000  0.84868000  0.82867000  1.0
  O  O177  1  0.63452000  0.34057000  0.67915000  1.0
  O  O178  1  0.13183000  0.15639000  0.17266000  1.0
  O  O179  1  0.36519000  0.65677000  0.32515000  1.0
  O  O180  1  0.72129000  0.26301000  0.02026000  1.0
  O  O181  1  0.77693000  0.76644000  0.47755000  1.0
  O  O182  1  0.27303000  0.73667000  0.97867000  1.0
  O  O183  1  0.23096000  0.23191000  0.52012000  1.0
  O  O184  1  0.81527000  0.31563000  0.12458000  1.0
  O  O185  1  0.68294000  0.81612000  0.37287000  1.0
  O  O186  1  0.17945000  0.68237000  0.87475000  1.0
  O  O187  1  0.32522000  0.17746000  0.62366000  1.0
  O  O188  1  0.13098000  0.34641000  0.94521000  1.0
  O  O189  1  0.35959000  0.84288000  0.55429000  1.0
  O  O190  1  0.85653000  0.65546000  0.05658000  1.0
  O  O191  1  0.64479000  0.15760000  0.44441000  1.0
  O  O192  1  0.21548000  0.50789000  0.97790000  1.0
  O  O193  1  0.27984000  0.00459000  0.52123000  1.0
  O  O194  1  0.77257000  0.49317000  0.02509000  1.0
  O  O195  1  0.72358000  0.99443000  0.47492000  1.0
