# generated using pymatgen
data_ZnH22C31N3O7
_symmetry_space_group_name_H-M   'P 1'
_cell_length_a   7.68024000
_cell_length_b   10.14330000
_cell_length_c   17.68700000
_cell_angle_alpha   102.35500000
_cell_angle_beta   100.48400000
_cell_angle_gamma   102.77100000
_symmetry_Int_Tables_number   1
_chemical_formula_structural   ZnH22C31N3O7
_chemical_formula_sum   'Zn2 H44 C62 N6 O14'
_cell_volume   1274.08614612
_cell_formula_units_Z   2
loop_
 _symmetry_equiv_pos_site_id
 _symmetry_equiv_pos_as_xyz
  1  'x, y, z'
loop_
 _atom_site_type_symbol
 _atom_site_label
 _atom_site_symmetry_multiplicity
 _atom_site_fract_x
 _atom_site_fract_y
 _atom_site_fract_z
 _atom_site_occupancy
  Zn  Zn0  1  0.09781000  0.39547000  0.99852000  1.0
  Zn  Zn1  1  0.90219000  0.60453000  0.00148000  1.0
  H  H2  1  0.24557000  0.96038000  0.05999000  1.0
  H  H3  1  0.75444000  0.03962000  0.94001000  1.0
  H  H4  1  0.74719000  0.66295000  0.49868000  1.0
  H  H5  1  0.25280000  0.33705000  0.50132000  1.0
  H  H6  1  0.41551000  0.33979000  0.93259000  1.0
  H  H7  1  0.58450000  0.66021000  0.06741000  1.0
  H  H8  1  0.40949000  0.56007000  0.24428000  1.0
  H  H9  1  0.59050000  0.43993000  0.75572000  1.0
  H  H10  1  0.33592000  0.34818000  0.21906000  1.0
  H  H11  1  0.66408000  0.65181000  0.78094000  1.0
  H  H12  1  0.71779000  0.10317000  0.26497000  1.0
  H  H13  1  0.28221000  0.89683000  0.73503000  1.0
  H  H14  1  0.60190000  0.16959000  0.93274000  1.0
  H  H15  1  0.39812000  0.83042000  0.06727000  1.0
  H  H16  1  0.40800000  0.27209000  0.35117000  1.0
  H  H17  1  0.59200000  0.72791000  0.64883000  1.0
  H  H18  1  0.26482000  0.11984000  0.27862000  1.0
  H  H19  1  0.73518000  0.88016000  0.72138000  1.0
  H  H20  1  0.88577000  0.19324000  0.17269000  1.0
  H  H21  1  0.11422000  0.80676000  0.82731000  1.0
  H  H22  1  0.29782000  0.93960000  0.20491000  1.0
  H  H23  1  0.70218000  0.06040000  0.79509000  1.0
  H  H24  1  0.51548000  0.44740000  0.13193000  1.0
  H  H25  1  0.48453000  0.55260000  0.86807000  1.0
  H  H26  1  0.07722000  0.14212000  0.05573000  1.0
  H  H27  1  0.92279000  0.85788000  0.94427000  1.0
  H  H28  1  0.61551000  0.94087000  0.43355000  1.0
  H  H29  1  0.38448000  0.05913000  0.56646000  1.0
  H  H30  1  0.29816000  0.78943000  0.49448000  1.0
  H  H31  1  0.70183000  0.21057000  0.50552000  1.0
  H  H32  1  0.05748000  0.11003000  0.41258000  1.0
  H  H33  1  0.94252000  0.88996000  0.58742000  1.0
  H  H34  1  0.90431000  0.63333000  0.23872000  1.0
  H  H35  1  0.09569000  0.36667000  0.76128000  1.0
  H  H36  1  0.37261000  0.59503000  0.54683000  1.0
  H  H37  1  0.62739000  0.40497000  0.45317000  1.0
  H  H38  1  0.87971000  0.47367000  0.30425000  1.0
  H  H39  1  0.12029000  0.52633000  0.69575000  1.0
  H  H40  1  0.13366000  0.92630000  0.47216000  1.0
  H  H41  1  0.86633000  0.07369000  0.52784000  1.0
  H  H42  1  0.98400000  0.29475000  0.36171000  1.0
  H  H43  1  0.01601000  0.70525000  0.63829000  1.0
  H  H44  1  0.83265000  0.82950000  0.18970000  1.0
  H  H45  1  0.16735000  0.17050000  0.81030000  1.0
  C  C46  1  0.29046000  0.04223000  0.03121000  1.0
  C  C47  1  0.70955000  0.95777000  0.96879000  1.0
  C  C48  1  0.71345000  0.32742000  0.14663000  1.0
  C  C49  1  0.28655000  0.67258000  0.85337000  1.0
  C  C50  1  0.44331000  0.04971000  0.99764000  1.0
  C  C51  1  0.55670000  0.95029000  0.00236000  1.0
  C  C52  1  0.81937000  0.38576000  0.09271000  1.0
  C  C53  1  0.18063000  0.61424000  0.90729000  1.0
  C  C54  1  0.38240000  0.25325000  0.95962000  1.0
  C  C55  1  0.61760000  0.74675000  0.04039000  1.0
  C  C56  1  0.42442000  0.67134000  0.26553000  1.0
  C  C57  1  0.57557000  0.32866000  0.73447000  1.0
  C  C58  1  0.45791000  0.31520000  0.20947000  1.0
  C  C59  1  0.54210000  0.68480000  0.79053000  1.0
  C  C60  1  0.66884000  0.17634000  0.23513000  1.0
  C  C61  1  0.33116000  0.82365000  0.76487000  1.0
  C  C62  1  0.34491000  0.74285000  0.21609000  1.0
  C  C63  1  0.65509000  0.25715000  0.78391000  1.0
  C  C64  1  0.48558000  0.15711000  0.95997000  1.0
  C  C65  1  0.51443000  0.84291000  0.04003000  1.0
  C  C66  1  0.40959000  0.17696000  0.30802000  1.0
  C  C67  1  0.59041000  0.82304000  0.69198000  1.0
  C  C68  1  0.59438000  0.65781000  0.39541000  1.0
  C  C69  1  0.40561000  0.34221000  0.60460000  1.0
  C  C70  1  0.46349000  0.95789000  0.32222000  1.0
  C  C71  1  0.53650000  0.04211000  0.67777000  1.0
  C  C72  1  0.23167000  0.66409000  0.13368000  1.0
  C  C73  1  0.76833000  0.33591000  0.86632000  1.0
  C  C74  1  0.76580000  0.22801000  0.18340000  1.0
  C  C75  1  0.23420000  0.77199000  0.81660000  1.0
  C  C76  1  0.52103000  0.74212000  0.34411000  1.0
  C  C77  1  0.47896000  0.25787000  0.65589000  1.0
  C  C78  1  0.36352000  0.88668000  0.24435000  1.0
  C  C79  1  0.63648000  0.11332000  0.75565000  1.0
  C  C80  1  0.55818000  0.37076000  0.16033000  1.0
  C  C81  1  0.44182000  0.62924000  0.83967000  1.0
  C  C82  1  0.51440000  0.22041000  0.24899000  1.0
  C  C83  1  0.48560000  0.77959000  0.75100000  1.0
  C  C84  1  0.19385000  0.14234000  0.02866000  1.0
  C  C85  1  0.80616000  0.85766000  0.97134000  1.0
  C  C86  1  0.54142000  0.88527000  0.37239000  1.0
  C  C87  1  0.45858000  0.11473000  0.62762000  1.0
  C  C88  1  0.02877000  0.76155000  0.36069000  1.0
  C  C89  1  0.97123000  0.23845000  0.63931000  1.0
  C  C90  1  0.22078000  0.68197000  0.46308000  1.0
  C  C91  1  0.77922000  0.31803000  0.53692000  1.0
  C  C92  1  0.02412000  0.00291000  0.37521000  1.0
  C  C93  1  0.97588000  0.99709000  0.62479000  1.0
  C  C94  1  0.93975000  0.73670000  0.28036000  1.0
  C  C95  1  0.06026000  0.26329000  0.71964000  1.0
  C  C96  1  0.26657000  0.57466000  0.49249000  1.0
  C  C97  1  0.73343000  0.42533000  0.50751000  1.0
  C  C98  1  0.08034000  0.64962000  0.39364000  1.0
  C  C99  1  0.91966000  0.35038000  0.60636000  1.0
  C  C100  1  0.99320000  0.50703000  0.35701000  1.0
  C  C101  1  0.00680000  0.49297000  0.64299000  1.0
  C  C102  1  0.06947000  0.89924000  0.40870000  1.0
  C  C103  1  0.93053000  0.10076000  0.59130000  1.0
  C  C104  1  0.04951000  0.40597000  0.38981000  1.0
  C  C105  1  0.95049000  0.59403000  0.61018000  1.0
  C  C106  1  0.89990000  0.84772000  0.25236000  1.0
  C  C107  1  0.10010000  0.15228000  0.74764000  1.0
  N  N108  1  0.23920000  0.24689000  0.99403000  1.0
  N  N109  1  0.76081000  0.75312000  0.00597000  1.0
  N  N110  1  0.18345000  0.43842000  0.45672000  1.0
  N  N111  1  0.81655000  0.56158000  0.54328000  1.0
  N  N112  1  0.94159000  0.97986000  0.29791000  1.0
  N  N113  1  0.05842000  0.02014000  0.70209000  1.0
  O  O114  1  0.49186000  0.09819000  0.35524000  1.0
  O  O115  1  0.50814000  0.90181000  0.64476000  1.0
  O  O116  1  0.11716000  0.72074000  0.10044000  1.0
  O  O117  1  0.88284000  0.27926000  0.89956000  1.0
  O  O118  1  0.69943000  0.73173000  0.46698000  1.0
  O  O119  1  0.30056000  0.26826000  0.53302000  1.0
  O  O120  1  0.78703000  0.49412000  0.07341000  1.0
  O  O121  1  0.21296000  0.50588000  0.92659000  1.0
  O  O122  1  0.55678000  0.52871000  0.37151000  1.0
  O  O123  1  0.44317000  0.47127000  0.62849000  1.0
  O  O124  1  0.25708000  0.54634000  0.10282000  1.0
  O  O125  1  0.74292000  0.45366000  0.89718000  1.0
  O  O126  1  0.93449000  0.32317000  0.06943000  1.0
  O  O127  1  0.06552000  0.67683000  0.93057000  1.0
