# generated using pymatgen
data_Cu2H12C16S4Br3N8
_symmetry_space_group_name_H-M   'P 1'
_cell_length_a   10.26310000
_cell_length_b   11.06420000
_cell_length_c   12.86890000
_cell_angle_alpha   115.12600000
_cell_angle_beta   108.47800000
_cell_angle_gamma   93.72000000
_symmetry_Int_Tables_number   1
_chemical_formula_structural   Cu2H12C16S4Br3N8
_chemical_formula_sum   'Cu4 H24 C32 S8 Br6 N16'
_cell_volume   1220.50004330
_cell_formula_units_Z   2
loop_
 _symmetry_equiv_pos_site_id
 _symmetry_equiv_pos_as_xyz
  1  'x, y, z'
loop_
 _atom_site_type_symbol
 _atom_site_label
 _atom_site_symmetry_multiplicity
 _atom_site_fract_x
 _atom_site_fract_y
 _atom_site_fract_z
 _atom_site_occupancy
  Cu  Cu0  1  0.95312000  0.06001000  0.10898000  1.0
  Cu  Cu1  1  0.04688000  0.94000000  0.89104000  1.0
  Cu  Cu2  1  0.35896000  0.23645000  0.62193000  1.0
  Cu  Cu3  1  0.64104000  0.76355000  0.37808000  1.0
  H  H4  1  0.30156000  0.94545000  0.50143000  1.0
  H  H5  1  0.69844000  0.05455000  0.49857000  1.0
  H  H6  1  0.15779000  0.74770000  0.29096000  1.0
  H  H7  1  0.84221000  0.25231000  0.70905000  1.0
  H  H8  1  0.00217000  0.80566000  0.12736000  1.0
  H  H9  1  0.99783000  0.19434000  0.87264000  1.0
  H  H10  1  0.09761000  0.62790000  0.87680000  1.0
  H  H11  1  0.90237000  0.37210000  0.12319000  1.0
  H  H12  1  0.83784000  0.50757000  0.74855000  1.0
  H  H13  1  0.16215000  0.49243000  0.25143000  1.0
  H  H14  1  0.77330000  0.33660000  0.52473000  1.0
  H  H15  1  0.22671000  0.66339000  0.47527000  1.0
  H  H16  1  0.80158000  0.59379000  0.10294000  1.0
  H  H17  1  0.19843000  0.40621000  0.89706000  1.0
  H  H18  1  0.62572000  0.69882000  0.00101000  1.0
  H  H19  1  0.37428000  0.30118000  0.99898000  1.0
  H  H20  1  0.43205000  0.53583000  0.79381000  1.0
  H  H21  1  0.56795000  0.46416000  0.20618000  1.0
  H  H22  1  0.43473000  0.20954000  0.15806000  1.0
  H  H23  1  0.56527000  0.79047000  0.84194000  1.0
  H  H24  1  0.61240000  0.18468000  0.33147000  1.0
  H  H25  1  0.38759000  0.81532000  0.66853000  1.0
  H  H26  1  0.83942000  0.12672000  0.30636000  1.0
  H  H27  1  0.16057000  0.87329000  0.69364000  1.0
  C  C28  1  0.15383000  0.11477000  0.35813000  1.0
  C  C29  1  0.84617000  0.88523000  0.64187000  1.0
  C  C30  1  0.23416000  0.96134000  0.42608000  1.0
  C  C31  1  0.76584000  0.03867000  0.57393000  1.0
  C  C32  1  0.15476000  0.85274000  0.31002000  1.0
  C  C33  1  0.84524000  0.14727000  0.68998000  1.0
  C  C34  1  0.07049000  0.88371000  0.22086000  1.0
  C  C35  1  0.92951000  0.11630000  0.77915000  1.0
  C  C36  1  0.11072000  0.43565000  0.60860000  1.0
  C  C37  1  0.88929000  0.56435000  0.39140000  1.0
  C  C38  1  0.06002000  0.55327000  0.77858000  1.0
  C  C39  1  0.93998000  0.44673000  0.22142000  1.0
  C  C40  1  0.91805000  0.48606000  0.70868000  1.0
  C  C41  1  0.08194000  0.51394000  0.29131000  1.0
  C  C42  1  0.88273000  0.39204000  0.58434000  1.0
  C  C43  1  0.11728000  0.60795000  0.41566000  1.0
  C  C44  1  0.58950000  0.31477000  0.86114000  1.0
  C  C45  1  0.41050000  0.68523000  0.13885000  1.0
  C  C46  1  0.71306000  0.52968000  0.01494000  1.0
  C  C47  1  0.28695000  0.47031000  0.98506000  1.0
  C  C48  1  0.61778000  0.58864000  0.95854000  1.0
  C  C49  1  0.38222000  0.41136000  0.04145000  1.0
  C  C50  1  0.51088000  0.49926000  0.84537000  1.0
  C  C51  1  0.48912000  0.50073000  0.15463000  1.0
  C  C52  1  0.67822000  0.13466000  0.04567000  1.0
  C  C53  1  0.32178000  0.86534000  0.95433000  1.0
  C  C54  1  0.53525000  0.18502000  0.15415000  1.0
  C  C55  1  0.46475000  0.81499000  0.84584000  1.0
  C  C56  1  0.63304000  0.17101000  0.24958000  1.0
  C  C57  1  0.36695000  0.82901000  0.75042000  1.0
  C  C58  1  0.75694000  0.13820000  0.23557000  1.0
  C  C59  1  0.24305000  0.86181000  0.76443000  1.0
  S  S60  1  0.15222000  0.27865000  0.36894000  1.0
  S  S61  1  0.84780000  0.72136000  0.63107000  1.0
  S  S62  1  0.25202000  0.41173000  0.55439000  1.0
  S  S63  1  0.74799000  0.58827000  0.44561000  1.0
  S  S64  1  0.72163000  0.10387000  0.91486000  1.0
  S  S65  1  0.27837000  0.89612000  0.08514000  1.0
  S  S66  1  0.55202000  0.13433000  0.79978000  1.0
  S  S67  1  0.44799000  0.86567000  0.20022000  1.0
  Br  Br68  1  0.13031000  0.18169000  0.07357000  1.0
  Br  Br69  1  0.86969000  0.81831000  0.92645000  1.0
  Br  Br70  1  0.19748000  0.16245000  0.69982000  1.0
  Br  Br71  1  0.80253000  0.83754000  0.30020000  1.0
  Br  Br72  1  0.53960000  0.25868000  0.53773000  1.0
  Br  Br73  1  0.46040000  0.74132000  0.46227000  1.0
  N  N74  1  0.07003000  0.01436000  0.24413000  1.0
  N  N75  1  0.92998000  0.98565000  0.75587000  1.0
  N  N76  1  0.23349000  0.09228000  0.45009000  1.0
  N  N77  1  0.76651000  0.90773000  0.54992000  1.0
  N  N78  1  0.15827000  0.52862000  0.72849000  1.0
  N  N79  1  0.84173000  0.47139000  0.27151000  1.0
  N  N80  1  0.97935000  0.36495000  0.53267000  1.0
  N  N81  1  0.02066000  0.63505000  0.46733000  1.0
  N  N82  1  0.49778000  0.36232000  0.79439000  1.0
  N  N83  1  0.50222000  0.63768000  0.20560000  1.0
  N  N84  1  0.69798000  0.39358000  0.96746000  1.0
  N  N85  1  0.30202000  0.60641000  0.03253000  1.0
  N  N86  1  0.78103000  0.11923000  0.13303000  1.0
  N  N87  1  0.21896000  0.88077000  0.86697000  1.0
  N  N88  1  0.55791000  0.16737000  0.05188000  1.0
  N  N89  1  0.44209000  0.83264000  0.94811000  1.0
