# generated using pymatgen
data_Ag2H12C16S(N2O3)2
_symmetry_space_group_name_H-M   'P 1'
_cell_length_a   7.38409000
_cell_length_b   7.38404000
_cell_length_c   18.30310000
_cell_angle_alpha   86.63930000
_cell_angle_beta   86.63930000
_cell_angle_gamma   69.29560000
_symmetry_Int_Tables_number   1
_chemical_formula_structural   Ag2H12C16S(N2O3)2
_chemical_formula_sum   'Ag4 H24 C32 S2 N8 O12'
_cell_volume   931.14099238
_cell_formula_units_Z   2
loop_
 _symmetry_equiv_pos_site_id
 _symmetry_equiv_pos_as_xyz
  1  'x, y, z'
loop_
 _atom_site_type_symbol
 _atom_site_label
 _atom_site_symmetry_multiplicity
 _atom_site_fract_x
 _atom_site_fract_y
 _atom_site_fract_z
 _atom_site_occupancy
  Ag  Ag0  1  0.36385000  0.33539000  0.68398000  1.0
  Ag  Ag1  1  0.66461000  0.63615000  0.81602000  1.0
  Ag  Ag2  1  0.63615000  0.66461000  0.31602000  1.0
  Ag  Ag3  1  0.33539000  0.36385000  0.18398000  1.0
  H  H4  1  0.79031000  0.81557000  0.48434000  1.0
  H  H5  1  0.18442000  0.20970000  0.01566000  1.0
  H  H6  1  0.20970000  0.18442000  0.51566000  1.0
  H  H7  1  0.81557000  0.79031000  0.98434000  1.0
  H  H8  1  0.58844000  0.16408000  0.47597000  1.0
  H  H9  1  0.83592000  0.41157000  0.02403000  1.0
  H  H10  1  0.41157000  0.83592000  0.52403000  1.0
  H  H11  1  0.16407000  0.58844000  0.97597000  1.0
  H  H12  1  0.61676000  0.38831000  0.56749000  1.0
  H  H13  1  0.61168000  0.38324000  0.93252000  1.0
  H  H14  1  0.38325000  0.61168000  0.43251000  1.0
  H  H15  1  0.38831000  0.61676000  0.06748000  1.0
  H  H16  1  0.05204000  0.91355000  0.67646000  1.0
  H  H17  1  0.08644000  0.94797000  0.82354000  1.0
  H  H18  1  0.94797000  0.08644000  0.32354000  1.0
  H  H19  1  0.91356000  0.05203000  0.17646000  1.0
  H  H20  1  0.83584000  0.44174000  0.65948000  1.0
  H  H21  1  0.55825000  0.16417000  0.84052000  1.0
  H  H22  1  0.16416000  0.55826000  0.34052000  1.0
  H  H23  1  0.44174000  0.83584000  0.15948000  1.0
  H  H24  1  0.97390000  0.24494000  0.71672000  1.0
  H  H25  1  0.75506000  0.02610000  0.78328000  1.0
  H  H26  1  0.02610000  0.75506000  0.28328000  1.0
  H  H27  1  0.24494000  0.97390000  0.21672000  1.0
  C  C28  1  0.06060000  0.64951000  0.58482000  1.0
  C  C29  1  0.35049000  0.93940000  0.91517000  1.0
  C  C30  1  0.93940000  0.35049000  0.41518000  1.0
  C  C31  1  0.64951000  0.06060000  0.08482000  1.0
  C  C32  1  0.93145000  0.84445000  0.58152000  1.0
  C  C33  1  0.15554000  0.06857000  0.91848000  1.0
  C  C34  1  0.06856000  0.15555000  0.41848000  1.0
  C  C35  1  0.84445000  0.93144000  0.08152000  1.0
  C  C36  1  0.79971000  0.91294000  0.52517000  1.0
  C  C37  1  0.08705000  0.20029000  0.97483000  1.0
  C  C38  1  0.20030000  0.08706000  0.47483000  1.0
  C  C39  1  0.91294000  0.79971000  0.02517000  1.0
  C  C40  1  0.68579000  0.10884000  0.52104000  1.0
  C  C41  1  0.89116000  0.31421000  0.97896000  1.0
  C  C42  1  0.31421000  0.89116000  0.47896000  1.0
  C  C43  1  0.10883000  0.68580000  0.02104000  1.0
  C  C44  1  0.70202000  0.23378000  0.57246000  1.0
  C  C45  1  0.76621000  0.29798000  0.92754000  1.0
  C  C46  1  0.29799000  0.76621000  0.42754000  1.0
  C  C47  1  0.23379000  0.70202000  0.07246000  1.0
  C  C48  1  0.83135000  0.16529000  0.62976000  1.0
  C  C49  1  0.83471000  0.16866000  0.87024000  1.0
  C  C50  1  0.16866000  0.83471000  0.37024000  1.0
  C  C51  1  0.16528000  0.83135000  0.12976000  1.0
  C  C52  1  0.94626000  0.96977000  0.63415000  1.0
  C  C53  1  0.03022000  0.05374000  0.86585000  1.0
  C  C54  1  0.05375000  0.03023000  0.36585000  1.0
  C  C55  1  0.96978000  0.94626000  0.13415000  1.0
  C  C56  1  0.84285000  0.30158000  0.68498000  1.0
  C  C57  1  0.69842000  0.15715000  0.81502000  1.0
  C  C58  1  0.15715000  0.69842000  0.31502000  1.0
  C  C59  1  0.30158000  0.84285000  0.18498000  1.0
  S  S60  1  0.63319000  0.36681000  0.75000000  1.0
  S  S61  1  0.36681000  0.63319000  0.25000000  1.0
  N  N62  1  0.17344000  0.49161000  0.58936000  1.0
  N  N63  1  0.50837000  0.82657000  0.91063000  1.0
  N  N64  1  0.82657000  0.50837000  0.41064000  1.0
  N  N65  1  0.49162000  0.17344000  0.08937000  1.0
  N  N66  1  0.45352000  0.89360000  0.67424000  1.0
  N  N67  1  0.10640000  0.54648000  0.82576000  1.0
  N  N68  1  0.54648000  0.10640000  0.32576000  1.0
  N  N69  1  0.89360000  0.45352000  0.17424000  1.0
  O  O70  1  0.34552000  0.04259000  0.63868000  1.0
  O  O71  1  0.95741000  0.65447000  0.86132000  1.0
  O  O72  1  0.65448000  0.95741000  0.36132000  1.0
  O  O73  1  0.04259000  0.34552000  0.13868000  1.0
  O  O74  1  0.49736000  0.72816000  0.64919000  1.0
  O  O75  1  0.27184000  0.50264000  0.85081000  1.0
  O  O76  1  0.50264000  0.27185000  0.35081000  1.0
  O  O77  1  0.72816000  0.49736000  0.14919000  1.0
  O  O78  1  0.51430000  0.91794000  0.73571000  1.0
  O  O79  1  0.08206000  0.48570000  0.76429000  1.0
  O  O80  1  0.48570000  0.08206000  0.26429000  1.0
  O  O81  1  0.91794000  0.51431000  0.23571000  1.0
