# generated using pymatgen
data_DyH9C12NO8
_symmetry_space_group_name_H-M   'P 1'
_cell_length_a   5.89893000
_cell_length_b   10.25223455
_cell_length_c   11.52920000
_cell_angle_alpha   67.01557213
_cell_angle_beta   77.86100000
_cell_angle_gamma   73.48692518
_symmetry_Int_Tables_number   1
_chemical_formula_structural   DyH9C12NO8
_chemical_formula_sum   'Dy2 H18 C24 N2 O16'
_cell_volume   611.51759409
_cell_formula_units_Z   2
loop_
 _symmetry_equiv_pos_site_id
 _symmetry_equiv_pos_as_xyz
  1  'x, y, z'
loop_
 _atom_site_type_symbol
 _atom_site_label
 _atom_site_symmetry_multiplicity
 _atom_site_fract_x
 _atom_site_fract_y
 _atom_site_fract_z
 _atom_site_occupancy
  Dy  Dy0  1  0.95666000  0.18047000  0.56202000  1.0
  Dy  Dy1  1  0.04334000  0.81954000  0.43798000  1.0
  H  H2  1  0.46002000  0.27456000  0.65114000  1.0
  H  H3  1  0.53999000  0.72544000  0.34886000  1.0
  H  H4  1  0.57583000  0.20845000  0.78438000  1.0
  H  H5  1  0.42417000  0.79155000  0.21562000  1.0
  H  H6  1  0.66540000  0.13245000  0.41024000  1.0
  H  H7  1  0.33461000  0.86756000  0.58976000  1.0
  H  H8  1  0.52014000  0.28163000  0.42021000  1.0
  H  H9  1  0.47987000  0.71837000  0.57979000  1.0
  H  H10  1  0.18658000  0.93810000  0.00527000  1.0
  H  H11  1  0.81342000  0.06190000  0.99473000  1.0
  H  H12  1  0.11712000  0.68690000  0.77369000  1.0
  H  H13  1  0.88288000  0.31309000  0.22631000  1.0
  H  H14  1  0.38499000  0.55512000  0.93774000  1.0
  H  H15  1  0.61500000  0.44487000  0.06226000  1.0
  H  H16  1  0.24822000  0.54503000  0.16221000  1.0
  H  H17  1  0.75178000  0.45495000  0.83779000  1.0
  H  H18  1  0.84009000  0.66894000  0.21810000  1.0
  H  H19  1  0.15991000  0.33105000  0.78191000  1.0
  C  C20  1  0.36624000  0.88839000  0.97387000  1.0
  C  C21  1  0.63377000  0.11160000  0.02613000  1.0
  C  C22  1  0.43188000  0.90665000  0.84350000  1.0
  C  C23  1  0.56813000  0.09335000  0.15650000  1.0
  C  C24  1  0.25951000  0.99795000  0.74946000  1.0
  C  C25  1  0.74050000  0.00205000  0.25054000  1.0
  C  C26  1  0.65974000  0.83846000  0.80757000  1.0
  C  C27  1  0.34025000  0.16155000  0.19243000  1.0
  C  C28  1  0.76205000  0.84948000  0.67429000  1.0
  C  C29  1  0.23795000  0.15052000  0.32571000  1.0
  C  C30  1  0.81927000  0.75545000  0.90071000  1.0
  C  C31  1  0.18072000  0.24455000  0.09929000  1.0
  C  C32  1  0.05461000  0.68323000  0.87060000  1.0
  C  C33  1  0.94538000  0.31676000  0.12940000  1.0
  C  C34  1  0.20506000  0.60913000  0.96339000  1.0
  C  C35  1  0.79494000  0.39086000  0.03661000  1.0
  C  C36  1  0.12758000  0.60377000  0.08927000  1.0
  C  C37  1  0.87241000  0.39622000  0.91073000  1.0
  C  C38  1  0.89875000  0.67198000  0.12147000  1.0
  C  C39  1  0.10124000  0.32802000  0.87853000  1.0
  C  C40  1  0.73898000  0.74799000  0.02863000  1.0
  C  C41  1  0.26102000  0.25200000  0.97137000  1.0
  C  C42  1  0.11119000  0.47174000  0.53574000  1.0
  C  C43  1  0.88880000  0.52827000  0.46426000  1.0
  N  N44  1  0.51090000  0.81370000  0.06251000  1.0
  N  N45  1  0.48909000  0.18630000  0.93749000  1.0
  O  O46  1  0.32139000  0.00843000  0.63222000  1.0
  O  O47  1  0.67861000  0.99157000  0.36778000  1.0
  O  O48  1  0.05655000  0.06643000  0.78241000  1.0
  O  O49  1  0.94345000  0.93358000  0.21759000  1.0
  O  O50  1  0.86651000  0.95263000  0.60816000  1.0
  O  O51  1  0.13349000  0.04738000  0.39185000  1.0
  O  O52  1  0.77086000  0.74791000  0.63575000  1.0
  O  O53  1  0.22914000  0.25210000  0.36424000  1.0
  O  O54  1  0.18033667  0.33333333  0.58440000  1.0
  O  O55  1  0.81962000  0.66672000  0.41559000  1.0
  O  O56  1  0.20526000  0.56417000  0.54123000  1.0
  O  O57  1  0.79474000  0.43583000  0.45877000  1.0
  O  O58  1  0.61247000  0.22945000  0.68884000  1.0
  O  O59  1  0.38753000  0.77056000  0.31117000  1.0
  O  O60  1  0.67959000  0.21890000  0.42556000  1.0
  O  O61  1  0.32043000  0.78110000  0.57443000  1.0
