# generated using pymatgen
data_NaH6C4(NO2)3
_symmetry_space_group_name_H-M   'P 1'
_cell_length_a   6.87787000
_cell_length_b   10.57040000
_cell_length_c   11.41230000
_cell_angle_alpha   89.99990000
_cell_angle_beta   84.90430000
_cell_angle_gamma   89.99980000
_symmetry_Int_Tables_number   1
_chemical_formula_structural   NaH6C4(NO2)3
_chemical_formula_sum   'Na4 H24 C16 N12 O24'
_cell_volume   826.41599895
_cell_formula_units_Z   4
loop_
 _symmetry_equiv_pos_site_id
 _symmetry_equiv_pos_as_xyz
  1  'x, y, z'
loop_
 _atom_site_type_symbol
 _atom_site_label
 _atom_site_symmetry_multiplicity
 _atom_site_fract_x
 _atom_site_fract_y
 _atom_site_fract_z
 _atom_site_occupancy
  Na  Na0  1  0.74731000  0.06945000  0.99687000  1.0
  Na  Na1  1  0.75269000  0.56945000  0.50313000  1.0
  Na  Na2  1  0.25269000  0.93055000  0.00313000  1.0
  Na  Na3  1  0.24731000  0.43055000  0.49687000  1.0
  H  H4  1  0.89581000  0.81961000  0.91155000  1.0
  H  H5  1  0.60419000  0.31961000  0.58845000  1.0
  H  H6  1  0.10419000  0.18039000  0.08845000  1.0
  H  H7  1  0.39581000  0.68039000  0.41155000  1.0
  H  H8  1  0.98082000  0.92675000  0.82281000  1.0
  H  H9  1  0.51918000  0.42674000  0.67718000  1.0
  H  H10  1  0.01918000  0.07325000  0.17718000  1.0
  H  H11  1  0.48082000  0.57326000  0.32282000  1.0
  H  H12  1  0.48436000  0.98895000  0.20626000  1.0
  H  H13  1  0.01564000  0.48895000  0.29374000  1.0
  H  H14  1  0.51564000  0.01105000  0.79374000  1.0
  H  H15  1  0.98436000  0.51105000  0.70626000  1.0
  H  H16  1  0.57507000  0.86937000  0.13794000  1.0
  H  H17  1  0.92493000  0.36937000  0.36206000  1.0
  H  H18  1  0.42493000  0.13063000  0.86206000  1.0
  H  H19  1  0.07507000  0.63063000  0.63794000  1.0
  H  H20  1  0.83819000  0.57432000  0.91473000  1.0
  H  H21  1  0.66181000  0.07432000  0.58527000  1.0
  H  H22  1  0.16180000  0.42568000  0.08527000  1.0
  H  H23  1  0.33820000  0.92568000  0.41473000  1.0
  H  H24  1  0.48567000  0.28259000  0.25808000  1.0
  H  H25  1  0.01433000  0.78259000  0.24191000  1.0
  H  H26  1  0.51433000  0.71741000  0.74191000  1.0
  H  H27  1  0.98567000  0.21741000  0.75809000  1.0
  C  C28  1  0.67242000  0.49467000  0.09351000  1.0
  C  C29  1  0.82758000  0.99466000  0.40649000  1.0
  C  C30  1  0.32758000  0.50533000  0.90649000  1.0
  C  C31  1  0.17242000  0.00534000  0.59352000  1.0
  C  C32  1  0.70753000  0.63107000  0.06950000  1.0
  C  C33  1  0.79249000  0.13108000  0.43050000  1.0
  C  C34  1  0.29248000  0.36893000  0.93050000  1.0
  C  C35  1  0.20752000  0.86893000  0.56950000  1.0
  C  C36  1  0.72077000  0.38362000  0.02789000  1.0
  C  C37  1  0.77923000  0.88362000  0.47211000  1.0
  C  C38  1  0.27923000  0.61638000  0.97211000  1.0
  C  C39  1  0.22077000  0.11638000  0.52789000  1.0
  C  C40  1  0.82678000  0.36498000  0.90990000  1.0
  C  C41  1  0.67321000  0.86497000  0.59010000  1.0
  C  C42  1  0.17321000  0.63502000  0.09010000  1.0
  C  C43  1  0.32679000  0.13503000  0.40990000  1.0
  N  N44  1  0.64925000  0.28385000  0.09179000  1.0
  N  N45  1  0.85075000  0.78385000  0.40821000  1.0
  N  N46  1  0.35075000  0.71615000  0.90821000  1.0
  N  N47  1  0.14925000  0.21615000  0.59180000  1.0
  N  N48  1  0.57227000  0.45948000  0.19505000  1.0
  N  N49  1  0.92774000  0.95948000  0.30495000  1.0
  N  N50  1  0.42773000  0.54052000  0.80495000  1.0
  N  N51  1  0.07227000  0.04052000  0.69505000  1.0
  N  N52  1  0.56396000  0.33466000  0.18888000  1.0
  N  N53  1  0.93604000  0.83466000  0.31112000  1.0
  N  N54  1  0.43604000  0.66534000  0.81112000  1.0
  N  N55  1  0.06396000  0.16534000  0.68888000  1.0
  O  O56  1  0.88901000  0.46532000  0.85462000  1.0
  O  O57  1  0.61100000  0.96532000  0.64538000  1.0
  O  O58  1  0.11099000  0.53468000  0.14538000  1.0
  O  O59  1  0.38900000  0.03468000  0.35462000  1.0
  O  O60  1  0.85054000  0.25384000  0.87215000  1.0
  O  O61  1  0.64946000  0.75385000  0.62784000  1.0
  O  O62  1  0.14946000  0.74616000  0.12784000  1.0
  O  O63  1  0.35054000  0.24616000  0.37216000  1.0
  O  O64  1  0.52518000  0.95597000  0.12722000  1.0
  O  O65  1  0.97481000  0.45597000  0.37279000  1.0
  O  O66  1  0.47482000  0.04403000  0.87278000  1.0
  O  O67  1  0.02518000  0.54403000  0.62721000  1.0
  O  O68  1  0.79786000  0.65941000  0.96548000  1.0
  O  O69  1  0.70214000  0.15941000  0.53452000  1.0
  O  O70  1  0.20213000  0.34059000  0.03452000  1.0
  O  O71  1  0.29787000  0.84059000  0.46548000  1.0
  O  O72  1  0.94638000  0.90631000  0.90636000  1.0
  O  O73  1  0.55362000  0.40630000  0.59364000  1.0
  O  O74  1  0.05362000  0.09370000  0.09364000  1.0
  O  O75  1  0.44638000  0.59370000  0.40636000  1.0
  O  O76  1  0.65224000  0.71147000  0.14352000  1.0
  O  O77  1  0.84776000  0.21146000  0.35649000  1.0
  O  O78  1  0.34775000  0.28853000  0.85648000  1.0
  O  O79  1  0.15224000  0.78854000  0.64351000  1.0
