# generated using pymatgen
data_CuH8C13SN3
_symmetry_space_group_name_H-M   'P 1'
_cell_length_a   5.71125000
_cell_length_b   11.06240000
_cell_length_c   17.86550000
_cell_angle_alpha   89.99930000
_cell_angle_beta   83.86990000
_cell_angle_gamma   89.99920000
_symmetry_Int_Tables_number   1
_chemical_formula_structural   CuH8C13SN3
_chemical_formula_sum   'Cu4 H32 C52 S4 N12'
_cell_volume   1122.29046554
_cell_formula_units_Z   4
loop_
 _symmetry_equiv_pos_site_id
 _symmetry_equiv_pos_as_xyz
  1  'x, y, z'
loop_
 _atom_site_type_symbol
 _atom_site_label
 _atom_site_symmetry_multiplicity
 _atom_site_fract_x
 _atom_site_fract_y
 _atom_site_fract_z
 _atom_site_occupancy
  Cu  Cu0  1  0.57676000  0.54236000  0.56451000  1.0
  Cu  Cu1  1  0.57676000  0.95764000  0.06451000  1.0
  Cu  Cu2  1  0.42324000  0.45765000  0.43549000  1.0
  Cu  Cu3  1  0.42324000  0.04236000  0.93549000  1.0
  H  H4  1  0.88326000  0.21641000  0.71886000  1.0
  H  H5  1  0.88326000  0.28359000  0.21886000  1.0
  H  H6  1  0.11674000  0.78359000  0.28114000  1.0
  H  H7  1  0.11673000  0.71641000  0.78114000  1.0
  H  H8  1  0.61020000  0.18610000  0.62044000  1.0
  H  H9  1  0.61020000  0.31392000  0.12044000  1.0
  H  H10  1  0.38981000  0.81391000  0.37956000  1.0
  H  H11  1  0.38980000  0.68607000  0.87956000  1.0
  H  H12  1  0.65726000  0.99912000  0.53973000  1.0
  H  H13  1  0.65728000  0.50089000  0.03973000  1.0
  H  H14  1  0.34275000  0.00089000  0.46027000  1.0
  H  H15  1  0.34272000  0.49909000  0.96027000  1.0
  H  H16  1  0.87084000  0.80529000  0.50882000  1.0
  H  H17  1  0.87084000  0.69472000  0.00882000  1.0
  H  H18  1  0.12919000  0.19471000  0.49117000  1.0
  H  H19  1  0.12914000  0.30527000  0.99118000  1.0
  H  H20  1  0.18809000  0.66208000  0.53144000  1.0
  H  H21  1  0.18809000  0.83793000  0.03144000  1.0
  H  H22  1  0.81194000  0.33793000  0.46856000  1.0
  H  H23  1  0.81188000  0.16206000  0.96856000  1.0
  H  H24  1  0.75855000  0.63733000  0.69412000  1.0
  H  H25  1  0.75854000  0.86266000  0.19413000  1.0
  H  H26  1  0.24146000  0.36268000  0.30588000  1.0
  H  H27  1  0.24142000  0.13733000  0.80588000  1.0
  H  H28  1  0.70623000  0.81232000  0.78149000  1.0
  H  H29  1  0.70622000  0.68766000  0.28149000  1.0
  H  H30  1  0.29378000  0.18768000  0.21851000  1.0
  H  H31  1  0.29375000  0.31233000  0.71851000  1.0
  H  H32  1  0.39479000  0.96661000  0.76303000  1.0
  H  H33  1  0.39479000  0.53338000  0.26303000  1.0
  H  H34  1  0.60523000  0.03339000  0.23697000  1.0
  H  H35  1  0.60520000  0.46661000  0.73697000  1.0
  C  C36  1  0.89873000  0.13536000  0.68377000  1.0
  C  C37  1  0.89873000  0.36465000  0.18377000  1.0
  C  C38  1  0.10128000  0.86464000  0.31623000  1.0
  C  C39  1  0.10126000  0.63535000  0.81623000  1.0
  C  C40  1  0.74473000  0.11870000  0.62810000  1.0
  C  C41  1  0.74473000  0.38131000  0.12810000  1.0
  C  C42  1  0.25528000  0.88130000  0.37190000  1.0
  C  C43  1  0.25526000  0.61868000  0.87190000  1.0
  C  C44  1  0.77084000  0.01615000  0.58398000  1.0
  C  C45  1  0.77084000  0.48386000  0.08398000  1.0
  C  C46  1  0.22918000  0.98386000  0.41602000  1.0
  C  C47  1  0.22914000  0.51612000  0.91603000  1.0
  C  C48  1  0.98599000  0.82398000  0.55236000  1.0
  C  C49  1  0.98600000  0.67603000  0.05236000  1.0
  C  C50  1  0.01403000  0.17603000  0.44763000  1.0
  C  C51  1  0.01398000  0.32396000  0.94764000  1.0
  C  C52  1  0.16057000  0.74439000  0.56476000  1.0
  C  C53  1  0.16057000  0.75562000  0.06476000  1.0
  C  C54  1  0.83946000  0.25562000  0.43523000  1.0
  C  C55  1  0.83941000  0.24438000  0.93524000  1.0
  C  C56  1  0.62134000  0.70396000  0.68764000  1.0
  C  C57  1  0.62134000  0.79603000  0.18764000  1.0
  C  C58  1  0.37867000  0.29604000  0.31236000  1.0
  C  C59  1  0.37863000  0.20397000  0.81236000  1.0
  C  C60  1  0.59334000  0.80333000  0.73640000  1.0
  C  C61  1  0.59334000  0.69666000  0.23641000  1.0
  C  C62  1  0.40668000  0.19667000  0.26360000  1.0
  C  C63  1  0.40665000  0.30334000  0.76360000  1.0
  C  C64  1  0.42150000  0.88805000  0.72655000  1.0
  C  C65  1  0.42149000  0.61194000  0.22655000  1.0
  C  C66  1  0.57852000  0.11195000  0.27345000  1.0
  C  C67  1  0.57850000  0.38805000  0.77344000  1.0
  C  C68  1  0.27601000  0.87121000  0.66847000  1.0
  C  C69  1  0.27602000  0.62879000  0.16847000  1.0
  C  C70  1  0.72401000  0.12880000  0.33153000  1.0
  C  C71  1  0.72397000  0.37120000  0.83152000  1.0
  C  C72  1  0.09334000  0.95655000  0.65433000  1.0
  C  C73  1  0.09334000  0.54345000  0.15433000  1.0
  C  C74  1  0.90667000  0.04345000  0.34567000  1.0
  C  C75  1  0.90664000  0.45655000  0.84567000  1.0
  C  C76  1  0.94848000  0.93178000  0.59595000  1.0
  C  C77  1  0.94848000  0.56823000  0.09595000  1.0
  C  C78  1  0.05154000  0.06823000  0.40404000  1.0
  C  C79  1  0.05150000  0.43177000  0.90405000  1.0
  C  C80  1  0.31032000  0.76620000  0.62235000  1.0
  C  C81  1  0.31033000  0.73380000  0.12235000  1.0
  C  C82  1  0.68971000  0.23381000  0.37765000  1.0
  C  C83  1  0.68966000  0.26620000  0.87765000  1.0
  C  C84  1  0.06258000  0.43124000  0.57935000  1.0
  C  C85  1  0.06257000  0.06876000  0.07935000  1.0
  C  C86  1  0.93743000  0.56877000  0.42066000  1.0
  C  C87  1  0.93742000  0.93123000  0.92066000  1.0
  S  S88  1  0.33165000  0.37744000  0.56209000  1.0
  S  S89  1  0.33166000  0.12256000  0.06209000  1.0
  S  S90  1  0.66832000  0.62257000  0.43791000  1.0
  S  S91  1  0.66834000  0.87744000  0.93792000  1.0
  N  N92  1  0.06698000  0.05776000  0.69719000  1.0
  N  N93  1  0.06699000  0.44225000  0.19719000  1.0
  N  N94  1  0.93303000  0.94225000  0.30281000  1.0
  N  N95  1  0.93301000  0.55774000  0.80281000  1.0
  N  N96  1  0.48570000  0.68457000  0.63214000  1.0
  N  N97  1  0.48570000  0.81543000  0.13214000  1.0
  N  N98  1  0.51432000  0.31544000  0.36786000  1.0
  N  N99  1  0.51428000  0.18457000  0.86786000  1.0
  N  N100  1  0.86922000  0.47038000  0.58976000  1.0
  N  N101  1  0.86924000  0.02963000  0.08976000  1.0
  N  N102  1  0.13078000  0.52963000  0.41024000  1.0
  N  N103  1  0.13080000  0.97038000  0.91024000  1.0
