# generated using pymatgen
data_CuP2H18C18(NO3)2
_symmetry_space_group_name_H-M   'P 1'
_cell_length_a   9.75944000
_cell_length_b   10.68340000
_cell_length_c   11.20270000
_cell_angle_alpha   62.73090000
_cell_angle_beta   89.32360000
_cell_angle_gamma   69.00410000
_symmetry_Int_Tables_number   1
_chemical_formula_structural   CuP2H18C18(NO3)2
_chemical_formula_sum   'Cu2 P4 H36 C36 N4 O12'
_cell_volume   952.81926070
_cell_formula_units_Z   2
loop_
 _symmetry_equiv_pos_site_id
 _symmetry_equiv_pos_as_xyz
  1  'x, y, z'
loop_
 _atom_site_type_symbol
 _atom_site_label
 _atom_site_symmetry_multiplicity
 _atom_site_fract_x
 _atom_site_fract_y
 _atom_site_fract_z
 _atom_site_occupancy
  Cu  Cu0  1  0.14831000  0.11780000  0.02361000  1.0
  Cu  Cu1  1  0.85169000  0.88220000  0.97639000  1.0
  P  P2  1  0.83695000  0.22323000  0.82481000  1.0
  P  P3  1  0.16305000  0.77677000  0.17519000  1.0
  P  P4  1  0.24140000  0.00231000  0.79679000  1.0
  P  P5  1  0.75860000  0.99769000  0.20321000  1.0
  H  H6  1  0.16439000  0.81947000  0.92677000  1.0
  H  H7  1  0.83562000  0.18052000  0.07323000  1.0
  H  H8  1  0.98792000  0.24475000  0.67752000  1.0
  H  H9  1  0.01208000  0.75525000  0.32248000  1.0
  H  H10  1  0.09931000  0.00108000  0.31454000  1.0
  H  H11  1  0.90069000  0.99892000  0.68546000  1.0
  H  H12  1  0.10303000  0.08727000  0.49277000  1.0
  H  H13  1  0.89697000  0.91272000  0.50723000  1.0
  H  H14  1  0.14294000  0.32531000  0.42522000  1.0
  H  H15  1  0.85706000  0.67469000  0.57478000  1.0
  H  H16  1  0.17881000  0.47425000  0.18608000  1.0
  H  H17  1  0.82119000  0.52575000  0.81392000  1.0
  H  H18  1  0.21859000  0.57577000  0.98225000  1.0
  H  H19  1  0.78141000  0.42423000  0.01776000  1.0
  H  H20  1  0.24832000  0.68368000  0.74012000  1.0
  H  H21  1  0.75168000  0.31632000  0.25988000  1.0
  H  H22  1  0.22914000  0.54657000  0.60981000  1.0
  H  H23  1  0.77086000  0.45343000  0.39019000  1.0
  H  H24  1  0.19088000  0.30231000  0.73491000  1.0
  H  H25  1  0.80912000  0.69768000  0.26509000  1.0
  H  H26  1  0.50219000  0.85068000  0.85112000  1.0
  H  H27  1  0.49781000  0.14933000  0.14888000  1.0
  H  H28  1  0.42306000  0.89702000  0.68691000  1.0
  H  H29  1  0.57694000  0.10298000  0.31309000  1.0
  H  H30  1  0.43169000  0.10720000  0.48679000  1.0
  H  H31  1  0.56831000  0.89280000  0.51321000  1.0
  H  H32  1  0.52452000  0.31441000  0.37560000  1.0
  H  H33  1  0.47548000  0.68559000  0.62440000  1.0
  H  H34  1  0.61912000  0.40303000  0.51590000  1.0
  H  H35  1  0.38088000  0.59696000  0.48410000  1.0
  H  H36  1  0.52866000  0.07593000  0.87541000  1.0
  H  H37  1  0.47134000  0.92407000  0.12459000  1.0
  H  H38  1  0.59593000  0.42781000  0.73370000  1.0
  H  H39  1  0.40407000  0.57219000  0.26630000  1.0
  H  H40  1  0.59755000  0.26609000  0.88617000  1.0
  H  H41  1  0.40245000  0.73391000  0.11383000  1.0
  C  C42  1  0.11883000  0.10284000  0.29373000  1.0
  C  C43  1  0.88117000  0.89716000  0.70627000  1.0
  C  C44  1  0.11997000  0.15150000  0.38952000  1.0
  C  C45  1  0.88003000  0.84850000  0.61048000  1.0
  C  C46  1  0.14272000  0.28558000  0.35142000  1.0
  C  C47  1  0.85728000  0.71442000  0.64859000  1.0
  C  C48  1  0.16517000  0.36680000  0.21929000  1.0
  C  C49  1  0.83482000  0.63320000  0.78071000  1.0
  C  C50  1  0.16530000  0.31011000  0.12881000  1.0
  C  C51  1  0.83469000  0.68989000  0.87119000  1.0
  C  C52  1  0.18954000  0.38227000  0.98716000  1.0
  C  C53  1  0.81046000  0.61773000  0.01284000  1.0
  C  C54  1  0.21559000  0.51663000  0.92549000  1.0
  C  C55  1  0.78441000  0.48337000  0.07451000  1.0
  C  C56  1  0.23193000  0.57671000  0.78900000  1.0
  C  C57  1  0.76807000  0.42329000  0.21100000  1.0
  C  C58  1  0.22192000  0.50138000  0.71765000  1.0
  C  C59  1  0.77808000  0.49862000  0.28235000  1.0
  C  C60  1  0.19871000  0.36614000  0.78569000  1.0
  C  C61  1  0.80129000  0.63386000  0.21431000  1.0
  C  C62  1  0.42696000  0.94476000  0.75472000  1.0
  C  C63  1  0.57304000  0.05525000  0.24528000  1.0
  C  C64  1  0.47849000  0.07394000  0.68892000  1.0
  C  C65  1  0.52151000  0.92607000  0.31108000  1.0
  C  C66  1  0.47505000  0.14460000  0.54780000  1.0
  C  C67  1  0.52495000  0.85541000  0.45219000  1.0
  C  C68  1  0.52591000  0.26202000  0.48550000  1.0
  C  C69  1  0.47410000  0.73798000  0.51451000  1.0
  C  C70  1  0.57814000  0.31225000  0.56321000  1.0
  C  C71  1  0.42186000  0.68776000  0.43679000  1.0
  C  C72  1  0.57697000  0.24773000  0.70374000  1.0
  C  C73  1  0.42303000  0.75228000  0.29626000  1.0
  C  C74  1  0.52814000  0.12782000  0.76565000  1.0
  C  C75  1  0.47186000  0.87218000  0.23435000  1.0
  C  C76  1  0.63385000  0.30223000  0.78697000  1.0
  C  C77  1  0.36616000  0.69777000  0.21303000  1.0
  N  N78  1  0.14146000  0.18057000  0.16717000  1.0
  N  N79  1  0.85854000  0.81943000  0.83283000  1.0
  N  N80  1  0.18349000  0.30856000  0.91704000  1.0
  N  N81  1  0.81651000  0.69144000  0.08296000  1.0
  O  O82  1  0.88338000  0.25458000  0.93533000  1.0
  O  O83  1  0.11662000  0.74541000  0.06467000  1.0
  O  O84  1  0.89991000  0.05514000  0.85824000  1.0
  O  O85  1  0.10009000  0.94486000  0.14176000  1.0
  O  O86  1  0.26134000  0.02047000  0.92265000  1.0
  O  O87  1  0.73865000  0.97954000  0.07734000  1.0
  O  O88  1  0.13475000  0.14389000  0.67104000  1.0
  O  O89  1  0.86525000  0.85611000  0.32896000  1.0
  O  O90  1  0.20544000  0.85570000  0.83690000  1.0
  O  O91  1  0.79457000  0.14430000  0.16309000  1.0
  O  O92  1  0.88560000  0.31531000  0.68669000  1.0
  O  O93  1  0.11441000  0.68469000  0.31331000  1.0
