# generated using pymatgen
data_ZnH18C23NO6
_symmetry_space_group_name_H-M   'P 1'
_cell_length_a   12.83530000
_cell_length_b   18.93000000
_cell_length_c   18.92800000
_cell_angle_alpha   115.04300000
_cell_angle_beta   103.05700000
_cell_angle_gamma   103.06300000
_symmetry_Int_Tables_number   1
_chemical_formula_structural   ZnH18C23NO6
_chemical_formula_sum   'Zn6 H108 C138 N6 O36'
_cell_volume   3779.74108151
_cell_formula_units_Z   6
loop_
 _symmetry_equiv_pos_site_id
 _symmetry_equiv_pos_as_xyz
  1  'x, y, z'
loop_
 _atom_site_type_symbol
 _atom_site_label
 _atom_site_symmetry_multiplicity
 _atom_site_fract_x
 _atom_site_fract_y
 _atom_site_fract_z
 _atom_site_occupancy
  Zn  Zn0  1  0.82108000  0.72317000  0.32499000  1.0
  Zn  Zn1  1  0.49612000  0.67500000  0.39815000  1.0
  Zn  Zn2  1  0.09792000  0.60188000  0.27680000  1.0
  Zn  Zn3  1  0.17891000  0.27683000  0.67501000  1.0
  Zn  Zn4  1  0.50388000  0.32500000  0.60185000  1.0
  Zn  Zn5  1  0.90208000  0.39812000  0.72320000  1.0
  H  H6  1  0.01489000  0.86160000  0.34408000  1.0
  H  H7  1  0.22939000  0.84285000  0.30416000  1.0
  H  H8  1  0.17574000  0.15015000  0.41695000  1.0
  H  H9  1  0.35372000  0.19326000  0.39004000  1.0
  H  H10  1  0.44257000  0.08890000  0.32885000  1.0
  H  H11  1  0.35150000  0.94165000  0.29479000  1.0
  H  H12  1  0.88509000  0.01963000  0.48928000  1.0
  H  H13  1  0.73426000  0.93022000  0.30233000  1.0
  H  H14  1  0.60804000  0.14990000  0.30128000  1.0
  H  H15  1  0.75426000  0.28041000  0.42371000  1.0
  H  H16  1  0.91766000  0.27403000  0.52071000  1.0
  H  H17  1  0.93145000  0.13785000  0.49196000  1.0
  H  H18  1  0.81562000  0.58469000  0.17074000  1.0
  H  H19  1  0.68296000  0.48741000  0.02482000  1.0
  H  H20  1  0.42610000  0.58788000  0.09319000  1.0
  H  H21  1  0.56969000  0.68003000  0.23551000  1.0
  H  H22  1  0.06975000  0.04862000  0.44022000  1.0
  H  H23  1  0.54368000  0.00847000  0.23278000  1.0
  H  H24  1  0.67080000  0.65572000  0.51738000  1.0
  H  H25  1  0.92525000  0.69582000  0.53859000  1.0
  H  H26  1  0.75870000  0.58294000  0.73304000  1.0
  H  H27  1  0.96358000  0.61004000  0.80328000  1.0
  H  H28  1  0.11371000  0.67133000  0.76023000  1.0
  H  H29  1  0.05677000  0.70522000  0.64687000  1.0
  H  H30  1  0.39542000  0.51055000  0.53021000  1.0
  H  H31  1  0.43188000  0.69754000  0.62783000  1.0
  H  H32  1  0.30705000  0.69870000  0.84879000  1.0
  H  H33  1  0.33099000  0.57629000  0.85688000  1.0
  H  H34  1  0.39710000  0.47919000  0.75331000  1.0
  H  H35  1  0.43930000  0.50788000  0.64576000  1.0
  H  H36  1  0.64499000  0.82932000  0.41398000  1.0
  H  H37  1  0.65820000  0.97523000  0.46264000  1.0
  H  H38  1  0.33298000  0.90682000  0.49477000  1.0
  H  H39  1  0.33426000  0.76447000  0.44449000  1.0
  H  H40  1  0.62951000  0.55982000  0.60832000  1.0
  H  H41  1  0.31092000  0.76713000  0.77580000  1.0
  H  H42  1  0.15340000  0.48272000  0.13835000  1.0
  H  H43  1  0.38664000  0.46155000  0.15722000  1.0
  H  H44  1  0.02570000  0.26707000  0.84993000  1.0
  H  H45  1  0.16040000  0.19684000  0.80686000  1.0
  H  H46  1  0.35347000  0.23985000  0.91123000  1.0
  H  H47  1  0.40985000  0.35321000  0.05843000  1.0
  H  H48  1  0.86529000  0.46970000  0.98032000  1.0
  H  H49  1  0.80426000  0.37201000  0.06967000  1.0
  H  H50  1  0.45804000  0.15147000  0.85007000  1.0
  H  H51  1  0.47386000  0.14331000  0.71953000  1.0
  H  H52  1  0.64368000  0.24662000  0.72586000  1.0
  H  H53  1  0.79368000  0.35400000  0.86204000  1.0
  H  H54  1  0.23098000  0.58608000  0.41533000  1.0
  H  H55  1  0.19548000  0.53731000  0.51252000  1.0
  H  H56  1  0.83829000  0.50561000  0.41229000  1.0
  H  H57  1  0.88981000  0.55578000  0.32014000  1.0
  H  H58  1  0.02114000  0.39174000  0.95150000  1.0
  H  H59  1  0.53512000  0.22440000  0.99147000  1.0
  H  H60  1  0.98511000  0.13840000  0.65592000  1.0
  H  H61  1  0.77061000  0.15715000  0.69584000  1.0
  H  H62  1  0.82426000  0.84985000  0.58305000  1.0
  H  H63  1  0.64628000  0.80674000  0.60996000  1.0
  H  H64  1  0.55743000  0.91110000  0.67115000  1.0
  H  H65  1  0.64850000  0.05835000  0.70520000  1.0
  H  H66  1  0.11491000  0.98037000  0.51072000  1.0
  H  H67  1  0.26574000  0.06978000  0.69767000  1.0
  H  H68  1  0.39196000  0.85010000  0.69873000  1.0
  H  H69  1  0.24575000  0.71959000  0.57629000  1.0
  H  H70  1  0.08235000  0.72597000  0.47929000  1.0
  H  H71  1  0.06855000  0.86215000  0.50804000  1.0
  H  H72  1  0.18437000  0.41531000  0.82926000  1.0
  H  H73  1  0.31703000  0.51259000  0.97518000  1.0
  H  H74  1  0.57390000  0.41212000  0.90681000  1.0
  H  H75  1  0.43030000  0.31997000  0.76449000  1.0
  H  H76  1  0.93025000  0.95138000  0.55978000  1.0
  H  H77  1  0.45632000  0.99153000  0.76722000  1.0
  H  H78  1  0.32920000  0.34428000  0.48262000  1.0
  H  H79  1  0.07475000  0.30418000  0.46140000  1.0
  H  H80  1  0.24130000  0.41706000  0.26696000  1.0
  H  H81  1  0.03642000  0.38996000  0.19672000  1.0
  H  H82  1  0.88629000  0.32867000  0.23977000  1.0
  H  H83  1  0.94323000  0.29478000  0.35313000  1.0
  H  H84  1  0.60458000  0.48945000  0.46979000  1.0
  H  H85  1  0.56812000  0.30246000  0.37217000  1.0
  H  H86  1  0.69295000  0.30130000  0.15121000  1.0
  H  H87  1  0.66901000  0.42371000  0.14312000  1.0
  H  H88  1  0.60291000  0.52081000  0.24669000  1.0
  H  H89  1  0.56070000  0.49212000  0.35424000  1.0
  H  H90  1  0.35501000  0.17068000  0.58602000  1.0
  H  H91  1  0.34180000  0.02477000  0.53736000  1.0
  H  H92  1  0.66702000  0.09318000  0.50523000  1.0
  H  H93  1  0.66574000  0.23553000  0.55551000  1.0
  H  H94  1  0.37049000  0.44018000  0.39168000  1.0
  H  H95  1  0.68908000  0.23288000  0.22420000  1.0
  H  H96  1  0.84660000  0.51728000  0.86165000  1.0
  H  H97  1  0.61335000  0.53845000  0.84278000  1.0
  H  H98  1  0.97429000  0.73293000  0.15007000  1.0
  H  H99  1  0.83959000  0.80316000  0.19314000  1.0
  H  H100  1  0.64653000  0.76015000  0.08877000  1.0
  H  H101  1  0.59015000  0.64679000  0.94157000  1.0
  H  H102  1  0.13471000  0.53030000  0.01968000  1.0
  H  H103  1  0.19574000  0.62799000  0.93033000  1.0
  H  H104  1  0.54196000  0.84853000  0.14993000  1.0
  H  H105  1  0.52614000  0.85670000  0.28047000  1.0
  H  H106  1  0.35632000  0.75338000  0.27414000  1.0
  H  H107  1  0.20632000  0.64600000  0.13796000  1.0
  H  H108  1  0.76901000  0.41392000  0.58467000  1.0
  H  H109  1  0.80453000  0.46269000  0.48748000  1.0
  H  H110  1  0.16171000  0.49439000  0.58770000  1.0
  H  H111  1  0.11019000  0.44422000  0.67986000  1.0
  H  H112  1  0.97886000  0.60826000  0.04850000  1.0
  H  H113  1  0.46489000  0.77560000  0.00853000  1.0
  C  C114  1  0.05917000  0.74979000  0.31509000  1.0
  C  C115  1  0.07915000  0.83507000  0.32980000  1.0
  C  C116  1  0.17329000  0.87729000  0.32263000  1.0
  C  C117  1  0.21271000  0.96164000  0.33666000  1.0
  C  C118  1  0.16334000  0.02215000  0.37173000  1.0
  C  C119  1  0.21471000  0.10475000  0.38986000  1.0
  C  C120  1  0.31384000  0.12845000  0.37412000  1.0
  C  C121  1  0.36341000  0.06966000  0.33927000  1.0
  C  C122  1  0.31289000  0.98784000  0.32080000  1.0
  C  C123  1  0.84835000  0.88791000  0.40726000  1.0
  C  C124  1  0.83972000  0.96936000  0.42452000  1.0
  C  C125  1  0.78136000  0.98316000  0.36585000  1.0
  C  C126  1  0.77550000  0.06433000  0.38231000  1.0
  C  C127  1  0.68519000  0.06969000  0.32845000  1.0
  C  C128  1  0.67808000  0.14703000  0.34383000  1.0
  C  C129  1  0.76078000  0.22063000  0.41304000  1.0
  C  C130  1  0.85136000  0.21711000  0.46706000  1.0
  C  C131  1  0.85837000  0.13997000  0.45144000  1.0
  C  C132  1  0.72811000  0.58280000  0.15026000  1.0
  C  C133  1  0.65246000  0.52850000  0.06841000  1.0
  C  C134  1  0.54072000  0.52818000  0.04375000  1.0
  C  C135  1  0.51087000  0.58384000  0.10586000  1.0
  C  C136  1  0.59124000  0.63651000  0.18665000  1.0
  C  C137  1  0.74406000  0.68482000  0.43460000  1.0
  C  C138  1  0.74935000  0.67011000  0.50517000  1.0
  C  C139  1  0.85070000  0.67732000  0.55457000  1.0
  C  C140  1  0.87608000  0.66327000  0.62488000  1.0
  C  C141  1  0.79163000  0.62822000  0.65031000  1.0
  C  C142  1  0.82480000  0.61009000  0.71478000  1.0
  C  C143  1  0.93968000  0.62593000  0.75435000  1.0
  C  C144  1  0.02414000  0.66081000  0.73045000  1.0
  C  C145  1  0.99210000  0.67921000  0.66703000  1.0
  C  C146  1  0.44092000  0.59260000  0.48056000  1.0
  C  C147  1  0.41499000  0.57533000  0.54475000  1.0
  C  C148  1  0.41537000  0.63400000  0.61723000  1.0
  C  C149  1  0.39312000  0.61758000  0.68200000  1.0
  C  C150  1  0.35677000  0.67147000  0.74128000  1.0
  C  C151  1  0.33445000  0.65612000  0.80331000  1.0
  C  C152  1  0.34800000  0.58691000  0.80769000  1.0
  C  C153  1  0.38444000  0.53285000  0.75008000  1.0
  C  C154  1  0.40683000  0.54843000  0.68847000  1.0
  C  C155  1  0.57793000  0.84978000  0.43255000  1.0
  C  C156  1  0.58414000  0.93163000  0.46014000  1.0
  C  C157  1  0.49699000  0.95625000  0.48445000  1.0
  C  C158  1  0.40506000  0.89414000  0.47801000  1.0
  C  C159  1  0.40467000  0.81335000  0.44986000  1.0
  C  C160  1  0.30941000  0.56549000  0.25023000  1.0
  C  C161  1  0.24416000  0.49496000  0.16494000  1.0
  C  C162  1  0.29612000  0.44558000  0.12276000  1.0
  C  C163  1  0.25117000  0.37525000  0.03842000  1.0
  C  C164  1  0.14129000  0.34980000  0.97793000  1.0
  C  C165  1  0.11004000  0.28532000  0.89533000  1.0
  C  C166  1  0.18537000  0.24577000  0.87166000  1.0
  C  C167  1  0.29369000  0.26967000  0.93046000  1.0
  C  C168  1  0.32506000  0.33309000  0.01225000  1.0
  C  C169  1  0.96044000  0.51929000  0.11200000  1.0
  C  C170  1  0.87032000  0.45514000  0.03055000  1.0
  C  C171  1  0.79827000  0.38264000  0.01674000  1.0
  C  C172  1  0.71119000  0.31796000  0.93559000  1.0
  C  C173  1  0.61544000  0.25881000  0.93026000  1.0
  C  C174  1  0.53096000  0.19687000  0.85292000  1.0
  C  C175  1  0.54013000  0.19244000  0.77931000  1.0
  C  C176  1  0.63426000  0.24991000  0.78279000  1.0
  C  C177  1  0.71840000  0.31142000  0.85992000  1.0
  C  C178  1  0.14537000  0.56749000  0.41721000  1.0
  C  C179  1  0.12395000  0.53987000  0.47146000  1.0
  C  C180  1  0.01252000  0.51559000  0.47182000  1.0
  C  C181  1  0.92708000  0.52220000  0.41626000  1.0
  C  C182  1  0.95482000  0.55033000  0.36360000  1.0
  C  C183  1  0.94083000  0.25021000  0.68492000  1.0
  C  C184  1  0.92085000  0.16494000  0.67020000  1.0
  C  C185  1  0.82671000  0.12271000  0.67737000  1.0
  C  C186  1  0.78730000  0.03836000  0.66334000  1.0
  C  C187  1  0.83666000  0.97785000  0.62828000  1.0
  C  C188  1  0.78530000  0.89525000  0.61014000  1.0
  C  C189  1  0.68617000  0.87155000  0.62589000  1.0
  C  C190  1  0.63659000  0.93034000  0.66073000  1.0
  C  C191  1  0.68711000  0.01216000  0.67920000  1.0
  C  C192  1  0.15166000  0.11209000  0.59274000  1.0
  C  C193  1  0.16028000  0.03064000  0.57548000  1.0
  C  C194  1  0.21865000  0.01684000  0.63415000  1.0
  C  C195  1  0.22450000  0.93567000  0.61769000  1.0
  C  C196  1  0.31481000  0.93031000  0.67155000  1.0
  C  C197  1  0.32193000  0.85297000  0.65617000  1.0
  C  C198  1  0.23923000  0.77937000  0.58696000  1.0
  C  C199  1  0.14864000  0.78289000  0.53294000  1.0
  C  C200  1  0.14164000  0.86003000  0.54856000  1.0
  C  C201  1  0.27189000  0.41720000  0.84973000  1.0
  C  C202  1  0.34754000  0.47151000  0.93159000  1.0
  C  C203  1  0.45928000  0.47182000  0.95625000  1.0
  C  C204  1  0.48913000  0.41616000  0.89414000  1.0
  C  C205  1  0.40876000  0.36350000  0.81335000  1.0
  C  C206  1  0.25594000  0.31517000  0.56539000  1.0
  C  C207  1  0.25065000  0.32989000  0.49483000  1.0
  C  C208  1  0.14930000  0.32268000  0.44543000  1.0
  C  C209  1  0.12392000  0.33672000  0.37512000  1.0
  C  C210  1  0.20837000  0.37178000  0.34969000  1.0
  C  C211  1  0.17519000  0.38991000  0.28522000  1.0
  C  C212  1  0.06033000  0.37407000  0.24566000  1.0
  C  C213  1  0.97586000  0.33919000  0.26955000  1.0
  C  C214  1  0.00790000  0.32079000  0.33297000  1.0
  C  C215  1  0.55908000  0.40740000  0.51944000  1.0
  C  C216  1  0.58501000  0.42467000  0.45525000  1.0
  C  C217  1  0.58463000  0.36600000  0.38277000  1.0
  C  C218  1  0.60688000  0.38242000  0.31801000  1.0
  C  C219  1  0.64323000  0.32853000  0.25872000  1.0
  C  C220  1  0.66556000  0.34388000  0.19669000  1.0
  C  C221  1  0.65200000  0.41309000  0.19231000  1.0
  C  C222  1  0.61556000  0.46715000  0.24992000  1.0
  C  C223  1  0.59317000  0.45157000  0.31153000  1.0
  C  C224  1  0.42207000  0.15022000  0.56744000  1.0
  C  C225  1  0.41586000  0.06837000  0.53986000  1.0
  C  C226  1  0.50301000  0.04375000  0.51555000  1.0
  C  C227  1  0.59494000  0.10586000  0.52199000  1.0
  C  C228  1  0.59533000  0.18665000  0.55014000  1.0
  C  C229  1  0.69058000  0.43451000  0.74977000  1.0
  C  C230  1  0.75583000  0.50504000  0.83506000  1.0
  C  C231  1  0.70388000  0.55442000  0.87724000  1.0
  C  C232  1  0.74883000  0.62475000  0.96158000  1.0
  C  C233  1  0.85871000  0.65020000  0.02207000  1.0
  C  C234  1  0.88996000  0.71468000  0.10467000  1.0
  C  C235  1  0.81462000  0.75423000  0.12834000  1.0
  C  C236  1  0.70631000  0.73033000  0.06954000  1.0
  C  C237  1  0.67494000  0.66691000  0.98775000  1.0
  C  C238  1  0.03955000  0.48071000  0.88800000  1.0
  C  C239  1  0.12968000  0.54486000  0.96945000  1.0
  C  C240  1  0.20173000  0.61736000  0.98326000  1.0
  C  C241  1  0.28881000  0.68204000  0.06441000  1.0
  C  C242  1  0.38456000  0.74119000  0.06974000  1.0
  C  C243  1  0.46904000  0.80313000  0.14708000  1.0
  C  C244  1  0.45987000  0.80756000  0.22069000  1.0
  C  C245  1  0.36574000  0.75009000  0.21721000  1.0
  C  C246  1  0.28160000  0.68858000  0.14008000  1.0
  C  C247  1  0.85464000  0.43251000  0.58279000  1.0
  C  C248  1  0.87605000  0.46013000  0.52853000  1.0
  C  C249  1  0.98748000  0.48441000  0.52818000  1.0
  C  C250  1  0.07292000  0.47780000  0.58374000  1.0
  C  C251  1  0.04518000  0.44967000  0.63640000  1.0
  N  N252  1  0.69858000  0.63642000  0.20886000  1.0
  N  N253  1  0.48980000  0.79115000  0.42755000  1.0
  N  N254  1  0.06225000  0.57256000  0.36364000  1.0
  N  N255  1  0.30141000  0.36358000  0.79114000  1.0
  N  N256  1  0.51020000  0.20885000  0.57245000  1.0
  N  N257  1  0.93775000  0.42744000  0.63636000  1.0
  O  O258  1  0.14038000  0.72111000  0.31008000  1.0
  O  O259  1  0.96161000  0.70373000  0.30700000  1.0
  O  O260  1  0.79794000  0.82514000  0.33145000  1.0
  O  O261  1  0.90466000  0.88069000  0.46678000  1.0
  O  O262  1  0.06873000  0.99931000  0.38869000  1.0
  O  O263  1  0.60398000  0.99604000  0.26139000  1.0
  O  O264  1  0.83026000  0.68986000  0.41092000  1.0
  O  O265  1  0.65455000  0.69285000  0.39660000  1.0
  O  O266  1  0.46624000  0.66839000  0.49353000  1.0
  O  O267  1  0.43789000  0.53309000  0.41389000  1.0
  O  O268  1  0.68010000  0.61131000  0.61050000  1.0
  O  O269  1  0.34256000  0.73854000  0.73471000  1.0
  O  O270  1  0.41932000  0.58919000  0.27891000  1.0
  O  O271  1  0.25790000  0.60342000  0.29631000  1.0
  O  O272  1  0.97288000  0.50630000  0.17481000  1.0
  O  O273  1  0.02400000  0.58599000  0.11916000  1.0
  O  O274  1  0.06951000  0.38956000  0.00082000  1.0
  O  O275  1  0.60788000  0.26542000  0.00393000  1.0
  O  O276  1  0.85962000  0.27889000  0.68992000  1.0
  O  O277  1  0.03839000  0.29627000  0.69299000  1.0
  O  O278  1  0.20206000  0.17486000  0.66855000  1.0
  O  O279  1  0.09535000  0.11931000  0.53322000  1.0
  O  O280  1  0.93127000  0.00069000  0.61131000  1.0
  O  O281  1  0.39602000  0.00396000  0.73861000  1.0
  O  O282  1  0.16974000  0.31014000  0.58908000  1.0
  O  O283  1  0.34545000  0.30714000  0.60340000  1.0
  O  O284  1  0.53376000  0.33161000  0.50647000  1.0
  O  O285  1  0.56211000  0.46691000  0.58611000  1.0
  O  O286  1  0.31990000  0.38869000  0.38949000  1.0
  O  O287  1  0.65745000  0.26147000  0.26530000  1.0
  O  O288  1  0.58068000  0.41081000  0.72109000  1.0
  O  O289  1  0.74210000  0.39657000  0.70369000  1.0
  O  O290  1  0.02712000  0.49370000  0.82519000  1.0
  O  O291  1  0.97599000  0.41400000  0.88084000  1.0
  O  O292  1  0.93048000  0.61044000  0.99918000  1.0
  O  O293  1  0.39212000  0.73458000  0.99607000  1.0
