# generated using pymatgen
data_ZnH16C22(NO3)2
_symmetry_space_group_name_H-M   'P 1'
_cell_length_a   8.38227000
_cell_length_b   8.38226000
_cell_length_c   14.79790000
_cell_angle_alpha   78.40720000
_cell_angle_beta   78.40720000
_cell_angle_gamma   72.04310000
_symmetry_Int_Tables_number   1
_chemical_formula_structural   ZnH16C22(NO3)2
_chemical_formula_sum   'Zn2 H32 C44 N4 O12'
_cell_volume   958.07248296
_cell_formula_units_Z   2
loop_
 _symmetry_equiv_pos_site_id
 _symmetry_equiv_pos_as_xyz
  1  'x, y, z'
loop_
 _atom_site_type_symbol
 _atom_site_label
 _atom_site_symmetry_multiplicity
 _atom_site_fract_x
 _atom_site_fract_y
 _atom_site_fract_z
 _atom_site_occupancy
  Zn  Zn0  1  0.06766000  0.93234000  0.75000000  1.0
  Zn  Zn1  1  0.93235000  0.06766000  0.25000000  1.0
  H  H2  1  0.76189000  0.75002000  0.45808000  1.0
  H  H3  1  0.24998000  0.23811000  0.04192000  1.0
  H  H4  1  0.23811000  0.24998000  0.54192000  1.0
  H  H5  1  0.75002000  0.76189000  0.95808000  1.0
  H  H6  1  0.02037000  0.79404000  0.48599000  1.0
  H  H7  1  0.20596000  0.97962000  0.01401000  1.0
  H  H8  1  0.97963000  0.20596000  0.51401000  1.0
  H  H9  1  0.79404000  0.02037000  0.98599000  1.0
  H  H10  1  0.28536000  0.78116000  0.46331000  1.0
  H  H11  1  0.21885000  0.71464000  0.03669000  1.0
  H  H12  1  0.71464000  0.21885000  0.53669000  1.0
  H  H13  1  0.78115000  0.28536000  0.96331000  1.0
  H  H14  1  0.45532000  0.67969000  0.52766000  1.0
  H  H15  1  0.32031000  0.54468000  0.97234000  1.0
  H  H16  1  0.54468000  0.32031000  0.47234000  1.0
  H  H17  1  0.67969000  0.45532000  0.02766000  1.0
  H  H18  1  0.20231000  0.18605000  0.82971000  1.0
  H  H19  1  0.81395000  0.79769000  0.67029000  1.0
  H  H20  1  0.79769000  0.81395000  0.17029000  1.0
  H  H21  1  0.18605000  0.20231000  0.32971000  1.0
  H  H22  1  0.08215000  0.49217000  0.85693000  1.0
  H  H23  1  0.50783000  0.91786000  0.64307000  1.0
  H  H24  1  0.91785000  0.50783000  0.14307000  1.0
  H  H25  1  0.49217000  0.08214000  0.35693000  1.0
  H  H26  1  0.78786000  0.64610000  0.82755000  1.0
  H  H27  1  0.35391000  0.21214000  0.67245000  1.0
  H  H28  1  0.21214000  0.35391000  0.17245000  1.0
  H  H29  1  0.64610000  0.78786000  0.32755000  1.0
  H  H30  1  0.51604000  0.64139000  0.77768000  1.0
  H  H31  1  0.35861000  0.48396000  0.72232000  1.0
  H  H32  1  0.48396000  0.35861000  0.22232000  1.0
  H  H33  1  0.64139000  0.51604000  0.27768000  1.0
  C  C34  1  0.86597000  0.63968000  0.47644000  1.0
  C  C35  1  0.36032000  0.13402000  0.02356000  1.0
  C  C36  1  0.13402000  0.36032000  0.52356000  1.0
  C  C37  1  0.63968000  0.86597000  0.97644000  1.0
  C  C38  1  0.01439000  0.66429000  0.49240000  1.0
  C  C39  1  0.33571000  0.98561000  0.00760000  1.0
  C  C40  1  0.98561000  0.33571000  0.50760000  1.0
  C  C41  1  0.66429000  0.01439000  0.99240000  1.0
  C  C42  1  0.14948000  0.52399000  0.51618000  1.0
  C  C43  1  0.47601000  0.85052000  0.98382000  1.0
  C  C44  1  0.85052000  0.47601000  0.48382000  1.0
  C  C45  1  0.52399000  0.14948000  0.01618000  1.0
  C  C46  1  0.31940000  0.69906000  0.52850000  1.0
  C  C47  1  0.30094000  0.68059000  0.97151000  1.0
  C  C48  1  0.68060000  0.30094000  0.47150000  1.0
  C  C49  1  0.69905000  0.31941000  0.02850000  1.0
  C  C50  1  0.21991000  0.78947000  0.61035000  1.0
  C  C51  1  0.21053000  0.78009000  0.88965000  1.0
  C  C52  1  0.78009000  0.21052000  0.38965000  1.0
  C  C53  1  0.78947000  0.21991000  0.11035000  1.0
  C  C54  1  0.07597000  0.26078000  0.81496000  1.0
  C  C55  1  0.73922000  0.92403000  0.68504000  1.0
  C  C56  1  0.92403000  0.73922000  0.18504000  1.0
  C  C57  1  0.26078000  0.07597000  0.31496000  1.0
  C  C58  1  0.00805000  0.42992000  0.83087000  1.0
  C  C59  1  0.57008000  0.99195000  0.66913000  1.0
  C  C60  1  0.99195000  0.57008000  0.16914000  1.0
  C  C61  1  0.42992000  0.00805000  0.33087000  1.0
  C  C62  1  0.84489000  0.51607000  0.81379000  1.0
  C  C63  1  0.48393000  0.15511000  0.68621000  1.0
  C  C64  1  0.15511000  0.48393000  0.18621000  1.0
  C  C65  1  0.51607000  0.84489000  0.31379000  1.0
  C  C66  1  0.57696000  0.51096000  0.76482000  1.0
  C  C67  1  0.48904000  0.42305000  0.73517000  1.0
  C  C68  1  0.42305000  0.48904000  0.23518000  1.0
  C  C69  1  0.51097000  0.57696000  0.26482000  1.0
  C  C70  1  0.74869000  0.43350000  0.78123000  1.0
  C  C71  1  0.56650000  0.25131000  0.71877000  1.0
  C  C72  1  0.25131000  0.56650000  0.21877000  1.0
  C  C73  1  0.43350000  0.74869000  0.28123000  1.0
  C  C74  1  0.82849000  0.26335000  0.76614000  1.0
  C  C75  1  0.73665000  0.17151000  0.73386000  1.0
  C  C76  1  0.17151000  0.73665000  0.23386000  1.0
  C  C77  1  0.26335000  0.82849000  0.26614000  1.0
  N  N78  1  0.98926000  0.18105000  0.78229000  1.0
  N  N79  1  0.81894000  0.01074000  0.71771000  1.0
  N  N80  1  0.01074000  0.81895000  0.21771000  1.0
  N  N81  1  0.18106000  0.98926000  0.28229000  1.0
  O  O82  1  0.21904000  0.94300000  0.60694000  1.0
  O  O83  1  0.05700000  0.78096000  0.89306000  1.0
  O  O84  1  0.78096000  0.05700000  0.39306000  1.0
  O  O85  1  0.94299000  0.21904000  0.10694000  1.0
  O  O86  1  0.14413000  0.71092000  0.67997000  1.0
  O  O87  1  0.28908000  0.85586000  0.82003000  1.0
  O  O88  1  0.85587000  0.28907000  0.32003000  1.0
  O  O89  1  0.71092000  0.14414000  0.17997000  1.0
  O  O90  1  0.30166000  0.53437000  0.53275000  1.0
  O  O91  1  0.46563000  0.69834000  0.96725000  1.0
  O  O92  1  0.69834000  0.46563000  0.46725000  1.0
  O  O93  1  0.53437000  0.30166000  0.03275000  1.0
