# generated using pymatgen
data_LaH6C11(NO4)2
_symmetry_space_group_name_H-M   'P 1'
_cell_length_a   7.84241000
_cell_length_b   8.91730000
_cell_length_c   10.62470000
_cell_angle_alpha   67.41250000
_cell_angle_beta   85.44290000
_cell_angle_gamma   80.10580000
_symmetry_Int_Tables_number   1
_chemical_formula_structural   LaH6C11(NO4)2
_chemical_formula_sum   'La2 H12 C22 N4 O16'
_cell_volume   675.74713414
_cell_formula_units_Z   2
loop_
 _symmetry_equiv_pos_site_id
 _symmetry_equiv_pos_as_xyz
  1  'x, y, z'
loop_
 _atom_site_type_symbol
 _atom_site_label
 _atom_site_symmetry_multiplicity
 _atom_site_fract_x
 _atom_site_fract_y
 _atom_site_fract_z
 _atom_site_occupancy
  La  La0  1  0.19561000  0.81096000  0.47072000  1.0
  La  La1  1  0.80438000  0.18904000  0.52928000  1.0
  H  H2  1  0.88671000  0.43542000  0.22231000  1.0
  H  H3  1  0.11329000  0.56459000  0.77768000  1.0
  H  H4  1  0.75542000  0.29271000  0.82692000  1.0
  H  H5  1  0.24458000  0.70729000  0.17309000  1.0
  H  H6  1  0.93482000  0.08908000  0.02237000  1.0
  H  H7  1  0.06518000  0.91093000  0.97763000  1.0
  H  H8  1  0.52566000  0.85514000  0.83047000  1.0
  H  H9  1  0.47434000  0.14486000  0.16953000  1.0
  H  H10  1  0.56279000  0.62210000  0.73921000  1.0
  H  H11  1  0.43720000  0.37790000  0.26080000  1.0
  H  H12  1  0.68170000  0.74113000  0.05969000  1.0
  H  H13  1  0.31830000  0.25888000  0.94030000  1.0
  C  C14  1  0.02902000  0.11898000  0.24452000  1.0
  C  C15  1  0.97098000  0.88103000  0.75548000  1.0
  C  C16  1  0.92073000  0.24882000  0.13248000  1.0
  C  C17  1  0.07928000  0.75118000  0.86751000  1.0
  C  C18  1  0.85880000  0.40259000  0.13809000  1.0
  C  C19  1  0.14121000  0.59741000  0.86191000  1.0
  C  C20  1  0.75851000  0.51412000  0.02922000  1.0
  C  C21  1  0.24150000  0.48589000  0.97078000  1.0
  C  C22  1  0.72069000  0.47549000  0.91848000  1.0
  C  C23  1  0.27930000  0.52451000  0.08152000  1.0
  C  C24  1  0.78355000  0.32181000  0.91264000  1.0
  C  C25  1  0.21644000  0.67819000  0.08736000  1.0
  C  C26  1  0.88346000  0.21082000  0.02113000  1.0
  C  C27  1  0.11654000  0.78919000  0.97887000  1.0
  C  C28  1  0.59493000  0.73144000  0.88152000  1.0
  C  C29  1  0.40507000  0.26856000  0.11848000  1.0
  C  C30  1  0.53496000  0.00740000  0.42745000  1.0
  C  C31  1  0.46506000  0.99260000  0.57254000  1.0
  C  C32  1  0.53026000  0.49672000  0.56912000  1.0
  C  C33  1  0.46976000  0.50324000  0.43089000  1.0
  C  C34  1  0.05320000  0.44279000  0.56450000  1.0
  C  C35  1  0.94678000  0.55719000  0.43551000  1.0
  N  N36  1  0.61860000  0.61404000  0.82998000  1.0
  N  N37  1  0.38140000  0.38595000  0.17002000  1.0
  N  N38  1  0.67727000  0.67502000  0.00091000  1.0
  N  N39  1  0.32274000  0.32499000  0.99908000  1.0
  O  O40  1  0.11928000  0.00003000  0.22138000  1.0
  O  O41  1  0.88072000  0.99996000  0.77862000  1.0
  O  O42  1  0.02806000  0.13059000  0.36223000  1.0
  O  O43  1  0.97195000  0.86942000  0.63777000  1.0
  O  O44  1  0.44791000  0.95717000  0.36004000  1.0
  O  O45  1  0.55208000  0.04283000  0.63995000  1.0
  O  O46  1  0.67094000  0.07128000  0.38575000  1.0
  O  O47  1  0.32906000  0.92871000  0.61425000  1.0
  O  O48  1  0.47309000  0.61985000  0.60149000  1.0
  O  O49  1  0.52690000  0.38014000  0.39851000  1.0
  O  O50  1  0.63193000  0.37138000  0.63883000  1.0
  O  O51  1  0.36804000  0.62861000  0.36118000  1.0
  O  O52  1  0.14876000  0.51110000  0.61044000  1.0
  O  O53  1  0.85125000  0.48892000  0.38956000  1.0
  O  O54  1  0.03669000  0.29266000  0.61285000  1.0
  O  O55  1  0.96332000  0.70736000  0.38715000  1.0
