# generated using pymatgen
data_Cu2H12C15(IN2)2
_symmetry_space_group_name_H-M   'P 1'
_cell_length_a   11.13910000
_cell_length_b   12.01012466
_cell_length_c   18.26837899
_cell_angle_alpha   79.81500059
_cell_angle_beta   72.25548326
_cell_angle_gamma   62.38463861
_symmetry_Int_Tables_number   1
_chemical_formula_structural   Cu2H12C15(IN2)2
_chemical_formula_sum   'Cu8 H48 C60 I8 N16'
_cell_volume   2060.70226435
_cell_formula_units_Z   4
loop_
 _symmetry_equiv_pos_site_id
 _symmetry_equiv_pos_as_xyz
  1  'x, y, z'
loop_
 _atom_site_type_symbol
 _atom_site_label
 _atom_site_symmetry_multiplicity
 _atom_site_fract_x
 _atom_site_fract_y
 _atom_site_fract_z
 _atom_site_occupancy
  Cu  Cu0  1  0.60663000  0.86765000  0.26783000  1.0
  Cu  Cu1  1  0.74192000  0.63221000  0.23204000  1.0
  Cu  Cu2  1  0.39336000  0.13235000  0.73217000  1.0
  Cu  Cu3  1  0.25808000  0.36779000  0.76796000  1.0
  Cu  Cu4  1  0.81423000  0.71732000  0.32286000  1.0
  Cu  Cu5  1  0.85460000  0.78231000  0.17705000  1.0
  Cu  Cu6  1  0.18578000  0.28268000  0.67714000  1.0
  Cu  Cu7  1  0.14540000  0.21769000  0.82295000  1.0
  H  H8  1  0.33215000  0.85039000  0.27359000  1.0
  H  H9  1  0.45553000  0.64921000  0.22669000  1.0
  H  H10  1  0.66785000  0.14961000  0.72641000  1.0
  H  H11  1  0.54447000  0.35079000  0.77331000  1.0
  H  H12  1  0.07544000  0.92138000  0.28488000  1.0
  H  H13  1  0.28121000  0.57817000  0.21523000  1.0
  H  H14  1  0.92455000  0.07863000  0.71512000  1.0
  H  H15  1  0.71879000  0.42183000  0.78477000  1.0
  H  H16  1  0.90396000  0.13919000  0.31383000  1.0
  H  H17  1  0.35657000  0.36042000  0.18607000  1.0
  H  H18  1  0.09604000  0.86081000  0.68617000  1.0
  H  H19  1  0.64343000  0.63958000  0.81393000  1.0
  H  H20  1  0.97411000  0.29482000  0.33846000  1.0
  H  H21  1  0.60694000  0.20490000  0.16139000  1.0
  H  H22  1  0.02590000  0.70518000  0.66154000  1.0
  H  H23  1  0.39307000  0.79510000  0.83860000  1.0
  H  H24  1  0.48711000  0.14634000  0.32988000  1.0
  H  H25  1  0.96269000  0.35379000  0.16994000  1.0
  H  H26  1  0.51289000  0.85366000  0.67012000  1.0
  H  H27  1  0.03731000  0.64621000  0.83006000  1.0
  H  H28  1  0.29669000  0.36119000  0.36022000  1.0
  H  H29  1  0.01764000  0.13888000  0.13996000  1.0
  H  H30  1  0.70330000  0.63881000  0.63978000  1.0
  H  H31  1  0.98237000  0.86112000  0.86003000  1.0
  H  H32  1  0.13227000  0.40657000  0.34191000  1.0
  H  H33  1  0.88053000  0.09323000  0.15802000  1.0
  H  H34  1  0.86774000  0.59342000  0.65809000  1.0
  H  H35  1  0.11947000  0.90677000  0.84198000  1.0
  H  H36  1  0.88656000  0.44359000  0.40279000  1.0
  H  H37  1  0.73321000  0.05614000  0.09707000  1.0
  H  H38  1  0.11343000  0.55641000  0.59722000  1.0
  H  H39  1  0.26679000  0.94385000  0.90293000  1.0
  H  H40  1  0.66624000  0.46338000  0.49785000  1.0
  H  H41  1  0.62741000  0.03675000  0.00201000  1.0
  H  H42  1  0.33377000  0.53661000  0.50215000  1.0
  H  H43  1  0.37259000  0.96325000  0.99799000  1.0
  H  H44  1  0.65789000  0.40272000  0.63522000  1.0
  H  H45  1  0.69561000  0.09778000  0.86467000  1.0
  H  H46  1  0.34212000  0.59727000  0.36478000  1.0
  H  H47  1  0.30439000  0.90222000  0.13533000  1.0
  H  H48  1  0.87415000  0.32610000  0.68302000  1.0
  H  H49  1  0.88305000  0.17441000  0.81696000  1.0
  H  H50  1  0.12584000  0.67391000  0.31698000  1.0
  H  H51  1  0.11695000  0.82559000  0.18304000  1.0
  H  H52  1  0.32819000  0.27220000  0.49728000  1.0
  H  H53  1  0.09756000  0.22792000  0.00287000  1.0
  H  H54  1  0.67180000  0.72780000  0.50272000  1.0
  H  H55  1  0.90244000  0.77208000  0.99713000  1.0
  C  C56  1  0.29364000  0.03339000  0.30149000  1.0
  C  C57  1  0.62793000  0.46643000  0.19850000  1.0
  C  C58  1  0.70635000  0.96661000  0.69852000  1.0
  C  C59  1  0.37207000  0.53357000  0.80150000  1.0
  C  C60  1  0.25398000  0.94631000  0.28713000  1.0
  C  C61  1  0.48683000  0.55336000  0.21298000  1.0
  C  C62  1  0.74602000  0.05369000  0.71287000  1.0
  C  C63  1  0.51317000  0.44664000  0.78702000  1.0
  C  C64  1  0.11258000  0.98661000  0.29309000  1.0
  C  C65  1  0.39177000  0.51300000  0.20695000  1.0
  C  C66  1  0.88742000  0.01339000  0.70691000  1.0
  C  C67  1  0.60823000  0.48700000  0.79305000  1.0
  C  C68  1  0.01363000  0.11132000  0.31049000  1.0
  C  C69  1  0.43500000  0.38830000  0.18944000  1.0
  C  C70  1  0.98637000  0.88868000  0.68951000  1.0
  C  C71  1  0.56501000  0.61170000  0.81055000  1.0
  C  C72  1  0.05166000  0.19902000  0.32510000  1.0
  C  C73  1  0.57535000  0.30069000  0.17478000  1.0
  C  C74  1  0.94834000  0.80098000  0.67490000  1.0
  C  C75  1  0.42466000  0.69931000  0.82521000  1.0
  C  C76  1  0.19269000  0.15696000  0.32231000  1.0
  C  C77  1  0.67146000  0.34285000  0.17758000  1.0
  C  C78  1  0.80731000  0.84304000  0.67769000  1.0
  C  C79  1  0.32855000  0.65715000  0.82241000  1.0
  C  C80  1  0.40479000  0.12672000  0.32370000  1.0
  C  C81  1  0.85459000  0.37328000  0.17620000  1.0
  C  C82  1  0.59522000  0.87327000  0.67630000  1.0
  C  C83  1  0.14541000  0.62672000  0.82380000  1.0
  C  C84  1  0.21088000  0.33468000  0.37064000  1.0
  C  C85  1  0.91589000  0.16522000  0.12937000  1.0
  C  C86  1  0.78912000  0.66532000  0.62936000  1.0
  C  C87  1  0.08412000  0.83478000  0.87062000  1.0
  C  C88  1  0.00719000  0.36141000  0.48921000  1.0
  C  C89  1  0.85793000  0.13850000  0.01072000  1.0
  C  C90  1  0.99280000  0.63860000  0.51079000  1.0
  C  C91  1  0.14207000  0.86150000  0.98928000  1.0
  C  C92  1  0.88676000  0.41132000  0.46242000  1.0
  C  C93  1  0.76065000  0.08855000  0.03745000  1.0
  C  C94  1  0.11324000  0.58869000  0.53758000  1.0
  C  C95  1  0.23935000  0.91145000  0.96254000  1.0
  C  C96  1  0.76232000  0.42486000  0.51683000  1.0
  C  C97  1  0.70400000  0.07522000  0.98305000  1.0
  C  C98  1  0.23769000  0.57514000  0.48317000  1.0
  C  C99  1  0.29599000  0.92479000  0.01695000  1.0
  C  C100  1  0.75753000  0.39207000  0.59526000  1.0
  C  C101  1  0.74477000  0.10820000  0.90464000  1.0
  C  C102  1  0.24248000  0.60793000  0.40474000  1.0
  C  C103  1  0.25524000  0.89180000  0.09535000  1.0
  C  C104  1  0.87655000  0.34841000  0.62234000  1.0
  C  C105  1  0.84722000  0.15187000  0.87762000  1.0
  C  C106  1  0.12346000  0.65158000  0.37766000  1.0
  C  C107  1  0.15278000  0.84813000  0.12238000  1.0
  C  C108  1  0.00195000  0.33479000  0.56851000  1.0
  C  C109  1  0.90525000  0.16535000  0.93147000  1.0
  C  C110  1  0.99804000  0.66522000  0.43149000  1.0
  C  C111  1  0.09474000  0.83466000  0.06853000  1.0
  C  C112  1  0.21749000  0.29615000  0.50910000  1.0
  C  C113  1  0.02267000  0.20396000  0.99100000  1.0
  C  C114  1  0.78250000  0.70385000  0.49091000  1.0
  C  C115  1  0.97733000  0.79604000  0.00900000  1.0
  I  I116  1  0.78766000  0.95576000  0.27623000  1.0
  I  I117  1  0.01958000  0.54387000  0.22367000  1.0
  I  I118  1  0.21233000  0.04425000  0.72377000  1.0
  I  I119  1  0.98042000  0.45613000  0.77633000  1.0
  I  I120  1  0.57313000  0.68492000  0.37361000  1.0
  I  I121  1  0.63200000  0.81497000  0.12622000  1.0
  I  I122  1  0.42687000  0.31508000  0.62639000  1.0
  I  I123  1  0.36801000  0.18503000  0.87378000  1.0
  N  N124  1  0.42532000  0.01898000  0.30141000  1.0
  N  N125  1  0.74509000  0.48096000  0.19853000  1.0
  N  N126  1  0.57468000  0.98102000  0.69859000  1.0
  N  N127  1  0.25492000  0.51904000  0.80146000  1.0
  N  N128  1  0.26716000  0.21383000  0.33698000  1.0
  N  N129  1  0.81744000  0.28608000  0.16295000  1.0
  N  N130  1  0.73282000  0.78617000  0.66303000  1.0
  N  N131  1  0.18256000  0.71392000  0.83705000  1.0
  N  N132  1  0.14739000  0.33302000  0.45277000  1.0
  N  N133  1  0.93325000  0.16681000  0.04724000  1.0
  N  N134  1  0.85261000  0.66698000  0.54723000  1.0
  N  N135  1  0.06675000  0.83319000  0.95276000  1.0
  N  N136  1  0.13471000  0.29764000  0.57879000  1.0
  N  N137  1  0.01103000  0.20260000  0.92128000  1.0
  N  N138  1  0.86529000  0.70236000  0.42121000  1.0
  N  N139  1  0.98896000  0.79740000  0.07872000  1.0
