# generated using pymatgen
data_Co5H68C106N8O19
_symmetry_space_group_name_H-M   'P 1'
_cell_length_a   16.14710000
_cell_length_b   16.20380000
_cell_length_c   29.35593409
_cell_angle_alpha   74.84766691
_cell_angle_beta   87.51717315
_cell_angle_gamma   116.63190000
_symmetry_Int_Tables_number   1
_chemical_formula_structural   Co5H68C106N8O19
_chemical_formula_sum   'Co10 H136 C212 N16 O38'
_cell_volume   6511.56918712
_cell_formula_units_Z   2
loop_
 _symmetry_equiv_pos_site_id
 _symmetry_equiv_pos_as_xyz
  1  'x, y, z'
loop_
 _atom_site_type_symbol
 _atom_site_label
 _atom_site_symmetry_multiplicity
 _atom_site_fract_x
 _atom_site_fract_y
 _atom_site_fract_z
 _atom_site_occupancy
  Co  Co0  1  0.12835000  0.69183000  0.51640000  1.0
  Co  Co1  1  0.81787000  0.36766000  0.57893000  1.0
  Co  Co2  1  0.20746000  0.14267000  0.98861000  1.0
  Co  Co3  1  0.94700000  0.89623000  0.92097000  1.0
  Co  Co4  1  0.86897000  0.30602000  0.48911000  1.0
  Co  Co5  1  0.17718000  0.63181000  0.42052000  1.0
  Co  Co6  1  0.79060000  0.85672000  0.01182000  1.0
  Co  Co7  1  0.05433000  0.10357000  0.07924000  1.0
  Co  Co8  1  0.00348000  0.50410000  0.50104000  1.0
  Co  Co9  1  0.99859000  0.99882000  0.00023000  1.0
  H  H10  1  0.01022000  0.65775000  0.60548000  1.0
  H  H11  1  0.03626000  0.66605000  0.68751000  1.0
  H  H12  1  0.33483000  0.83000000  0.62935000  1.0
  H  H13  1  0.29621000  0.81291000  0.55065000  1.0
  H  H14  1  0.10274000  0.78722000  0.73235000  1.0
  H  H15  1  0.29199000  0.79584000  0.83270000  1.0
  H  H16  1  0.32617000  0.71747000  0.70686000  1.0
  H  H17  1  0.00365000  0.69296000  0.82451000  1.0
  H  H18  1  0.91834000  0.73663000  0.87868000  1.0
  H  H19  1  0.15727000  0.99108000  0.86914000  1.0
  H  H20  1  0.25658000  0.95345000  0.81866000  1.0
  H  H21  1  0.45864000  0.74247000  0.86358000  1.0
  H  H22  1  0.69474000  0.03001000  0.80114000  1.0
  H  H23  1  0.48861000  0.90183000  0.71706000  1.0
  H  H24  1  0.55965000  0.71966000  0.90481000  1.0
  H  H25  1  0.63743000  0.71176000  0.97544000  1.0
  H  H26  1  0.76427000  0.00970000  0.94710000  1.0
  H  H27  1  0.69140000  0.03149000  0.87512000  1.0
  H  H28  1  0.78489000  0.12260000  0.73751000  1.0
  H  H29  1  0.86891000  0.26726000  0.66553000  1.0
  H  H30  1  0.63625000  0.18416000  0.60002000  1.0
  H  H31  1  0.53956000  0.03974000  0.66990000  1.0
  H  H32  1  0.73917000  0.51615000  0.52319000  1.0
  H  H33  1  0.60551000  0.54551000  0.54429000  1.0
  H  H34  1  0.80065000  0.81200000  0.56748000  1.0
  H  H35  1  0.93483000  0.78129000  0.54634000  1.0
  H  H36  1  0.59613000  0.67817000  0.48473000  1.0
  H  H37  1  0.45216000  0.66628000  0.45270000  1.0
  H  H38  1  0.34272000  0.68701000  0.58262000  1.0
  H  H39  1  0.48376000  0.69241000  0.61665000  1.0
  H  H40  1  0.04861000  0.59169000  0.30031000  1.0
  H  H41  1  0.95261000  0.58775000  0.23512000  1.0
  H  H42  1  0.69945000  0.44414000  0.34191000  1.0
  H  H43  1  0.79692000  0.44723000  0.40713000  1.0
  H  H44  1  0.26777000  0.11786000  0.89281000  1.0
  H  H45  1  0.35593000  0.22635000  0.80989000  1.0
  H  H46  1  0.46000000  0.46666000  0.86735000  1.0
  H  H47  1  0.36707000  0.34864000  0.94677000  1.0
  H  H48  1  0.52160000  0.33866000  0.76467000  1.0
  H  H49  1  0.63173000  0.62837000  0.66502000  1.0
  H  H50  1  0.42454000  0.53468000  0.79022000  1.0
  H  H51  1  0.52001000  0.33172000  0.67352000  1.0
  H  H52  1  0.61800000  0.29910000  0.62039000  1.0
  H  H53  1  0.86405000  0.52820000  0.62929000  1.0
  H  H54  1  0.77574000  0.57867000  0.67854000  1.0
  H  H55  1  0.60885000  0.82500000  0.63479000  1.0
  H  H56  1  0.83282000  0.99736000  0.69830000  1.0
  H  H57  1  0.61971000  0.70717000  0.78154000  1.0
  H  H58  1  0.62624000  0.96647000  0.59425000  1.0
  H  H59  1  0.68824000  0.11601000  0.52452000  1.0
  H  H60  1  0.95862000  0.21581000  0.55330000  1.0
  H  H61  1  0.90909000  0.06995000  0.62449000  1.0
  H  H62  1  0.86197000  0.02307000  0.76181000  1.0
  H  H63  1  0.93400000  0.03430000  0.83404000  1.0
  H  H64  1  0.78361000  0.73705000  0.89949000  1.0
  H  H65  1  0.70962000  0.71093000  0.82935000  1.0
  H  H66  1  0.03743000  0.75890000  0.97372000  1.0
  H  H67  1  0.09038000  0.64993000  0.95026000  1.0
  H  H68  1  0.37998000  0.86778000  0.93006000  1.0
  H  H69  1  0.32541000  0.97756000  0.95308000  1.0
  H  H70  1  0.16704000  0.58812000  0.01218000  1.0
  H  H71  1  0.12263000  0.41293000  0.04722000  1.0
  H  H72  1  0.27196000  0.42481000  0.91919000  1.0
  H  H73  1  0.31045000  0.59864000  0.88182000  1.0
  H  H74  1  0.88846000  0.84725000  0.20021000  1.0
  H  H75  1  0.82184000  0.68601000  0.26487000  1.0
  H  H76  1  0.78799000  0.54318000  0.15714000  1.0
  H  H77  1  0.85383000  0.70579000  0.09248000  1.0
  H  H78  1  0.99052000  0.34405000  0.39301000  1.0
  H  H79  1  0.96542000  0.33780000  0.31021000  1.0
  H  H80  1  0.66666667  0.17309000  0.36776000  1.0
  H  H81  1  0.70483000  0.18766000  0.44709000  1.0
  H  H82  1  0.89824000  0.21485000  0.26537000  1.0
  H  H83  1  0.70624000  0.20250000  0.16622000  1.0
  H  H84  1  0.67578000  0.28596000  0.29076000  1.0
  H  H85  1  0.99580000  0.30629000  0.17421000  1.0
  H  H86  1  0.08166000  0.26185000  0.12092000  1.0
  H  H87  1  0.84273000  0.00778000  0.12992000  1.0
  H  H88  1  0.74293000  0.04610000  0.17961000  1.0
  H  H89  1  0.54039000  0.25668000  0.13565000  1.0
  H  H90  1  0.30503000  0.96889000  0.19859000  1.0
  H  H91  1  0.51153000  0.09830000  0.28224000  1.0
  H  H92  1  0.43926000  0.27926000  0.09508000  1.0
  H  H93  1  0.36049000  0.28737000  0.02481000  1.0
  H  H94  1  0.23340000  0.98950000  0.05291000  1.0
  H  H95  1  0.30721000  0.96746000  0.12456000  1.0
  H  H96  1  0.21474000  0.87862000  0.26215000  1.0
  H  H97  1  0.12916000  0.73588000  0.33458000  1.0
  H  H98  1  0.36213000  0.81565000  0.39995000  1.0
  H  H99  1  0.46019000  0.95891000  0.32968000  1.0
  H  H100  1  0.26840000  0.49089000  0.47369000  1.0
  H  H101  1  0.40018000  0.45937000  0.45072000  1.0
  H  H102  1  0.19947000  0.19094000  0.43151000  1.0
  H  H103  1  0.06744000  0.22442000  0.45412000  1.0
  H  H104  1  0.39905000  0.32140000  0.51270000  1.0
  H  H105  1  0.54090000  0.33239000  0.54706000  1.0
  H  H106  1  0.65579000  0.31010000  0.41905000  1.0
  H  H107  1  0.51768000  0.30757000  0.38228000  1.0
  H  H108  1  0.95161000  0.40940000  0.70241000  1.0
  H  H109  1  0.04859000  0.41283000  0.76724000  1.0
  H  H110  1  0.30049000  0.55475000  0.65978000  1.0
  H  H111  1  0.20206000  0.55219000  0.59495000  1.0
  H  H112  1  0.73110000  0.88044000  0.10738000  1.0
  H  H113  1  0.64350000  0.77217000  0.19042000  1.0
  H  H114  1  0.53995000  0.53127000  0.13339000  1.0
  H  H115  1  0.63244000  0.64917000  0.05379000  1.0
  H  H116  1  0.47892000  0.66140000  0.23529000  1.0
  H  H117  1  0.36685000  0.37211000  0.33565000  1.0
  H  H118  1  0.57391000  0.46315000  0.21085000  1.0
  H  H119  1  0.48051000  0.66931000  0.32643000  1.0
  H  H120  1  0.38271000  0.70286000  0.37943000  1.0
  H  H121  1  0.13627000  0.47479000  0.37029000  1.0
  H  H122  1  0.22391000  0.42361000  0.32109000  1.0
  H  H123  1  0.39175000  0.17267000  0.36609000  1.0
  H  H124  1  0.16912000  0.99926000  0.30232000  1.0
  H  H125  1  0.37819000  0.29207000  0.22007000  1.0
  H  H126  1  0.37595000  0.03133000  0.40656000  1.0
  H  H127  1  0.31390000  0.88401000  0.47736000  1.0
  H  H128  1  0.04419000  0.78131000  0.44763000  1.0
  H  H129  1  0.09349000  0.92549000  0.37590000  1.0
  H  H130  1  0.13727000  0.97515000  0.23884000  1.0
  H  H131  1  0.06592000  0.96480000  0.16642000  1.0
  H  H132  1  0.21666000  0.26226000  0.10165000  1.0
  H  H133  1  0.29014000  0.28747000  0.17192000  1.0
  H  H134  1  0.96140000  0.23986000  0.02598000  1.0
  H  H135  1  0.90928000  0.34950000  0.04935000  1.0
  H  H136  1  0.61923000  0.13259000  0.06976000  1.0
  H  H137  1  0.67295000  0.02207000  0.04690000  1.0
  H  H138  1  0.83311000  0.41213000  0.98772000  1.0
  H  H139  1  0.87776000  0.58743000  0.95285000  1.0
  H  H140  1  0.72832000  0.57522000  0.08095000  1.0
  H  H141  1  0.68969000  0.40131000  0.11816000  1.0
  H  H142  1  0.11315000  0.15242000  0.80018000  1.0
  H  H143  1  0.18070000  0.31450000  0.73599000  1.0
  H  H144  1  0.21195000  0.45490000  0.84457000  1.0
  H  H145  1  0.14526000  0.29158000  0.90876000  1.0
  C  C146  1  0.08096000  0.69510000  0.61265000  1.0
  C  C147  1  0.09642000  0.70116000  0.65809000  1.0
  C  C148  1  0.18892000  0.74683000  0.66626000  1.0
  C  C149  1  0.26148000  0.78968000  0.62606000  1.0
  C  C150  1  0.24047000  0.78195000  0.58170000  1.0
  C  C151  1  0.21190000  0.75294000  0.71364000  1.0
  C  C152  1  0.16182000  0.77663000  0.74354000  1.0
  C  C153  1  0.19098000  0.79393000  0.78599000  1.0
  C  C154  1  0.26945000  0.78486000  0.79934000  1.0
  C  C155  1  0.31555000  0.75566000  0.77078000  1.0
  C  C156  1  0.28857000  0.74047000  0.72810000  1.0
  C  C157  1  0.13801000  0.81998000  0.81678000  1.0
  C  C158  1  0.04088000  0.75989000  0.83359000  1.0
  C  C159  1  0.99274000  0.78437000  0.86337000  1.0
  C  C160  1  0.12679000  0.92486000  0.85909000  1.0
  C  C161  1  0.18122000  0.90393000  0.83062000  1.0
  C  C162  1  0.46723000  0.81665000  0.79008000  1.0
  C  C163  1  0.49963000  0.80812000  0.83327000  1.0
  C  C164  1  0.58237000  0.88594000  0.83748000  1.0
  C  C165  1  0.63005000  0.97054000  0.79781000  1.0
  C  C166  1  0.59828000  0.97895000  0.75383000  1.0
  C  C167  1  0.51512000  0.90031000  0.75056000  1.0
  C  C168  1  0.61991000  0.87727000  0.88228000  1.0
  C  C169  1  0.60295000  0.78637000  0.91296000  1.0
  C  C170  1  0.64617000  0.78111000  0.95259000  1.0
  C  C171  1  0.71832000  0.94767000  0.93615000  1.0
  C  C172  1  0.67773000  0.95878000  0.89588000  1.0
  C  C173  1  0.65218000  0.06606000  0.71161000  1.0
  C  C174  1  0.74734000  0.13317000  0.70844000  1.0
  C  C175  1  0.79600000  0.21382000  0.66802000  1.0
  C  C176  1  0.66612000  0.16818000  0.63167000  1.0
  C  C177  1  0.61271000  0.08665000  0.67113000  1.0
  C  C178  1  0.92389000  0.62511000  0.52408000  1.0
  C  C179  1  0.84527000  0.64722000  0.53314000  1.0
  C  C180  1  0.75243000  0.58189000  0.53190000  1.0
  C  C181  1  0.67773000  0.59805000  0.54389000  1.0
  C  C182  1  0.69639000  0.68127000  0.55668000  1.0
  C  C183  1  0.78865000  0.74798000  0.55730000  1.0
  C  C184  1  0.86259000  0.73072000  0.54558000  1.0
  C  C185  1  0.54830000  0.68641000  0.55273000  1.0
  C  C186  1  0.54006000  0.67852000  0.50655000  1.0
  C  C187  1  0.45966000  0.67266000  0.48854000  1.0
  C  C188  1  0.38801000  0.67649000  0.51525000  1.0
  C  C189  1  0.39793000  0.68419000  0.56151000  1.0
  C  C190  1  0.47636000  0.68780000  0.58049000  1.0
  C  C191  1  0.30450000  0.67568000  0.49440000  1.0
  C  C192  1  0.98670000  0.52901000  0.39591000  1.0
  C  C193  1  0.92822000  0.52095000  0.35754000  1.0
  C  C194  1  0.97211000  0.55951000  0.30902000  1.0
  C  C195  1  0.91909000  0.55688000  0.27290000  1.0
  C  C196  1  0.82105000  0.51619000  0.28531000  1.0
  C  C197  1  0.77582000  0.47484667  0.33333333  1.0
  C  C198  1  0.82980000  0.47739000  0.36930000  1.0
  C  C199  1  0.31138000  0.19597000  0.88519000  1.0
  C  C200  1  0.36136000  0.25688000  0.83929000  1.0
  C  C201  1  0.41423000  0.35737000  0.83094000  1.0
  C  C202  1  0.41725000  0.38995000  0.87098000  1.0
  C  C203  1  0.36664000  0.32416000  0.91563000  1.0
  C  C204  1  0.46753000  0.42794000  0.78344000  1.0
  C  C205  1  0.52197000  0.40859000  0.75359000  1.0
  C  C206  1  0.58244000  0.48057000  0.71133000  1.0
  C  C207  1  0.58672000  0.57210000  0.69818000  1.0
  C  C208  1  0.52822000  0.58894000  0.72672000  1.0
  C  C209  1  0.46937000  0.51873000  0.76910000  1.0
  C  C210  1  0.63972000  0.45849000  0.68075000  1.0
  C  C211  1  0.59628000  0.37784000  0.66442000  1.0
  C  C212  1  0.65063000  0.35859000  0.63523000  1.0
  C  C213  1  0.78746000  0.48831000  0.63906000  1.0
  C  C214  1  0.73791000  0.51512000  0.66691000  1.0
  C  C215  1  0.60873000  0.75940000  0.70832000  1.0
  C  C216  1  0.64385000  0.83523000  0.66527000  1.0
  C  C217  1  0.72569000  0.92202000  0.66146000  1.0
  C  C218  1  0.77013000  0.92950000  0.70134000  1.0
  C  C219  1  0.73413000  0.85353000  0.74521000  1.0
  C  C220  1  0.65223000  0.76730000  0.74812000  1.0
  C  C221  1  0.76175000  0.00483000  0.61696000  1.0
  C  C222  1  0.70117000  0.01848000  0.58635000  1.0
  C  C223  1  0.73513000  0.10195000  0.54723000  1.0
  C  C224  1  0.88566000  0.15837000  0.56394000  1.0
  C  C225  1  0.85689000  0.07695000  0.60374000  1.0
  C  C226  1  0.77860000  0.86489000  0.78763000  1.0
  C  C227  1  0.84292000  0.95642000  0.79090000  1.0
  C  C228  1  0.88283000  0.96419000  0.83148000  1.0
  C  C229  1  0.79976000  0.79851000  0.86779000  1.0
  C  C230  1  0.75803000  0.78496000  0.82819000  1.0
  C  C231  1  0.14744000  0.94323000  0.97546000  1.0
  C  C232  1  0.17848000  0.87435000  0.96512000  1.0
  C  C233  1  0.11230000  0.78149000  0.96502000  1.0
  C  C234  1  0.14173000  0.72098000  0.95175000  1.0
  C  C235  1  0.23836000  0.75337000  0.93941000  1.0
  C  C236  1  0.30530000  0.84504000  0.93998000  1.0
  C  C237  1  0.27497000  0.90523000  0.95276000  1.0
  C  C238  1  0.24174000  0.60336000  0.94484000  1.0
  C  C239  1  0.18872000  0.55200000  0.99147000  1.0
  C  C240  1  0.16469000  0.45419000  0.01114000  1.0
  C  C241  1  0.19490000  0.40750000  0.98566000  1.0
  C  C242  1  0.24849000  0.46084000  0.93910000  1.0
  C  C243  1  0.27065000  0.55730000  0.91837000  1.0
  C  C244  1  0.17364000  0.30410000  0.00718000  1.0
  C  C245  1  0.92088000  0.88336000  0.10441000  1.0
  C  C246  1  0.87617000  0.78601000  0.14249000  1.0
  C  C247  1  0.86619000  0.78024000  0.19114000  1.0
  C  C248  1  0.82885000  0.69103000  0.22700000  1.0
  C  C249  1  0.80186000  0.60635000  0.21418000  1.0
  C  C250  1  0.80886000  0.61017000  0.16606000  1.0
  C  C251  1  0.84604000  0.70020000  0.13038000  1.0
  C  C252  1  0.91992000  0.30708000  0.38546000  1.0
  C  C253  1  0.90522000  0.30239000  0.33964000  1.0
  C  C254  1  0.81289000  0.25656000  0.33137000  1.0
  C  C255  1  0.73986000  0.21303000  0.37140000  1.0
  C  C256  1  0.76077000  0.21963000  0.41598000  1.0
  C  C257  1  0.78978000  0.25007000  0.28399000  1.0
  C  C258  1  0.83896000  0.22516000  0.25432000  1.0
  C  C259  1  0.80867000  0.20628000  0.21228000  1.0
  C  C260  1  0.72983000  0.21485000  0.19920000  1.0
  C  C261  1  0.68463000  0.24526000  0.22753000  1.0
  C  C262  1  0.71292000  0.26226000  0.26970000  1.0
  C  C263  1  0.86135000  0.17952000  0.18173000  1.0
  C  C264  1  0.95863000  0.23926000  0.16523000  1.0
  C  C265  1  0.00714000  0.21438000  0.13592000  1.0
  C  C266  1  0.87309000  0.07411000  0.13989000  1.0
  C  C267  1  0.81837000  0.09548000  0.16793000  1.0
  C  C268  1  0.53234000  0.18296000  0.20911000  1.0
  C  C269  1  0.49966000  0.19111000  0.16602000  1.0
  C  C270  1  0.41695000  0.11304000  0.16201000  1.0
  C  C271  1  0.36971000  0.02859000  0.20174000  1.0
  C  C272  1  0.40174000  0.02055000  0.24566000  1.0
  C  C273  1  0.48492000  0.09948000  0.24876000  1.0
  C  C274  1  0.37894000  0.12166000  0.11740000  1.0
  C  C275  1  0.39573000  0.21264000  0.08691000  1.0
  C  C276  1  0.35198000  0.21801000  0.04751000  1.0
  C  C277  1  0.27966000  0.05140000  0.06384000  1.0
  C  C278  1  0.32073000  0.04017000  0.10390000  1.0
  C  C279  1  0.34763000  0.93379000  0.28798000  1.0
  C  C280  1  0.25208000  0.86767000  0.29127000  1.0
  C  C281  1  0.20262000  0.78801000  0.33199000  1.0
  C  C282  1  0.33260000  0.83201000  0.36823000  1.0
  C  C283  1  0.38675000  0.91277000  0.32856000  1.0
  C  C284  1  0.08132000  0.38045000  0.47534000  1.0
  C  C285  1  0.16028000  0.35908000  0.46550000  1.0
  C  C286  1  0.25381000  0.42457000  0.46527000  1.0
  C  C287  1  0.32713000  0.40728000  0.45228000  1.0
  C  C288  1  0.30591000  0.32278000  0.44027000  1.0
  C  C289  1  0.21305000  0.25594000  0.44110000  1.0
  C  C290  1  0.14059000  0.27453000  0.45364000  1.0
  C  C291  1  0.45071000  0.31370000  0.44538000  1.0
  C  C292  1  0.45604000  0.32070000  0.49184000  1.0
  C  C293  1  0.53499000  0.32593000  0.51113000  1.0
  C  C294  1  0.60718000  0.32136000  0.48543000  1.0
  C  C295  1  0.59979000  0.31364000  0.43905000  1.0
  C  C296  1  0.52322000  0.31144000  0.41866000  1.0
  C  C297  1  0.68944000  0.32155000  0.50686000  1.0
  C  C298  1  0.01280000  0.47283000  0.60646000  1.0
  C  C299  1  0.07140000  0.47940000  0.64490000  1.0
  C  C300  1  0.02805000  0.44109000  0.69347000  1.0
  C  C301  1  0.08159000  0.44343000  0.72938000  1.0
  C  C302  1  0.17952000  0.48363000  0.71664000  1.0
  C  C303  1  0.22421000  0.52458000  0.66857000  1.0
  C  C304  1  0.16974000  0.52224000  0.63285000  1.0
  C  C305  1  0.68773000  0.80226000  0.11513000  1.0
  C  C306  1  0.63809000  0.74150000  0.16108000  1.0
  C  C307  1  0.58538000  0.64095000  0.16955000  1.0
  C  C308  1  0.58247000  0.60808000  0.12962000  1.0
  C  C309  1  0.63276000  0.67373000  0.08490000  1.0
  C  C310  1  0.53188000  0.57081000  0.21707000  1.0
  C  C311  1  0.47789000  0.59115000  0.24663000  1.0
  C  C312  1  0.41710000  0.51982000  0.28893000  1.0
  C  C313  1  0.41201000  0.42791000  0.30242000  1.0
  C  C314  1  0.47022000  0.41013000  0.27423000  1.0
  C  C315  1  0.52932000  0.47972000  0.23175000  1.0
  C  C316  1  0.36027000  0.54300000  0.31917000  1.0
  C  C317  1  0.40416000  0.62371000  0.33543000  1.0
  C  C318  1  0.35002000  0.64339000  0.36456000  1.0
  C  C319  1  0.21288000  0.51442000  0.36049000  1.0
  C  C320  1  0.26201000  0.48710000  0.33272000  1.0
  C  C321  1  0.39052000  0.23915000  0.29289000  1.0
  C  C322  1  0.35664000  0.16255000  0.33564000  1.0
  C  C323  1  0.27582000  0.07516000  0.33923000  1.0
  C  C324  1  0.23104000  0.06762000  0.29944000  1.0
  C  C325  1  0.26578000  0.14432000  0.25584000  1.0
  C  C326  1  0.34667000  0.23122000  0.25322000  1.0
  C  C327  1  0.24051000  0.99212000  0.38374000  1.0
  C  C328  1  0.30104000  0.97927000  0.41456000  1.0
  C  C329  1  0.26679000  0.89663000  0.45433000  1.0
  C  C330  1  0.11702000  0.83889000  0.43721000  1.0
  C  C331  1  0.14570000  0.91951000  0.39691000  1.0
  C  C332  1  0.22119000  0.13333000  0.21339000  1.0
  C  C333  1  0.15674000  0.04205000  0.20986000  1.0
  C  C334  1  0.11712000  0.03473000  0.16916000  1.0
  C  C335  1  0.20030000  0.20048000  0.13323000  1.0
  C  C336  1  0.24177000  0.21351000  0.17295000  1.0
  C  C337  1  0.85050000  0.05546000  0.02454000  1.0
  C  C338  1  0.82002000  0.12479000  0.03474000  1.0
  C  C339  1  0.88660000  0.21761000  0.03472000  1.0
  C  C340  1  0.85766000  0.27851000  0.04792000  1.0
  C  C341  1  0.76113000  0.24653000  0.06032000  1.0
  C  C342  1  0.69381000  0.15495000  0.05983000  1.0
  C  C343  1  0.72365000  0.09438000  0.04712000  1.0
  C  C344  1  0.75838000  0.39679000  0.05508000  1.0
  C  C345  1  0.81152000  0.44824000  0.00848000  1.0
  C  C346  1  0.83564000  0.54608000  0.98890000  1.0
  C  C347  1  0.80534000  0.59265000  0.01442000  1.0
  C  C348  1  0.75178000  0.53927000  0.06098000  1.0
  C  C349  1  0.72959000  0.44277000  0.08165000  1.0
  C  C350  1  0.82640000  0.69597000  0.99274000  1.0
  C  C351  1  0.07863000  0.11495000  0.89609000  1.0
  C  C352  1  0.12399000  0.21250000  0.85827000  1.0
  C  C353  1  0.13504000  0.21909000  0.80953000  1.0
  C  C354  1  0.17292000  0.30872000  0.77396000  1.0
  C  C355  1  0.19929000  0.39287000  0.78720000  1.0
  C  C356  1  0.19145000  0.38822000  0.83541000  1.0
  C  C357  1  0.15373000  0.29782000  0.87080000  1.0
  N  N358  1  0.15152000  0.73215000  0.57460000  1.0
  N  N359  1  0.03387000  0.86604000  0.87585000  1.0
  N  N360  1  0.70500000  0.86023000  0.96405000  1.0
  N  N361  1  0.75669000  0.23361000  0.62946000  1.0
  N  N362  1  0.31143000  0.22828000  0.92308000  1.0
  N  N363  1  0.74522000  0.41171000  0.62280000  1.0
  N  N364  1  0.82564000  0.17295000  0.53620000  1.0
  N  N365  1  0.86332000  0.88636000  0.87008000  1.0
  N  N366  1  0.84933000  0.26843000  0.42337000  1.0
  N  N367  1  0.96622000  0.13258000  0.12350000  1.0
  N  N368  1  0.29283000  0.13893000  0.03613000  1.0
  N  N369  1  0.24143000  0.76775000  0.37070000  1.0
  N  N370  1  0.68751000  0.76973000  0.07730000  1.0
  N  N371  1  0.25554000  0.59067000  0.37690000  1.0
  N  N372  1  0.17643000  0.82590000  0.46573000  1.0
  N  N373  1  0.13693000  0.11281000  0.13061000  1.0
  O  O374  1  0.38748000  0.73683000  0.78635000  1.0
  O  O375  1  0.62644000  0.69925000  0.57345000  1.0
  O  O376  1  0.00591000  0.68802000  0.52712000  1.0
  O  O377  1  0.90415000  0.54629000  0.51550000  1.0
  O  O378  1  0.29548000  0.66121000  0.45401000  1.0
  O  O379  1  0.25039000  0.69278000  0.51914000  1.0
  O  O380  1  0.07592000  0.58070000  0.38143000  1.0
  O  O381  1  0.94456000  0.48559000  0.43942000  1.0
  O  O382  1  0.10073000  0.62801000  0.47157000  1.0
  O  O383  1  0.52514000  0.67631000  0.71153000  1.0
  O  O384  1  0.27363000  0.70095000  0.92234000  1.0
  O  O385  1  0.21357000  0.02722000  0.97267000  1.0
  O  O386  1  0.05936000  0.91385000  0.98502000  1.0
  O  O387  1  0.11368000  0.25300000  0.04622000  1.0
  O  O388  1  0.21903000  0.27501000  0.98482000  1.0
  O  O389  1  0.95786000  0.95751000  0.11885000  1.0
  O  O390  1  0.91868000  0.88399000  0.06089000  1.0
  O  O391  1  0.09005000  0.06236000  0.03101000  1.0
  O  O392  1  0.61206000  0.26329000  0.21247000  1.0
  O  O393  1  0.37467000  0.30339000  0.42334000  1.0
  O  O394  1  0.99988000  0.31686000  0.47300000  1.0
  O  O395  1  0.10141000  0.45971000  0.48398000  1.0
  O  O396  1  0.70226000  0.34385000  0.54544000  1.0
  O  O397  1  0.74040000  0.29735000  0.48497000  1.0
  O  O398  1  0.92373000  0.42213000  0.62026000  1.0
  O  O399  1  0.05700000  0.51853000  0.56315000  1.0
  O  O400  1  0.90900000  0.38169000  0.53097000  1.0
  O  O401  1  0.47322000  0.32277000  0.29001000  1.0
  O  O402  1  0.72619000  0.29911000  0.07745000  1.0
  O  O403  1  0.78400000  0.97110000  0.02800000  1.0
  O  O404  1  0.93836000  0.08465000  0.01444000  1.0
  O  O405  1  0.88788000  0.74730000  0.95424000  1.0
  O  O406  1  0.77921000  0.72448000  0.01427000  1.0
  O  O407  1  0.04269000  0.04095000  0.88141000  1.0
  O  O408  1  0.07908000  0.11377000  0.93971000  1.0
  O  O409  1  0.90748000  0.93532000  0.96898000  1.0
  O  O410  1  0.76717000  0.51655000  0.24957000  1.0
  O  O411  1  0.23391000  0.48301000  0.75214000  1.0
