# generated using pymatgen
data_ZnH14C18I2(NO2)2
_symmetry_space_group_name_H-M   'P 1'
_cell_length_a   12.32970000
_cell_length_b   13.45360000
_cell_length_c   15.55790000
_cell_angle_alpha   89.99990000
_cell_angle_beta   90.00010000
_cell_angle_gamma   90.00000000
_symmetry_Int_Tables_number   1
_chemical_formula_structural   ZnH14C18I2(NO2)2
_chemical_formula_sum   'Zn4 H56 C72 I8 N8 O16'
_cell_volume   2580.72659028
_cell_formula_units_Z   4
loop_
 _symmetry_equiv_pos_site_id
 _symmetry_equiv_pos_as_xyz
  1  'x, y, z'
loop_
 _atom_site_type_symbol
 _atom_site_label
 _atom_site_symmetry_multiplicity
 _atom_site_fract_x
 _atom_site_fract_y
 _atom_site_fract_z
 _atom_site_occupancy
  Zn  Zn0  1  0.85228000  0.25000000  0.25000000  1.0
  Zn  Zn1  1  0.64772000  0.75000000  0.25000000  1.0
  Zn  Zn2  1  0.14772000  0.75000000  0.75000000  1.0
  Zn  Zn3  1  0.35228000  0.25000000  0.75000000  1.0
  H  H4  1  0.08388000  0.34408000  0.01203000  1.0
  H  H5  1  0.41612000  0.65592000  0.01203000  1.0
  H  H6  1  0.41612000  0.84408000  0.48796000  1.0
  H  H7  1  0.08388000  0.15592000  0.48797000  1.0
  H  H8  1  0.91612000  0.65592000  0.98797000  1.0
  H  H9  1  0.58388000  0.34407000  0.98796000  1.0
  H  H10  1  0.58388000  0.15592000  0.51204000  1.0
  H  H11  1  0.91612000  0.84407000  0.51204000  1.0
  H  H12  1  0.91532000  0.49730000  0.07502000  1.0
  H  H13  1  0.58468000  0.50270000  0.07502000  1.0
  H  H14  1  0.58468000  0.99730000  0.42498000  1.0
  H  H15  1  0.91532000  0.00270000  0.42498000  1.0
  H  H16  1  0.08467000  0.50270000  0.92498000  1.0
  H  H17  1  0.41532000  0.49730000  0.92498000  1.0
  H  H18  1  0.41532000  0.00270000  0.57502000  1.0
  H  H19  1  0.08467000  0.99730000  0.57502000  1.0
  H  H20  1  0.77883000  0.25831000  0.43592000  1.0
  H  H21  1  0.72117000  0.74169000  0.43592000  1.0
  H  H22  1  0.72117000  0.75831000  0.06408000  1.0
  H  H23  1  0.77883000  0.24169000  0.06408000  1.0
  H  H24  1  0.22117000  0.74169000  0.56408000  1.0
  H  H25  1  0.27883000  0.25831000  0.56408000  1.0
  H  H26  1  0.27884000  0.24169000  0.93593000  1.0
  H  H27  1  0.22117000  0.75831000  0.93592000  1.0
  H  H28  1  0.64686000  0.35500000  0.52339000  1.0
  H  H29  1  0.85313000  0.64500000  0.52339000  1.0
  H  H30  1  0.85313000  0.85500000  0.97661000  1.0
  H  H31  1  0.64687000  0.14500000  0.97661000  1.0
  H  H32  1  0.35314000  0.64500000  0.47661000  1.0
  H  H33  1  0.14686000  0.35500000  0.47661000  1.0
  H  H34  1  0.14687000  0.14500000  0.02339000  1.0
  H  H35  1  0.35313000  0.85500000  0.02339000  1.0
  H  H36  1  0.56170000  0.51442000  0.29034000  1.0
  H  H37  1  0.93831000  0.48558000  0.29035000  1.0
  H  H38  1  0.93831000  0.01442000  0.20966000  1.0
  H  H39  1  0.56169000  0.98558000  0.20965000  1.0
  H  H40  1  0.43831000  0.48558000  0.70965000  1.0
  H  H41  1  0.06169000  0.51442000  0.70966000  1.0
  H  H42  1  0.06169000  0.98558000  0.79035000  1.0
  H  H43  1  0.43831000  0.01442000  0.79034000  1.0
  H  H44  1  0.69393000  0.40684000  0.21265000  1.0
  H  H45  1  0.80607000  0.59316000  0.21265000  1.0
  H  H46  1  0.80607000  0.90684000  0.28735000  1.0
  H  H47  1  0.69393000  0.09316000  0.28735000  1.0
  H  H48  1  0.30607000  0.59316000  0.78734000  1.0
  H  H49  1  0.19393000  0.40684000  0.78735000  1.0
  H  H50  1  0.19393000  0.09316000  0.71266000  1.0
  H  H51  1  0.30607000  0.90684000  0.71265000  1.0
  H  H52  1  0.48561000  0.57088000  0.42227000  1.0
  H  H53  1  0.01439000  0.42912000  0.42227000  1.0
  H  H54  1  0.01439000  0.07088000  0.07773000  1.0
  H  H55  1  0.48561000  0.92912000  0.07773000  1.0
  H  H56  1  0.51440000  0.42912000  0.57773000  1.0
  H  H57  1  0.98560000  0.57088000  0.57773000  1.0
  H  H58  1  0.98561000  0.92912000  0.92227000  1.0
  H  H59  1  0.51440000  0.07088000  0.92227000  1.0
  C  C60  1  0.97577000  0.31363000  0.12107000  1.0
  C  C61  1  0.52424000  0.68637000  0.12107000  1.0
  C  C62  1  0.52424000  0.81363000  0.37892000  1.0
  C  C63  1  0.97576000  0.18637000  0.37893000  1.0
  C  C64  1  0.02423000  0.68638000  0.87893000  1.0
  C  C65  1  0.47576000  0.31363000  0.87892000  1.0
  C  C66  1  0.47576000  0.18637000  0.62107000  1.0
  C  C67  1  0.02424000  0.81363000  0.62108000  1.0
  C  C68  1  0.01886000  0.37649000  0.05061000  1.0
  C  C69  1  0.48114000  0.62350000  0.05061000  1.0
  C  C70  1  0.48114000  0.87649000  0.44938000  1.0
  C  C71  1  0.01885000  0.12351000  0.44939000  1.0
  C  C72  1  0.98114000  0.62351000  0.94939000  1.0
  C  C73  1  0.51886000  0.37649000  0.94938000  1.0
  C  C74  1  0.51886000  0.12350000  0.55062000  1.0
  C  C75  1  0.98114000  0.87649000  0.55062000  1.0
  C  C76  1  0.98023000  0.46870000  0.03396000  1.0
  C  C77  1  0.51977000  0.53130000  0.03396000  1.0
  C  C78  1  0.51977000  0.96870000  0.46603000  1.0
  C  C79  1  0.98023000  0.03130000  0.46604000  1.0
  C  C80  1  0.01977000  0.53130000  0.96604000  1.0
  C  C81  1  0.48023000  0.46870000  0.96603000  1.0
  C  C82  1  0.48023000  0.03130000  0.53397000  1.0
  C  C83  1  0.01977000  0.96870000  0.53397000  1.0
  C  C84  1  0.72787000  0.31532000  0.40667000  1.0
  C  C85  1  0.77213000  0.68468000  0.40667000  1.0
  C  C86  1  0.77213000  0.81532000  0.09333000  1.0
  C  C87  1  0.72787000  0.18468000  0.09333000  1.0
  C  C88  1  0.27213000  0.68468000  0.59332000  1.0
  C  C89  1  0.22787000  0.31532000  0.59333000  1.0
  C  C90  1  0.22787000  0.18468000  0.90668000  1.0
  C  C91  1  0.27213000  0.81532000  0.90667000  1.0
  C  C92  1  0.65506000  0.37013000  0.45486000  1.0
  C  C93  1  0.84493000  0.62987000  0.45486000  1.0
  C  C94  1  0.84494000  0.87012000  0.04514000  1.0
  C  C95  1  0.65507000  0.12988000  0.04514000  1.0
  C  C96  1  0.34494000  0.62988000  0.54514000  1.0
  C  C97  1  0.15506000  0.37013000  0.54515000  1.0
  C  C98  1  0.15506000  0.12987000  0.95486000  1.0
  C  C99  1  0.34494000  0.87012000  0.95486000  1.0
  C  C100  1  0.59277000  0.44437000  0.41401000  1.0
  C  C101  1  0.90723000  0.55563000  0.41401000  1.0
  C  C102  1  0.90723000  0.94437000  0.08599000  1.0
  C  C103  1  0.59277000  0.05563000  0.08599000  1.0
  C  C104  1  0.40723000  0.55563000  0.58599000  1.0
  C  C105  1  0.09277000  0.44437000  0.58599000  1.0
  C  C106  1  0.09277000  0.05563000  0.91401000  1.0
  C  C107  1  0.40723000  0.94437000  0.91401000  1.0
  C  C108  1  0.60686000  0.45744000  0.32505000  1.0
  C  C109  1  0.89314000  0.54256000  0.32506000  1.0
  C  C110  1  0.89314000  0.95744000  0.17495000  1.0
  C  C111  1  0.60686000  0.04256000  0.17494000  1.0
  C  C112  1  0.39314000  0.54256000  0.67494000  1.0
  C  C113  1  0.10686000  0.45744000  0.67495000  1.0
  C  C114  1  0.10686000  0.04256000  0.82506000  1.0
  C  C115  1  0.39314000  0.95744000  0.82506000  1.0
  C  C116  1  0.68054000  0.39823000  0.28153000  1.0
  C  C117  1  0.81946000  0.60177000  0.28153000  1.0
  C  C118  1  0.81946000  0.89823000  0.21847000  1.0
  C  C119  1  0.68054000  0.10177000  0.21847000  1.0
  C  C120  1  0.31946000  0.60177000  0.71847000  1.0
  C  C121  1  0.18054000  0.39823000  0.71847000  1.0
  C  C122  1  0.18054000  0.10177000  0.78153000  1.0
  C  C123  1  0.31946000  0.89823000  0.78153000  1.0
  C  C124  1  0.51610000  0.50751000  0.45901000  1.0
  C  C125  1  0.98390000  0.49249000  0.45902000  1.0
  C  C126  1  0.98390000  0.00751000  0.04099000  1.0
  C  C127  1  0.51610000  0.99249000  0.04098000  1.0
  C  C128  1  0.48391000  0.49249000  0.54098000  1.0
  C  C129  1  0.01610000  0.50751000  0.54099000  1.0
  C  C130  1  0.01610000  0.99249000  0.95902000  1.0
  C  C131  1  0.48390000  0.00751000  0.95901000  1.0
  I  I132  1  0.91308000  0.28964000  0.82978000  1.0
  I  I133  1  0.58690000  0.71037000  0.82978000  1.0
  I  I134  1  0.58690000  0.78963000  0.67022000  1.0
  I  I135  1  0.91309000  0.21039000  0.67021000  1.0
  I  I136  1  0.08693000  0.71037000  0.17022000  1.0
  I  I137  1  0.41310000  0.28963000  0.17022000  1.0
  I  I138  1  0.41310000  0.21037000  0.32978000  1.0
  I  I139  1  0.08693000  0.78963000  0.32978000  1.0
  N  N140  1  0.74112000  0.32905000  0.32143000  1.0
  N  N141  1  0.75888000  0.67095000  0.32143000  1.0
  N  N142  1  0.75888000  0.82905000  0.17857000  1.0
  N  N143  1  0.74113000  0.17094000  0.17857000  1.0
  N  N144  1  0.25888000  0.67095000  0.67856000  1.0
  N  N145  1  0.24112000  0.32905000  0.67857000  1.0
  N  N146  1  0.24113000  0.17094000  0.82144000  1.0
  N  N147  1  0.25888000  0.82905000  0.82143000  1.0
  O  O148  1  0.90300000  0.35438000  0.17076000  1.0
  O  O149  1  0.59701000  0.64561000  0.17076000  1.0
  O  O150  1  0.59701000  0.85439000  0.32925000  1.0
  O  O151  1  0.90299000  0.14561000  0.32925000  1.0
  O  O152  1  0.09701000  0.64562000  0.82925000  1.0
  O  O153  1  0.40299000  0.35439000  0.82925000  1.0
  O  O154  1  0.40298000  0.14561000  0.67075000  1.0
  O  O155  1  0.09702000  0.85439000  0.67075000  1.0
  O  O156  1  0.00773000  0.22557000  0.12939000  1.0
  O  O157  1  0.49227000  0.77443000  0.12939000  1.0
  O  O158  1  0.49227000  0.72557000  0.37061000  1.0
  O  O159  1  0.00773000  0.27443000  0.37061000  1.0
  O  O160  1  0.99226000  0.77443000  0.87062000  1.0
  O  O161  1  0.50773000  0.22557000  0.87061000  1.0
  O  O162  1  0.50773000  0.27443000  0.62939000  1.0
  O  O163  1  0.99227000  0.72557000  0.62939000  1.0
