# generated using pymatgen
data_Zn4H26C32O13F4
_symmetry_space_group_name_H-M   'P 1'
_cell_length_a   17.91330000
_cell_length_b   18.51740000
_cell_length_c   19.84284951
_cell_angle_alpha   63.27947368
_cell_angle_beta   63.29170688
_cell_angle_gamma   89.98770000
_symmetry_Int_Tables_number   1
_chemical_formula_structural   Zn4H26C32O13F4
_chemical_formula_sum   'Zn8 H52 C64 O26 F8'
_cell_volume   5080.99938700
_cell_formula_units_Z   2
loop_
 _symmetry_equiv_pos_site_id
 _symmetry_equiv_pos_as_xyz
  1  'x, y, z'
loop_
 _atom_site_type_symbol
 _atom_site_label
 _atom_site_symmetry_multiplicity
 _atom_site_fract_x
 _atom_site_fract_y
 _atom_site_fract_z
 _atom_site_occupancy
  Zn  Zn0  1  0.87104000  0.46642000  0.07548000  1.0
  Zn  Zn1  1  0.03787000  0.61804000  0.93257000  1.0
  Zn  Zn2  1  0.03066000  0.44301000  0.93762000  1.0
  Zn  Zn3  1  0.04634000  0.45585000  0.08697000  1.0
  Zn  Zn4  1  0.62159000  0.03250000  0.93799000  1.0
  Zn  Zn5  1  0.45801000  0.04658000  0.08074000  1.0
  Zn  Zn6  1  0.46211000  0.87332000  0.08417000  1.0
  Zn  Zn7  1  0.44325000  0.02920000  0.93299000  1.0
  H  H8  1  0.78629000  0.15680000  0.68547000  1.0
  H  H9  1  0.69831000  0.33600000  0.33105000  1.0
  H  H10  1  0.33583000  0.96112000  0.33714000  1.0
  H  H11  1  0.16289000  0.52934000  0.67980000  1.0
  H  H12  1  0.78511000  0.19915000  0.11557000  1.0
  H  H13  1  0.86933000  0.21450000  0.01484000  1.0
  H  H14  1  0.77790000  0.11978000  0.01973000  1.0
  H  H15  1  0.69352000  0.10680000  0.11924000  1.0
  H  H16  1  0.79884000  0.23327000  0.87643000  1.0
  H  H17  1  0.72766000  0.29919000  0.87338000  1.0
  H  H18  1  0.88802000  0.32924000  0.87277000  1.0
  H  H19  1  0.81470000  0.39308000  0.87259000  1.0
  H  H20  1  0.68046000  0.29243000  0.11579000  1.0
  H  H21  1  0.69357000  0.37263000  0.01672000  1.0
  H  H22  1  0.60487000  0.28055000  0.01620000  1.0
  H  H23  1  0.58994000  0.20110000  0.11646000  1.0
  H  H24  1  0.09314000  0.69260000  0.12317000  1.0
  H  H25  1  0.11172000  0.77111000  0.01982000  1.0
  H  H26  1  0.20103000  0.86336000  0.01959000  1.0
  H  H27  1  0.18285000  0.78394000  0.12239000  1.0
  H  H28  1  0.32311000  0.87910000  0.88142000  1.0
  H  H29  1  0.39390000  0.81290000  0.88451000  1.0
  H  H30  1  0.23498000  0.78529000  0.88199000  1.0
  H  H31  1  0.30508000  0.71858000  0.88745000  1.0
  H  H32  1  0.19205000  0.59485000  0.13197000  1.0
  H  H33  1  0.27794000  0.60422000  0.03619000  1.0
  H  H34  1  0.36885000  0.69779000  0.03282000  1.0
  H  H35  1  0.28338000  0.68716000  0.12942000  1.0
  H  H36  1  0.82500000  0.72484000  0.08196000  1.0
  H  H37  1  0.73457000  0.64110000  0.13526000  1.0
  H  H38  1  0.64519000  0.73288000  0.13944000  1.0
  H  H39  1  0.73632000  0.81638000  0.08494000  1.0
  H  H40  1  0.59887000  0.69693000  0.05371000  1.0
  H  H41  1  0.65529000  0.75560000  0.93852000  1.0
  H  H42  1  0.68966000  0.60614000  0.04760000  1.0
  H  H43  1  0.74670000  0.66664000  0.93249000  1.0
  H  H44  1  0.90868000  0.81090000  0.91592000  1.0
  H  H45  1  0.87727000  0.78668000  0.85492000  1.0
  H  H46  1  0.78627000  0.87696000  0.85902000  1.0
  H  H47  1  0.81852000  0.90194000  0.91911000  1.0
  H  H48  1  0.08791000  0.18679000  0.09311000  1.0
  H  H49  1  0.12474000  0.21331000  0.15027000  1.0
  H  H50  1  0.21090000  0.11871000  0.14725000  1.0
  H  H51  1  0.17629000  0.09528000  0.08701000  1.0
  H  H52  1  0.34007000  0.23812000  0.06934000  1.0
  H  H53  1  0.39950000  0.29684000  0.95420000  1.0
  H  H54  1  0.25323000  0.33278000  0.06955000  1.0
  H  H55  1  0.31177000  0.38955000  0.95437000  1.0
  H  H56  1  0.17075000  0.26748000  0.92705000  1.0
  H  H57  1  0.26060000  0.35188000  0.86958000  1.0
  H  H58  1  0.35192000  0.26187000  0.86686000  1.0
  H  H59  1  0.26238000  0.17819000  0.92086000  1.0
  C  C60  1  0.85967000  0.64003000  0.99620000  1.0
  C  C61  1  0.11739000  0.60600000  0.77269000  1.0
  C  C62  1  0.85403000  0.36382000  0.00095000  1.0
  C  C63  1  0.13633000  0.35433000  0.01342000  1.0
  C  C64  1  0.87044000  0.37954000  0.24333000  1.0
  C  C65  1  0.13705000  0.63052000  0.01352000  1.0
  C  C66  1  0.63601000  0.13949000  0.00524000  1.0
  C  C67  1  0.38490000  0.88429000  0.24440000  1.0
  C  C68  1  0.64139000  0.86004000  0.00441000  1.0
  C  C69  1  0.35574000  0.85425000  0.01037000  1.0
  C  C70  1  0.61484000  0.11314000  0.77339000  1.0
  C  C71  1  0.35180000  0.13102000  0.00903000  1.0
  C  C72  1  0.63994000  0.19069000  0.61780000  1.0
  C  C73  1  0.76132000  0.17898000  0.64078000  1.0
  C  C74  1  0.81704000  0.22286000  0.55265000  1.0
  C  C75  1  0.78824000  0.25400000  0.49107000  1.0
  C  C76  1  0.84445000  0.30036000  0.39901000  1.0
  C  C77  1  0.72321000  0.31303000  0.37579000  1.0
  C  C78  1  0.66741000  0.26855000  0.46396000  1.0
  C  C79  1  0.69608000  0.23703000  0.52566000  1.0
  C  C80  1  0.67073000  0.16153000  0.67572000  1.0
  C  C81  1  0.81384000  0.33018000  0.34089000  1.0
  C  C82  1  0.30660000  0.75606000  0.39725000  1.0
  C  C83  1  0.31419000  0.89363000  0.37984000  1.0
  C  C84  1  0.26828000  0.85967000  0.46844000  1.0
  C  C85  1  0.23874000  0.77185000  0.52734000  1.0
  C  C86  1  0.19213000  0.73437000  0.61977000  1.0
  C  C87  1  0.18438000  0.59683000  0.63710000  1.0
  C  C88  1  0.22894000  0.63081000  0.54848000  1.0
  C  C89  1  0.25870000  0.71863000  0.48962000  1.0
  C  C90  1  0.33458000  0.84213000  0.34197000  1.0
  C  C91  1  0.16531000  0.64829000  0.67503000  1.0
  C  C92  1  0.80160000  0.21577000  0.04899000  1.0
  C  C93  1  0.74115000  0.15370000  0.05142000  1.0
  C  C94  1  0.69298000  0.20154000  0.00397000  1.0
  C  C95  1  0.76103000  0.26634000  0.90868000  1.0
  C  C96  1  0.81988000  0.32904000  0.90721000  1.0
  C  C97  1  0.79344000  0.30581000  0.00142000  1.0
  C  C98  1  0.69906000  0.30833000  0.04903000  1.0
  C  C99  1  0.63967000  0.24733000  0.04949000  1.0
  C  C100  1  0.14398000  0.73742000  0.05594000  1.0
  C  C101  1  0.20365000  0.79865000  0.05537000  1.0
  C  C102  1  0.29806000  0.79245000  0.01167000  1.0
  C  C103  1  0.32603000  0.81463000  0.91742000  1.0
  C  C104  1  0.26702000  0.75247000  0.91859000  1.0
  C  C105  1  0.19740000  0.68861000  0.01350000  1.0
  C  C106  1  0.24156000  0.64057000  0.06468000  1.0
  C  C107  1  0.30169000  0.70213000  0.06299000  1.0
  C  C108  1  0.76926000  0.70449000  0.07916000  1.0
  C  C109  1  0.70993000  0.76520000  0.08161000  1.0
  C  C110  1  0.70180000  0.80250000  0.99873000  1.0
  C  C111  1  0.66352000  0.72977000  0.99598000  1.0
  C  C112  1  0.72382000  0.66993000  0.99237000  1.0
  C  C113  1  0.80257000  0.70097000  0.99412000  1.0
  C  C114  1  0.85205000  0.78925000  0.91534000  1.0
  C  C115  1  0.79213000  0.84934000  0.91784000  1.0
  C  C116  1  0.14618000  0.20849000  0.09147000  1.0
  C  C117  1  0.20445000  0.14674000  0.08881000  1.0
  C  C118  1  0.29551000  0.19276000  0.00703000  1.0
  C  C119  1  0.33384000  0.26476000  0.01084000  1.0
  C  C120  1  0.27564000  0.32674000  0.01140000  1.0
  C  C121  1  0.19659000  0.29627000  0.00986000  1.0
  C  C122  1  0.22736000  0.28922000  0.92757000  1.0
  C  C123  1  0.28733000  0.22934000  0.92497000  1.0
  O  O124  1  0.99745000  0.49601000  0.00919000  1.0
  O  O125  1  0.82164000  0.56307000  0.05338000  1.0
  O  O126  1  0.10611000  0.65081000  0.80799000  1.0
  O  O127  1  0.93483000  0.37320000  0.95460000  1.0
  O  O128  1  0.94062000  0.66990000  0.94287000  1.0
  O  O129  1  0.82019000  0.39723000  0.04778000  1.0
  O  O130  1  0.09232000  0.52648000  0.81215000  1.0
  O  O131  1  0.10638000  0.37249000  0.96201000  1.0
  O  O132  1  0.95198000  0.39596000  0.21063000  1.0
  O  O133  1  0.11897000  0.37915000  0.06815000  1.0
  O  O134  1  0.82971000  0.40090000  0.20139000  1.0
  O  O135  1  0.10745000  0.66587000  0.96218000  1.0
  O  O136  1  0.11986000  0.55214000  0.06462000  1.0
  O  O137  1  0.49546000  0.99506000  0.00784000  1.0
  O  O138  1  0.67423000  0.10148000  0.96444000  1.0
  O  O139  1  0.41185000  0.96370000  0.20481000  1.0
  O  O140  1  0.56240000  0.82558000  0.06456000  1.0
  O  O141  1  0.55458000  0.12949000  0.04715000  1.0
  O  O142  1  0.67396000  0.93803000  0.94957000  1.0
  O  O143  1  0.39638000  0.83948000  0.20906000  1.0
  O  O144  1  0.38823000  0.82365000  0.05949000  1.0
  O  O145  1  0.53397000  0.08674000  0.80735000  1.0
  O  O146  1  0.36689000  0.93202000  0.96029000  1.0
  O  O147  1  0.65587000  0.10261000  0.81425000  1.0
  O  O148  1  0.36876000  0.10375000  0.07095000  1.0
  O  O149  1  0.37715000  0.11063000  0.95034000  1.0
  F  F150  1  0.58150000  0.25460000  0.49241000  1.0
  F  F151  1  0.55425000  0.17640000  0.64809000  1.0
  F  F152  1  0.90295000  0.23665000  0.52425000  1.0
  F  F153  1  0.93003000  0.31486000  0.36917000  1.0
  F  F154  1  0.24481000  0.57764000  0.51679000  1.0
  F  F155  1  0.32536000  0.70463000  0.36419000  1.0
  F  F156  1  0.25118000  0.91284000  0.50010000  1.0
  F  F157  1  0.17418000  0.78575000  0.65291000  1.0
