# generated using pymatgen
data_TbH9C9(NO3)3
_symmetry_space_group_name_H-M   'P 1'
_cell_length_a   6.04908000
_cell_length_b   10.34220000
_cell_length_c   18.95360000
_cell_angle_alpha   89.99990000
_cell_angle_beta   89.99990000
_cell_angle_gamma   89.98910000
_symmetry_Int_Tables_number   1
_chemical_formula_structural   TbH9C9(NO3)3
_chemical_formula_sum   'Tb4 H36 C36 N12 O36'
_cell_volume   1185.75226599
_cell_formula_units_Z   4
loop_
 _symmetry_equiv_pos_site_id
 _symmetry_equiv_pos_as_xyz
  1  'x, y, z'
loop_
 _atom_site_type_symbol
 _atom_site_label
 _atom_site_symmetry_multiplicity
 _atom_site_fract_x
 _atom_site_fract_y
 _atom_site_fract_z
 _atom_site_occupancy
  Tb  Tb0  1  0.74011000  0.81029000  0.40304000  1.0
  Tb  Tb1  1  0.75989000  0.68971000  0.90304000  1.0
  Tb  Tb2  1  0.25989000  0.18971000  0.59696000  1.0
  Tb  Tb3  1  0.24011000  0.31029000  0.09696000  1.0
  H  H4  1  0.12074000  0.50725000  0.54245000  1.0
  H  H5  1  0.37926000  0.99275000  0.04245000  1.0
  H  H6  1  0.87926000  0.49275000  0.45755000  1.0
  H  H7  1  0.62074000  0.00725000  0.95755000  1.0
  H  H8  1  0.51771000  0.76325000  0.11796000  1.0
  H  H9  1  0.98229000  0.73675000  0.61796000  1.0
  H  H10  1  0.48229000  0.23675000  0.88204000  1.0
  H  H11  1  0.01771000  0.26325000  0.38204000  1.0
  H  H12  1  0.11504000  0.95295000  0.14970000  1.0
  H  H13  1  0.38496000  0.54705000  0.64971000  1.0
  H  H14  1  0.88496000  0.04706000  0.85029000  1.0
  H  H15  1  0.61504000  0.45294000  0.35029000  1.0
  H  H16  1  0.87154000  0.58626000  0.30159000  1.0
  H  H17  1  0.62846000  0.91374000  0.80159000  1.0
  H  H18  1  0.12846000  0.41374000  0.69841000  1.0
  H  H19  1  0.37154000  0.08626000  0.19841000  1.0
  H  H20  1  0.09125000  0.64242000  0.33214000  1.0
  H  H21  1  0.40875000  0.85758000  0.83214000  1.0
  H  H22  1  0.90876000  0.35758000  0.66787000  1.0
  H  H23  1  0.59124000  0.14242000  0.16787000  1.0
  H  H24  1  0.45153000  0.01718000  0.34390000  1.0
  H  H25  1  0.04847000  0.48282000  0.84390000  1.0
  H  H26  1  0.54847000  0.98282000  0.65610000  1.0
  H  H27  1  0.95153000  0.51718000  0.15610000  1.0
  H  H28  1  0.68627000  0.07565000  0.34581000  1.0
  H  H29  1  0.81373000  0.42435000  0.84582000  1.0
  H  H30  1  0.31373000  0.92435000  0.65419000  1.0
  H  H31  1  0.18627000  0.57565000  0.15418000  1.0
  H  H32  1  0.70484000  0.02343000  0.51731000  1.0
  H  H33  1  0.79516000  0.47657000  0.01731000  1.0
  H  H34  1  0.29516000  0.97657000  0.48269000  1.0
  H  H35  1  0.20484000  0.52343000  0.98269000  1.0
  H  H36  1  0.90372000  0.93598000  0.53809000  1.0
  H  H37  1  0.59628000  0.56403000  0.03809000  1.0
  H  H38  1  0.09628000  0.06402000  0.46191000  1.0
  H  H39  1  0.40372000  0.43598000  0.96191000  1.0
  C  C40  1  0.26204000  0.73295000  0.47382000  1.0
  C  C41  1  0.23797000  0.76705000  0.97382000  1.0
  C  C42  1  0.73797000  0.26705000  0.52618000  1.0
  C  C43  1  0.76204000  0.23295000  0.02618000  1.0
  C  C44  1  0.38478000  0.60848000  0.48742000  1.0
  C  C45  1  0.11522000  0.89152000  0.98742000  1.0
  C  C46  1  0.61522000  0.39152000  0.51258000  1.0
  C  C47  1  0.88478000  0.10848000  0.01258000  1.0
  C  C48  1  0.28973000  0.50384000  0.52283000  1.0
  C  C49  1  0.21028000  0.99616000  0.02283000  1.0
  C  C50  1  0.71028000  0.49616000  0.47717000  1.0
  C  C51  1  0.78973000  0.00384000  0.97717000  1.0
  C  C52  1  0.42811000  0.71946000  0.26369000  1.0
  C  C53  1  0.07188000  0.78054000  0.76369000  1.0
  C  C54  1  0.57189000  0.28054000  0.73630000  1.0
  C  C55  1  0.92811000  0.21946000  0.23630000  1.0
  C  C56  1  0.61427000  0.78930000  0.22742000  1.0
  C  C57  1  0.88573000  0.71070000  0.72742000  1.0
  C  C58  1  0.38574000  0.21070000  0.77258000  1.0
  C  C59  1  0.11426000  0.28930000  0.27258000  1.0
  C  C60  1  0.64085000  0.80170000  0.15440000  1.0
  C  C61  1  0.85915000  0.69830000  0.65440000  1.0
  C  C62  1  0.35915000  0.19830000  0.84560000  1.0
  C  C63  1  0.14085000  0.30170000  0.34560000  1.0
  C  C64  1  0.96814000  0.90731000  0.17146000  1.0
  C  C65  1  0.53186000  0.59269000  0.67146000  1.0
  C  C66  1  0.03186000  0.09269000  0.82854000  1.0
  C  C67  1  0.46814000  0.40731000  0.32854000  1.0
  C  C68  1  0.93996000  0.89974000  0.24437000  1.0
  C  C69  1  0.56004000  0.60025000  0.74437000  1.0
  C  C70  1  0.06004000  0.10026000  0.75563000  1.0
  C  C71  1  0.43996000  0.39975000  0.25563000  1.0
  C  C72  1  0.09656000  0.95467000  0.29798000  1.0
  C  C73  1  0.40344000  0.54533000  0.79799000  1.0
  C  C74  1  0.90344000  0.04533000  0.70202000  1.0
  C  C75  1  0.59656000  0.45468000  0.20201000  1.0
  N  N76  1  0.59508000  0.60383000  0.46479000  1.0
  N  N77  1  0.90492000  0.89616000  0.96479000  1.0
  N  N78  1  0.40492000  0.39616000  0.53521000  1.0
  N  N79  1  0.09508000  0.10384000  0.03521000  1.0
  N  N80  1  0.76440000  0.83944000  0.27126000  1.0
  N  N81  1  0.73560000  0.66056000  0.77126000  1.0
  N  N82  1  0.23560000  0.16056000  0.72874000  1.0
  N  N83  1  0.26440000  0.33944000  0.22874000  1.0
  N  N84  1  0.81867000  0.85956000  0.12647000  1.0
  N  N85  1  0.68132000  0.64044000  0.62647000  1.0
  N  N86  1  0.18132000  0.14044000  0.87353000  1.0
  N  N87  1  0.31868000  0.35955000  0.37353000  1.0
  O  O88  1  0.38565000  0.82955000  0.46079000  1.0
  O  O89  1  0.11435000  0.67045000  0.96079000  1.0
  O  O90  1  0.61435000  0.17045000  0.53920000  1.0
  O  O91  1  0.88565000  0.32955000  0.03921000  1.0
  O  O92  1  0.05334000  0.73208000  0.47711000  1.0
  O  O93  1  0.44666000  0.76792000  0.97711000  1.0
  O  O94  1  0.94666000  0.26792000  0.52289000  1.0
  O  O95  1  0.55334000  0.23208000  0.02289000  1.0
  O  O96  1  0.44260000  0.71333000  0.33112000  1.0
  O  O97  1  0.05739000  0.78667000  0.83112000  1.0
  O  O98  1  0.55739000  0.28667000  0.66888000  1.0
  O  O99  1  0.94261000  0.21333000  0.16888000  1.0
  O  O100  1  0.27292000  0.67232000  0.22785000  1.0
  O  O101  1  0.22708000  0.82768000  0.72785000  1.0
  O  O102  1  0.72708000  0.32768000  0.77215000  1.0
  O  O103  1  0.77292000  0.17232000  0.27215000  1.0
  O  O104  1  0.04446000  0.93685000  0.36236000  1.0
  O  O105  1  0.45554000  0.56315000  0.86236000  1.0
  O  O106  1  0.95552000  0.06315000  0.63764000  1.0
  O  O107  1  0.54446000  0.43686000  0.13764000  1.0
  O  O108  1  0.26759000  0.01390000  0.27685000  1.0
  O  O109  1  0.23241000  0.48609000  0.77685000  1.0
  O  O110  1  0.73241000  0.98610000  0.72316000  1.0
  O  O111  1  0.76759000  0.51391000  0.22315000  1.0
  O  O112  1  0.93625000  0.62512000  0.34496000  1.0
  O  O113  1  0.56375000  0.87488000  0.84496000  1.0
  O  O114  1  0.06375000  0.37488000  0.65505000  1.0
  O  O115  1  0.43625000  0.12512000  0.15505000  1.0
  O  O116  1  0.58946000  0.01724000  0.37318000  1.0
  O  O117  1  0.91054000  0.48276000  0.87318000  1.0
  O  O118  1  0.41054000  0.98276000  0.62682000  1.0
  O  O119  1  0.08946000  0.51724000  0.12682000  1.0
  O  O120  1  0.78354000  0.94185000  0.50410000  1.0
  O  O121  1  0.71646000  0.55815000  0.00410000  1.0
  O  O122  1  0.21645000  0.05815000  0.49591000  1.0
  O  O123  1  0.28354000  0.44185000  0.99590000  1.0
