# generated using pymatgen
data_Co2H12(C5O3)3
_symmetry_space_group_name_H-M   'P 1'
_cell_length_a   7.17723000
_cell_length_b   10.98220000
_cell_length_c   11.06690000
_cell_angle_alpha   90.02330000
_cell_angle_beta   106.24200000
_cell_angle_gamma   107.97100000
_symmetry_Int_Tables_number   1
_chemical_formula_structural   Co2H12(C5O3)3
_chemical_formula_sum   'Co4 H24 C30 O18'
_cell_volume   793.04028294
_cell_formula_units_Z   2
loop_
 _symmetry_equiv_pos_site_id
 _symmetry_equiv_pos_as_xyz
  1  'x, y, z'
loop_
 _atom_site_type_symbol
 _atom_site_label
 _atom_site_symmetry_multiplicity
 _atom_site_fract_x
 _atom_site_fract_y
 _atom_site_fract_z
 _atom_site_occupancy
  Co  Co0  1  0.37810000  0.90479000  0.58114000  1.0
  Co  Co1  1  0.62333000  0.09574000  0.41996000  1.0
  Co  Co2  1  0.90174000  0.90929000  0.58172000  1.0
  Co  Co3  1  0.09924000  0.09187000  0.41788000  1.0
  H  H4  1  0.25319000  0.07124000  0.65050000  1.0
  H  H5  1  0.74999000  0.92557000  0.34775000  1.0
  H  H6  1  0.64296000  0.78014000  0.68711000  1.0
  H  H7  1  0.35956000  0.22304000  0.31376000  1.0
  H  H8  1  0.54532000  0.73319000  0.53283000  1.0
  H  H9  1  0.45277000  0.26970000  0.46730000  1.0
  H  H10  1  0.27513000  0.86000000  0.78327000  1.0
  H  H11  1  0.72505000  0.14114000  0.21750000  1.0
  H  H12  1  0.49290000  0.83675000  0.81805000  1.0
  H  H13  1  0.50938000  0.16717000  0.18384000  1.0
  H  H14  1  0.53270000  0.23947000  0.73128000  1.0
  H  H15  1  0.46491000  0.75902000  0.26871000  1.0
  H  H16  1  0.56808000  0.37424000  0.92035000  1.0
  H  H17  1  0.42779000  0.62328000  0.07978000  1.0
  H  H18  1  0.03702000  0.11914000  0.94074000  1.0
  H  H19  1  0.96255000  0.88092000  0.05915000  1.0
  H  H20  1  0.53342000  0.40687000  0.10784000  1.0
  H  H21  1  0.46558000  0.59320000  0.89297000  1.0
  H  H22  1  0.60077000  0.56839000  0.28415000  1.0
  H  H23  1  0.40029000  0.43128000  0.71749000  1.0
  H  H24  1  0.23342000  0.59174000  0.40346000  1.0
  H  H25  1  0.76716000  0.40647000  0.59606000  1.0
  H  H26  1  0.17545000  0.44121000  0.22162000  1.0
  H  H27  1  0.82312000  0.55786000  0.77702000  1.0
  C  C28  1  0.77817000  0.09893000  0.70803000  1.0
  C  C29  1  0.22188000  0.90150000  0.29176000  1.0
  C  C30  1  0.78651000  0.17310000  0.82273000  1.0
  C  C31  1  0.21236000  0.82633000  0.17721000  1.0
  C  C32  1  0.64917000  0.24110000  0.81967000  1.0
  C  C33  1  0.34859000  0.75754000  0.18032000  1.0
  C  C34  1  0.66803000  0.31575000  0.92662000  1.0
  C  C35  1  0.32900000  0.68258000  0.07340000  1.0
  C  C36  1  0.81786000  0.32106000  0.04173000  1.0
  C  C37  1  0.17998000  0.67800000  0.95810000  1.0
  C  C38  1  0.94467000  0.24330000  0.04626000  1.0
  C  C39  1  0.05398000  0.75636000  0.95353000  1.0
  C  C40  1  0.93392000  0.17503000  0.93701000  1.0
  C  C41  1  0.06504000  0.82461000  0.06292000  1.0
  C  C42  1  0.07695000  0.21861000  0.16843000  1.0
  C  C43  1  0.92333000  0.78216000  0.83125000  1.0
  C  C44  1  0.84941000  0.41067000  0.15073000  1.0
  C  C45  1  0.14913000  0.58858000  0.84914000  1.0
  C  C46  1  0.68907000  0.44896000  0.17031000  1.0
  C  C47  1  0.31020000  0.55059000  0.83028000  1.0
  C  C48  1  0.72514000  0.53802000  0.27069000  1.0
  C  C49  1  0.27524000  0.46123000  0.73042000  1.0
  C  C50  1  0.92202000  0.59087000  0.35544000  1.0
  C  C51  1  0.07872000  0.40787000  0.64537000  1.0
  C  C52  1  0.08050000  0.55064000  0.33787000  1.0
  C  C53  1  0.91960000  0.44797000  0.66209000  1.0
  C  C54  1  0.04604000  0.46425000  0.23668000  1.0
  C  C55  1  0.95295000  0.53471000  0.76277000  1.0
  C  C56  1  0.97289000  0.69615000  0.45653000  1.0
  C  C57  1  0.02919000  0.30344000  0.54387000  1.0
  O  O58  1  0.61626000  0.07896000  0.61097000  1.0
  O  O59  1  0.38416000  0.92185000  0.38856000  1.0
  O  O60  1  0.92525000  0.05867000  0.70858000  1.0
  O  O61  1  0.07510000  0.94218000  0.29081000  1.0
  O  O62  1  0.98555000  0.17266000  0.25006000  1.0
  O  O63  1  0.01559000  0.82780000  0.74999000  1.0
  O  O64  1  0.26757000  0.24028000  0.18328000  1.0
  O  O65  1  0.73258000  0.76157000  0.81571000  1.0
  O  O66  1  0.83333000  0.74268000  0.46387000  1.0
  O  O67  1  0.16944000  0.25779000  0.53595000  1.0
  O  O68  1  0.15798000  0.73576000  0.52770000  1.0
  O  O69  1  0.84467000  0.26372000  0.47180000  1.0
  O  O70  1  0.19065000  0.00619000  0.57805000  1.0
  O  O71  1  0.80914000  0.99140000  0.41920000  1.0
  O  O72  1  0.59635000  0.80843000  0.59422000  1.0
  O  O73  1  0.40569000  0.19486000  0.40592000  1.0
  O  O74  1  0.41919000  0.89487000  0.77900000  1.0
  O  O75  1  0.58107000  0.10772000  0.22191000  1.0
