# generated using pymatgen
data_ZnH15C31N(ClO2)2
_symmetry_space_group_name_H-M   'P 1'
_cell_length_a   14.82040000
_cell_length_b   16.11300000
_cell_length_c   16.11360000
_cell_angle_alpha   89.91850000
_cell_angle_beta   89.70270000
_cell_angle_gamma   89.69740000
_symmetry_Int_Tables_number   1
_chemical_formula_structural   ZnH15C31N(ClO2)2
_chemical_formula_sum   'Zn2 H30 C62 N2 Cl4 O8'
_cell_volume   3847.83627862
_cell_formula_units_Z   2
loop_
 _symmetry_equiv_pos_site_id
 _symmetry_equiv_pos_as_xyz
  1  'x, y, z'
loop_
 _atom_site_type_symbol
 _atom_site_label
 _atom_site_symmetry_multiplicity
 _atom_site_fract_x
 _atom_site_fract_y
 _atom_site_fract_z
 _atom_site_occupancy
  Zn  Zn0  1  0.40381000  0.49965000  0.49966000  1.0
  Zn  Zn1  1  0.59619000  0.50035000  0.50034000  1.0
  H  H2  1  0.05690000  0.39879000  0.39859000  1.0
  H  H3  1  0.94310000  0.60121000  0.60142000  1.0
  H  H4  1  0.42824000  0.62552000  0.05476000  1.0
  H  H5  1  0.57176000  0.37448000  0.94524000  1.0
  H  H6  1  0.57165000  0.94519000  0.37447000  1.0
  H  H7  1  0.42835000  0.05481000  0.62553000  1.0
  H  H8  1  0.94498000  0.53732000  0.36143000  1.0
  H  H9  1  0.05502000  0.46268000  0.63857000  1.0
  H  H10  1  0.05502000  0.63865000  0.46296000  1.0
  H  H11  1  0.94498000  0.36135000  0.53704000  1.0
  H  H12  1  0.72298000  0.48041000  0.91183000  1.0
  H  H13  1  0.88769000  0.47828000  0.93700000  1.0
  H  H14  1  0.94667000  0.49223000  0.08097000  1.0
  H  H15  1  0.83877000  0.50906000  0.19938000  1.0
  H  H16  1  0.67410000  0.51132000  0.17422000  1.0
  H  H17  1  0.27702000  0.51959000  0.08817000  1.0
  H  H18  1  0.11232000  0.52172000  0.06300000  1.0
  H  H19  1  0.05333000  0.50777000  0.91903000  1.0
  H  H20  1  0.16123000  0.49094000  0.80062000  1.0
  H  H21  1  0.32590000  0.48868000  0.82578000  1.0
  H  H22  1  0.27702000  0.08826000  0.51946000  1.0
  H  H23  1  0.11232000  0.06310000  0.52183000  1.0
  H  H24  1  0.05331000  0.91910000  0.50827000  1.0
  H  H25  1  0.16119000  0.80064000  0.49154000  1.0
  H  H26  1  0.32585000  0.82579000  0.48903000  1.0
  H  H27  1  0.72298000  0.91174000  0.48055000  1.0
  H  H28  1  0.88768000  0.93690000  0.47817000  1.0
  H  H29  1  0.94669000  0.08090000  0.49173000  1.0
  H  H30  1  0.83881000  0.19936000  0.50845000  1.0
  H  H31  1  0.67415000  0.17421000  0.51097000  1.0
  C  C32  1  0.49941000  0.66130000  0.49965000  1.0
  C  C33  1  0.50059000  0.33870000  0.50035000  1.0
  C  C34  1  0.50057000  0.50038000  0.33870000  1.0
  C  C35  1  0.49943000  0.49962000  0.66131000  1.0
  C  C36  1  0.49388000  0.49870000  0.82650000  1.0
  C  C37  1  0.50612000  0.50130000  0.17350000  1.0
  C  C38  1  0.50615000  0.17350000  0.50126000  1.0
  C  C39  1  0.49385000  0.82650000  0.49874000  1.0
  C  C40  1  0.81239000  0.49983000  0.49982000  1.0
  C  C41  1  0.18761000  0.50017000  0.50018000  1.0
  C  C42  1  0.02963000  0.57719000  0.47938000  1.0
  C  C43  1  0.97037000  0.42281000  0.52063000  1.0
  C  C44  1  0.97037000  0.52079000  0.42286000  1.0
  C  C45  1  0.02963000  0.47921000  0.57714000  1.0
  C  C46  1  0.46010000  0.56931000  0.03025000  1.0
  C  C47  1  0.53990000  0.43069000  0.96975000  1.0
  C  C48  1  0.53984000  0.96972000  0.43068000  1.0
  C  C49  1  0.46016000  0.03027000  0.56932000  1.0
  C  C50  1  0.54156000  0.56735000  0.96959000  1.0
  C  C51  1  0.45844000  0.43265000  0.03042000  1.0
  C  C52  1  0.45840000  0.03041000  0.43266000  1.0
  C  C53  1  0.54160000  0.96959000  0.56734000  1.0
  C  C54  1  0.49795000  0.49917000  0.75100000  1.0
  C  C55  1  0.50205000  0.50082000  0.24900000  1.0
  C  C56  1  0.50208000  0.24901000  0.50078000  1.0
  C  C57  1  0.49792000  0.75099000  0.49922000  1.0
  C  C58  1  0.41014000  0.50236000  0.97693000  1.0
  C  C59  1  0.58986000  0.49764000  0.02307000  1.0
  C  C60  1  0.58987000  0.02305000  0.49758000  1.0
  C  C61  1  0.41013000  0.97695000  0.50241000  1.0
  C  C62  1  0.49340000  0.49926000  0.91414000  1.0
  C  C63  1  0.50660000  0.50074000  0.08586000  1.0
  C  C64  1  0.50662000  0.08586000  0.50072000  1.0
  C  C65  1  0.49338000  0.91414000  0.49927000  1.0
  C  C66  1  0.96929000  0.55635000  0.55647000  1.0
  C  C67  1  0.03071000  0.44365000  0.44354000  1.0
  C  C68  1  0.90791000  0.49994000  0.49995000  1.0
  C  C69  1  0.09209000  0.50006000  0.50005000  1.0
  C  C70  1  0.68734000  0.49574000  0.04148000  1.0
  C  C71  1  0.74846000  0.48661000  0.97497000  1.0
  C  C72  1  0.84109000  0.48566000  0.98915000  1.0
  C  C73  1  0.87411000  0.49362000  0.06989000  1.0
  C  C74  1  0.81377000  0.50297000  0.13608000  1.0
  C  C75  1  0.72080000  0.50429000  0.12220000  1.0
  C  C76  1  0.31266000  0.50426000  0.95852000  1.0
  C  C77  1  0.25154000  0.51339000  0.02503000  1.0
  C  C78  1  0.15891000  0.51435000  0.01085000  1.0
  C  C79  1  0.12589000  0.50638000  0.93012000  1.0
  C  C80  1  0.18623000  0.49703000  0.86392000  1.0
  C  C81  1  0.27920000  0.49572000  0.87780000  1.0
  C  C82  1  0.31265000  0.95857000  0.50436000  1.0
  C  C83  1  0.25154000  0.02510000  0.51341000  1.0
  C  C84  1  0.15890000  0.01093000  0.51450000  1.0
  C  C85  1  0.12588000  0.93015000  0.50674000  1.0
  C  C86  1  0.18621000  0.86396000  0.49746000  1.0
  C  C87  1  0.27917000  0.87783000  0.49600000  1.0
  C  C88  1  0.68735000  0.04143000  0.49563000  1.0
  C  C89  1  0.74846000  0.97490000  0.48659000  1.0
  C  C90  1  0.84109000  0.98907000  0.48550000  1.0
  C  C91  1  0.87412000  0.06985000  0.49326000  1.0
  C  C92  1  0.81379000  0.13604000  0.50253000  1.0
  C  C93  1  0.72083000  0.12217000  0.50400000  1.0
  N  N94  1  0.73405000  0.49966000  0.49966000  1.0
  N  N95  1  0.26596000  0.50034000  0.50034000  1.0
  Cl  Cl96  1  0.59514000  0.65448000  0.93052000  1.0
  Cl  Cl97  1  0.40485000  0.34552000  0.06948000  1.0
  Cl  Cl98  1  0.40475000  0.06947000  0.34556000  1.0
  Cl  Cl99  1  0.59524000  0.93053000  0.65444000  1.0
  O  O100  1  0.42268000  0.62599000  0.49911000  1.0
  O  O101  1  0.57733000  0.37401000  0.50089000  1.0
  O  O102  1  0.57732000  0.50092000  0.37400000  1.0
  O  O103  1  0.42269000  0.49908000  0.62600000  1.0
  O  O104  1  0.57678000  0.62672000  0.50042000  1.0
  O  O105  1  0.42323000  0.37327000  0.49958000  1.0
  O  O106  1  0.42322000  0.49959000  0.37328000  1.0
  O  O107  1  0.57679000  0.50040000  0.62672000  1.0
