# generated using pymatgen
data_Gd2H37C36N7O22
_symmetry_space_group_name_H-M   'P 1'
_cell_length_a   13.68680000
_cell_length_b   13.68680000
_cell_length_c   16.31010000
_cell_angle_alpha   67.05360000
_cell_angle_beta   67.05360000
_cell_angle_gamma   75.71510000
_symmetry_Int_Tables_number   1
_chemical_formula_structural   Gd2H37C36N7O22
_chemical_formula_sum   'Gd4 H74 C72 N14 O44'
_cell_volume   2574.71625492
_cell_formula_units_Z   2
loop_
 _symmetry_equiv_pos_site_id
 _symmetry_equiv_pos_as_xyz
  1  'x, y, z'
loop_
 _atom_site_type_symbol
 _atom_site_label
 _atom_site_symmetry_multiplicity
 _atom_site_fract_x
 _atom_site_fract_y
 _atom_site_fract_z
 _atom_site_occupancy
  Gd  Gd0  1  0.16988000  0.45154000  0.99840000  1.0
  Gd  Gd1  1  0.54846000  0.83012000  0.50160000  1.0
  Gd  Gd2  1  0.83012000  0.54846000  0.00160000  1.0
  Gd  Gd3  1  0.45154000  0.16988000  0.49840000  1.0
  H  H4  1  0.75939000  0.24061000  0.25000000  1.0
  H  H5  1  0.24061000  0.75939000  0.75000000  1.0
  H  H6  1  0.08342000  0.34437000  0.55520000  1.0
  H  H7  1  0.65563000  0.91658000  0.94480000  1.0
  H  H8  1  0.91658000  0.65563000  0.44480000  1.0
  H  H9  1  0.34437000  0.08342000  0.05520000  1.0
  H  H10  1  0.09264000  0.13158000  0.14521000  1.0
  H  H11  1  0.86842000  0.90736000  0.35479000  1.0
  H  H12  1  0.90736000  0.86842000  0.85479000  1.0
  H  H13  1  0.13158000  0.09264000  0.64521000  1.0
  H  H14  1  0.23018000  0.33133000  0.74993000  1.0
  H  H15  1  0.66867000  0.76982000  0.75007000  1.0
  H  H16  1  0.76982000  0.66867000  0.25007000  1.0
  H  H17  1  0.33133000  0.23018000  0.24993000  1.0
  H  H18  1  0.90208000  0.46493000  0.78670000  1.0
  H  H19  1  0.53507000  0.09792000  0.71330000  1.0
  H  H20  1  0.09792000  0.53507000  0.21330000  1.0
  H  H21  1  0.46493000  0.90208000  0.28670000  1.0
  H  H22  1  0.25400000  0.58822000  0.76467000  1.0
  H  H23  1  0.41178000  0.74600000  0.73533000  1.0
  H  H24  1  0.74600000  0.41178000  0.23533000  1.0
  H  H25  1  0.58822000  0.25400000  0.26467000  1.0
  H  H26  1  0.25066000  0.54542000  0.67560000  1.0
  H  H27  1  0.45458000  0.74934000  0.82440000  1.0
  H  H28  1  0.74934000  0.45458000  0.32440000  1.0
  H  H29  1  0.54542000  0.25066000  0.17560000  1.0
  H  H30  1  0.34750000  0.63134000  0.64693000  1.0
  H  H31  1  0.36866000  0.65249000  0.85307000  1.0
  H  H32  1  0.65250000  0.36866000  0.35307000  1.0
  H  H33  1  0.63134000  0.34750000  0.14693000  1.0
  H  H34  1  0.44699000  0.36243000  0.82269000  1.0
  H  H35  1  0.63757000  0.55301000  0.67731000  1.0
  H  H36  1  0.55301000  0.63757000  0.17731000  1.0
  H  H37  1  0.36243000  0.44699000  0.32269000  1.0
  H  H38  1  0.12596000  0.69765000  0.03024000  1.0
  H  H39  1  0.30235000  0.87404000  0.46976000  1.0
  H  H40  1  0.87404000  0.30235000  0.96976000  1.0
  H  H41  1  0.69765000  0.12596000  0.53024000  1.0
  H  H42  1  0.49967000  0.36031000  0.68155000  1.0
  H  H43  1  0.63969000  0.50033000  0.81845000  1.0
  H  H44  1  0.50033000  0.63969000  0.31845000  1.0
  H  H45  1  0.36031000  0.49967000  0.18155000  1.0
  H  H46  1  0.49296000  0.48996000  0.59476000  1.0
  H  H47  1  0.51004000  0.50704000  0.90524000  1.0
  H  H48  1  0.50704000  0.51004000  0.40524000  1.0
  H  H49  1  0.48996000  0.49296000  0.09476000  1.0
  H  H50  1  0.39868000  0.39835000  0.62906000  1.0
  H  H51  1  0.60165000  0.60132000  0.87094000  1.0
  H  H52  1  0.60132000  0.60165000  0.37094000  1.0
  H  H53  1  0.39835000  0.39868000  0.12906000  1.0
  H  H54  1  0.37670000  0.69672000  0.09803000  1.0
  H  H55  1  0.30328000  0.62330000  0.40197000  1.0
  H  H56  1  0.62330000  0.30328000  0.90197000  1.0
  H  H57  1  0.69672000  0.37670000  0.59803000  1.0
  H  H58  1  0.41779000  0.77581000  0.97738000  1.0
  H  H59  1  0.22419000  0.58221000  0.52262000  1.0
  H  H60  1  0.58221000  0.22419000  0.02262000  1.0
  H  H61  1  0.77581000  0.41779000  0.47738000  1.0
  H  H62  1  0.40372000  0.63727000  0.00965000  1.0
  H  H63  1  0.36273000  0.59628000  0.49035000  1.0
  H  H64  1  0.59628000  0.36273000  0.99035000  1.0
  H  H65  1  0.63727000  0.40372000  0.50965000  1.0
  H  H66  1  0.12316000  0.84497000  0.04864000  1.0
  H  H67  1  0.15503000  0.87684000  0.45136000  1.0
  H  H68  1  0.87684000  0.15503000  0.95136000  1.0
  H  H69  1  0.84497000  0.12316000  0.54864000  1.0
  H  H70  1  0.24631000  0.90375000  0.99137000  1.0
  H  H71  1  0.09625000  0.75369000  0.50863000  1.0
  H  H72  1  0.75369000  0.09625000  0.00863000  1.0
  H  H73  1  0.90375000  0.24631000  0.49137000  1.0
  H  H74  1  0.20470000  0.83570000  0.11527000  1.0
  H  H75  1  0.16430000  0.79531000  0.38473000  1.0
  H  H76  1  0.79530000  0.16430000  0.88473000  1.0
  H  H77  1  0.83570000  0.20470000  0.61527000  1.0
  C  C78  1  0.92759000  0.19776000  0.18941000  1.0
  C  C79  1  0.80224000  0.07241000  0.31059000  1.0
  C  C80  1  0.07241000  0.80224000  0.81059000  1.0
  C  C81  1  0.19776000  0.92759000  0.68941000  1.0
  C  C82  1  0.82410000  0.17590000  0.25000000  1.0
  C  C83  1  0.17590000  0.82410000  0.75000000  1.0
  C  C84  1  0.07877000  0.36057000  0.61681000  1.0
  C  C85  1  0.63943000  0.92123000  0.88319000  1.0
  C  C86  1  0.92123000  0.63943000  0.38319000  1.0
  C  C87  1  0.36057000  0.07877000  0.11681000  1.0
  C  C88  1  0.94959000  0.30947000  0.12271000  1.0
  C  C89  1  0.69053000  0.05041000  0.37729000  1.0
  C  C90  1  0.05041000  0.69053000  0.87729000  1.0
  C  C91  1  0.30947000  0.94959000  0.62271000  1.0
  C  C92  1  0.06070000  0.42879000  0.85946000  1.0
  C  C93  1  0.57121000  0.93930000  0.64054000  1.0
  C  C94  1  0.93930000  0.57121000  0.14054000  1.0
  C  C95  1  0.42879000  0.06070000  0.35946000  1.0
  C  C96  1  0.01140000  0.11526000  0.19057000  1.0
  C  C97  1  0.88474000  0.98860000  0.30943000  1.0
  C  C98  1  0.98860000  0.88474000  0.80943000  1.0
  C  C99  1  0.11526000  0.01140000  0.69057000  1.0
  C  C100  1  0.16140000  0.35398000  0.72583000  1.0
  C  C101  1  0.64602000  0.83860000  0.77417000  1.0
  C  C102  1  0.83860000  0.64602000  0.27417000  1.0
  C  C103  1  0.35398000  0.16140000  0.22583000  1.0
  C  C104  1  0.06661000  0.40291000  0.77581000  1.0
  C  C105  1  0.59709000  0.93339000  0.72419000  1.0
  C  C106  1  0.93339000  0.59709000  0.22419000  1.0
  C  C107  1  0.40291000  0.06661000  0.27581000  1.0
  C  C108  1  0.16801000  0.33368000  0.64598000  1.0
  C  C109  1  0.66632000  0.83199000  0.85402000  1.0
  C  C110  1  0.83199000  0.66632000  0.35402000  1.0
  C  C111  1  0.33368000  0.16801000  0.14598000  1.0
  C  C112  1  0.26835000  0.28123000  0.59103000  1.0
  C  C113  1  0.71877000  0.73165000  0.90897000  1.0
  C  C114  1  0.73165000  0.71877000  0.40897000  1.0
  C  C115  1  0.28123000  0.26834000  0.09103000  1.0
  C  C116  1  0.97634000  0.42775000  0.74808000  1.0
  C  C117  1  0.57225000  0.02366000  0.75192000  1.0
  C  C118  1  0.02366000  0.57225000  0.25192000  1.0
  C  C119  1  0.42775000  0.97634000  0.24808000  1.0
  C  C120  1  0.98782000  0.01218000  0.25000000  1.0
  C  C121  1  0.01218000  0.98782000  0.75000000  1.0
  C  C122  1  0.30283000  0.56560000  0.70219000  1.0
  C  C123  1  0.43440000  0.69717000  0.79781000  1.0
  C  C124  1  0.69717000  0.43440000  0.29781000  1.0
  C  C125  1  0.56560000  0.30283000  0.20219000  1.0
  C  C126  1  0.98413000  0.40479000  0.66959000  1.0
  C  C127  1  0.59521000  0.01587000  0.83041000  1.0
  C  C128  1  0.01587000  0.59521000  0.33041000  1.0
  C  C129  1  0.40479000  0.98413000  0.16959000  1.0
  C  C130  1  0.38757000  0.43326000  0.81282000  1.0
  C  C131  1  0.56673000  0.61243000  0.68718000  1.0
  C  C132  1  0.61243000  0.56674000  0.18718000  1.0
  C  C133  1  0.43327000  0.38757000  0.31282000  1.0
  C  C134  1  0.20980000  0.66823000  0.02649000  1.0
  C  C135  1  0.33177000  0.79020000  0.47351000  1.0
  C  C136  1  0.79020000  0.33177000  0.97351000  1.0
  C  C137  1  0.66823000  0.20980000  0.52649000  1.0
  C  C138  1  0.44608000  0.42792000  0.65371000  1.0
  C  C139  1  0.57208000  0.55392000  0.84629000  1.0
  C  C140  1  0.55392000  0.57208000  0.34629000  1.0
  C  C141  1  0.42793000  0.44608000  0.15371000  1.0
  C  C142  1  0.37148000  0.70961000  0.02894000  1.0
  C  C143  1  0.29039000  0.62852000  0.47106000  1.0
  C  C144  1  0.62852000  0.29039000  0.97106000  1.0
  C  C145  1  0.70961000  0.37148000  0.52894000  1.0
  C  C146  1  0.20554000  0.83584000  0.04758000  1.0
  C  C147  1  0.16416000  0.79446000  0.45242000  1.0
  C  C148  1  0.79446000  0.16416000  0.95242000  1.0
  C  C149  1  0.83584000  0.20553000  0.54758000  1.0
  N  N150  1  0.07507000  0.92493000  0.25000000  1.0
  N  N151  1  0.92493000  0.07507000  0.75000000  1.0
  N  N152  1  0.37768000  0.47273000  0.72751000  1.0
  N  N153  1  0.52727000  0.62232000  0.77249000  1.0
  N  N154  1  0.62232000  0.52728000  0.27249000  1.0
  N  N155  1  0.47273000  0.37768000  0.22751000  1.0
  N  N156  1  0.88866000  0.42439000  0.64291000  1.0
  N  N157  1  0.57561000  0.11134000  0.85709000  1.0
  N  N158  1  0.11134000  0.57561000  0.35709000  1.0
  N  N159  1  0.42439000  0.88866000  0.14291000  1.0
  N  N160  1  0.26083000  0.73617000  0.03175000  1.0
  N  N161  1  0.26383000  0.73917000  0.46825000  1.0
  N  N162  1  0.73917000  0.26383000  0.96825000  1.0
  N  N163  1  0.73617000  0.26083000  0.53175000  1.0
  O  O164  1  0.86958000  0.37567000  0.10918000  1.0
  O  O165  1  0.62433000  0.13042000  0.39082000  1.0
  O  O166  1  0.13042000  0.62433000  0.89082000  1.0
  O  O167  1  0.37567000  0.86958000  0.60918000  1.0
  O  O168  1  0.33591000  0.47191000  0.87820000  1.0
  O  O169  1  0.52809000  0.66409000  0.62180000  1.0
  O  O170  1  0.66409000  0.52809000  0.12180000  1.0
  O  O171  1  0.47191000  0.33591000  0.37820000  1.0
  O  O172  1  0.25113000  0.57884000  0.01789000  1.0
  O  O173  1  0.42116000  0.74887000  0.48211000  1.0
  O  O174  1  0.74887000  0.42116000  0.98211000  1.0
  O  O175  1  0.57884000  0.25113000  0.51789000  1.0
  O  O176  1  0.04644000  0.32684000  0.08522000  1.0
  O  O177  1  0.67316000  0.95356000  0.41478000  1.0
  O  O178  1  0.95356000  0.67316000  0.91478000  1.0
  O  O179  1  0.32684000  0.04644000  0.58522000  1.0
  O  O180  1  0.14537000  0.40969000  0.87973000  1.0
  O  O181  1  0.59031000  0.85463000  0.62027000  1.0
  O  O182  1  0.85463000  0.59032000  0.12027000  1.0
  O  O183  1  0.40969000  0.14538000  0.37973000  1.0
  O  O184  1  0.97068000  0.46827000  0.90388000  1.0
  O  O185  1  0.53173000  0.02932000  0.59612000  1.0
  O  O186  1  0.02932000  0.53173000  0.09612000  1.0
  O  O187  1  0.46827000  0.97068000  0.40388000  1.0
  O  O188  1  0.27062000  0.27065000  0.51632000  1.0
  O  O189  1  0.72935000  0.72938000  0.98368000  1.0
  O  O190  1  0.72938000  0.72935000  0.48368000  1.0
  O  O191  1  0.27065000  0.27062000  0.01632000  1.0
  O  O192  1  0.34816000  0.24818000  0.62135000  1.0
  O  O193  1  0.75182000  0.65184000  0.87865000  1.0
  O  O194  1  0.65184000  0.75182000  0.37865000  1.0
  O  O195  1  0.24818000  0.34816000  0.12135000  1.0
  O  O196  1  0.16835000  0.94807000  0.20790000  1.0
  O  O197  1  0.05193000  0.83165000  0.29210000  1.0
  O  O198  1  0.83165000  0.05193000  0.79210000  1.0
  O  O199  1  0.94807000  0.16835000  0.70790000  1.0
  O  O200  1  0.90058000  0.42220000  0.56425000  1.0
  O  O201  1  0.57780000  0.09942000  0.93575000  1.0
  O  O202  1  0.09942000  0.57780000  0.43575000  1.0
  O  O203  1  0.42220000  0.90058000  0.06425000  1.0
  O  O204  1  0.80033000  0.44060000  0.70127000  1.0
  O  O205  1  0.55940000  0.19967000  0.79872000  1.0
  O  O206  1  0.19967000  0.55940000  0.29873000  1.0
  O  O207  1  0.44060000  0.80033000  0.20127000  1.0
