# generated using pymatgen
data_ZnH6C18Br4N3O4F
_symmetry_space_group_name_H-M   'P 1'
_cell_length_a   13.14860000
_cell_length_b   16.24310000
_cell_length_c   17.21830000
_cell_angle_alpha   99.19880000
_cell_angle_beta   93.67170000
_cell_angle_gamma   97.11320000
_symmetry_Int_Tables_number   1
_chemical_formula_structural   ZnH6C18Br4N3O4F
_chemical_formula_sum   'Zn2 H12 C36 Br8 N6 O8 F2'
_cell_volume   3588.93285416
_cell_formula_units_Z   2
loop_
 _symmetry_equiv_pos_site_id
 _symmetry_equiv_pos_as_xyz
  1  'x, y, z'
loop_
 _atom_site_type_symbol
 _atom_site_label
 _atom_site_symmetry_multiplicity
 _atom_site_fract_x
 _atom_site_fract_y
 _atom_site_fract_z
 _atom_site_occupancy
  Zn  Zn0  1  0.50158000  0.41051000  0.49956000  1.0
  Zn  Zn1  1  0.51237000  0.59279000  0.50854000  1.0
  H  H2  1  0.38170000  0.70034000  0.45249000  1.0
  H  H3  1  0.36803000  0.85380000  0.44749000  1.0
  H  H4  1  0.35539000  0.09398000  0.38557000  1.0
  H  H5  1  0.60501000  0.12415000  0.56758000  1.0
  H  H6  1  0.42377000  0.59689000  0.26094000  1.0
  H  H7  1  0.41595000  0.58477000  0.11305000  1.0
  H  H8  1  0.53347000  0.66046000  0.92093000  1.0
  H  H9  1  0.42619000  0.39508000  0.87499000  1.0
  H  H10  1  0.82737000  0.38031000  0.50565000  1.0
  H  H11  1  0.82273000  0.63831000  0.47586000  1.0
  H  H12  1  0.18064000  0.60244000  0.48135000  1.0
  H  H13  1  0.18681000  0.34742000  0.51933000  1.0
  C  C14  1  0.49987000  0.50115000  0.35196000  1.0
  C  C15  1  0.30960000  0.48846000  0.50030000  1.0
  C  C16  1  0.50392000  0.52432000  0.65507000  1.0
  C  C17  1  0.70025000  0.49700000  0.49538000  1.0
  C  C18  1  0.44150000  0.75088000  0.48048000  1.0
  C  C19  1  0.43431000  0.83476000  0.47768000  1.0
  C  C20  1  0.51407000  0.89577000  0.51624000  1.0
  C  C21  1  0.59865000  0.87001000  0.55535000  1.0
  C  C22  1  0.59987000  0.78345000  0.55451000  1.0
  C  C23  1  0.41187000  0.13319000  0.42927000  1.0
  C  C24  1  0.47804000  0.09784000  0.47692000  1.0
  C  C25  1  0.55119000  0.15045000  0.53113000  1.0
  C  C26  1  0.55432000  0.23695000  0.53607000  1.0
  C  C27  1  0.42034000  0.22083000  0.43953000  1.0
  C  C28  1  0.50069000  0.48849000  0.26334000  1.0
  C  C29  1  0.45529000  0.54643000  0.22473000  1.0
  C  C30  1  0.45119000  0.54026000  0.14356000  1.0
  C  C31  1  0.49319000  0.47520000  0.09805000  1.0
  C  C32  1  0.53906000  0.41627000  0.13561000  1.0
  C  C33  1  0.54366000  0.42332000  0.21826000  1.0
  C  C34  1  0.51208000  0.60251000  0.87861000  1.0
  C  C35  1  0.48388000  0.52748000  0.90644000  1.0
  C  C36  1  0.45206000  0.45263000  0.85297000  1.0
  C  C37  1  0.45365000  0.45391000  0.77266000  1.0
  C  C38  1  0.48948000  0.52730000  0.74187000  1.0
  C  C39  1  0.51548000  0.60180000  0.79789000  1.0
  C  C40  1  0.86860000  0.44072000  0.49882000  1.0
  C  C41  1  0.86623000  0.58652000  0.48186000  1.0
  C  C42  1  0.97097000  0.59611000  0.48009000  1.0
  C  C43  1  0.03152000  0.53116000  0.48893000  1.0
  C  C44  1  0.13977000  0.54224000  0.48899000  1.0
  C  C45  1  0.14279000  0.39804000  0.51021000  1.0
  C  C46  1  0.03774000  0.38741000  0.50931000  1.0
  C  C47  1  0.97688000  0.45170000  0.49887000  1.0
  C  C48  1  0.81444000  0.50728000  0.49133000  1.0
  C  C49  1  0.19461000  0.47683000  0.49946000  1.0
  Br  Br50  1  0.71170000  0.74651000  0.60575000  1.0
  Br  Br51  1  0.70839000  0.95135000  0.60370000  1.0
  Br  Br52  1  0.32894000  0.26643000  0.37477000  1.0
  Br  Br53  1  0.65488000  0.30387000  0.61033000  1.0
  Br  Br54  1  0.61494000  0.34867000  0.26816000  1.0
  Br  Br55  1  0.59919000  0.33190000  0.07239000  1.0
  Br  Br56  1  0.56100000  0.70871000  0.77065000  1.0
  Br  Br57  1  0.39634000  0.35081000  0.70576000  1.0
  N  N58  1  0.52265000  0.72579000  0.51814000  1.0
  N  N59  1  0.51265000  0.98315000  0.52347000  1.0
  N  N60  1  0.47204000  0.00846000  0.46495000  1.0
  N  N61  1  0.48985000  0.27327000  0.49164000  1.0
  N  N62  1  0.48996000  0.46592000  0.01500000  1.0
  N  N63  1  0.48986000  0.53484000  0.98950000  1.0
  O  O64  1  0.48071000  0.43657000  0.38388000  1.0
  O  O65  1  0.51573000  0.57749000  0.38691000  1.0
  O  O66  1  0.35384000  0.55811000  0.48640000  1.0
  O  O67  1  0.35383000  0.42639000  0.51546000  1.0
  O  O68  1  0.48590000  0.58766000  0.62429000  1.0
  O  O69  1  0.53526000  0.45871000  0.62004000  1.0
  O  O70  1  0.65310000  0.42222000  0.48394000  1.0
  O  O71  1  0.65966000  0.56431000  0.51088000  1.0
  F  F72  1  0.98764000  0.31155000  0.51951000  1.0
  F  F73  1  0.02124000  0.67205000  0.47004000  1.0
