# generated using pymatgen
data_Cu2H20C21S2(IN2)2
_symmetry_space_group_name_H-M   'P 1'
_cell_length_a   9.37867000
_cell_length_b   10.20040000
_cell_length_c   13.60410000
_cell_angle_alpha   78.58520000
_cell_angle_beta   83.90130000
_cell_angle_gamma   65.28790000
_symmetry_Int_Tables_number   1
_chemical_formula_structural   Cu2H20C21S2(IN2)2
_chemical_formula_sum   'Cu4 H40 C42 S4 I4 N8'
_cell_volume   1158.47636858
_cell_formula_units_Z   2
loop_
 _symmetry_equiv_pos_site_id
 _symmetry_equiv_pos_as_xyz
  1  'x, y, z'
loop_
 _atom_site_type_symbol
 _atom_site_label
 _atom_site_symmetry_multiplicity
 _atom_site_fract_x
 _atom_site_fract_y
 _atom_site_fract_z
 _atom_site_occupancy
  Cu  Cu0  1  0.68895000  0.32100000  0.11376000  1.0
  Cu  Cu1  1  0.31105000  0.67900000  0.88625000  1.0
  Cu  Cu2  1  0.39223000  0.52015000  0.06637000  1.0
  Cu  Cu3  1  0.60777000  0.47984000  0.93363000  1.0
  H  H4  1  0.45652000  0.88491000  0.09987000  1.0
  H  H5  1  0.54348000  0.11508000  0.90013000  1.0
  H  H6  1  0.15067000  0.09777000  0.07538000  1.0
  H  H7  1  0.84933000  0.90223000  0.92462000  1.0
  H  H8  1  0.03431000  0.35819000  0.07025000  1.0
  H  H9  1  0.96570000  0.64181000  0.92975000  1.0
  H  H10  1  0.15154000  0.45252000  0.09029000  1.0
  H  H11  1  0.84846000  0.54748000  0.90971000  1.0
  H  H12  1  0.09031000  0.56955000  0.23864000  1.0
  H  H13  1  0.90969000  0.43044000  0.76136000  1.0
  H  H14  1  0.84973000  0.60395000  0.38339000  1.0
  H  H15  1  0.15027000  0.39605000  0.61661000  1.0
  H  H16  1  0.71372000  0.05653000  0.14968000  1.0
  H  H17  1  0.28628000  0.94347000  0.85033000  1.0
  H  H18  1  0.70732000  0.89126000  0.13229000  1.0
  H  H19  1  0.29269000  0.10873000  0.86771000  1.0
  H  H20  1  0.91595000  0.90492000  0.27931000  1.0
  H  H21  1  0.08405000  0.09508000  0.72070000  1.0
  H  H22  1  0.96285000  0.80230000  0.45894000  1.0
  H  H23  1  0.03715000  0.19770000  0.54107000  1.0
  H  H24  1  0.75014000  0.76207000  0.57101000  1.0
  H  H25  1  0.24986000  0.23793000  0.42899000  1.0
  H  H26  1  0.49061000  0.82677000  0.49908000  1.0
  H  H27  1  0.50940000  0.17323000  0.50092000  1.0
  H  H28  1  0.44483000  0.92676000  0.31976000  1.0
  H  H29  1  0.55517000  0.07324000  0.68024000  1.0
  H  H30  1  0.65040000  0.37043000  0.33354000  1.0
  H  H31  1  0.34960000  0.62957000  0.66646000  1.0
  H  H32  1  0.61465000  0.53277000  0.38036000  1.0
  H  H33  1  0.38535000  0.46724000  0.61963000  1.0
  H  H34  1  0.80795000  0.12350000  0.43607000  1.0
  H  H35  1  0.19205000  0.87650000  0.56393000  1.0
  H  H36  1  0.86195000  0.98026000  0.60954000  1.0
  H  H37  1  0.13805000  0.01974000  0.39046000  1.0
  H  H38  1  0.80563000  0.11010000  0.75514000  1.0
  H  H39  1  0.19435000  0.88991000  0.24486000  1.0
  H  H40  1  0.69784000  0.38080000  0.72859000  1.0
  H  H41  1  0.30215000  0.61921000  0.27140000  1.0
  H  H42  1  0.65217000  0.52414000  0.55461000  1.0
  H  H43  1  0.34783000  0.47586000  0.44539000  1.0
  C  C44  1  0.39748000  0.20123000  0.15768000  1.0
  C  C45  1  0.60252000  0.79877000  0.84232000  1.0
  C  C46  1  0.40446000  0.99779000  0.11194000  1.0
  C  C47  1  0.59554000  0.00221000  0.88806000  1.0
  C  C48  1  0.25506000  0.10111000  0.10002000  1.0
  C  C49  1  0.74494000  0.89889000  0.89998000  1.0
  C  C50  1  0.11434000  0.36333000  0.12130000  1.0
  C  C51  1  0.88567000  0.63667000  0.87870000  1.0
  C  C52  1  0.92181000  0.33983000  0.25648000  1.0
  C  C53  1  0.07819000  0.66017000  0.74352000  1.0
  C  C54  1  0.01699000  0.50973000  0.26168000  1.0
  C  C55  1  0.98302000  0.49027000  0.73832000  1.0
  C  C56  1  0.89861000  0.52692000  0.33167000  1.0
  C  C57  1  0.10139000  0.47308000  0.66833000  1.0
  C  C58  1  0.65488000  0.98168000  0.17549000  1.0
  C  C59  1  0.34512000  0.01832000  0.82451000  1.0
  C  C60  1  0.67700000  0.92368000  0.28675000  1.0
  C  C61  1  0.32301000  0.07632000  0.71325000  1.0
  C  C62  1  0.82236000  0.88782000  0.32730000  1.0
  C  C63  1  0.17764000  0.11218000  0.67270000  1.0
  C  C64  1  0.84891000  0.82969000  0.42890000  1.0
  C  C65  1  0.15109000  0.17031000  0.57110000  1.0
  C  C66  1  0.73015000  0.80690000  0.49146000  1.0
  C  C67  1  0.26985000  0.19310000  0.50854000  1.0
  C  C68  1  0.58512000  0.84231000  0.45130000  1.0
  C  C69  1  0.41488000  0.15769000  0.54870000  1.0
  C  C70  1  0.55883000  0.90008000  0.34955000  1.0
  C  C71  1  0.44117000  0.09992000  0.65045000  1.0
  C  C72  1  0.69795000  0.41887000  0.37985000  1.0
  C  C73  1  0.30205000  0.58113000  0.62014000  1.0
  C  C74  1  0.72695000  0.33269000  0.48465000  1.0
  C  C75  1  0.27305000  0.66731000  0.51535000  1.0
  C  C76  1  0.78499000  0.17938000  0.50037000  1.0
  C  C77  1  0.21501000  0.82062000  0.49963000  1.0
  C  C78  1  0.81423000  0.09955000  0.59742000  1.0
  C  C79  1  0.18577000  0.90045000  0.40258000  1.0
  C  C80  1  0.78328000  0.17223000  0.67929000  1.0
  C  C81  1  0.21671000  0.82778000  0.32071000  1.0
  C  C82  1  0.72397000  0.32481000  0.66414000  1.0
  C  C83  1  0.27603000  0.67519000  0.33586000  1.0
  C  C84  1  0.69727000  0.40478000  0.56693000  1.0
  C  C85  1  0.30273000  0.59523000  0.43307000  1.0
  S  S86  1  0.45236000  0.32320000  0.19552000  1.0
  S  S87  1  0.54764000  0.67680000  0.80448000  1.0
  S  S88  1  0.89551000  0.19977000  0.22474000  1.0
  S  S89  1  0.10449000  0.80023000  0.77526000  1.0
  I  I90  1  0.63204000  0.60279000  0.09746000  1.0
  I  I91  1  0.36796000  0.39721000  0.90254000  1.0
  I  I92  1  0.84568000  0.22630000  0.94695000  1.0
  I  I93  1  0.15433000  0.77370000  0.05305000  1.0
  N  N94  1  0.49093000  0.05974000  0.14757000  1.0
  N  N95  1  0.50907000  0.94026000  0.85243000  1.0
  N  N96  1  0.25131000  0.22529000  0.12934000  1.0
  N  N97  1  0.74869000  0.77471000  0.87066000  1.0
  N  N98  1  0.03028000  0.39495000  0.21541000  1.0
  N  N99  1  0.96973000  0.60505000  0.78459000  1.0
  N  N100  1  0.84038000  0.42381000  0.32709000  1.0
  N  N101  1  0.15962000  0.57619000  0.67291000  1.0
