# generated using pymatgen
data_Zr3H20C31O21
_symmetry_space_group_name_H-M   'P 1'
_cell_length_a   14.78091155
_cell_length_b   14.83543806
_cell_length_c   14.84310000
_cell_angle_alpha   90.00806249
_cell_angle_beta   119.83870446
_cell_angle_gamma   119.85065560
_symmetry_Int_Tables_number   1
_chemical_formula_structural   Zr3H20C31O21
_chemical_formula_sum   'Zr6 H40 C62 O42'
_cell_volume   2312.10562281
_cell_formula_units_Z   2
loop_
 _symmetry_equiv_pos_site_id
 _symmetry_equiv_pos_as_xyz
  1  'x, y, z'
loop_
 _atom_site_type_symbol
 _atom_site_label
 _atom_site_symmetry_multiplicity
 _atom_site_fract_x
 _atom_site_fract_y
 _atom_site_fract_z
 _atom_site_occupancy
  Zr  Zr0  1  0.50295000  0.88386000  0.88021000  1.0
  Zr  Zr1  1  0.50169000  0.12170000  0.11786000  1.0
  Zr  Zr2  1  0.74077000  0.12127000  0.11796000  1.0
  Zr  Zr3  1  0.26434000  0.88464000  0.88038000  1.0
  Zr  Zr4  1  0.50397000  0.88445000  0.11771000  1.0
  Zr  Zr5  1  0.50421000  0.12138000  0.88064000  1.0
  H  H6  1  0.69042000  0.90770000  0.09409000  1.0
  H  H7  1  0.31640000  0.90895000  0.09424000  1.0
  H  H8  1  0.69053000  0.28367000  0.09287000  1.0
  H  H9  1  0.31628000  0.90986000  0.71881000  1.0
  H  H10  1  0.40054000  0.53262000  0.16529000  1.0
  H  H11  1  0.57018000  0.62019000  0.24497000  1.0
  H  H12  1  0.57785000  0.45536000  0.24624000  1.0
  H  H13  1  0.40845000  0.36714000  0.16841000  1.0
  H  H14  1  0.55449000  0.24809000  0.60933000  1.0
  H  H15  1  0.38666000  0.15036000  0.51977000  1.0
  H  H16  1  0.40050000  0.15844000  0.35761000  1.0
  H  H17  1  0.56979000  0.25186000  0.44875000  1.0
  H  H18  1  0.87543000  0.52220000  0.73053000  1.0
  H  H19  1  0.87418000  0.61526000  0.80524000  1.0
  H  H20  1  0.70783000  0.45530000  0.81697000  1.0
  H  H21  1  0.70545000  0.36315000  0.73729000  1.0
  H  H22  1  0.87953000  0.84146000  0.63779000  1.0
  H  H23  1  0.87588000  0.75522000  0.55031000  1.0
  H  H24  1  0.70457000  0.75558000  0.38484000  1.0
  H  H25  1  0.70972000  0.84366000  0.47175000  1.0
  H  H26  1  0.72267000  0.79686000  0.98019000  1.0
  H  H27  1  0.72389000  0.63195000  0.97977000  1.0
  H  H28  1  0.06752000  0.80117000  0.99325000  1.0
  H  H29  1  0.89997000  0.63560000  0.99054000  1.0
  H  H30  1  0.18895000  0.17330000  0.03296000  1.0
  H  H31  1  0.01997000  0.17301000  0.03333000  1.0
  H  H32  1  0.30285000  0.54092000  0.62679000  1.0
  H  H33  1  0.30123000  0.62659000  0.54214000  1.0
  H  H34  1  0.13269000  0.45847000  0.37418000  1.0
  H  H35  1  0.13550000  0.37360000  0.45956000  1.0
  H  H36  1  0.48411000  0.34042000  0.83950000  1.0
  H  H37  1  0.47258000  0.64188000  0.83537000  1.0
  H  H38  1  0.51898000  0.85934000  0.35367000  1.0
  H  H39  1  0.51974000  0.86097000  0.66126000  1.0
  H  H40  1  0.00021000  0.34426000  0.14440000  1.0
  H  H41  1  0.30720000  0.65092000  0.14300000  1.0
  H  H42  1  0.99882000  0.15406000  0.34695000  1.0
  H  H43  1  0.30698000  0.15406000  0.65271000  1.0
  H  H44  1  0.70047000  0.34284000  0.35271000  1.0
  H  H45  1  0.00728000  0.65141000  0.65714000  1.0
  C  C46  1  0.48878000  0.69140000  0.99515000  1.0
  C  C47  1  0.50771000  0.00566000  0.30511000  1.0
  C  C48  1  0.49187000  0.30107000  0.99498000  1.0
  C  C49  1  0.50761000  0.00721000  0.69697000  1.0
  C  C50  1  0.80622000  0.00331000  0.99795000  1.0
  C  C51  1  0.20152000  0.69563000  0.69749000  1.0
  C  C52  1  0.19988000  0.00440000  0.99974000  1.0
  C  C53  1  0.80985000  0.30305000  0.30699000  1.0
  C  C54  1  0.80506000  0.00380000  0.30706000  1.0
  C  C55  1  0.80587000  0.30260000  0.99303000  1.0
  C  C56  1  0.19840000  0.00601000  0.69967000  1.0
  C  C57  1  0.19784000  0.69370000  0.99199000  1.0
  C  C58  1  0.47898000  0.58794000  0.98984000  1.0
  C  C59  1  0.48306000  0.39528000  0.99053000  1.0
  C  C60  1  0.48050000  0.53737000  0.07046000  1.0
  C  C61  1  0.47793000  0.44235000  0.90627000  1.0
  C  C62  1  0.48256000  0.44530000  0.07071000  1.0
  C  C63  1  0.47421000  0.53675000  0.90514000  1.0
  C  C64  1  0.48508000  0.54536000  0.17473000  1.0
  C  C65  1  0.48944000  0.44100000  0.17586000  1.0
  C  C66  1  0.50488000  0.00498000  0.59690000  1.0
  C  C67  1  0.50708000  0.00488000  0.40338000  1.0
  C  C68  1  0.49529000  0.07986000  0.54075000  1.0
  C  C69  1  0.51367000  0.92646000  0.45624000  1.0
  C  C70  1  0.49787000  0.08049000  0.44906000  1.0
  C  C71  1  0.51311000  0.92672000  0.55223000  1.0
  C  C72  1  0.47825000  0.17285000  0.53763000  1.0
  C  C73  1  0.48569000  0.17590000  0.43497000  1.0
  C  C74  1  0.09987000  0.59196000  0.98940000  1.0
  C  C75  1  0.90527000  0.39925000  0.99150000  1.0
  C  C76  1  0.96907000  0.53939000  0.90749000  1.0
  C  C77  1  0.03649000  0.44812000  0.07334000  1.0
  C  C78  1  0.87621000  0.44838000  0.90970000  1.0
  C  C79  1  0.13268000  0.54389000  0.07268000  1.0
  C  C80  1  0.87379000  0.54117000  0.80107000  1.0
  C  C81  1  0.76769000  0.43969000  0.80606000  1.0
  C  C82  1  0.10012000  0.00696000  0.60173000  1.0
  C  C83  1  0.90436000  0.00613000  0.40742000  1.0
  C  C84  1  0.96948000  0.92856000  0.55343000  1.0
  C  C85  1  0.03553000  0.08663000  0.45429000  1.0
  C  C86  1  0.87582000  0.92826000  0.46083000  1.0
  C  C87  1  0.13225000  0.08668000  0.55006000  1.0
  C  C88  1  0.87563000  0.82816000  0.56276000  1.0
  C  C89  1  0.76821000  0.82876000  0.45786000  1.0
  C  C90  1  0.90749000  0.99930000  0.00279000  1.0
  C  C91  1  0.89856000  0.89873000  0.99194000  1.0
  C  C92  1  0.01255000  0.09655000  0.02082000  1.0
  C  C93  1  0.80008000  0.79960000  0.98542000  1.0
  C  C94  1  0.80045000  0.70692000  0.98478000  1.0
  C  C95  1  0.09950000  0.00023000  0.00491000  1.0
  C  C96  1  0.10806000  0.09688000  0.02124000  1.0
  C  C97  1  0.99754000  0.89960000  0.99428000  1.0
  C  C98  1  0.99415000  0.80216000  0.99274000  1.0
  C  C99  1  0.89903000  0.70860000  0.98970000  1.0
  C  C100  1  0.10284000  0.59553000  0.60042000  1.0
  C  C101  1  0.90826000  0.40040000  0.40677000  1.0
  C  C102  1  0.13236000  0.54503000  0.54912000  1.0
  C  C103  1  0.87527000  0.44885000  0.45710000  1.0
  C  C104  1  0.03939000  0.45195000  0.45656000  1.0
  C  C105  1  0.97124000  0.54529000  0.55232000  1.0
  C  C106  1  0.24117000  0.55275000  0.55410000  1.0
  C  C107  1  0.13491000  0.44655000  0.44816000  1.0
  O  O108  1  0.49302000  0.73437000  0.91966000  1.0
  O  O109  1  0.50708000  0.08094000  0.26385000  1.0
  O  O110  1  0.49705000  0.26290000  0.07310000  1.0
  O  O111  1  0.51068000  0.93139000  0.73982000  1.0
  O  O112  1  0.84289000  0.08209000  0.07175000  1.0
  O  O113  1  0.16446000  0.73725000  0.73745000  1.0
  O  O114  1  0.16365000  0.92936000  0.92250000  1.0
  O  O115  1  0.84430000  0.26312000  0.26431000  1.0
  O  O116  1  0.68850000  0.92741000  0.26507000  1.0
  O  O117  1  0.68946000  0.26319000  0.91900000  1.0
  O  O118  1  0.31684000  0.08258000  0.73959000  1.0
  O  O119  1  0.31594000  0.73701000  0.07193000  1.0
  O  O120  1  0.84246000  0.26271000  0.07153000  1.0
  O  O121  1  0.16393000  0.93009000  0.74039000  1.0
  O  O122  1  0.16305000  0.73636000  0.91818000  1.0
  O  O123  1  0.84133000  0.07964000  0.26422000  1.0
  O  O124  1  0.68996000  0.92809000  0.92103000  1.0
  O  O125  1  0.69131000  0.26302000  0.26575000  1.0
  O  O126  1  0.31565000  0.08321000  0.07313000  1.0
  O  O127  1  0.31850000  0.73806000  0.73749000  1.0
  O  O128  1  0.50620000  0.08217000  0.73725000  1.0
  O  O129  1  0.49620000  0.73592000  0.07417000  1.0
  O  O130  1  0.50698000  0.92769000  0.26377000  1.0
  O  O131  1  0.49588000  0.26239000  0.91936000  1.0
  O  O132  1  0.36943000  0.93625000  0.79856000  1.0
  O  O133  1  0.63723000  0.20385000  0.06615000  1.0
  O  O134  1  0.36856000  0.93571000  0.06619000  1.0
  O  O135  1  0.63726000  0.93477000  0.06611000  1.0
  O  O136  1  0.60187000  0.05214000  0.14723000  1.0
  O  O137  1  0.40418000  0.85485000  0.94963000  1.0
  O  O138  1  0.40465000  0.05227000  0.95029000  1.0
  O  O139  1  0.60236000  0.05190000  0.95001000  1.0
  O  O140  1  0.47898000  0.40391000  0.82474000  1.0
  O  O141  1  0.46922000  0.57413000  0.82117000  1.0
  O  O142  1  0.52152000  0.84851000  0.42100000  1.0
  O  O143  1  0.52102000  0.84917000  0.59583000  1.0
  O  O144  1  0.07880000  0.40945000  0.15594000  1.0
  O  O145  1  0.25386000  0.58448000  0.15542000  1.0
  O  O146  1  0.07745000  0.16633000  0.41266000  1.0
  O  O147  1  0.25317000  0.16563000  0.58605000  1.0
  O  O148  1  0.75359000  0.40840000  0.41882000  1.0
  O  O149  1  0.92866000  0.58475000  0.59215000  1.0
