# generated using pymatgen
data_Al3H22C42N3O14
_symmetry_space_group_name_H-M   'P 1'
_cell_length_a   13.50240000
_cell_length_b   13.52558210
_cell_length_c   28.29740000
_cell_angle_alpha   90.14104963
_cell_angle_beta   90.44460000
_cell_angle_gamma   60.07537794
_symmetry_Int_Tables_number   1
_chemical_formula_structural   Al3H22C42N3O14
_chemical_formula_sum   'Al6 H44 C84 N6 O28'
_cell_volume   4478.78094138
_cell_formula_units_Z   2
loop_
 _symmetry_equiv_pos_site_id
 _symmetry_equiv_pos_as_xyz
  1  'x, y, z'
loop_
 _atom_site_type_symbol
 _atom_site_label
 _atom_site_symmetry_multiplicity
 _atom_site_fract_x
 _atom_site_fract_y
 _atom_site_fract_z
 _atom_site_occupancy
  Al  Al0  1  0.48264000  0.75308000  0.50396000  1.0
  Al  Al1  1  0.72561000  0.52236000  0.50183000  1.0
  Al  Al2  1  0.72457000  0.74426000  0.50202000  1.0
  Al  Al3  1  0.23418000  0.24798000  0.00176000  1.0
  Al  Al4  1  0.24795000  0.47845000  0.00166000  1.0
  Al  Al5  1  0.46794000  0.25569000  0.00216000  1.0
  H  H6  1  0.02276000  0.66677000  0.77137000  1.0
  H  H7  1  0.35198000  0.52926000  0.29076000  1.0
  H  H8  1  0.55483000  0.10813000  0.29195000  1.0
  H  H9  1  0.11307000  0.34481000  0.29345000  1.0
  H  H10  1  0.16616000  0.51417000  0.70096000  1.0
  H  H11  1  0.32012000  0.15776000  0.70517000  1.0
  H  H12  1  0.52901000  0.30887000  0.70940000  1.0
  H  H13  1  0.68117000  0.48511000  0.20096000  1.0
  H  H14  1  0.46960000  0.84407000  0.20580000  1.0
  H  H15  1  0.83816000  0.69289000  0.20955000  1.0
  H  H16  1  0.80359000  0.75715000  0.75002000  1.0
  H  H17  1  0.33195000  0.00061000  0.77471000  1.0
  H  H18  1  0.74245000  0.69255000  0.72089000  1.0
  H  H19  1  0.55181000  0.74980000  0.75099000  1.0
  H  H20  1  0.51171000  0.79671000  0.69600000  1.0
  H  H21  1  0.72283000  0.51336000  0.76259000  1.0
  H  H22  1  0.71728000  0.48297000  0.70607000  1.0
  H  H23  1  0.55732000  0.24452000  0.25233000  1.0
  H  H24  1  0.43597000  0.30792000  0.22045000  1.0
  H  H25  1  0.30142000  0.25221000  0.25078000  1.0
  H  H26  1  0.30616000  0.20535000  0.19596000  1.0
  H  H27  1  0.23626000  0.48737000  0.26255000  1.0
  H  H28  1  0.66889000  0.31734000  0.78307000  1.0
  H  H29  1  0.20052000  0.51648000  0.20590000  1.0
  H  H30  1  0.02125000  0.32135000  0.71905000  1.0
  H  H31  1  0.65333000  0.04789000  0.72272000  1.0
  H  H32  1  0.31866000  0.64543000  0.71993000  1.0
  H  H33  1  0.34346000  0.67795000  0.21834000  1.0
  H  H34  1  0.69753000  0.94846000  0.22229000  1.0
  H  H35  1  0.96285000  0.35640000  0.21987000  1.0
  H  H36  1  0.21025000  0.32696000  0.76052000  1.0
  H  H37  1  0.44980000  0.21842000  0.76615000  1.0
  H  H38  1  0.33235000  0.45063000  0.76402000  1.0
  H  H39  1  0.68990000  0.33360000  0.27212000  1.0
  H  H40  1  0.53778000  0.67317000  0.25973000  1.0
  H  H41  1  0.66143000  0.78032000  0.26635000  1.0
  H  H42  1  0.78253000  0.55108000  0.26395000  1.0
  H  H43  1  0.32689000  0.00283000  0.27525000  1.0
  H  H44  1  0.98707000  0.68285000  0.28329000  1.0
  H  H45  1  0.88027000  0.47131000  0.79068000  1.0
  H  H46  1  0.66608000  0.88941000  0.79243000  1.0
  H  H47  1  0.45826000  0.65549000  0.79340000  1.0
  H  H48  1  0.29422000  0.86508000  0.47755000  1.0
  H  H49  1  0.13686000  0.15944000  0.03199000  1.0
  C  C50  1  0.56190000  0.87750000  0.56841000  1.0
  C  C51  1  0.49938000  0.49879000  0.19745000  1.0
  C  C52  1  0.50894000  0.99544000  0.20096000  1.0
  C  C53  1  0.99920000  0.50747000  0.20390000  1.0
  C  C54  1  0.94173000  0.48217000  0.76947000  1.0
  C  C55  1  0.59016000  0.94867000  0.77210000  1.0
  C  C56  1  0.47392000  0.57876000  0.77417000  1.0
  C  C57  1  0.42437000  0.51809000  0.26954000  1.0
  C  C58  1  0.53636000  0.04989000  0.27184000  1.0
  C  C59  1  0.05219000  0.42184000  0.27423000  1.0
  C  C60  1  0.91670000  0.58959000  0.73787000  1.0
  C  C61  1  0.56648000  0.54954000  0.56899000  1.0
  C  C62  1  0.51796000  0.91443000  0.73939000  1.0
  C  C63  1  0.58356000  0.49973000  0.74490000  1.0
  C  C64  1  0.50697000  0.41025000  0.23824000  1.0
  C  C65  1  0.42918000  0.08602000  0.23935000  1.0
  C  C66  1  0.08325000  0.50083000  0.24504000  1.0
  C  C67  1  0.06884000  0.47708000  0.84196000  1.0
  C  C68  1  0.46402000  0.06467000  0.84521000  1.0
  C  C69  1  0.46686000  0.46084000  0.84774000  1.0
  C  C70  1  0.54583000  0.52474000  0.34190000  1.0
  C  C71  1  0.52469000  0.93594000  0.34543000  1.0
  C  C72  1  0.86639000  0.56536000  0.56538000  1.0
  C  C73  1  0.92756000  0.53930000  0.34778000  1.0
  C  C74  1  0.96610000  0.51377000  0.64941000  1.0
  C  C75  1  0.52602000  0.97420000  0.65268000  1.0
  C  C76  1  0.52379000  0.50650000  0.65560000  1.0
  C  C77  1  0.48066000  0.48485000  0.14954000  1.0
  C  C78  1  0.49539000  0.02511000  0.15263000  1.0
  C  C79  1  0.03014000  0.49495000  0.15570000  1.0
  C  C80  1  0.55974000  0.87296000  0.43524000  1.0
  C  C81  1  0.56397000  0.56088000  0.43288000  1.0
  C  C82  1  0.85806000  0.56638000  0.43634000  1.0
  C  C83  1  0.43733000  0.12172000  0.06809000  1.0
  C  C84  1  0.43095000  0.12917000  0.93471000  1.0
  C  C85  1  0.12247000  0.44283000  0.93303000  1.0
  C  C86  1  0.42546000  0.43274000  0.93632000  1.0
  C  C87  1  0.10241000  0.50498000  0.72108000  1.0
  C  C88  1  0.39650000  0.09837000  0.72517000  1.0
  C  C89  1  0.51353000  0.38535000  0.72869000  1.0
  C  C90  1  0.60818000  0.49452000  0.22109000  1.0
  C  C91  1  0.48819000  0.90258000  0.22554000  1.0
  C  C92  1  0.89901000  0.61604000  0.22877000  1.0
  C  C93  1  0.02289000  0.58963000  0.75953000  1.0
  C  C94  1  0.11614000  0.45093000  0.06914000  1.0
  C  C95  1  0.40338000  0.01049000  0.76267000  1.0
  C  C96  1  0.59142000  0.39015000  0.76866000  1.0
  C  C97  1  0.61302000  0.41055000  0.25995000  1.0
  C  C98  1  0.40868000  0.99135000  0.26302000  1.0
  C  C99  1  0.98194000  0.61041000  0.26882000  1.0
  C  C100  1  0.08557000  0.46744000  0.88455000  1.0
  C  C101  1  0.45451000  0.08541000  0.88738000  1.0
  C  C102  1  0.45203000  0.45361000  0.88977000  1.0
  C  C103  1  0.55241000  0.53546000  0.38443000  1.0
  C  C104  1  0.53720000  0.91601000  0.38769000  1.0
  C  C105  1  0.43133000  0.43490000  0.06544000  1.0
  C  C106  1  0.90537000  0.54613000  0.38977000  1.0
  C  C107  1  0.92805000  0.53321000  0.60909000  1.0
  C  C108  1  0.54008000  0.93779000  0.61240000  1.0
  C  C109  1  0.54343000  0.51978000  0.61482000  1.0
  C  C110  1  0.46160000  0.46604000  0.10923000  1.0
  C  C111  1  0.47382000  0.06142000  0.11227000  1.0
  C  C112  1  0.06334000  0.48148000  0.11498000  1.0
  C  C113  1  0.12640000  0.40116000  0.75323000  1.0
  C  C114  1  0.46948000  0.13165000  0.75765000  1.0
  C  C115  1  0.40414000  0.46475000  0.75780000  1.0
  C  C116  1  0.99844000  0.50003000  0.69733000  1.0
  C  C117  1  0.52815000  0.59883000  0.25281000  1.0
  C  C118  1  0.59524000  0.86757000  0.25780000  1.0
  C  C119  1  0.86856000  0.53669000  0.25778000  1.0
  C  C120  1  0.04643000  0.48655000  0.79281000  1.0
  C  C121  1  0.47702000  0.04302000  0.79613000  1.0
  C  C122  1  0.48227000  0.47005000  0.79891000  1.0
  C  C123  1  0.53329000  0.51422000  0.29280000  1.0
  C  C124  1  0.51564000  0.95698000  0.29625000  1.0
  C  C125  1  0.95217000  0.53055000  0.29897000  1.0
  C  C126  1  0.02167000  0.39805000  0.73102000  1.0
  C  C127  1  0.50973000  0.00406000  0.70096000  1.0
  C  C128  1  0.58238000  0.03717000  0.73462000  1.0
  C  C129  1  0.39628000  0.57295000  0.73430000  1.0
  C  C130  1  0.42043000  0.60152000  0.23069000  1.0
  C  C131  1  0.61552000  0.96063000  0.23441000  1.0
  C  C132  1  0.96850000  0.42847000  0.23430000  1.0
  C  C133  1  0.50552000  0.49394000  0.70381000  1.0
  N  N134  1  0.81714000  0.69172000  0.72837000  1.0
  N  N135  1  0.55396000  0.80128000  0.72527000  1.0
  N  N136  1  0.66948000  0.52727000  0.73454000  1.0
  N  N137  1  0.50993000  0.30771000  0.22888000  1.0
  N  N138  1  0.35383000  0.19956000  0.22510000  1.0
  N  N139  1  0.19680000  0.47293000  0.23467000  1.0
  O  O140  1  0.49229000  0.64377000  0.55166000  1.0
  O  O141  1  0.33668000  0.15306000  0.05433000  1.0
  O  O142  1  0.14077000  0.52229000  0.04981000  1.0
  O  O143  1  0.49999000  0.33516000  0.04935000  1.0
  O  O144  1  0.49088000  0.65759000  0.44832000  1.0
  O  O145  1  0.83247000  0.49395000  0.45276000  1.0
  O  O146  1  0.65848000  0.84766000  0.45238000  1.0
  O  O147  1  0.14303000  0.34763000  0.94930000  1.0
  O  O148  1  0.32862000  0.50598000  0.95333000  1.0
  O  O149  1  0.50605000  0.14956000  0.95392000  1.0
  O  O150  1  0.48463000  0.85900000  0.45556000  1.0
  O  O151  1  0.84317000  0.49355000  0.54582000  1.0
  O  O152  1  0.65097000  0.48369000  0.45620000  1.0
  O  O153  1  0.83990000  0.65809000  0.45696000  1.0
  O  O154  1  0.33807000  0.14820000  0.95289000  1.0
  O  O155  1  0.13549000  0.51899000  0.95554000  1.0
  O  O156  1  0.49828000  0.33965000  0.95645000  1.0
  O  O157  1  0.64559000  0.67260000  0.50218000  1.0
  O  O158  1  0.31728000  0.32822000  0.00204000  1.0
  O  O159  1  0.65194000  0.86011000  0.54575000  1.0
  O  O160  1  0.13736000  0.35566000  0.05263000  1.0
  O  O161  1  0.33558000  0.50693000  0.04645000  1.0
  O  O162  1  0.50989000  0.14222000  0.04724000  1.0
  O  O163  1  0.49370000  0.84342000  0.55640000  1.0
  O  O164  1  0.66350000  0.47845000  0.55041000  1.0
  O  O165  1  0.83454000  0.66586000  0.54974000  1.0
  O  O166  1  0.33333000  0.82346000  0.50580000  1.0
  O  O167  1  0.15619000  0.17652000  0.00144000  1.0
