# generated using pymatgen
data_AlH7C16N4Cl2O5
_symmetry_space_group_name_H-M   'P 1'
_cell_length_a   6.69403000
_cell_length_b   24.99600000
_cell_length_c   28.50130000
_cell_angle_alpha   89.94670000
_cell_angle_beta   90.27320000
_cell_angle_gamma   89.62660000
_symmetry_Int_Tables_number   1
_chemical_formula_structural   AlH7C16N4Cl2O5
_chemical_formula_sum   'Al4 H28 C64 N16 Cl8 O20'
_cell_volume   4768.79308736
_cell_formula_units_Z   4
loop_
 _symmetry_equiv_pos_site_id
 _symmetry_equiv_pos_as_xyz
  1  'x, y, z'
loop_
 _atom_site_type_symbol
 _atom_site_label
 _atom_site_symmetry_multiplicity
 _atom_site_fract_x
 _atom_site_fract_y
 _atom_site_fract_z
 _atom_site_occupancy
  Al  Al0  1  0.20853000  0.75149000  0.24990000  1.0
  Al  Al1  1  0.79246000  0.24857000  0.75021000  1.0
  Al  Al2  1  0.70858000  0.74927000  0.25066000  1.0
  Al  Al3  1  0.29216000  0.25147000  0.75006000  1.0
  H  H4  1  0.27482000  0.62278000  0.33693000  1.0
  H  H5  1  0.72920000  0.37668000  0.66336000  1.0
  H  H6  1  0.73237000  0.32800000  0.87342000  1.0
  H  H7  1  0.26554000  0.67249000  0.12677000  1.0
  H  H8  1  0.76087000  0.88136000  0.16607000  1.0
  H  H9  1  0.24014000  0.17441000  0.87665000  1.0
  H  H10  1  0.23257000  0.17221000  0.62799000  1.0
  H  H11  1  0.76745000  0.82783000  0.37374000  1.0
  H  H12  1  0.69370000  0.59475000  0.44156000  1.0
  H  H13  1  0.30797000  0.40515000  0.55818000  1.0
  H  H14  1  0.29357000  0.45045000  0.90802000  1.0
  H  H15  1  0.70495000  0.54974000  0.09236000  1.0
  H  H16  1  0.19033000  0.90282000  0.05585000  1.0
  H  H17  1  0.81050000  0.05186000  0.90892000  1.0
  H  H18  1  0.79591000  0.04944000  0.59179000  1.0
  H  H19  1  0.20272000  0.95081000  0.40797000  1.0
  H  H20  1  0.66973000  0.66064000  0.37556000  1.0
  H  H21  1  0.33291000  0.33876000  0.62378000  1.0
  H  H22  1  0.32377000  0.38403000  0.84297000  1.0
  H  H23  1  0.67305000  0.61683000  0.15683000  1.0
  H  H24  1  0.16356000  0.84004000  0.12405000  1.0
  H  H25  1  0.83551000  0.12036000  0.84508000  1.0
  H  H26  1  0.83039000  0.11636000  0.65634000  1.0
  H  H27  1  0.17126000  0.88353000  0.34357000  1.0
  H  H28  1  0.45507000  0.67977000  0.24666000  1.0
  H  H29  1  0.54734000  0.32087000  0.75187000  1.0
  H  H30  1  0.95165000  0.82110000  0.24943000  1.0
  H  H31  1  0.05117000  0.17914000  0.75287000  1.0
  C  C32  1  0.46067000  0.81373000  0.31444000  1.0
  C  C33  1  0.54338000  0.18577000  0.68679000  1.0
  C  C34  1  0.53890000  0.18739000  0.81492000  1.0
  C  C35  1  0.45758000  0.81619000  0.18763000  1.0
  C  C36  1  0.96051000  0.68668000  0.18615000  1.0
  C  C37  1  0.03553000  0.31440000  0.81354000  1.0
  C  C38  1  0.04088000  0.31387000  0.68636000  1.0
  C  C39  1  0.96386000  0.68547000  0.31340000  1.0
  C  C40  1  0.14805000  0.61662000  0.36006000  1.0
  C  C41  1  0.85536000  0.38287000  0.64008000  1.0
  C  C42  1  0.85706000  0.35411000  0.88177000  1.0
  C  C43  1  0.14079000  0.64637000  0.11843000  1.0
  C  C44  1  0.63532000  0.88629000  0.14200000  1.0
  C  C45  1  0.36526000  0.14752000  0.88382000  1.0
  C  C46  1  0.35796000  0.14615000  0.61925000  1.0
  C  C47  1  0.64193000  0.85399000  0.38209000  1.0
  C  C48  1  0.15846000  0.57856000  0.39572000  1.0
  C  C49  1  0.84405000  0.42104000  0.60454000  1.0
  C  C50  1  0.84443000  0.38926000  0.91955000  1.0
  C  C51  1  0.15393000  0.61100000  0.08082000  1.0
  C  C52  1  0.64595000  0.92336000  0.10558000  1.0
  C  C53  1  0.35525000  0.11125000  0.92090000  1.0
  C  C54  1  0.34388000  0.11116000  0.58135000  1.0
  C  C55  1  0.65498000  0.88946000  0.41963000  1.0
  C  C56  1  0.99557000  0.57123000  0.42616000  1.0
  C  C57  1  0.00633000  0.42854000  0.57395000  1.0
  C  C58  1  0.00232000  0.42477000  0.92937000  1.0
  C  C59  1  0.99620000  0.57542000  0.07104000  1.0
  C  C60  1  0.48737000  0.92829000  0.07286000  1.0
  C  C61  1  0.51336000  0.07454000  0.92906000  1.0
  C  C62  1  0.50216000  0.07552000  0.57113000  1.0
  C  C63  1  0.49598000  0.92507000  0.42933000  1.0
  C  C64  1  0.82030000  0.60125000  0.41840000  1.0
  C  C65  1  0.18170000  0.39848000  0.58140000  1.0
  C  C66  1  0.17251000  0.42277000  0.90061000  1.0
  C  C67  1  0.82564000  0.57756000  0.09966000  1.0
  C  C68  1  0.31358000  0.89800000  0.08064000  1.0
  C  C69  1  0.68713000  0.07931000  0.90162000  1.0
  C  C70  1  0.67481000  0.07735000  0.59941000  1.0
  C  C71  1  0.32433000  0.92295000  0.40071000  1.0
  C  C72  1  0.80676000  0.63795000  0.38183000  1.0
  C  C73  1  0.19585000  0.36151000  0.61775000  1.0
  C  C74  1  0.18904000  0.38621000  0.86415000  1.0
  C  C75  1  0.80822000  0.61450000  0.13581000  1.0
  C  C76  1  0.29910000  0.86296000  0.11828000  1.0
  C  C77  1  0.70058000  0.11700000  0.86603000  1.0
  C  C78  1  0.69358000  0.11410000  0.63564000  1.0
  C  C79  1  0.30707000  0.88594000  0.36464000  1.0
  C  C80  1  0.97230000  0.64619000  0.35289000  1.0
  C  C81  1  0.03108000  0.35319000  0.64691000  1.0
  C  C82  1  0.02927000  0.35215000  0.85416000  1.0
  C  C83  1  0.96776000  0.64864000  0.14574000  1.0
  C  C84  1  0.46305000  0.85585000  0.14844000  1.0
  C  C85  1  0.53624000  0.15009000  0.85589000  1.0
  C  C86  1  0.53308000  0.14811000  0.64617000  1.0
  C  C87  1  0.46785000  0.85175000  0.35481000  1.0
  C  C88  1  0.00097000  0.46710000  0.53481000  1.0
  C  C89  1  0.00038000  0.53292000  0.46548000  1.0
  C  C90  1  0.00068000  0.53548000  0.03307000  1.0
  C  C91  1  0.99816000  0.46459000  0.96743000  1.0
  C  C92  1  0.50432000  0.03051000  0.96314000  1.0
  C  C93  1  0.49581000  0.96176000  0.03053000  1.0
  C  C94  1  0.49986000  0.96491000  0.46735000  1.0
  C  C95  1  0.49676000  0.03569000  0.53308000  1.0
  N  N96  1  0.83808000  0.50158000  0.47087000  1.0
  N  N97  1  0.16289000  0.49862000  0.52956000  1.0
  N  N98  1  0.08207000  0.51253000  0.95792000  1.0
  N  N99  1  0.91684000  0.48754000  0.04259000  1.0
  N  N100  1  0.32146000  0.97492000  0.00921000  1.0
  N  N101  1  0.67840000  0.00731000  0.97659000  1.0
  N  N102  1  0.58194000  0.98756000  0.54263000  1.0
  N  N103  1  0.41353000  0.01288000  0.45789000  1.0
  N  N104  1  0.83840000  0.46771000  0.50646000  1.0
  N  N105  1  0.16256000  0.53250000  0.49397000  1.0
  N  N106  1  0.08306000  0.54887000  0.99145000  1.0
  N  N107  1  0.91588000  0.45119000  0.00906000  1.0
  N  N108  1  0.32533000  0.00864000  0.97373000  1.0
  N  N109  1  0.67446000  0.97085000  0.00990000  1.0
  N  N110  1  0.58320000  0.95128000  0.50906000  1.0
  N  N111  1  0.41222000  0.04918000  0.49148000  1.0
  Cl  Cl112  1  0.36947000  0.53861000  0.39948000  1.0
  Cl  Cl113  1  0.63286000  0.46098000  0.60112000  1.0
  Cl  Cl114  1  0.62497000  0.38949000  0.95126000  1.0
  Cl  Cl115  1  0.37366000  0.61062000  0.04922000  1.0
  Cl  Cl116  1  0.85416000  0.96383000  0.10402000  1.0
  Cl  Cl117  1  0.14805000  0.11495000  0.95670000  1.0
  Cl  Cl118  1  0.12257000  0.11130000  0.54988000  1.0
  Cl  Cl119  1  0.87594000  0.88991000  0.45124000  1.0
  O  O120  1  0.62572000  0.80086000  0.20416000  1.0
  O  O121  1  0.37048000  0.20590000  0.80138000  1.0
  O  O122  1  0.37718000  0.19949000  0.70480000  1.0
  O  O123  1  0.62872000  0.79703000  0.29958000  1.0
  O  O124  1  0.13060000  0.70088000  0.29700000  1.0
  O  O125  1  0.87551000  0.30067000  0.70488000  1.0
  O  O126  1  0.86835000  0.29534000  0.80052000  1.0
  O  O127  1  0.12852000  0.70301000  0.20128000  1.0
  O  O128  1  0.29011000  0.80167000  0.29762000  1.0
  O  O129  1  0.71567000  0.20053000  0.70059000  1.0
  O  O130  1  0.70743000  0.19698000  0.79614000  1.0
  O  O131  1  0.28649000  0.80112000  0.20164000  1.0
  O  O132  1  0.78974000  0.69916000  0.20263000  1.0
  O  O133  1  0.20446000  0.30479000  0.79473000  1.0
  O  O134  1  0.21318000  0.29723000  0.69898000  1.0
  O  O135  1  0.79167000  0.69982000  0.29872000  1.0
  O  O136  1  0.45796000  0.71829000  0.24978000  1.0
  O  O137  1  0.54334000  0.28227000  0.74980000  1.0
  O  O138  1  0.95649000  0.78243000  0.25045000  1.0
  O  O139  1  0.04497000  0.21773000  0.75060000  1.0
