# generated using pymatgen
data_Cu2H15(C5N)4
_symmetry_space_group_name_H-M   'P 1'
_cell_length_a   30.86980000
_cell_length_b   34.16370000
_cell_length_c   34.84880000
_cell_angle_alpha   89.45320000
_cell_angle_beta   88.89860000
_cell_angle_gamma   89.81900000
_symmetry_Int_Tables_number   1
_chemical_formula_structural   Cu2H15(C5N)4
_chemical_formula_sum   'Cu12 H90 C120 N24'
_cell_volume   36743.84460666
_cell_formula_units_Z   6
loop_
 _symmetry_equiv_pos_site_id
 _symmetry_equiv_pos_as_xyz
  1  'x, y, z'
loop_
 _atom_site_type_symbol
 _atom_site_label
 _atom_site_symmetry_multiplicity
 _atom_site_fract_x
 _atom_site_fract_y
 _atom_site_fract_z
 _atom_site_occupancy
  Cu  Cu0  1  0.90001000  0.80640000  0.80434000  1.0
  Cu  Cu1  1  0.82636000  0.86668000  0.78791000  1.0
  Cu  Cu2  1  0.80946000  0.79981000  0.84958000  1.0
  Cu  Cu3  1  0.10965000  0.78841000  0.20431000  1.0
  Cu  Cu4  1  0.18990000  0.84609000  0.19679000  1.0
  Cu  Cu5  1  0.17596000  0.77830000  0.13590000  1.0
  Cu  Cu6  1  0.15013000  0.22385000  0.78139000  1.0
  Cu  Cu7  1  0.22179000  0.15730000  0.78877000  1.0
  Cu  Cu8  1  0.20492000  0.22130000  0.85513000  1.0
  Cu  Cu9  1  0.84931000  0.21015000  0.22101000  1.0
  Cu  Cu10  1  0.79652000  0.13183000  0.22319000  1.0
  Cu  Cu11  1  0.77863000  0.19756000  0.15847000  1.0
  H  H12  1  0.97444000  0.83992000  0.74747000  1.0
  H  H13  1  0.86445000  0.91067000  0.71392000  1.0
  H  H14  1  0.82548000  0.72282000  0.89923000  1.0
  H  H15  1  0.95392000  0.74364000  0.85120000  1.0
  H  H16  1  0.76318000  0.93193000  0.82003000  1.0
  H  H17  1  0.73137000  0.83585000  0.89749000  1.0
  H  H18  1  0.05428000  0.83199000  0.26818000  1.0
  H  H19  1  0.17036000  0.90297000  0.26688000  1.0
  H  H20  1  0.13991000  0.70156000  0.09674000  1.0
  H  H21  1  0.04164000  0.72195000  0.18477000  1.0
  H  H22  1  0.26248000  0.89596000  0.15431000  1.0
  H  H23  1  0.23340000  0.81134000  0.06675000  1.0
  H  H24  1  0.09944000  0.19391000  0.71096000  1.0
  H  H25  1  0.19867000  0.10427000  0.71708000  1.0
  H  H26  1  0.15816000  0.28656000  0.90583000  1.0
  H  H27  1  0.07716000  0.28454000  0.80572000  1.0
  H  H28  1  0.28538000  0.09963000  0.83161000  1.0
  H  H29  1  0.25567000  0.18183000  0.92230000  1.0
  H  H30  1  0.91683000  0.19344000  0.28600000  1.0
  H  H31  1  0.84041000  0.08742000  0.29336000  1.0
  H  H32  1  0.80322000  0.26543000  0.09873000  1.0
  H  H33  1  0.90313000  0.27850000  0.18323000  1.0
  H  H34  1  0.74982000  0.05989000  0.18504000  1.0
  H  H35  1  0.71268000  0.15311000  0.10714000  1.0
  H  H36  1  0.52527000  0.04403000  0.03318000  1.0
  H  H37  1  0.52911000  0.93815000  0.96748000  1.0
  H  H38  1  0.47289000  0.02039000  0.94371000  1.0
  H  H39  1  0.46539000  0.96163000  0.05327000  1.0
  H  H40  1  0.64822000  0.99192000  0.00187000  1.0
  H  H41  1  0.34825000  0.99199000  0.99425000  1.0
  H  H42  1  0.09658000  0.03508000  0.52004000  1.0
  H  H43  1  0.97161000  0.97975000  0.52806000  1.0
  H  H44  1  0.09202000  0.98285000  0.46568000  1.0
  H  H45  1  0.96577000  0.03504000  0.48043000  1.0
  H  H46  1  0.04097000  0.00572000  0.63080000  1.0
  H  H47  1  0.01625000  0.01225000  0.36684000  1.0
  H  H48  1  0.02911000  0.50957000  0.03408000  1.0
  H  H49  1  0.90995000  0.52032000  0.97266000  1.0
  H  H50  1  0.90308000  0.46083000  0.02054000  1.0
  H  H51  1  0.03425000  0.46522000  0.97687000  1.0
  H  H52  1  0.97299000  0.62334000  0.01457000  1.0
  H  H53  1  0.96972000  0.35414000  0.99023000  1.0
  H  H54  1  0.91304000  0.92964000  0.65397000  1.0
  H  H55  1  0.01173000  0.94715000  0.64710000  1.0
  H  H56  1  0.99422000  0.90112000  0.69624000  1.0
  H  H57  1  0.93683000  0.96781000  0.59336000  1.0
  H  H58  1  0.13635000  0.93112000  0.33395000  1.0
  H  H59  1  0.04001000  0.95020000  0.35420000  1.0
  H  H60  1  0.04733000  0.89999000  0.31027000  1.0
  H  H61  1  0.12279000  0.97394000  0.39584000  1.0
  H  H62  1  0.16363000  0.08176000  0.64716000  1.0
  H  H63  1  0.06476000  0.07332000  0.63364000  1.0
  H  H64  1  0.08094000  0.12591000  0.67235000  1.0
  H  H65  1  0.14106000  0.03913000  0.58666000  1.0
  H  H66  1  0.88400000  0.07749000  0.36019000  1.0
  H  H67  1  0.98469000  0.07726000  0.36308000  1.0
  H  H68  1  0.95618000  0.12835000  0.32364000  1.0
  H  H69  1  0.91726000  0.03978000  0.41812000  1.0
  H  H70  1  0.86182000  0.65603000  0.92749000  1.0
  H  H71  1  0.95563000  0.64158000  0.95555000  1.0
  H  H72  1  0.95199000  0.69176000  0.91163000  1.0
  H  H73  1  0.87509000  0.58929000  0.96533000  1.0
  H  H74  1  0.84114000  0.33166000  0.06674000  1.0
  H  H75  1  0.94007000  0.34796000  0.05787000  1.0
  H  H76  1  0.92263000  0.31191000  0.11277000  1.0
  H  H77  1  0.86368000  0.39108000  0.02077000  1.0
  H  H78  1  0.09692000  0.63455000  0.08677000  1.0
  H  H79  1  0.99741000  0.62865000  0.07577000  1.0
  H  H80  1  0.01648000  0.67376000  0.12355000  1.0
  H  H81  1  0.07108000  0.57416000  0.04830000  1.0
  H  H82  1  0.10837000  0.34750000  0.92527000  1.0
  H  H83  1  0.00749000  0.35035000  0.92744000  1.0
  H  H84  1  0.03759000  0.31516000  0.87328000  1.0
  H  H85  1  0.07534000  0.40076000  0.96737000  1.0
  H  H86  1  0.66657000  0.88108000  0.91931000  1.0
  H  H87  1  0.66430000  0.97017000  0.93734000  1.0
  H  H88  1  0.71459000  0.95296000  0.88588000  1.0
  H  H89  1  0.60154000  0.90321000  0.95849000  1.0
  H  H90  1  0.34337000  0.07232000  0.87996000  1.0
  H  H91  1  0.33827000  0.05761000  0.96826000  1.0
  H  H92  1  0.29444000  0.11217000  0.94687000  1.0
  H  H93  1  0.40348000  0.03001000  0.90623000  1.0
  H  H94  1  0.65478000  0.10366000  0.08532000  1.0
  H  H95  1  0.66189000  0.01541000  0.06452000  1.0
  H  H96  1  0.70929000  0.03525000  0.11674000  1.0
  H  H97  1  0.59459000  0.07917000  0.04582000  1.0
  H  H98  1  0.32747000  0.91404000  0.10863000  1.0
  H  H99  1  0.33100000  0.92942000  0.02042000  1.0
  H  H100  1  0.27961000  0.87852000  0.04052000  1.0
  H  H101  1  0.39225000  0.95186000  0.08529000  1.0
  C  C102  1  0.94314000  0.85396000  0.74391000  1.0
  C  C103  1  0.93124000  0.88379000  0.71797000  1.0
  C  C104  1  0.88689000  0.88977000  0.72627000  1.0
  C  C105  1  0.85404000  0.73242000  0.88317000  1.0
  C  C106  1  0.89729000  0.71953000  0.88557000  1.0
  C  C107  1  0.91969000  0.74364000  0.85895000  1.0
  C  C108  1  0.75997000  0.90428000  0.83543000  1.0
  C  C109  1  0.73433000  0.89510000  0.86810000  1.0
  C  C110  1  0.74307000  0.85511000  0.87465000  1.0
  C  C111  1  0.08579000  0.84528000  0.26310000  1.0
  C  C112  1  0.10398000  0.87818000  0.28060000  1.0
  C  C113  1  0.14533000  0.88121000  0.26304000  1.0
  C  C114  1  0.12056000  0.71096000  0.12132000  1.0
  C  C115  1  0.07947000  0.69800000  0.13417000  1.0
  C  C116  1  0.07001000  0.72197000  0.16587000  1.0
  C  C117  1  0.25167000  0.87143000  0.13744000  1.0
  C  C118  1  0.26034000  0.86274000  0.09862000  1.0
  C  C119  1  0.23617000  0.82857000  0.09259000  1.0
  C  C120  1  0.12721000  0.17553000  0.71732000  1.0
  C  C121  1  0.13997000  0.13988000  0.70062000  1.0
  C  C122  1  0.17831000  0.13008000  0.71983000  1.0
  C  C123  1  0.14380000  0.28267000  0.87794000  1.0
  C  C124  1  0.10389000  0.29652000  0.86423000  1.0
  C  C125  1  0.10207000  0.28097000  0.82705000  1.0
  C  C126  1  0.27503000  0.12399000  0.84935000  1.0
  C  C127  1  0.28110000  0.13022000  0.88879000  1.0
  C  C128  1  0.25920000  0.16571000  0.89572000  1.0
  C  C129  1  0.89332000  0.17012000  0.28327000  1.0
  C  C130  1  0.89132000  0.13361000  0.30222000  1.0
  C  C131  1  0.85376000  0.11629000  0.28768000  1.0
  C  C132  1  0.82368000  0.26470000  0.12369000  1.0
  C  C133  1  0.86293000  0.28430000  0.13011000  1.0
  C  C134  1  0.87504000  0.27078000  0.16664000  1.0
  C  C135  1  0.74447000  0.08724000  0.16971000  1.0
  C  C136  1  0.72078000  0.09422000  0.13622000  1.0
  C  C137  1  0.72484000  0.13488000  0.13024000  1.0
  C  C138  1  0.54397000  0.02100000  0.01894000  1.0
  C  C139  1  0.52223000  0.99107000  0.00020000  1.0
  C  C140  1  0.54614000  0.96132000  0.98235000  1.0
  C  C141  1  0.59175000  0.96189000  0.98169000  1.0
  C  C142  1  0.61289000  0.99165000  0.00152000  1.0
  C  C143  1  0.58952000  0.02104000  0.02091000  1.0
  C  C144  1  0.47408000  0.99110000  0.99871000  1.0
  C  C145  1  0.45339000  0.00740000  0.96695000  1.0
  C  C146  1  0.40787000  0.00934000  0.96564000  1.0
  C  C147  1  0.38353000  0.99163000  0.99545000  1.0
  C  C148  1  0.40367000  0.97348000  0.02679000  1.0
  C  C149  1  0.44918000  0.97487000  0.02875000  1.0
  C  C150  1  0.07067000  0.02189000  0.53751000  1.0
  C  C151  1  0.03371000  0.00759000  0.51964000  1.0
  C  C152  1  0.99975000  0.99195000  0.54217000  1.0
  C  C153  1  0.00267000  0.98927000  0.58227000  1.0
  C  C154  1  0.03893000  0.00585000  0.59960000  1.0
  C  C155  1  0.07275000  0.02279000  0.57778000  1.0
  C  C156  1  0.02963000  0.00925000  0.47743000  1.0
  C  C157  1  0.06300000  0.99560000  0.45314000  1.0
  C  C158  1  0.05771000  0.99472000  0.41317000  1.0
  C  C159  1  0.02012000  0.01151000  0.39787000  1.0
  C  C160  1  0.98689000  0.02657000  0.42152000  1.0
  C  C161  1  0.99137000  0.02378000  0.46148000  1.0
  C  C162  1  0.00376000  0.52806000  0.02204000  1.0
  C  C163  1  0.96913000  0.51052000  0.00334000  1.0
  C  C164  1  0.93592000  0.53397000  0.98859000  1.0
  C  C165  1  0.93794000  0.57500000  0.99095000  1.0
  C  C166  1  0.97173000  0.59164000  0.01161000  1.0
  C  C167  1  0.00463000  0.56869000  0.02772000  1.0
  C  C168  1  0.96854000  0.46755000  0.99880000  1.0
  C  C169  1  0.93153000  0.44583000  0.00868000  1.0
  C  C170  1  0.93236000  0.40472000  0.00747000  1.0
  C  C171  1  0.96932000  0.38599000  0.99222000  1.0
  C  C172  1  0.00601000  0.40743000  0.98021000  1.0
  C  C173  1  0.00580000  0.44812000  0.98541000  1.0
  C  C174  1  0.95948000  0.90423000  0.69117000  1.0
  C  C175  1  0.94734000  0.92710000  0.66107000  1.0
  C  C176  1  0.97811000  0.94829000  0.63762000  1.0
  C  C177  1  0.96959000  0.96843000  0.60485000  1.0
  C  C178  1  0.08266000  0.90278000  0.30862000  1.0
  C  C179  1  0.10107000  0.92843000  0.33298000  1.0
  C  C180  1  0.07501000  0.95177000  0.35862000  1.0
  C  C181  1  0.08852000  0.97372000  0.38833000  1.0
  C  C182  1  0.11540000  0.11822000  0.67314000  1.0
  C  C183  1  0.12921000  0.08940000  0.64924000  1.0
  C  C184  1  0.09902000  0.06810000  0.62649000  1.0
  C  C185  1  0.10775000  0.04327000  0.59722000  1.0
  C  C186  1  0.92324000  0.11693000  0.32742000  1.0
  C  C187  1  0.91685000  0.08805000  0.35392000  1.0
  C  C188  1  0.95211000  0.07001000  0.37394000  1.0
  C  C189  1  0.94898000  0.04540000  0.40459000  1.0
  C  C190  1  0.91668000  0.69000000  0.90962000  1.0
  C  C191  1  0.89681000  0.66046000  0.92950000  1.0
  C  C192  1  0.92141000  0.63387000  0.95269000  1.0
  C  C193  1  0.90803000  0.59995000  0.96961000  1.0
  C  C194  1  0.88838000  0.30979000  0.10538000  1.0
  C  C195  1  0.87535000  0.33083000  0.07441000  1.0
  C  C196  1  0.90586000  0.35346000  0.05178000  1.0
  C  C197  1  0.89717000  0.38208000  0.02584000  1.0
  C  C198  1  0.05108000  0.66991000  0.11704000  1.0
  C  C199  1  0.06261000  0.64078000  0.09258000  1.0
  C  C200  1  0.03099000  0.61850000  0.07258000  1.0
  C  C201  1  0.03857000  0.58702000  0.04998000  1.0
  C  C202  1  0.07043000  0.31847000  0.88414000  1.0
  C  C203  1  0.07568000  0.34172000  0.91508000  1.0
  C  C204  1  0.03999000  0.35998000  0.93514000  1.0
  C  C205  1  0.04334000  0.38875000  0.96141000  1.0
  C  C206  1  0.70769000  0.92179000  0.89023000  1.0
  C  C207  1  0.67569000  0.91188000  0.91578000  1.0
  C  C208  1  0.65217000  0.94007000  0.93842000  1.0
  C  C209  1  0.61571000  0.93253000  0.95950000  1.0
  C  C210  1  0.30289000  0.10621000  0.91682000  1.0
  C  C211  1  0.33261000  0.07768000  0.90957000  1.0
  C  C212  1  0.35215000  0.05451000  0.93927000  1.0
  C  C213  1  0.38734000  0.03105000  0.93447000  1.0
  C  C214  1  0.69895000  0.06573000  0.11313000  1.0
  C  C215  1  0.66708000  0.07365000  0.08782000  1.0
  C  C216  1  0.64718000  0.04464000  0.06440000  1.0
  C  C217  1  0.61087000  0.05070000  0.04377000  1.0
  C  C218  1  0.28652000  0.88400000  0.07070000  1.0
  C  C219  1  0.31853000  0.90969000  0.07871000  1.0
  C  C220  1  0.34254000  0.93130000  0.04988000  1.0
  C  C221  1  0.37887000  0.95230000  0.05641000  1.0
  N  N222  1  0.87378000  0.86558000  0.75491000  1.0
  N  N223  1  0.90867000  0.84309000  0.76572000  1.0
  N  N224  1  0.89206000  0.76862000  0.84199000  1.0
  N  N225  1  0.85123000  0.76184000  0.85725000  1.0
  N  N226  1  0.77171000  0.84184000  0.84810000  1.0
  N  N227  1  0.78195000  0.87236000  0.82351000  1.0
  N  N228  1  0.15098000  0.85243000  0.23718000  1.0
  N  N229  1  0.11405000  0.82992000  0.23744000  1.0
  N  N230  1  0.10281000  0.74708000  0.17139000  1.0
  N  N231  1  0.13408000  0.74044000  0.14349000  1.0
  N  N232  1  0.21516000  0.81773000  0.12523000  1.0
  N  N233  1  0.22454000  0.84459000  0.15304000  1.0
  N  N234  1  0.18721000  0.15763000  0.74601000  1.0
  N  N235  1  0.15557000  0.18606000  0.74419000  1.0
  N  N236  1  0.13791000  0.25962000  0.81936000  1.0
  N  N237  1  0.16370000  0.26039000  0.85114000  1.0
  N  N238  1  0.24179000  0.17952000  0.86310000  1.0
  N  N239  1  0.25135000  0.15340000  0.83429000  1.0
  N  N240  1  0.83529000  0.14051000  0.26192000  1.0
  N  N241  1  0.85967000  0.17415000  0.25948000  1.0
  N  N242  1  0.84552000  0.24523000  0.18072000  1.0
  N  N243  1  0.81369000  0.24121000  0.15391000  1.0
  N  N244  1  0.74906000  0.15061000  0.15789000  1.0
  N  N245  1  0.76098000  0.12102000  0.18267000  1.0
