# generated using pymatgen
data_Ag2H16C13(N3O2)2
_symmetry_space_group_name_H-M   'P 1'
_cell_length_a   6.32718000
_cell_length_b   6.32718000
_cell_length_c   20.64520000
_cell_angle_alpha   92.59980000
_cell_angle_beta   92.59940000
_cell_angle_gamma   98.34040000
_symmetry_Int_Tables_number   1
_chemical_formula_structural   Ag2H16C13(N3O2)2
_chemical_formula_sum   'Ag4 H32 C26 N12 O8'
_cell_volume   815.78231662
_cell_formula_units_Z   2
loop_
 _symmetry_equiv_pos_site_id
 _symmetry_equiv_pos_as_xyz
  1  'x, y, z'
loop_
 _atom_site_type_symbol
 _atom_site_label
 _atom_site_symmetry_multiplicity
 _atom_site_fract_x
 _atom_site_fract_y
 _atom_site_fract_z
 _atom_site_occupancy
  Ag  Ag0  1  0.25849000  0.50269000  0.51157000  1.0
  Ag  Ag1  1  0.49731000  0.74151000  0.98843000  1.0
  Ag  Ag2  1  0.74152000  0.49732000  0.48843000  1.0
  Ag  Ag3  1  0.50268000  0.25848000  0.01157000  1.0
  H  H4  1  0.29297000  0.16384000  0.58526000  1.0
  H  H5  1  0.83616000  0.70704000  0.91474000  1.0
  H  H6  1  0.70706000  0.83617000  0.41474000  1.0
  H  H7  1  0.16383000  0.29295000  0.08527000  1.0
  H  H8  1  0.22872000  0.88070000  0.58275000  1.0
  H  H9  1  0.11930000  0.77128000  0.91725000  1.0
  H  H10  1  0.77130000  0.11931000  0.41725000  1.0
  H  H11  1  0.88069000  0.22871000  0.08275000  1.0
  H  H12  1  0.17558000  0.89325000  0.71036000  1.0
  H  H13  1  0.10675000  0.82443000  0.78964000  1.0
  H  H14  1  0.82442000  0.10675000  0.28964000  1.0
  H  H15  1  0.89324000  0.17556000  0.21036000  1.0
  H  H16  1  0.22037000  0.45145000  0.76000000  1.0
  H  H17  1  0.54855000  0.77962000  0.74000000  1.0
  H  H18  1  0.77963000  0.54855000  0.24000000  1.0
  H  H19  1  0.45145000  0.22038000  0.26000000  1.0
  H  H20  1  0.97938000  0.51046000  0.72220000  1.0
  H  H21  1  0.48955000  0.02062000  0.77780000  1.0
  H  H22  1  0.02061000  0.48955000  0.27779000  1.0
  H  H23  1  0.51044000  0.97938000  0.22220000  1.0
  H  H24  1  0.31159000  0.33235000  0.37303000  1.0
  H  H25  1  0.66764000  0.68841000  0.12697000  1.0
  H  H26  1  0.68841000  0.66765000  0.62696000  1.0
  H  H27  1  0.33235000  0.31159000  0.87304000  1.0
  H  H28  1  0.18541000  0.64570000  0.37327000  1.0
  H  H29  1  0.35429000  0.81459000  0.12673000  1.0
  H  H30  1  0.81461000  0.35431000  0.62673000  1.0
  H  H31  1  0.64569000  0.18540000  0.87327000  1.0
  H  H32  1  0.23824000  0.97672000  0.30884000  1.0
  H  H33  1  0.02327000  0.76177000  0.19116000  1.0
  H  H34  1  0.76176000  0.02329000  0.69116000  1.0
  H  H35  1  0.97671000  0.23824000  0.80884000  1.0
  C  C36  1  0.20937000  0.79064000  0.75000000  1.0
  C  C37  1  0.79064000  0.20936000  0.25000000  1.0
  C  C38  1  0.15466000  0.55560000  0.72571000  1.0
  C  C39  1  0.44440000  0.84534000  0.77430000  1.0
  C  C40  1  0.84534000  0.44439000  0.27429000  1.0
  C  C41  1  0.55560000  0.15466000  0.22571000  1.0
  C  C42  1  0.27889000  0.18154000  0.39680000  1.0
  C  C43  1  0.81846000  0.72111000  0.10320000  1.0
  C  C44  1  0.72112000  0.81847000  0.60320000  1.0
  C  C45  1  0.18153000  0.27888000  0.89680000  1.0
  C  C46  1  0.21448000  0.80488000  0.39713000  1.0
  C  C47  1  0.19511000  0.78553000  0.10287000  1.0
  C  C48  1  0.78554000  0.19513000  0.60286000  1.0
  C  C49  1  0.80487000  0.21447000  0.89714000  1.0
  C  C50  1  0.23675000  0.50882000  0.65885000  1.0
  C  C51  1  0.49118000  0.76325000  0.84115000  1.0
  C  C52  1  0.76326000  0.49118000  0.34115000  1.0
  C  C53  1  0.50882000  0.23674000  0.15885000  1.0
  C  C54  1  0.24153000  0.98685000  0.36148000  1.0
  C  C55  1  0.01315000  0.75848000  0.13852000  1.0
  C  C56  1  0.75848000  0.01317000  0.63852000  1.0
  C  C57  1  0.98683000  0.24152000  0.86148000  1.0
  C  C58  1  0.25337000  0.00959000  0.49392000  1.0
  C  C59  1  0.99041000  0.74663000  0.00608000  1.0
  C  C60  1  0.74664000  0.99042000  0.50608000  1.0
  C  C61  1  0.00958000  0.25336000  0.99392000  1.0
  N  N62  1  0.22381000  0.81287000  0.46199000  1.0
  N  N63  1  0.18712000  0.77619000  0.03801000  1.0
  N  N64  1  0.77620000  0.18714000  0.53800000  1.0
  N  N65  1  0.81287000  0.22381000  0.96200000  1.0
  N  N66  1  0.28098000  0.19560000  0.46189000  1.0
  N  N67  1  0.80440000  0.71902000  0.03810000  1.0
  N  N68  1  0.71902000  0.80441000  0.53810000  1.0
  N  N69  1  0.19559000  0.28098000  0.96190000  1.0
  N  N70  1  0.25600000  0.01987000  0.55849000  1.0
  N  N71  1  0.98013000  0.74400000  0.94151000  1.0
  N  N72  1  0.74401000  0.98014000  0.44150000  1.0
  N  N73  1  0.01986000  0.25599000  0.05850000  1.0
  O  O74  1  0.35426000  0.36582000  0.65141000  1.0
  O  O75  1  0.63418000  0.64574000  0.84859000  1.0
  O  O76  1  0.64575000  0.63418000  0.34859000  1.0
  O  O77  1  0.36582000  0.35425000  0.15141000  1.0
  O  O78  1  0.17282000  0.61946000  0.61280000  1.0
  O  O79  1  0.38054000  0.82718000  0.88720000  1.0
  O  O80  1  0.82719000  0.38054000  0.38720000  1.0
  O  O81  1  0.61946000  0.17280000  0.11280000  1.0
