# generated using pymatgen
data_AgPH5C2O3
_symmetry_space_group_name_H-M   'P 1'
_cell_length_a   4.57186000
_cell_length_b   5.62792000
_cell_length_c   10.12749755
_cell_angle_alpha   97.91000829
_cell_angle_beta   102.62907373
_cell_angle_gamma   106.23440000
_symmetry_Int_Tables_number   1
_chemical_formula_structural   AgPH5C2O3
_chemical_formula_sum   'Ag2 P2 H10 C4 O6'
_cell_volume   238.58150673
_cell_formula_units_Z   2
loop_
 _symmetry_equiv_pos_site_id
 _symmetry_equiv_pos_as_xyz
  1  'x, y, z'
loop_
 _atom_site_type_symbol
 _atom_site_label
 _atom_site_symmetry_multiplicity
 _atom_site_fract_x
 _atom_site_fract_y
 _atom_site_fract_z
 _atom_site_occupancy
  Ag  Ag0  1  0.15097000  0.30431000  0.45704000  1.0
  Ag  Ag1  1  0.84904000  0.69569000  0.54296000  1.0
  P  P2  1  0.07412000  0.66706000  0.26134000  1.0
  P  P3  1  0.92588000  0.33295000  0.73867000  1.0
  H  H4  1  0.55861000  0.49062000  0.23174000  1.0
  H  H5  1  0.44138000  0.50938000  0.76826000  1.0
  H  H6  1  0.41738000  0.98799000  0.18698000  1.0
  H  H7  1  0.58262000  0.01200000  0.81302000  1.0
  H  H8  1  0.25770000  0.70276000  0.06048000  1.0
  H  H9  1  0.74231000  0.29724000  0.93952000  1.0
  H  H10  1  0.88938000  0.06486000  0.12858000  1.0
  H  H11  1  0.11063000  0.93515000  0.87142000  1.0
  H  H12  1  0.72665000  0.77465000  0.00630000  1.0
  H  H13  1  0.27335000  0.22536000  0.99370000  1.0
  C  C14  1  0.19699000  0.83294000  0.13313000  1.0
  C  C15  1  0.80300000  0.16707000  0.86686000  1.0
  C  C16  1  0.94583000  0.93297000  0.05530000  1.0
  C  C17  1  0.05416000  0.06703000  0.94470000  1.0
  O  O18  1  0.73330000  0.46794000  0.18734000  1.0
  O  O19  1  0.26669000  0.53205000  0.81265000  1.0
  O  O20  1  0.30076000  0.51341000  0.30160000  1.0
  O  O21  1  0.69925000  0.48659000  0.69840000  1.0
  O  O22  1  0.05757000  0.85156000  0.38332000  1.0
  O  O23  1  0.94242000  0.14843000  0.61668000  1.0
