# generated using pymatgen
data_RbH2C5N3O5
_symmetry_space_group_name_H-M   'P 1'
_cell_length_a   4.06145000
_cell_length_b   13.69070000
_cell_length_c   14.72060000
_cell_angle_alpha   90.00000000
_cell_angle_beta   90.00000000
_cell_angle_gamma   93.17960000
_symmetry_Int_Tables_number   1
_chemical_formula_structural   RbH2C5N3O5
_chemical_formula_sum   'Rb4 H8 C20 N12 O20'
_cell_volume   817.26556100
_cell_formula_units_Z   4
loop_
 _symmetry_equiv_pos_site_id
 _symmetry_equiv_pos_as_xyz
  1  'x, y, z'
loop_
 _atom_site_type_symbol
 _atom_site_label
 _atom_site_symmetry_multiplicity
 _atom_site_fract_x
 _atom_site_fract_y
 _atom_site_fract_z
 _atom_site_occupancy
  Rb  Rb0  1  0.92737000  0.30713000  0.92610000  1.0
  Rb  Rb1  1  0.07263000  0.19287000  0.42610000  1.0
  Rb  Rb2  1  0.07263000  0.69287000  0.07390000  1.0
  Rb  Rb3  1  0.92737000  0.80713000  0.57390000  1.0
  H  H4  1  0.45630000  0.27713000  0.23330000  1.0
  H  H5  1  0.54370000  0.22287000  0.73330000  1.0
  H  H6  1  0.54370000  0.72287000  0.76670000  1.0
  H  H7  1  0.45630000  0.77713000  0.26670000  1.0
  H  H8  1  0.78778000  0.45037000  0.44951000  1.0
  H  H9  1  0.21222000  0.04963000  0.94951000  1.0
  H  H10  1  0.21222000  0.54963000  0.55049000  1.0
  H  H11  1  0.78778000  0.95037000  0.05049000  1.0
  C  C12  1  0.52260000  0.34982000  0.26010000  1.0
  C  C13  1  0.47740000  0.15018000  0.76010000  1.0
  C  C14  1  0.47740000  0.65018000  0.73990000  1.0
  C  C15  1  0.52260000  0.84982000  0.23990000  1.0
  C  C16  1  0.49265000  0.43083000  0.20459000  1.0
  C  C17  1  0.50735000  0.06917000  0.70459000  1.0
  C  C18  1  0.50735000  0.56917000  0.79541000  1.0
  C  C19  1  0.49265000  0.93083000  0.29541000  1.0
  C  C20  1  0.58048000  0.53067000  0.23390000  1.0
  C  C21  1  0.41952000  0.96933000  0.73390000  1.0
  C  C22  1  0.41952000  0.46933000  0.76610000  1.0
  C  C23  1  0.58048000  0.03067000  0.26610000  1.0
  C  C24  1  0.69978000  0.53018000  0.32743000  1.0
  C  C25  1  0.30022000  0.96981000  0.82743000  1.0
  C  C26  1  0.30022000  0.46981000  0.67257000  1.0
  C  C27  1  0.69978000  0.03019000  0.17257000  1.0
  C  C28  1  0.70334000  0.44541000  0.37925000  1.0
  C  C29  1  0.29666000  0.05459000  0.87925000  1.0
  C  C30  1  0.29666000  0.55459000  0.62075000  1.0
  C  C31  1  0.70334000  0.94541000  0.12075000  1.0
  N  N32  1  0.61959000  0.35541000  0.34739000  1.0
  N  N33  1  0.38041000  0.14458000  0.84739000  1.0
  N  N34  1  0.38041000  0.64458000  0.65261000  1.0
  N  N35  1  0.61958000  0.85542000  0.15261000  1.0
  N  N36  1  0.37284000  0.41256000  0.11398000  1.0
  N  N37  1  0.62716000  0.08744000  0.61398000  1.0
  N  N38  1  0.62716000  0.58744000  0.88602000  1.0
  N  N39  1  0.37284000  0.91256000  0.38602000  1.0
  N  N40  1  0.82645000  0.61968000  0.36989000  1.0
  N  N41  1  0.17355000  0.88032000  0.86989000  1.0
  N  N42  1  0.17355000  0.38032000  0.63011000  1.0
  N  N43  1  0.82644000  0.11968000  0.13010000  1.0
  O  O44  1  0.45375000  0.33628000  0.07479000  1.0
  O  O45  1  0.54625000  0.16372000  0.57479000  1.0
  O  O46  1  0.54626000  0.66372000  0.92521000  1.0
  O  O47  1  0.45375000  0.83628000  0.42521000  1.0
  O  O48  1  0.18961000  0.47164000  0.07833000  1.0
  O  O49  1  0.81039000  0.02836000  0.57833000  1.0
  O  O50  1  0.81039000  0.52836000  0.92167000  1.0
  O  O51  1  0.18961000  0.97164000  0.42167000  1.0
  O  O52  1  0.55911000  0.60548000  0.18562000  1.0
  O  O53  1  0.44089000  0.89452000  0.68562000  1.0
  O  O54  1  0.44089000  0.39452000  0.81438000  1.0
  O  O55  1  0.55911000  0.10548000  0.31438000  1.0
  O  O56  1  0.96768000  0.68359000  0.32171000  1.0
  O  O57  1  0.03233000  0.81641000  0.82171000  1.0
  O  O58  1  0.03232000  0.31641000  0.67829000  1.0
  O  O59  1  0.96768000  0.18359000  0.17829000  1.0
  O  O60  1  0.79476000  0.62737000  0.45430000  1.0
  O  O61  1  0.20524000  0.87263000  0.95430000  1.0
  O  O62  1  0.20524000  0.37263000  0.54570000  1.0
  O  O63  1  0.79476000  0.12737000  0.04570000  1.0
