# generated using pymatgen
data_CuH11C17BrN2O3
_symmetry_space_group_name_H-M   'P 1'
_cell_length_a   10.56720000
_cell_length_b   19.08980000
_cell_length_c   19.09030000
_cell_angle_alpha   116.67300000
_cell_angle_beta   100.63400000
_cell_angle_gamma   100.63400000
_symmetry_Int_Tables_number   1
_chemical_formula_structural   CuH11C17BrN2O3
_chemical_formula_sum   'Cu6 H66 C102 Br6 N12 O18'
_cell_volume   3221.54889464
_cell_formula_units_Z   6
loop_
 _symmetry_equiv_pos_site_id
 _symmetry_equiv_pos_as_xyz
  1  'x, y, z'
loop_
 _atom_site_type_symbol
 _atom_site_label
 _atom_site_symmetry_multiplicity
 _atom_site_fract_x
 _atom_site_fract_y
 _atom_site_fract_z
 _atom_site_occupancy
  Cu  Cu0  1  0.04885000  0.59815000  0.23097000  1.0
  Cu  Cu1  1  0.45080000  0.63283000  0.40188000  1.0
  Cu  Cu2  1  0.81803000  0.76902000  0.36713000  1.0
  Cu  Cu3  1  0.95115000  0.40185000  0.76903000  1.0
  Cu  Cu4  1  0.54920000  0.36717000  0.59812000  1.0
  Cu  Cu5  1  0.18197000  0.23098000  0.63287000  1.0
  H  H6  1  0.43343000  0.29112000  0.91822000  1.0
  H  H7  1  0.14229000  0.62705000  0.70885000  1.0
  H  H8  1  0.51524000  0.08177000  0.37291000  1.0
  H  H9  1  0.56657000  0.70888000  0.08178000  1.0
  H  H10  1  0.85771000  0.37295000  0.29115000  1.0
  H  H11  1  0.48476000  0.91823000  0.62709000  1.0
  H  H12  1  0.57923000  0.47523000  0.85474000  1.0
  H  H13  1  0.10399000  0.37948000  0.52469000  1.0
  H  H14  1  0.72455000  0.14520000  0.62049000  1.0
  H  H15  1  0.42077000  0.52477000  0.14526000  1.0
  H  H16  1  0.89601000  0.62052000  0.47531000  1.0
  H  H17  1  0.27545000  0.85480000  0.37951000  1.0
  H  H18  1  0.73173000  0.48171000  0.17481000  1.0
  H  H19  1  0.25011000  0.69309000  0.51831000  1.0
  H  H20  1  0.55702000  0.82518000  0.30689000  1.0
  H  H21  1  0.26827000  0.51829000  0.82519000  1.0
  H  H22  1  0.74989000  0.30691000  0.48169000  1.0
  H  H23  1  0.44298000  0.17482000  0.69311000  1.0
  H  H24  1  0.53313000  0.40314000  0.04918000  1.0
  H  H25  1  0.13011000  0.64603000  0.59687000  1.0
  H  H26  1  0.48408000  0.95080000  0.35395000  1.0
  H  H27  1  0.46687000  0.59686000  0.95082000  1.0
  H  H28  1  0.86989000  0.35397000  0.40313000  1.0
  H  H29  1  0.51592000  0.04920000  0.64605000  1.0
  H  H30  1  0.78043000  0.47867000  0.92257000  1.0
  H  H31  1  0.30180000  0.44387000  0.52133000  1.0
  H  H32  1  0.85792000  0.07740000  0.55609000  1.0
  H  H33  1  0.21957000  0.52133000  0.07743000  1.0
  H  H34  1  0.69820000  0.55613000  0.47867000  1.0
  H  H35  1  0.14209000  0.92260000  0.44391000  1.0
  H  H36  1  0.96643000  0.55787000  0.05609000  1.0
  H  H37  1  0.40865000  0.49820000  0.44212000  1.0
  H  H38  1  0.91042000  0.94387000  0.50179000  1.0
  H  H39  1  0.03357000  0.44213000  0.94391000  1.0
  H  H40  1  0.59135000  0.50180000  0.55788000  1.0
  H  H41  1  0.08958000  0.05613000  0.49821000  1.0
  H  H42  1  0.25376000  0.21630000  0.78274000  1.0
  H  H43  1  0.03745000  0.56635000  0.78363000  1.0
  H  H44  1  0.47114000  0.21725000  0.43361000  1.0
  H  H45  1  0.74624000  0.78370000  0.21726000  1.0
  H  H46  1  0.96255000  0.43365000  0.21637000  1.0
  H  H47  1  0.52886000  0.78275000  0.56639000  1.0
  H  H48  1  0.39726000  0.39070000  0.72075000  1.0
  H  H49  1  0.00648000  0.32997000  0.60917000  1.0
  H  H50  1  0.67663000  0.27923000  0.66999000  1.0
  H  H51  1  0.60273000  0.60929000  0.27925000  1.0
  H  H52  1  0.99352000  0.67003000  0.39083000  1.0
  H  H53  1  0.32337000  0.72077000  0.33001000  1.0
  H  H54  1  0.07251000  0.90083000  0.28607000  1.0
  H  H55  1  0.17172000  0.38526000  0.09921000  1.0
  H  H56  1  0.78642000  0.71396000  0.61470000  1.0
  H  H57  1  0.92750000  0.09917000  0.71393000  1.0
  H  H58  1  0.82828000  0.61474000  0.90079000  1.0
  H  H59  1  0.21358000  0.28604000  0.38530000  1.0
  H  H60  1  0.36681000  0.85729000  0.15452000  1.0
  H  H61  1  0.50958000  0.29723000  0.14270000  1.0
  H  H62  1  0.21232000  0.84546000  0.70275000  1.0
  H  H63  1  0.63319000  0.14271000  0.84548000  1.0
  H  H64  1  0.49042000  0.70277000  0.85730000  1.0
  H  H65  1  0.78768000  0.15454000  0.29725000  1.0
  H  H66  1  0.31883000  0.71601000  0.13422000  1.0
  H  H67  1  0.60300000  0.41823000  0.28401000  1.0
  H  H68  1  0.18475000  0.86578000  0.58177000  1.0
  H  H69  1  0.68117000  0.28399000  0.86578000  1.0
  H  H70  1  0.39700000  0.58177000  0.71599000  1.0
  H  H71  1  0.81525000  0.13422000  0.41823000  1.0
  C  C72  1  0.42969000  0.31625000  0.87695000  1.0
  C  C73  1  0.11343000  0.56064000  0.68370000  1.0
  C  C74  1  0.55279000  0.12301000  0.43932000  1.0
  C  C75  1  0.57031000  0.68375000  0.12305000  1.0
  C  C76  1  0.88657000  0.43936000  0.31630000  1.0
  C  C77  1  0.44722000  0.87699000  0.56068000  1.0
  C  C78  1  0.52538000  0.38953000  0.89777000  1.0
  C  C79  1  0.13593000  0.50820000  0.61044000  1.0
  C  C80  1  0.62770000  0.10220000  0.49177000  1.0
  C  C81  1  0.47462000  0.61046000  0.10223000  1.0
  C  C82  1  0.86407000  0.49180000  0.38956000  1.0
  C  C83  1  0.37229000  0.89779000  0.50823000  1.0
  C  C84  1  0.51131000  0.41741000  0.84113000  1.0
  C  C85  1  0.09389000  0.42368000  0.58252000  1.0
  C  C86  1  0.67022000  0.15882000  0.57629000  1.0
  C  C87  1  0.48869000  0.58259000  0.15887000  1.0
  C  C88  1  0.90611000  0.57632000  0.41748000  1.0
  C  C89  1  0.32978000  0.84118000  0.42371000  1.0
  C  C90  1  0.73847000  0.47993000  0.11766000  1.0
  C  C91  1  0.25869000  0.63772000  0.52011000  1.0
  C  C92  1  0.62096000  0.88234000  0.36226000  1.0
  C  C93  1  0.26153000  0.52007000  0.88234000  1.0
  C  C94  1  0.74131000  0.36228000  0.47989000  1.0
  C  C95  1  0.37904000  0.11766000  0.63774000  1.0
  C  C96  1  0.62744000  0.43557000  0.04700000  1.0
  C  C97  1  0.19204000  0.61143000  0.56449000  1.0
  C  C98  1  0.58061000  0.95300000  0.38855000  1.0
  C  C99  1  0.37256000  0.56443000  0.95300000  1.0
  C  C100  1  0.80796000  0.38857000  0.43551000  1.0
  C  C101  1  0.41939000  0.04699000  0.61145000  1.0
  C  C102  1  0.63870000  0.43526000  0.97480000  1.0
  C  C103  1  0.20360000  0.53954000  0.56479000  1.0
  C  C104  1  0.66402000  0.02519000  0.46046000  1.0
  C  C105  1  0.36130000  0.56474000  0.02520000  1.0
  C  C106  1  0.79640000  0.46046000  0.43521000  1.0
  C  C107  1  0.33598000  0.97481000  0.53955000  1.0
  C  C108  1  0.76316000  0.47961000  0.97751000  1.0
  C  C109  1  0.28365000  0.49788000  0.52040000  1.0
  C  C110  1  0.78574000  0.02246000  0.50211000  1.0
  C  C111  1  0.23684000  0.52039000  0.02249000  1.0
  C  C112  1  0.71635000  0.50212000  0.47959000  1.0
  C  C113  1  0.21426000  0.97754000  0.49789000  1.0
  C  C114  1  0.86818000  0.52226000  0.05107000  1.0
  C  C115  1  0.34606000  0.52880000  0.47776000  1.0
  C  C116  1  0.81722000  0.94890000  0.47119000  1.0
  C  C117  1  0.13182000  0.47774000  0.94893000  1.0
  C  C118  1  0.65394000  0.47120000  0.52224000  1.0
  C  C119  1  0.18278000  0.05110000  0.52882000  1.0
  C  C120  1  0.32936000  0.27372000  0.80140000  1.0
  C  C121  1  0.05563000  0.52760000  0.72620000  1.0
  C  C122  1  0.52806000  0.19857000  0.47236000  1.0
  C  C123  1  0.67064000  0.72628000  0.19860000  1.0
  C  C124  1  0.94437000  0.47240000  0.27380000  1.0
  C  C125  1  0.47194000  0.80143000  0.52764000  1.0
  C  C126  1  0.40886000  0.37146000  0.76671000  1.0
  C  C127  1  0.03736000  0.39519000  0.62845000  1.0
  C  C128  1  0.64223000  0.23326000  0.60478000  1.0
  C  C129  1  0.59114000  0.62854000  0.23329000  1.0
  C  C130  1  0.96264000  0.60481000  0.37155000  1.0
  C  C131  1  0.35777000  0.76674000  0.39522000  1.0
  C  C132  1  0.00490000  0.75973000  0.28205000  1.0
  C  C133  1  0.24541000  0.52238000  0.24031000  1.0
  C  C134  1  0.72296000  0.71794000  0.47758000  1.0
  C  C135  1  0.99510000  0.24027000  0.71795000  1.0
  C  C136  1  0.75459000  0.47762000  0.75969000  1.0
  C  C137  1  0.27704000  0.28206000  0.52242000  1.0
  C  C138  1  0.10021000  0.78123000  0.24218000  1.0
  C  C139  1  0.31911000  0.46096000  0.21881000  1.0
  C  C140  1  0.85810000  0.75784000  0.53900000  1.0
  C  C141  1  0.89978000  0.21877000  0.75782000  1.0
  C  C142  1  0.68090000  0.53905000  0.78119000  1.0
  C  C143  1  0.14190000  0.24216000  0.46100000  1.0
  C  C144  1  0.12730000  0.86106000  0.25242000  1.0
  C  C145  1  0.26629000  0.39138000  0.13899000  1.0
  C  C146  1  0.87488000  0.74762000  0.60859000  1.0
  C  C147  1  0.87270000  0.13894000  0.74758000  1.0
  C  C148  1  0.73371000  0.60861000  0.86102000  1.0
  C  C149  1  0.12512000  0.25238000  0.39141000  1.0
  C  C150  1  0.22192000  0.88802000  0.22165000  1.0
  C  C151  1  0.33395000  0.33364000  0.11204000  1.0
  C  C152  1  0.00027000  0.77840000  0.66633000  1.0
  C  C153  1  0.77808000  0.11198000  0.77836000  1.0
  C  C154  1  0.66605000  0.66636000  0.88796000  1.0
  C  C155  1  0.99974000  0.22160000  0.33367000  1.0
  C  C156  1  0.29215000  0.83595000  0.17880000  1.0
  C  C157  1  0.45630000  0.34287000  0.16406000  1.0
  C  C158  1  0.11341000  0.82118000  0.65709000  1.0
  C  C159  1  0.70785000  0.16405000  0.82119000  1.0
  C  C160  1  0.54370000  0.65713000  0.83594000  1.0
  C  C161  1  0.88659000  0.17882000  0.34291000  1.0
  C  C162  1  0.26556000  0.75722000  0.16747000  1.0
  C  C163  1  0.50853000  0.41027000  0.24280000  1.0
  C  C164  1  0.09822000  0.83252000  0.58971000  1.0
  C  C165  1  0.73444000  0.24278000  0.83253000  1.0
  C  C166  1  0.49147000  0.58973000  0.75720000  1.0
  C  C167  1  0.90178000  0.16748000  0.41029000  1.0
  C  C168  1  0.16919000  0.72637000  0.19822000  1.0
  C  C169  1  0.44297000  0.47185000  0.27365000  1.0
  C  C170  1  0.97108000  0.80178000  0.52812000  1.0
  C  C171  1  0.83081000  0.27363000  0.80178000  1.0
  C  C172  1  0.55704000  0.52815000  0.72635000  1.0
  C  C173  1  0.02892000  0.19821000  0.47188000  1.0
  Br  Br174  1  0.25656000  0.99663000  0.23669000  1.0
  Br  Br175  1  0.26013000  0.24014000  0.00336000  1.0
  Br  Br176  1  0.01970000  0.76326000  0.75982000  1.0
  Br  Br177  1  0.74345000  0.00337000  0.76331000  1.0
  Br  Br178  1  0.73987000  0.75986000  0.99664000  1.0
  Br  Br179  1  0.98030000  0.23674000  0.24018000  1.0
  N  N180  1  0.85702000  0.52264000  0.12021000  1.0
  N  N181  1  0.33451000  0.59757000  0.47740000  1.0
  N  N182  1  0.73691000  0.87977000  0.40243000  1.0
  N  N183  1  0.14298000  0.47736000  0.87979000  1.0
  N  N184  1  0.66549000  0.40243000  0.52260000  1.0
  N  N185  1  0.26310000  0.12023000  0.59757000  1.0
  N  N186  1  0.31989000  0.29997000  0.74637000  1.0
  N  N187  1  0.01991000  0.44632000  0.69995000  1.0
  N  N188  1  0.57363000  0.25361000  0.55363000  1.0
  N  N189  1  0.68011000  0.70003000  0.25363000  1.0
  N  N190  1  0.98009000  0.55368000  0.30005000  1.0
  N  N191  1  0.42637000  0.74639000  0.44637000  1.0
  O  O192  1  0.15254000  0.65104000  0.18443000  1.0
  O  O193  1  0.50157000  0.53337000  0.34901000  1.0
  O  O194  1  0.96823000  0.81567000  0.46662000  1.0
  O  O195  1  0.84746000  0.34896000  0.81557000  1.0
  O  O196  1  0.49843000  0.46664000  0.65099000  1.0
  O  O197  1  0.03177000  0.18433000  0.53338000  1.0
  O  O198  1  0.98115000  0.69157000  0.28245000  1.0
  O  O199  1  0.29011000  0.59098000  0.30840000  1.0
  O  O200  1  0.69904000  0.71745000  0.40900000  1.0
  O  O201  1  0.01884000  0.30843000  0.71755000  1.0
  O  O202  1  0.70989000  0.40902000  0.69160000  1.0
  O  O203  1  0.30096000  0.28255000  0.59100000  1.0
  O  O204  1  0.94599000  0.81236000  0.31871000  1.0
  O  O205  1  0.13382000  0.50647000  0.18775000  1.0
  O  O206  1  0.62731000  0.68132000  0.49353000  1.0
  O  O207  1  0.05401000  0.18764000  0.68129000  1.0
  O  O208  1  0.86618000  0.49353000  0.81225000  1.0
  O  O209  1  0.37269000  0.31868000  0.50647000  1.0
