# generated using pymatgen
data_V2Cu2H21C21(NO)6
_symmetry_space_group_name_H-M   'P 1'
_cell_length_a   9.56262000
_cell_length_b   11.36940000
_cell_length_c   12.02310000
_cell_angle_alpha   71.22750000
_cell_angle_beta   81.94280000
_cell_angle_gamma   75.43870000
_symmetry_Int_Tables_number   1
_chemical_formula_structural   V2Cu2H21C21(NO)6
_chemical_formula_sum   'V4 Cu4 H42 C42 N12 O12'
_cell_volume   1195.36988774
_cell_formula_units_Z   2
loop_
 _symmetry_equiv_pos_site_id
 _symmetry_equiv_pos_as_xyz
  1  'x, y, z'
loop_
 _atom_site_type_symbol
 _atom_site_label
 _atom_site_symmetry_multiplicity
 _atom_site_fract_x
 _atom_site_fract_y
 _atom_site_fract_z
 _atom_site_occupancy
  V  V0  1  0.01383000  0.08652000  0.15598000  1.0
  V  V1  1  0.98617000  0.91347000  0.84401000  1.0
  V  V2  1  0.11312000  0.78163000  0.12229000  1.0
  V  V3  1  0.88688000  0.21836000  0.87770000  1.0
  Cu  Cu4  1  0.36732000  0.17311000  0.06187000  1.0
  Cu  Cu5  1  0.63268000  0.82689000  0.93813000  1.0
  Cu  Cu6  1  0.00498000  0.52725000  0.27781000  1.0
  Cu  Cu7  1  0.99502000  0.47275000  0.72219000  1.0
  H  H8  1  0.69930000  0.04682000  0.08855000  1.0
  H  H9  1  0.30070000  0.95318000  0.91145000  1.0
  H  H10  1  0.05368000  0.13700000  0.63591000  1.0
  H  H11  1  0.94632000  0.86300000  0.36410000  1.0
  H  H12  1  0.09029000  0.38541000  0.99680000  1.0
  H  H13  1  0.90971000  0.61459000  0.00320000  1.0
  H  H14  1  0.67177000  0.59086000  0.69341000  1.0
  H  H15  1  0.32823000  0.40914000  0.30659000  1.0
  H  H16  1  0.50416000  0.64609000  0.84453000  1.0
  H  H17  1  0.49584000  0.35391000  0.15547000  1.0
  H  H18  1  0.32740000  0.73853000  0.80964000  1.0
  H  H19  1  0.67260000  0.26147000  0.19037000  1.0
  H  H20  1  0.11569000  0.63448000  0.86714000  1.0
  H  H21  1  0.88431000  0.36552000  0.13286000  1.0
  H  H22  1  0.64281000  0.61627000  0.29468000  1.0
  H  H23  1  0.35719000  0.38373000  0.70532000  1.0
  H  H24  1  0.45372000  0.65424000  0.27497000  1.0
  H  H25  1  0.54628000  0.34576000  0.72503000  1.0
  H  H26  1  0.72948000  0.60713000  0.48195000  1.0
  H  H27  1  0.27052000  0.39287000  0.51805000  1.0
  H  H28  1  0.53310000  0.39246000  0.91678000  1.0
  H  H29  1  0.46690000  0.60754000  0.08322000  1.0
  H  H30  1  0.13803000  0.24764000  0.26574000  1.0
  H  H31  1  0.86196000  0.75237000  0.73426000  1.0
  H  H32  1  0.21732000  0.71392000  0.63325000  1.0
  H  H33  1  0.78268000  0.28608000  0.36675000  1.0
  H  H34  1  0.41798000  0.09150000  0.29702000  1.0
  H  H35  1  0.58202000  0.90850000  0.70298000  1.0
  H  H36  1  0.94534000  0.39767000  0.54637000  1.0
  H  H37  1  0.05466000  0.60232000  0.45363000  1.0
  H  H38  1  0.78053000  0.79205000  0.21901000  1.0
  H  H39  1  0.21947000  0.20794000  0.78099000  1.0
  H  H40  1  0.27468000  0.72326000  0.42336000  1.0
  H  H41  1  0.72532000  0.27674000  0.57664000  1.0
  H  H42  1  0.32432000  0.93355000  0.66804000  1.0
  H  H43  1  0.67567000  0.06645000  0.33197000  1.0
  H  H44  1  0.18893000  0.01223000  0.37542000  1.0
  H  H45  1  0.81106000  0.98777000  0.62458000  1.0
  H  H46  1  0.14751000  0.96216000  0.53118000  1.0
  H  H47  1  0.85248000  0.03784000  0.46883000  1.0
  H  H48  1  0.32365000  0.89706000  0.20536000  1.0
  H  H49  1  0.67635000  0.10295000  0.79464000  1.0
  C  C50  1  0.63296000  0.97859000  0.13302000  1.0
  C  C51  1  0.36704000  0.02141000  0.86699000  1.0
  C  C52  1  0.05564000  0.20071000  0.54679000  1.0
  C  C53  1  0.94436000  0.79929000  0.45322000  1.0
  C  C54  1  0.18476000  0.42517000  0.96295000  1.0
  C  C55  1  0.81524000  0.57483000  0.03705000  1.0
  C  C56  1  0.44069000  0.65204000  0.67731000  1.0
  C  C57  1  0.55931000  0.34796000  0.32269000  1.0
  C  C58  1  0.58435000  0.62117000  0.63400000  1.0
  C  C59  1  0.41564000  0.37884000  0.36600000  1.0
  C  C60  1  0.40592000  0.65129000  0.80399000  1.0
  C  C61  1  0.59408000  0.34871000  0.19601000  1.0
  C  C62  1  0.19559000  0.54694000  0.89836000  1.0
  C  C63  1  0.80441000  0.45306000  0.10164000  1.0
  C  C64  1  0.53915000  0.67979000  0.30877000  1.0
  C  C65  1  0.46085000  0.32021000  0.69123000  1.0
  C  C66  1  0.61688000  0.62992000  0.51512000  1.0
  C  C67  1  0.38311000  0.37008000  0.48488000  1.0
  C  C68  1  0.41579000  0.42381000  0.92569000  1.0
  C  C69  1  0.58421000  0.57620000  0.07431000  1.0
  C  C70  1  0.10168000  0.25726000  0.35302000  1.0
  C  C71  1  0.89832000  0.74274000  0.64698000  1.0
  C  C72  1  0.32952000  0.68790000  0.60059000  1.0
  C  C73  1  0.67048000  0.31210000  0.39941000  1.0
  C  C74  1  0.45395000  0.05094000  0.38628000  1.0
  C  C75  1  0.54605000  0.94907000  0.61372000  1.0
  C  C76  1  0.50618000  0.66818000  0.43792000  1.0
  C  C77  1  0.49382000  0.33182000  0.56208000  1.0
  C  C78  1  0.00284000  0.32929000  0.50110000  1.0
  C  C79  1  0.99716000  0.67071000  0.49890000  1.0
  C  C80  1  0.35516000  0.01254000  0.48031000  1.0
  C  C81  1  0.64483000  0.98746000  0.51969000  1.0
  C  C82  1  0.67447000  0.85345000  0.19894000  1.0
  C  C83  1  0.32553000  0.14655000  0.80105000  1.0
  C  C84  1  0.36218000  0.69517000  0.48231000  1.0
  C  C85  1  0.63782000  0.30483000  0.51769000  1.0
  C  C86  1  0.40185000  0.96233000  0.59461000  1.0
  C  C87  1  0.59814000  0.03767000  0.40539000  1.0
  C  C88  1  0.19895000  0.02803000  0.45897000  1.0
  C  C89  1  0.80105000  0.97198000  0.54103000  1.0
  C  C90  1  0.43562000  0.90568000  0.19216000  1.0
  C  C91  1  0.56438000  0.09432000  0.80784000  1.0
  N  N92  1  0.32278000  0.34913000  0.97943000  1.0
  N  N93  1  0.67722000  0.65087000  0.02057000  1.0
  N  N94  1  0.11648000  0.15760000  0.45219000  1.0
  N  N95  1  0.88351000  0.84240000  0.54781000  1.0
  N  N96  1  0.03234000  0.36396000  0.37984000  1.0
  N  N97  1  0.96766000  0.63604000  0.62016000  1.0
  N  N98  1  0.54877000  0.80911000  0.23535000  1.0
  N  N99  1  0.45123000  0.19089000  0.76465000  1.0
  N  N100  1  0.34180000  0.54438000  0.87619000  1.0
  N  N101  1  0.65820000  0.45562000  0.12381000  1.0
  N  N102  1  0.48349000  0.01036000  0.12984000  1.0
  N  N103  1  0.51651000  0.98964000  0.87016000  1.0
  O  O104  1  0.98957000  0.68906000  0.18625000  1.0
  O  O105  1  0.01044000  0.31093000  0.81373000  1.0
  O  O106  1  0.15713000  0.15235000  0.13431000  1.0
  O  O107  1  0.84288000  0.84765000  0.86568000  1.0
  O  O108  1  0.07392000  0.91599000  0.17727000  1.0
  O  O109  1  0.92609000  0.08401000  0.82272000  1.0
  O  O110  1  0.91918000  0.11002000  0.27508000  1.0
  O  O111  1  0.08083000  0.88998000  0.72491000  1.0
  O  O112  1  0.27735000  0.69970000  0.15285000  1.0
  O  O113  1  0.72266000  0.30030000  0.84715000  1.0
  O  O114  1  0.89751000  0.16125000  0.03377000  1.0
  O  O115  1  0.10250000  0.83875000  0.96622000  1.0
