# generated using pymatgen
data_CuPH15C18S3Cl
_symmetry_space_group_name_H-M   'P 1'
_cell_length_a   10.14590000
_cell_length_b   12.39472469
_cell_length_c   12.39400000
_cell_angle_alpha   119.99819773
_cell_angle_beta   90.00080000
_cell_angle_gamma   89.99600005
_symmetry_Int_Tables_number   1
_chemical_formula_structural   CuPH15C18S3Cl
_chemical_formula_sum   'Cu3 P3 H45 C54 S9 Cl3'
_cell_volume   1349.82501293
_cell_formula_units_Z   3
loop_
 _symmetry_equiv_pos_site_id
 _symmetry_equiv_pos_as_xyz
  1  'x, y, z'
loop_
 _atom_site_type_symbol
 _atom_site_label
 _atom_site_symmetry_multiplicity
 _atom_site_fract_x
 _atom_site_fract_y
 _atom_site_fract_z
 _atom_site_occupancy
  Cu  Cu0  1  0.43692000  0.99771000  0.92075000  1.0
  Cu  Cu1  1  0.77022000  0.07935000  0.07692000  1.0
  Cu  Cu2  1  0.10354000  0.92310000  0.00237000  1.0
  P  P3  1  0.51745000  0.17673000  0.95305000  1.0
  P  P4  1  0.85067000  0.04714000  0.22368000  1.0
  P  P5  1  0.18412000  0.77641000  0.82338000  1.0
  H  H6  1  0.17139000  0.16861000  0.95242000  1.0
  H  H7  1  0.50440000  0.04769000  0.21598000  1.0
  H  H8  1  0.83779000  0.78380000  0.83142000  1.0
  H  H9  1  0.01800000  0.09122000  0.77375000  1.0
  H  H10  1  0.35095000  0.22643000  0.31738000  1.0
  H  H11  1  0.68446000  0.68235000  0.90873000  1.0
  H  H12  1  0.04551000  0.15715000  0.61457000  1.0
  H  H13  1  0.37869000  0.38552000  0.54251000  1.0
  H  H14  1  0.71239000  0.45727000  0.84285000  1.0
  H  H15  1  0.22980000  0.29846000  0.63436000  1.0
  H  H16  1  0.56306000  0.36564000  0.66386000  1.0
  H  H17  1  0.89684000  0.33602000  0.70176000  1.0
  H  H18  1  0.38494000  0.37524000  0.81373000  1.0
  H  H19  1  0.71823000  0.18629000  0.56111000  1.0
  H  H20  1  0.05198000  0.43878000  0.62512000  1.0
  H  H21  1  0.81498000  0.99961000  0.76322000  1.0
  H  H22  1  0.14798000  0.23702000  0.23689000  1.0
  H  H23  1  0.48150000  0.76324000  0.00010000  1.0
  H  H24  1  0.84366000  0.79143000  0.57730000  1.0
  H  H25  1  0.17678000  0.42288000  0.21453000  1.0
  H  H26  1  0.51028000  0.78559000  0.20834000  1.0
  H  H27  1  0.68150000  0.71437000  0.40173000  1.0
  H  H28  1  0.01464000  0.59845000  0.31288000  1.0
  H  H29  1  0.34822000  0.68715000  0.28552000  1.0
  H  H30  1  0.48662000  0.84407000  0.41927000  1.0
  H  H31  1  0.81966000  0.58101000  0.42499000  1.0
  H  H32  1  0.15320000  0.57508000  0.15602000  1.0
  H  H33  1  0.45869000  0.05422000  0.60731000  1.0
  H  H34  1  0.79167000  0.39301000  0.44718000  1.0
  H  H35  1  0.12511000  0.55307000  0.94591000  1.0
  H  H36  1  0.58931000  0.50714000  0.20295000  1.0
  H  H37  1  0.92242000  0.79695000  0.30400000  1.0
  H  H38  1  0.25599000  0.69590000  0.49292000  1.0
  H  H39  1  0.70676000  0.67020000  0.17920000  1.0
  H  H40  1  0.03990000  0.82052000  0.49077000  1.0
  H  H41  1  0.37337000  0.50909000  0.32964000  1.0
  H  H42  1  0.92006000  0.62175000  0.06673000  1.0
  H  H43  1  0.25320000  0.93301000  0.55486000  1.0
  H  H44  1  0.58660000  0.44481000  0.37804000  1.0
  H  H45  1  0.01524000  0.40691000  0.97378000  1.0
  H  H46  1  0.34834000  0.02607000  0.43306000  1.0
  H  H47  1  0.68165000  0.56644000  0.59293000  1.0
  H  H48  1  0.89842000  0.24461000  0.99738000  1.0
  H  H49  1  0.23148000  0.00265000  0.24724000  1.0
  H  H50  1  0.56504000  0.75241000  0.75532000  1.0
  C  C51  1  0.28612000  0.27816000  0.89443000  1.0
  C  C52  1  0.61920000  0.10566000  0.38342000  1.0
  C  C53  1  0.95272000  0.61641000  0.72197000  1.0
  C  C54  1  0.18340000  0.19755000  0.88311000  1.0
  C  C55  1  0.51637000  0.11700000  0.31422000  1.0
  C  C56  1  0.84984000  0.68555000  0.80247000  1.0
  C  C57  1  0.09707000  0.15447000  0.78220000  1.0
  C  C58  1  0.43004000  0.21791000  0.37209000  1.0
  C  C59  1  0.76358000  0.62763000  0.84551000  1.0
  C  C60  1  0.11264000  0.19169000  0.69363000  1.0
  C  C61  1  0.44578000  0.30642000  0.49786000  1.0
  C  C62  1  0.77942000  0.50189000  0.80833000  1.0
  C  C63  1  0.21597000  0.27106000  0.70455000  1.0
  C  C64  1  0.54920000  0.29547000  0.56625000  1.0
  C  C65  1  0.88292000  0.43359000  0.72909000  1.0
  C  C66  1  0.30342000  0.31403000  0.80448000  1.0
  C  C67  1  0.63666000  0.19554000  0.50922000  1.0
  C  C68  1  0.97034000  0.49065000  0.68619000  1.0
  C  C69  1  0.63659000  0.03994000  0.69438000  1.0
  C  C70  1  0.96961000  0.30601000  0.34605000  1.0
  C  C71  1  0.30303000  0.65423000  0.96000000  1.0
  C  C72  1  0.74462000  0.96611000  0.68670000  1.0
  C  C73  1  0.07767000  0.31361000  0.27991000  1.0
  C  C74  1  0.41117000  0.72027000  0.03368000  1.0
  C  C75  1  0.76008000  0.84884000  0.58147000  1.0
  C  C76  1  0.09322000  0.41879000  0.26780000  1.0
  C  C77  1  0.42667000  0.73238000  0.15099000  1.0
  C  C78  1  0.66889000  0.80570000  0.48426000  1.0
  C  C79  1  0.00203000  0.51600000  0.32180000  1.0
  C  C80  1  0.33554000  0.67833000  0.19420000  1.0
  C  C81  1  0.55956000  0.87838000  0.49368000  1.0
  C  C82  1  0.89262000  0.50661000  0.38498000  1.0
  C  C83  1  0.22610000  0.61518000  0.12167000  1.0
  C  C84  1  0.54259000  0.99556000  0.59889000  1.0
  C  C85  1  0.87556000  0.40143000  0.39697000  1.0
  C  C86  1  0.20904000  0.60325000  0.00451000  1.0
  C  C87  1  0.73765000  0.36637000  0.10210000  1.0
  C  C88  1  0.07071000  0.89796000  0.26425000  1.0
  C  C89  1  0.40425000  0.73552000  0.63364000  1.0
  C  C90  1  0.68313000  0.48614000  0.15383000  1.0
  C  C91  1  0.01619000  0.84614000  0.33221000  1.0
  C  C92  1  0.34977000  0.66762000  0.51382000  1.0
  C  C93  1  0.74953000  0.57743000  0.14074000  1.0
  C  C94  1  0.08262000  0.85910000  0.43654000  1.0
  C  C95  1  0.41610000  0.56323000  0.42245000  1.0
  C  C96  1  0.86950000  0.54983000  0.07702000  1.0
  C  C97  1  0.20259000  0.92279000  0.47269000  1.0
  C  C98  1  0.53603000  0.52701000  0.44999000  1.0
  C  C99  1  0.92273000  0.43031000  0.02526000  1.0
  C  C100  1  0.25577000  0.97468000  0.40502000  1.0
  C  C101  1  0.58918000  0.59463000  0.56958000  1.0
  C  C102  1  0.85720000  0.33801000  0.03727000  1.0
  C  C103  1  0.19025000  0.96278000  0.30076000  1.0
  C  C104  1  0.52377000  0.69895000  0.66194000  1.0
  S  S105  1  0.39450000  0.33694000  0.02466000  1.0
  S  S106  1  0.72754000  0.97540000  0.31203000  1.0
  S  S107  1  0.06102000  0.68796000  0.66323000  1.0
  S  S108  1  0.62560000  0.19653000  0.81799000  1.0
  S  S109  1  0.95857000  0.18220000  0.37878000  1.0
  S  S110  1  0.29193000  0.62133000  0.80342000  1.0
  S  S111  1  0.65005000  0.24991000  0.11631000  1.0
  S  S112  1  0.98319000  0.88386000  0.13356000  1.0
  S  S113  1  0.31685000  0.86636000  0.75017000  1.0
  Cl  Cl114  1  0.61566000  0.91977000  0.97680000  1.0
  Cl  Cl115  1  0.94898000  0.02328000  0.94299000  1.0
  Cl  Cl116  1  0.28227000  0.05711000  0.08025000  1.0
