# generated using pymatgen
data_Zn4H13C9SN16O7
_symmetry_space_group_name_H-M   'P 1'
_cell_length_a   7.34390000
_cell_length_b   12.95690000
_cell_length_c   12.95690000
_cell_angle_alpha   88.13950000
_cell_angle_beta   84.86900000
_cell_angle_gamma   84.86910000
_symmetry_Int_Tables_number   1
_chemical_formula_structural   Zn4H13C9SN16O7
_chemical_formula_sum   'Zn8 H26 C18 S2 N32 O14'
_cell_volume   1222.67014334
_cell_formula_units_Z   2
loop_
 _symmetry_equiv_pos_site_id
 _symmetry_equiv_pos_as_xyz
  1  'x, y, z'
loop_
 _atom_site_type_symbol
 _atom_site_label
 _atom_site_symmetry_multiplicity
 _atom_site_fract_x
 _atom_site_fract_y
 _atom_site_fract_z
 _atom_site_occupancy
  Zn  Zn0  1  0.50000000  0.84385000  0.15615000  1.0
  Zn  Zn1  1  0.50000000  0.15616000  0.84384000  1.0
  Zn  Zn2  1  0.00000000  0.82043000  0.17957000  1.0
  Zn  Zn3  1  0.00000000  0.17957000  0.82043000  1.0
  Zn  Zn4  1  0.27812000  0.78588000  0.61086000  1.0
  Zn  Zn5  1  0.72188000  0.38914000  0.21412000  1.0
  Zn  Zn6  1  0.72188000  0.21412000  0.38914000  1.0
  Zn  Zn7  1  0.27812000  0.61086000  0.78588000  1.0
  H  H8  1  0.90937000  0.72230000  0.50766000  1.0
  H  H9  1  0.09062000  0.49234000  0.27770000  1.0
  H  H10  1  0.09062000  0.27771000  0.49235000  1.0
  H  H11  1  0.90937000  0.50766000  0.72229000  1.0
  H  H12  1  0.84920000  0.74368000  0.38413000  1.0
  H  H13  1  0.15080000  0.61587000  0.25632000  1.0
  H  H14  1  0.15079000  0.25632000  0.61587000  1.0
  H  H15  1  0.84921000  0.38413000  0.74368000  1.0
  H  H16  1  0.07483000  0.13970000  0.27642000  1.0
  H  H17  1  0.92517000  0.72358000  0.86030000  1.0
  H  H18  1  0.92517000  0.86030000  0.72358000  1.0
  H  H19  1  0.07483000  0.27642000  0.13971000  1.0
  H  H20  1  0.15879000  0.03510000  0.20509000  1.0
  H  H21  1  0.84121000  0.79491000  0.96490000  1.0
  H  H22  1  0.84121000  0.96490000  0.79491000  1.0
  H  H23  1  0.15879000  0.20509000  0.03510000  1.0
  H  H24  1  0.51896000  0.83359000  0.41120000  1.0
  H  H25  1  0.48103000  0.58880000  0.16641000  1.0
  H  H26  1  0.48103000  0.16641000  0.58880000  1.0
  H  H27  1  0.51897000  0.41120000  0.83359000  1.0
  H  H28  1  0.45428000  0.04946000  0.31259000  1.0
  H  H29  1  0.54573000  0.68741000  0.95054000  1.0
  H  H30  1  0.54572000  0.95054000  0.68742000  1.0
  H  H31  1  0.45427000  0.31259000  0.04946000  1.0
  H  H32  1  0.02406000  0.66640000  0.66640000  1.0
  H  H33  1  0.97594000  0.33360000  0.33360000  1.0
  C  C34  1  0.38355000  0.81965000  0.39060000  1.0
  C  C35  1  0.61645000  0.60941000  0.18035000  1.0
  C  C36  1  0.61645000  0.18035000  0.60940000  1.0
  C  C37  1  0.38356000  0.39060000  0.81965000  1.0
  C  C38  1  0.10250000  0.78309000  0.40231000  1.0
  C  C39  1  0.89750000  0.59769000  0.21690000  1.0
  C  C40  1  0.89750000  0.21690000  0.59769000  1.0
  C  C41  1  0.10250000  0.40231000  0.78309000  1.0
  C  C42  1  0.59782000  0.02781000  0.28917000  1.0
  C  C43  1  0.40219000  0.71083000  0.97219000  1.0
  C  C44  1  0.40219000  0.97219000  0.71083000  1.0
  C  C45  1  0.59781000  0.28917000  0.02781000  1.0
  C  C46  1  0.89039000  0.03454000  0.26087000  1.0
  C  C47  1  0.10962000  0.73913000  0.96546000  1.0
  C  C48  1  0.10961000  0.96546000  0.73913000  1.0
  C  C49  1  0.89038000  0.26087000  0.03454000  1.0
  C  C50  1  0.40766000  0.02631000  0.02630000  1.0
  C  C51  1  0.59233000  0.97370000  0.97368000  1.0
  S  S52  1  0.65516000  0.68198000  0.68198000  1.0
  S  S53  1  0.34484000  0.31802000  0.31802000  1.0
  N  N54  1  0.33552000  0.82298000  0.29494000  1.0
  N  N55  1  0.66448000  0.70506000  0.17702000  1.0
  N  N56  1  0.66448000  0.17702000  0.70506000  1.0
  N  N57  1  0.33552000  0.29494000  0.82298000  1.0
  N  N58  1  0.15592000  0.79801000  0.30090000  1.0
  N  N59  1  0.84408000  0.69910000  0.20198000  1.0
  N  N60  1  0.84408000  0.20198000  0.69910000  1.0
  N  N61  1  0.15592000  0.30090000  0.79802000  1.0
  N  N62  1  0.24354000  0.79572000  0.46100000  1.0
  N  N63  1  0.75646000  0.53900000  0.20428000  1.0
  N  N64  1  0.75646000  0.20428000  0.53901000  1.0
  N  N65  1  0.24354000  0.46100000  0.79572000  1.0
  N  N66  1  0.93001000  0.76283000  0.43898000  1.0
  N  N67  1  0.06999000  0.56102000  0.23717000  1.0
  N  N68  1  0.06999000  0.23717000  0.56102000  1.0
  N  N69  1  0.93002000  0.43898000  0.76283000  1.0
  N  N70  1  0.65802000  0.94457000  0.23594000  1.0
  N  N71  1  0.34198000  0.76406000  0.05543000  1.0
  N  N72  1  0.34198000  0.05543000  0.76406000  1.0
  N  N73  1  0.65801000  0.23594000  0.94457000  1.0
  N  N74  1  0.84637000  0.94835000  0.21659000  1.0
  N  N75  1  0.15364000  0.78341000  0.05165000  1.0
  N  N76  1  0.15363000  0.05165000  0.78342000  1.0
  N  N77  1  0.84636000  0.21659000  0.94835000  1.0
  N  N78  1  0.73622000  0.08587000  0.30795000  1.0
  N  N79  1  0.26379000  0.69205000  0.91413000  1.0
  N  N80  1  0.26378000  0.91413000  0.69205000  1.0
  N  N81  1  0.73621000  0.30795000  0.08587000  1.0
  N  N82  1  0.06244000  0.06384000  0.26197000  1.0
  N  N83  1  0.93757000  0.73803000  0.93616000  1.0
  N  N84  1  0.93757000  0.93616000  0.73803000  1.0
  N  N85  1  0.06243000  0.26197000  0.06385000  1.0
  O  O86  1  0.54621000  0.73486000  0.59868000  1.0
  O  O87  1  0.45379000  0.40132000  0.26515000  1.0
  O  O88  1  0.45379000  0.26514000  0.40132000  1.0
  O  O89  1  0.54621000  0.59868000  0.73486000  1.0
  O  O90  1  0.82604000  0.62891000  0.62891000  1.0
  O  O91  1  0.17395000  0.37109000  0.37110000  1.0
  O  O92  1  0.69747000  0.75693000  0.75693000  1.0
  O  O93  1  0.30253000  0.24307000  0.24308000  1.0
  O  O94  1  0.33963000  0.98331000  0.10815000  1.0
  O  O95  1  0.66037000  0.89185000  0.01669000  1.0
  O  O96  1  0.66037000  0.01670000  0.89183000  1.0
  O  O97  1  0.33963000  0.10817000  0.98329000  1.0
  O  O98  1  0.12614000  0.69663000  0.69663000  1.0
  O  O99  1  0.87386000  0.30337000  0.30338000  1.0
