# generated using pymatgen
data_CdH16C21(NO3)2
_symmetry_space_group_name_H-M   'P 1'
_cell_length_a   13.93700000
_cell_length_b   16.73900000
_cell_length_c   21.06620000
_cell_angle_alpha   90.00000000
_cell_angle_beta   90.00000000
_cell_angle_gamma   89.99990000
_symmetry_Int_Tables_number   1
_chemical_formula_structural   CdH16C21(NO3)2
_chemical_formula_sum   'Cd8 H128 C168 N16 O48'
_cell_volume   4914.56419652
_cell_formula_units_Z   8
loop_
 _symmetry_equiv_pos_site_id
 _symmetry_equiv_pos_as_xyz
  1  'x, y, z'
loop_
 _atom_site_type_symbol
 _atom_site_label
 _atom_site_symmetry_multiplicity
 _atom_site_fract_x
 _atom_site_fract_y
 _atom_site_fract_z
 _atom_site_occupancy
  Cd  Cd0  1  0.76635000  0.89827000  0.15039000  1.0
  Cd  Cd1  1  0.23365000  0.60173000  0.65039000  1.0
  Cd  Cd2  1  0.73365000  0.39827000  0.84961000  1.0
  Cd  Cd3  1  0.26635000  0.10173000  0.34961000  1.0
  Cd  Cd4  1  0.23365000  0.10173000  0.84961000  1.0
  Cd  Cd5  1  0.76635000  0.39827000  0.34961000  1.0
  Cd  Cd6  1  0.26635000  0.60173000  0.15039000  1.0
  Cd  Cd7  1  0.73365000  0.89827000  0.65039000  1.0
  H  H8  1  0.75803000  0.90324000  0.88324000  1.0
  H  H9  1  0.24197000  0.59675000  0.38324000  1.0
  H  H10  1  0.74197000  0.40324000  0.11676000  1.0
  H  H11  1  0.25803000  0.09676000  0.61676000  1.0
  H  H12  1  0.24197000  0.09675000  0.11676000  1.0
  H  H13  1  0.75803000  0.40325000  0.61676000  1.0
  H  H14  1  0.25803000  0.59676000  0.88324000  1.0
  H  H15  1  0.74197000  0.90324000  0.38324000  1.0
  H  H16  1  0.74465000  0.67028000  0.79785000  1.0
  H  H17  1  0.25535000  0.82972000  0.29785000  1.0
  H  H18  1  0.75535000  0.17028000  0.20215000  1.0
  H  H19  1  0.24465000  0.32972000  0.70215000  1.0
  H  H20  1  0.25535000  0.32972000  0.20215000  1.0
  H  H21  1  0.74465000  0.17028000  0.70215000  1.0
  H  H22  1  0.24465000  0.82972000  0.79785000  1.0
  H  H23  1  0.75535000  0.67028000  0.29785000  1.0
  H  H24  1  0.76980000  0.69347000  0.00066000  1.0
  H  H25  1  0.23020000  0.80653000  0.50066000  1.0
  H  H26  1  0.73020000  0.19347000  0.99934000  1.0
  H  H27  1  0.26980000  0.30653000  0.49934000  1.0
  H  H28  1  0.23020000  0.30653000  0.99934000  1.0
  H  H29  1  0.76980000  0.19347000  0.49934000  1.0
  H  H30  1  0.26980000  0.80653000  0.00066000  1.0
  H  H31  1  0.73020000  0.69347000  0.50066000  1.0
  H  H32  1  0.60558000  0.99989000  0.22223000  1.0
  H  H33  1  0.39442000  0.50011000  0.72223000  1.0
  H  H34  1  0.89442000  0.49989000  0.77777000  1.0
  H  H35  1  0.10558000  0.00012000  0.27777000  1.0
  H  H36  1  0.39442000  0.00012000  0.77777000  1.0
  H  H37  1  0.60558000  0.49989000  0.27777000  1.0
  H  H38  1  0.10558000  0.50011000  0.22223000  1.0
  H  H39  1  0.89442000  0.99988000  0.72223000  1.0
  H  H40  1  0.42679000  0.00719000  0.23466000  1.0
  H  H41  1  0.57321000  0.49281000  0.73466000  1.0
  H  H42  1  0.07320000  0.50719000  0.76534000  1.0
  H  H43  1  0.92680000  0.99281000  0.26534000  1.0
  H  H44  1  0.57320000  0.99281000  0.76534000  1.0
  H  H45  1  0.42680000  0.50719000  0.26534000  1.0
  H  H46  1  0.92680000  0.49281000  0.23466000  1.0
  H  H47  1  0.07320000  0.00720000  0.73466000  1.0
  H  H48  1  0.40529000  0.82293000  0.09180000  1.0
  H  H49  1  0.59470000  0.67707000  0.59180000  1.0
  H  H50  1  0.09470000  0.32293000  0.90820000  1.0
  H  H51  1  0.90530000  0.17707000  0.40820000  1.0
  H  H52  1  0.59470000  0.17707000  0.90820000  1.0
  H  H53  1  0.40529000  0.32293000  0.40820000  1.0
  H  H54  1  0.90530000  0.67707000  0.09180000  1.0
  H  H55  1  0.09470000  0.82293000  0.59180000  1.0
  H  H56  1  0.58343000  0.82499000  0.08419000  1.0
  H  H57  1  0.41658000  0.67502000  0.58419000  1.0
  H  H58  1  0.91657000  0.32498000  0.91581000  1.0
  H  H59  1  0.08342000  0.17501000  0.41581000  1.0
  H  H60  1  0.41658000  0.17502000  0.91581000  1.0
  H  H61  1  0.58342000  0.32498000  0.41581000  1.0
  H  H62  1  0.08342000  0.67502000  0.08419000  1.0
  H  H63  1  0.91658000  0.82498000  0.58419000  1.0
  H  H64  1  0.27662000  0.87917000  0.21509000  1.0
  H  H65  1  0.72338000  0.62082000  0.71509000  1.0
  H  H66  1  0.22338000  0.37917000  0.78491000  1.0
  H  H67  1  0.77662000  0.12083000  0.28491000  1.0
  H  H68  1  0.72338000  0.12082000  0.78491000  1.0
  H  H69  1  0.27662000  0.37917000  0.28491000  1.0
  H  H70  1  0.77662000  0.62083000  0.21509000  1.0
  H  H71  1  0.22338000  0.87917000  0.71509000  1.0
  H  H72  1  0.27122000  0.97755000  0.18579000  1.0
  H  H73  1  0.72878000  0.52245000  0.68579000  1.0
  H  H74  1  0.22878000  0.47755000  0.81421000  1.0
  H  H75  1  0.77122000  0.02245000  0.31421000  1.0
  H  H76  1  0.72878000  0.02245000  0.81421000  1.0
  H  H77  1  0.27122000  0.47755000  0.31421000  1.0
  H  H78  1  0.77122000  0.52245000  0.18579000  1.0
  H  H79  1  0.22878000  0.97755000  0.68579000  1.0
  H  H80  1  0.25363000  0.82108000  0.10898000  1.0
  H  H81  1  0.74638000  0.67892000  0.60898000  1.0
  H  H82  1  0.24638000  0.32108000  0.89102000  1.0
  H  H83  1  0.75363000  0.17892000  0.39102000  1.0
  H  H84  1  0.74637000  0.17892000  0.89102000  1.0
  H  H85  1  0.25363000  0.32108000  0.39102000  1.0
  H  H86  1  0.75363000  0.67892000  0.10898000  1.0
  H  H87  1  0.24637000  0.82108000  0.60898000  1.0
  H  H88  1  0.25706000  0.91759000  0.07345000  1.0
  H  H89  1  0.74294000  0.58241000  0.57345000  1.0
  H  H90  1  0.24294000  0.41759000  0.92655000  1.0
  H  H91  1  0.75706000  0.08241000  0.42655000  1.0
  H  H92  1  0.74294000  0.08241000  0.92655000  1.0
  H  H93  1  0.25706000  0.41759000  0.42655000  1.0
  H  H94  1  0.75706000  0.58241000  0.07345000  1.0
  H  H95  1  0.24294000  0.91759000  0.57345000  1.0
  H  H96  1  0.12099000  0.78941000  0.18924000  1.0
  H  H97  1  0.87901000  0.71059000  0.68924000  1.0
  H  H98  1  0.37901000  0.28941000  0.81076000  1.0
  H  H99  1  0.62099000  0.21059000  0.31076000  1.0
  H  H100  1  0.87901000  0.21059000  0.81076000  1.0
  H  H101  1  0.12099000  0.28941000  0.31076000  1.0
  H  H102  1  0.62100000  0.71060000  0.18924000  1.0
  H  H103  1  0.37901000  0.78941000  0.68924000  1.0
  H  H104  1  0.94184000  0.80155000  0.20127000  1.0
  H  H105  1  0.05816000  0.69845000  0.70127000  1.0
  H  H106  1  0.55816000  0.30155000  0.79873000  1.0
  H  H107  1  0.44184000  0.19845000  0.29873000  1.0
  H  H108  1  0.05816000  0.19845000  0.79873000  1.0
  H  H109  1  0.94184000  0.30155000  0.29873000  1.0
  H  H110  1  0.44184000  0.69845000  0.20127000  1.0
  H  H111  1  0.55816000  0.80155000  0.70127000  1.0
  H  H112  1  0.93346000  0.00022000  0.08441000  1.0
  H  H113  1  0.06654000  0.49978000  0.58441000  1.0
  H  H114  1  0.56654000  0.50022000  0.91559000  1.0
  H  H115  1  0.43346000  0.99978000  0.41559000  1.0
  H  H116  1  0.06654000  0.99978000  0.91559000  1.0
  H  H117  1  0.93346000  0.50022000  0.41559000  1.0
  H  H118  1  0.43347000  0.49978000  0.08441000  1.0
  H  H119  1  0.56654000  0.00022000  0.58441000  1.0
  H  H120  1  0.11112000  0.99612000  0.06671000  1.0
  H  H121  1  0.88888000  0.50387000  0.56671000  1.0
  H  H122  1  0.38888000  0.49613000  0.93329000  1.0
  H  H123  1  0.61112000  0.00388000  0.43329000  1.0
  H  H124  1  0.88888000  0.00387000  0.93329000  1.0
  H  H125  1  0.11112000  0.49612000  0.43329000  1.0
  H  H126  1  0.61112000  0.50388000  0.06671000  1.0
  H  H127  1  0.38888000  0.99612000  0.56671000  1.0
  H  H128  1  0.75561000  0.49772000  0.97043000  1.0
  H  H129  1  0.24439000  0.00228000  0.47043000  1.0
  H  H130  1  0.74439000  0.99772000  0.02957000  1.0
  H  H131  1  0.25561000  0.50227000  0.52957000  1.0
  H  H132  1  0.24439000  0.50228000  0.02957000  1.0
  H  H133  1  0.75561000  0.99772000  0.52957000  1.0
  H  H134  1  0.25561000  0.00228000  0.97043000  1.0
  H  H135  1  0.74439000  0.49772000  0.47043000  1.0
  C  C136  1  0.76915000  0.85494000  0.00660000  1.0
  C  C137  1  0.23085000  0.64506000  0.50660000  1.0
  C  C138  1  0.73085000  0.35494000  0.99340000  1.0
  C  C139  1  0.26915000  0.14506000  0.49340000  1.0
  C  C140  1  0.23085000  0.14506000  0.99340000  1.0
  C  C141  1  0.76915000  0.35494000  0.49340000  1.0
  C  C142  1  0.26915000  0.64506000  0.00660000  1.0
  C  C143  1  0.73085000  0.85494000  0.50660000  1.0
  C  C144  1  0.76564000  0.80366000  0.94814000  1.0
  C  C145  1  0.23436000  0.69635000  0.44814000  1.0
  C  C146  1  0.73436000  0.30366000  0.05186000  1.0
  C  C147  1  0.26564000  0.19634000  0.55186000  1.0
  C  C148  1  0.23436000  0.19635000  0.05186000  1.0
  C  C149  1  0.76564000  0.30366000  0.55186000  1.0
  C  C150  1  0.26564000  0.69634000  0.94814000  1.0
  C  C151  1  0.73436000  0.80365000  0.44814000  1.0
  C  C152  1  0.75883000  0.83851000  0.88791000  1.0
  C  C153  1  0.24118000  0.66149000  0.38791000  1.0
  C  C154  1  0.74117000  0.33851000  0.11209000  1.0
  C  C155  1  0.25883000  0.16149000  0.61209000  1.0
  C  C156  1  0.24118000  0.16149000  0.11209000  1.0
  C  C157  1  0.75882000  0.33851000  0.61209000  1.0
  C  C158  1  0.25883000  0.66149000  0.88791000  1.0
  C  C159  1  0.74117000  0.83851000  0.38791000  1.0
  C  C160  1  0.75132000  0.79076000  0.83355000  1.0
  C  C161  1  0.24868000  0.70924000  0.33355000  1.0
  C  C162  1  0.74868000  0.29076000  0.16645000  1.0
  C  C163  1  0.25132000  0.20925000  0.66645000  1.0
  C  C164  1  0.24868000  0.20924000  0.16645000  1.0
  C  C165  1  0.75132000  0.29076000  0.66645000  1.0
  C  C166  1  0.25132000  0.70924000  0.83355000  1.0
  C  C167  1  0.74868000  0.79076000  0.33355000  1.0
  C  C168  1  0.75130000  0.70771000  0.83982000  1.0
  C  C169  1  0.24870000  0.79229000  0.33982000  1.0
  C  C170  1  0.74870000  0.20771000  0.16018000  1.0
  C  C171  1  0.25130000  0.29229000  0.66018000  1.0
  C  C172  1  0.24870000  0.29229000  0.16018000  1.0
  C  C173  1  0.75130000  0.20771000  0.66018000  1.0
  C  C174  1  0.25130000  0.79229000  0.83982000  1.0
  C  C175  1  0.74870000  0.70771000  0.33982000  1.0
  C  C176  1  0.75898000  0.67242000  0.89973000  1.0
  C  C177  1  0.24102000  0.82759000  0.39973000  1.0
  C  C178  1  0.74102000  0.17242000  0.10027000  1.0
  C  C179  1  0.25898000  0.32759000  0.60027000  1.0
  C  C180  1  0.24102000  0.32759000  0.10027000  1.0
  C  C181  1  0.75898000  0.17241000  0.60027000  1.0
  C  C182  1  0.25898000  0.82758000  0.89973000  1.0
  C  C183  1  0.74102000  0.67241000  0.39973000  1.0
  C  C184  1  0.76583000  0.72052000  0.95387000  1.0
  C  C185  1  0.23418000  0.77949000  0.45387000  1.0
  C  C186  1  0.73418000  0.22052000  0.04613000  1.0
  C  C187  1  0.26583000  0.27948000  0.54613000  1.0
  C  C188  1  0.23418000  0.27948000  0.04613000  1.0
  C  C189  1  0.76582000  0.22052000  0.54613000  1.0
  C  C190  1  0.26583000  0.77948000  0.95387000  1.0
  C  C191  1  0.73417000  0.72052000  0.45387000  1.0
  C  C192  1  0.74176000  0.82793000  0.76897000  1.0
  C  C193  1  0.25824000  0.67207000  0.26898000  1.0
  C  C194  1  0.75824000  0.32793000  0.23103000  1.0
  C  C195  1  0.24176000  0.17207000  0.73103000  1.0
  C  C196  1  0.25824000  0.17207000  0.23103000  1.0
  C  C197  1  0.74176000  0.32793000  0.73103000  1.0
  C  C198  1  0.24176000  0.67207000  0.76897000  1.0
  C  C199  1  0.75824000  0.82793000  0.26897000  1.0
  C  C200  1  0.75447000  0.58406000  0.90550000  1.0
  C  C201  1  0.24553000  0.91594000  0.40550000  1.0
  C  C202  1  0.74553000  0.08406000  0.09450000  1.0
  C  C203  1  0.25447000  0.41594000  0.59450000  1.0
  C  C204  1  0.24553000  0.41594000  0.09450000  1.0
  C  C205  1  0.75447000  0.08406000  0.59450000  1.0
  C  C206  1  0.25447000  0.91594000  0.90550000  1.0
  C  C207  1  0.74553000  0.58406000  0.40550000  1.0
  C  C208  1  0.55798000  0.96225000  0.19403000  1.0
  C  C209  1  0.44202000  0.53775000  0.69403000  1.0
  C  C210  1  0.94202000  0.46225000  0.80597000  1.0
  C  C211  1  0.05798000  0.03775000  0.30597000  1.0
  C  C212  1  0.44202000  0.03775000  0.80597000  1.0
  C  C213  1  0.55798000  0.46225000  0.30597000  1.0
  C  C214  1  0.05798000  0.53775000  0.19403000  1.0
  C  C215  1  0.94202000  0.96225000  0.69403000  1.0
  C  C216  1  0.45899000  0.96555000  0.20103000  1.0
  C  C217  1  0.54102000  0.53445000  0.70103000  1.0
  C  C218  1  0.04101000  0.46555000  0.79897000  1.0
  C  C219  1  0.95899000  0.03445000  0.29897000  1.0
  C  C220  1  0.54101000  0.03445000  0.79897000  1.0
  C  C221  1  0.45899000  0.46555000  0.29897000  1.0
  C  C222  1  0.95899000  0.53445000  0.20103000  1.0
  C  C223  1  0.04101000  0.96555000  0.70103000  1.0
  C  C224  1  0.40030000  0.91505000  0.16458000  1.0
  C  C225  1  0.59970000  0.58495000  0.66458000  1.0
  C  C226  1  0.09970000  0.41505000  0.83542000  1.0
  C  C227  1  0.90030000  0.08495000  0.33542000  1.0
  C  C228  1  0.59970000  0.08495000  0.83542000  1.0
  C  C229  1  0.40030000  0.41505000  0.33542000  1.0
  C  C230  1  0.90030000  0.58495000  0.16458000  1.0
  C  C231  1  0.09969000  0.91505000  0.66458000  1.0
  C  C232  1  0.44613000  0.86380000  0.12161000  1.0
  C  C233  1  0.55387000  0.63620000  0.62161000  1.0
  C  C234  1  0.05387000  0.36380000  0.87839000  1.0
  C  C235  1  0.94613000  0.13620000  0.37839000  1.0
  C  C236  1  0.55387000  0.13620000  0.87839000  1.0
  C  C237  1  0.44613000  0.36380000  0.37839000  1.0
  C  C238  1  0.94613000  0.63620000  0.12161000  1.0
  C  C239  1  0.05387000  0.86380000  0.62161000  1.0
  C  C240  1  0.54559000  0.86443000  0.11694000  1.0
  C  C241  1  0.45441000  0.63557000  0.61694000  1.0
  C  C242  1  0.95441000  0.36443000  0.88306000  1.0
  C  C243  1  0.04559000  0.13557000  0.38306000  1.0
  C  C244  1  0.45441000  0.13557000  0.88306000  1.0
  C  C245  1  0.54559000  0.36443000  0.38306000  1.0
  C  C246  1  0.04559000  0.63557000  0.11694000  1.0
  C  C247  1  0.95441000  0.86443000  0.61694000  1.0
  C  C248  1  0.29340000  0.91644000  0.17343000  1.0
  C  C249  1  0.70660000  0.58356000  0.67343000  1.0
  C  C250  1  0.20660000  0.41644000  0.82657000  1.0
  C  C251  1  0.79340000  0.08356000  0.32657000  1.0
  C  C252  1  0.70660000  0.08356000  0.82657000  1.0
  C  C253  1  0.29340000  0.41644000  0.32657000  1.0
  C  C254  1  0.79340000  0.58356000  0.17343000  1.0
  C  C255  1  0.20660000  0.91644000  0.67343000  1.0
  C  C256  1  0.23653000  0.88461000  0.11643000  1.0
  C  C257  1  0.76347000  0.61539000  0.61643000  1.0
  C  C258  1  0.26348000  0.38461000  0.88358000  1.0
  C  C259  1  0.73653000  0.11539000  0.38357000  1.0
  C  C260  1  0.76347000  0.11539000  0.88357000  1.0
  C  C261  1  0.23653000  0.38461000  0.38358000  1.0
  C  C262  1  0.73653000  0.61539000  0.11643000  1.0
  C  C263  1  0.26347000  0.88461000  0.61643000  1.0
  C  C264  1  0.13039000  0.89163000  0.12647000  1.0
  C  C265  1  0.86962000  0.60837000  0.62647000  1.0
  C  C266  1  0.36962000  0.39163000  0.87353000  1.0
  C  C267  1  0.63038000  0.10837000  0.37353000  1.0
  C  C268  1  0.86962000  0.10837000  0.87353000  1.0
  C  C269  1  0.13038000  0.39163000  0.37353000  1.0
  C  C270  1  0.63039000  0.60837000  0.12647000  1.0
  C  C271  1  0.36962000  0.89163000  0.62647000  1.0
  C  C272  1  0.08156000  0.83726000  0.16555000  1.0
  C  C273  1  0.91844000  0.66274000  0.66555000  1.0
  C  C274  1  0.41844000  0.33726000  0.83445000  1.0
  C  C275  1  0.58156000  0.16274000  0.33445000  1.0
  C  C276  1  0.91844000  0.16274000  0.83445000  1.0
  C  C277  1  0.08156000  0.33726000  0.33445000  1.0
  C  C278  1  0.58156000  0.66274000  0.16555000  1.0
  C  C279  1  0.41844000  0.83726000  0.66555000  1.0
  C  C280  1  0.98279000  0.84382000  0.17257000  1.0
  C  C281  1  0.01721000  0.65618000  0.67257000  1.0
  C  C282  1  0.51722000  0.34382000  0.82743000  1.0
  C  C283  1  0.48279000  0.15618000  0.32743000  1.0
  C  C284  1  0.01721000  0.15618000  0.82743000  1.0
  C  C285  1  0.98278000  0.34382000  0.32743000  1.0
  C  C286  1  0.48279000  0.65618000  0.17257000  1.0
  C  C287  1  0.51721000  0.84382000  0.67257000  1.0
  C  C288  1  0.97782000  0.95464000  0.10687000  1.0
  C  C289  1  0.02218000  0.54535000  0.60687000  1.0
  C  C290  1  0.52218000  0.45464000  0.89313000  1.0
  C  C291  1  0.47782000  0.04536000  0.39313000  1.0
  C  C292  1  0.02218000  0.04535000  0.89313000  1.0
  C  C293  1  0.97782000  0.45464000  0.39313000  1.0
  C  C294  1  0.47782000  0.54536000  0.10687000  1.0
  C  C295  1  0.52218000  0.95464000  0.60687000  1.0
  C  C296  1  0.07648000  0.95198000  0.09727000  1.0
  C  C297  1  0.92352000  0.54801000  0.59727000  1.0
  C  C298  1  0.42352000  0.45198000  0.90273000  1.0
  C  C299  1  0.57648000  0.04802000  0.40273000  1.0
  C  C300  1  0.92352000  0.04801000  0.90273000  1.0
  C  C301  1  0.07648000  0.45198000  0.40273000  1.0
  C  C302  1  0.57648000  0.54801000  0.09727000  1.0
  C  C303  1  0.42352000  0.95198000  0.59727000  1.0
  N  N304  1  0.60109000  0.91257000  0.15249000  1.0
  N  N305  1  0.39892000  0.58744000  0.65249000  1.0
  N  N306  1  0.89891000  0.41256000  0.84751000  1.0
  N  N307  1  0.10109000  0.08744000  0.34751000  1.0
  N  N308  1  0.39891000  0.08744000  0.84751000  1.0
  N  N309  1  0.60109000  0.41257000  0.34751000  1.0
  N  N310  1  0.10109000  0.58744000  0.15249000  1.0
  N  N311  1  0.89891000  0.91257000  0.65249000  1.0
  N  N312  1  0.93129000  0.90142000  0.14355000  1.0
  N  N313  1  0.06871000  0.59858000  0.64356000  1.0
  N  N314  1  0.56871000  0.40142000  0.85645000  1.0
  N  N315  1  0.43129000  0.09858000  0.35644000  1.0
  N  N316  1  0.06871000  0.09858000  0.85644000  1.0
  N  N317  1  0.93129000  0.40142000  0.35645000  1.0
  N  N318  1  0.43129000  0.59858000  0.14355000  1.0
  N  N319  1  0.56871000  0.90142000  0.64356000  1.0
  O  O320  1  0.75428000  0.82087000  0.05978000  1.0
  O  O321  1  0.24572000  0.67913000  0.55978000  1.0
  O  O322  1  0.74572000  0.32087000  0.94022000  1.0
  O  O323  1  0.25428000  0.17913000  0.44022000  1.0
  O  O324  1  0.24572000  0.17913000  0.94022000  1.0
  O  O325  1  0.75428000  0.32087000  0.44022000  1.0
  O  O326  1  0.25428000  0.67913000  0.05978000  1.0
  O  O327  1  0.74572000  0.82087000  0.55978000  1.0
  O  O328  1  0.78617000  0.92908000  0.99874000  1.0
  O  O329  1  0.21383000  0.57092000  0.49874000  1.0
  O  O330  1  0.71383000  0.42908000  0.00126000  1.0
  O  O331  1  0.28617000  0.07092000  0.50126000  1.0
  O  O332  1  0.21383000  0.07092000  0.00126000  1.0
  O  O333  1  0.78617000  0.42908000  0.50126000  1.0
  O  O334  1  0.28617000  0.57092000  0.99874000  1.0
  O  O335  1  0.71383000  0.92908000  0.49874000  1.0
  O  O336  1  0.73718000  0.90389000  0.76496000  1.0
  O  O337  1  0.26282000  0.59611000  0.26496000  1.0
  O  O338  1  0.76282000  0.40389000  0.23504000  1.0
  O  O339  1  0.23718000  0.09611000  0.73504000  1.0
  O  O340  1  0.26282000  0.09611000  0.23504000  1.0
  O  O341  1  0.73718000  0.40389000  0.73504000  1.0
  O  O342  1  0.23718000  0.59611000  0.76496000  1.0
  O  O343  1  0.76282000  0.90389000  0.26496000  1.0
  O  O344  1  0.73831000  0.78202000  0.72054000  1.0
  O  O345  1  0.26169000  0.71798000  0.22054000  1.0
  O  O346  1  0.76169000  0.28202000  0.27946000  1.0
  O  O347  1  0.23831000  0.21798000  0.77946000  1.0
  O  O348  1  0.26169000  0.21798000  0.27946000  1.0
  O  O349  1  0.73831000  0.28202000  0.77946000  1.0
  O  O350  1  0.23831000  0.71798000  0.72054000  1.0
  O  O351  1  0.76169000  0.78202000  0.22054000  1.0
  O  O352  1  0.72719000  0.54147000  0.86026000  1.0
  O  O353  1  0.27281000  0.95853000  0.36026000  1.0
  O  O354  1  0.77281000  0.04147000  0.13974000  1.0
  O  O355  1  0.22719000  0.45853000  0.63974000  1.0
  O  O356  1  0.27281000  0.45853000  0.13973000  1.0
  O  O357  1  0.72719000  0.04147000  0.63974000  1.0
  O  O358  1  0.22719000  0.95853000  0.86026000  1.0
  O  O359  1  0.77281000  0.54147000  0.36027000  1.0
  O  O360  1  0.77921000  0.55663000  0.96171000  1.0
  O  O361  1  0.22079000  0.94337000  0.46171000  1.0
  O  O362  1  0.72079000  0.05663000  0.03829000  1.0
  O  O363  1  0.27921000  0.44337000  0.53829000  1.0
  O  O364  1  0.22079000  0.44337000  0.03829000  1.0
  O  O365  1  0.77921000  0.05663000  0.53829000  1.0
  O  O366  1  0.27921000  0.94337000  0.96171000  1.0
  O  O367  1  0.72079000  0.55663000  0.46171000  1.0
