# generated using pymatgen
data_ZnH9C18NO7
_symmetry_space_group_name_H-M   'P 1'
_cell_length_a   10.83950000
_cell_length_b   11.49930000
_cell_length_c   13.22250000
_cell_angle_alpha   109.05280000
_cell_angle_beta   90.92450000
_cell_angle_gamma   107.92590000
_symmetry_Int_Tables_number   1
_chemical_formula_structural   ZnH9C18NO7
_chemical_formula_sum   'Zn2 H18 C36 N2 O14'
_cell_volume   1469.71451535
_cell_formula_units_Z   2
loop_
 _symmetry_equiv_pos_site_id
 _symmetry_equiv_pos_as_xyz
  1  'x, y, z'
loop_
 _atom_site_type_symbol
 _atom_site_label
 _atom_site_symmetry_multiplicity
 _atom_site_fract_x
 _atom_site_fract_y
 _atom_site_fract_z
 _atom_site_occupancy
  Zn  Zn0  1  0.55157000  0.63988000  0.53216000  1.0
  Zn  Zn1  1  0.44846000  0.36012000  0.46785000  1.0
  H  H2  1  0.02818000  0.32406000  0.34782000  1.0
  H  H3  1  0.97185000  0.67592000  0.65220000  1.0
  H  H4  1  0.11742000  0.71088000  0.48202000  1.0
  H  H5  1  0.88261000  0.28910000  0.51799000  1.0
  H  H6  1  0.49706000  0.33869000  0.78959000  1.0
  H  H7  1  0.50297000  0.66136000  0.21043000  1.0
  H  H8  1  0.50528000  0.73508000  0.87297000  1.0
  H  H9  1  0.49473000  0.26496000  0.12703000  1.0
  H  H10  1  0.49505000  0.24163000  0.93334000  1.0
  H  H11  1  0.50501000  0.75844000  0.06667000  1.0
  H  H12  1  0.35795000  0.05060000  0.67259000  1.0
  H  H13  1  0.64201000  0.94938000  0.32739000  1.0
  H  H14  1  0.97530000  0.53394000  0.25267000  1.0
  H  H15  1  0.02476000  0.46609000  0.74736000  1.0
  H  H16  1  0.50454000  0.80077000  0.70306000  1.0
  H  H17  1  0.49544000  0.19923000  0.29693000  1.0
  H  H18  1  0.73819000  0.77586000  0.31005000  1.0
  H  H19  1  0.26186000  0.22420000  0.68998000  1.0
  C  C20  1  0.49913000  0.47675000  0.29549000  1.0
  C  C21  1  0.50088000  0.52329000  0.70451000  1.0
  C  C22  1  0.50177000  0.57019000  0.14929000  1.0
  C  C23  1  0.49826000  0.42987000  0.85073000  1.0
  C  C24  1  0.50126000  0.56055000  0.03984000  1.0
  C  C25  1  0.49878000  0.43951000  0.96017000  1.0
  C  C26  1  0.39488000  0.06141000  0.59895000  1.0
  C  C27  1  0.60508000  0.93857000  0.40103000  1.0
  C  C28  1  0.35971000  0.14047000  0.55299000  1.0
  C  C29  1  0.64027000  0.85954000  0.44701000  1.0
  C  C30  1  0.48585000  0.09723000  0.41306000  1.0
  C  C31  1  0.51408000  0.90273000  0.58691000  1.0
  C  C32  1  0.52262000  0.00805000  0.45146000  1.0
  C  C33  1  0.47733000  0.99192000  0.54851000  1.0
  C  C34  1  0.73090000  0.47830000  0.50308000  1.0
  C  C35  1  0.26912000  0.52168000  0.49692000  1.0
  C  C36  1  0.94931000  0.50505000  0.40747000  1.0
  C  C37  1  0.05072000  0.49494000  0.59255000  1.0
  C  C38  1  0.01488000  0.40195000  0.41613000  1.0
  C  C39  1  0.98515000  0.59803000  0.58388000  1.0
  C  C40  1  0.12979000  0.51466000  0.49712000  1.0
  C  C41  1  0.87023000  0.48532000  0.50289000  1.0
  C  C42  1  0.06610000  0.61711000  0.49042000  1.0
  C  C43  1  0.93393000  0.38288000  0.50959000  1.0
  C  C44  1  0.50096000  0.53482000  0.82025000  1.0
  C  C45  1  0.49905000  0.46523000  0.17976000  1.0
  C  C46  1  0.49643000  0.33346000  0.99384000  1.0
  C  C47  1  0.50361000  0.66666667  0.00618000  1.0
  C  C48  1  0.49585000  0.34566000  0.10079000  1.0
  C  C49  1  0.50417000  0.65439000  0.89922000  1.0
  C  C50  1  0.89813000  0.50627000  0.30405000  1.0
  C  C51  1  0.10191000  0.49370000  0.69596000  1.0
  C  C52  1  0.46991000  0.87466000  0.68637000  1.0
  C  C53  1  0.52996000  0.12524000  0.31357000  1.0
  C  C54  1  0.74141000  0.80107000  0.39909000  1.0
  C  C55  1  0.25861000  0.19897000  0.60093000  1.0
  N  N56  1  0.59225000  0.83874000  0.53681000  1.0
  N  N57  1  0.40772000  0.16125000  0.46318000  1.0
  O  O58  1  0.53388000  0.59132000  0.36642000  1.0
  O  O59  1  0.46613000  0.40871000  0.63359000  1.0
  O  O60  1  0.46250000  0.37137000  0.31603000  1.0
  O  O61  1  0.53754000  0.62866000  0.68397000  1.0
  O  O62  1  0.71274000  0.58785000  0.53236000  1.0
  O  O63  1  0.28728000  0.41213000  0.46762000  1.0
  O  O64  1  0.64266000  0.36658000  0.47526000  1.0
  O  O65  1  0.35736000  0.63340000  0.52474000  1.0
  O  O66  1  0.78242000  0.47839000  0.27270000  1.0
  O  O67  1  0.21762000  0.52153000  0.72728000  1.0
  O  O68  1  0.40553000  0.93022000  0.74717000  1.0
  O  O69  1  0.59421000  0.06956000  0.25271000  1.0
  O  O70  1  0.82625000  0.79136000  0.45426000  1.0
  O  O71  1  0.17374000  0.20866000  0.54577000  1.0
