# generated using pymatgen
data_Zn4H32C46N2O13
_symmetry_space_group_name_H-M   'P 1'
_cell_length_a   13.63650000
_cell_length_b   13.63650000
_cell_length_c   24.28540000
_cell_angle_alpha   90.00000000
_cell_angle_beta   90.00000000
_cell_angle_gamma   89.99990000
_symmetry_Int_Tables_number   1
_chemical_formula_structural   Zn4H32C46N2O13
_chemical_formula_sum   'Zn8 H64 C92 N4 O26'
_cell_volume   4515.97048334
_cell_formula_units_Z   2
loop_
 _symmetry_equiv_pos_site_id
 _symmetry_equiv_pos_as_xyz
  1  'x, y, z'
loop_
 _atom_site_type_symbol
 _atom_site_label
 _atom_site_symmetry_multiplicity
 _atom_site_fract_x
 _atom_site_fract_y
 _atom_site_fract_z
 _atom_site_occupancy
  Zn  Zn0  1  0.73993000  0.36773000  0.79603000  1.0
  Zn  Zn1  1  0.76007000  0.13227000  0.79603000  1.0
  Zn  Zn2  1  0.13227000  0.73993000  0.29603000  1.0
  Zn  Zn3  1  0.36773000  0.76007000  0.29603000  1.0
  Zn  Zn4  1  0.26007000  0.63227000  0.20397000  1.0
  Zn  Zn5  1  0.23993000  0.86773000  0.20397000  1.0
  Zn  Zn6  1  0.86773000  0.26007000  0.70397000  1.0
  Zn  Zn7  1  0.63227000  0.23993000  0.70397000  1.0
  H  H8  1  0.13150000  0.41639000  0.72954000  1.0
  H  H9  1  0.36850000  0.08361000  0.72954000  1.0
  H  H10  1  0.08361000  0.13150000  0.22954000  1.0
  H  H11  1  0.41639000  0.36850000  0.22954000  1.0
  H  H12  1  0.86850000  0.58361000  0.27046000  1.0
  H  H13  1  0.63150000  0.91639000  0.27046000  1.0
  H  H14  1  0.91639000  0.86850000  0.77046000  1.0
  H  H15  1  0.58361000  0.63150000  0.77046000  1.0
  H  H16  1  0.27395000  0.51860000  0.75937000  1.0
  H  H17  1  0.22605000  0.98140000  0.75937000  1.0
  H  H18  1  0.98140000  0.27394000  0.25937000  1.0
  H  H19  1  0.51860000  0.22605000  0.25937000  1.0
  H  H20  1  0.72605000  0.48140000  0.24063000  1.0
  H  H21  1  0.77395000  0.01860000  0.24063000  1.0
  H  H22  1  0.01860000  0.72606000  0.74063000  1.0
  H  H23  1  0.48140000  0.77394000  0.74063000  1.0
  H  H24  1  0.08648000  0.67270000  0.87291000  1.0
  H  H25  1  0.41352000  0.82730000  0.87291000  1.0
  H  H26  1  0.82730000  0.08648000  0.37291000  1.0
  H  H27  1  0.67270000  0.41352000  0.37291000  1.0
  H  H28  1  0.91352000  0.32730000  0.12709000  1.0
  H  H29  1  0.58648000  0.17270000  0.12709000  1.0
  H  H30  1  0.17270000  0.91352000  0.62709000  1.0
  H  H31  1  0.32730000  0.58648000  0.62709000  1.0
  H  H32  1  0.94458000  0.57090000  0.84215000  1.0
  H  H33  1  0.55542000  0.92910000  0.84215000  1.0
  H  H34  1  0.92910000  0.94458000  0.34215000  1.0
  H  H35  1  0.57090000  0.55542000  0.34215000  1.0
  H  H36  1  0.05542000  0.42910000  0.15785000  1.0
  H  H37  1  0.44458000  0.07090000  0.15785000  1.0
  H  H38  1  0.07090000  0.05542000  0.65785000  1.0
  H  H39  1  0.42910000  0.44458000  0.65785000  1.0
  H  H40  1  0.32806000  0.61875000  0.85981000  1.0
  H  H41  1  0.17194000  0.88125000  0.85981000  1.0
  H  H42  1  0.88125000  0.32806000  0.35981000  1.0
  H  H43  1  0.61875000  0.17194000  0.35981000  1.0
  H  H44  1  0.67194000  0.38125000  0.14019000  1.0
  H  H45  1  0.82806000  0.11875000  0.14019000  1.0
  H  H46  1  0.11875000  0.67194000  0.64019000  1.0
  H  H47  1  0.38125000  0.82806000  0.64019000  1.0
  H  H48  1  0.31740000  0.68781000  0.79956000  1.0
  H  H49  1  0.18260000  0.81219000  0.79956000  1.0
  H  H50  1  0.81219000  0.31740000  0.29956000  1.0
  H  H51  1  0.68781000  0.18260000  0.29956000  1.0
  H  H52  1  0.68260000  0.31219000  0.20044000  1.0
  H  H53  1  0.81740000  0.18781000  0.20044000  1.0
  H  H54  1  0.18781000  0.68260000  0.70044000  1.0
  H  H55  1  0.31219000  0.81740000  0.70044000  1.0
  H  H56  1  0.26166000  0.59133000  0.93355000  1.0
  H  H57  1  0.23834000  0.90867000  0.93355000  1.0
  H  H58  1  0.90867000  0.26166000  0.43355000  1.0
  H  H59  1  0.59133000  0.23834000  0.43355000  1.0
  H  H60  1  0.73834000  0.40867000  0.06645000  1.0
  H  H61  1  0.76166000  0.09133000  0.06645000  1.0
  H  H62  1  0.09133000  0.73834000  0.56645000  1.0
  H  H63  1  0.40867000  0.76166000  0.56645000  1.0
  H  H64  1  0.26554000  0.59356000  0.03477000  1.0
  H  H65  1  0.23446000  0.90644000  0.03477000  1.0
  H  H66  1  0.90644000  0.26554000  0.53477000  1.0
  H  H67  1  0.59356000  0.23446000  0.53477000  1.0
  H  H68  1  0.73446000  0.40644000  0.96523000  1.0
  H  H69  1  0.76554000  0.09356000  0.96523000  1.0
  H  H70  1  0.09356000  0.73446000  0.46523000  1.0
  H  H71  1  0.40644000  0.76554000  0.46523000  1.0
  C  C72  1  0.94394000  0.42692000  0.76668000  1.0
  C  C73  1  0.55606000  0.07308000  0.76668000  1.0
  C  C74  1  0.07308000  0.94394000  0.26668000  1.0
  C  C75  1  0.42692000  0.55606000  0.26668000  1.0
  C  C76  1  0.05606000  0.57308000  0.23332000  1.0
  C  C77  1  0.44394000  0.92692000  0.23332000  1.0
  C  C78  1  0.92692000  0.05606000  0.73332000  1.0
  C  C79  1  0.57308000  0.44394000  0.73332000  1.0
  C  C80  1  0.02940000  0.48829000  0.78373000  1.0
  C  C81  1  0.47060000  0.01171000  0.78373000  1.0
  C  C82  1  0.01171000  0.02940000  0.28373000  1.0
  C  C83  1  0.48829000  0.47060000  0.28373000  1.0
  C  C84  1  0.97060000  0.51171000  0.21627000  1.0
  C  C85  1  0.52940000  0.98829000  0.21627000  1.0
  C  C86  1  0.98829000  0.97060000  0.71627000  1.0
  C  C87  1  0.51171000  0.52940000  0.71627000  1.0
  C  C88  1  0.12251000  0.47317000  0.76068000  1.0
  C  C89  1  0.37749000  0.02683000  0.76068000  1.0
  C  C90  1  0.02683000  0.12251000  0.26068000  1.0
  C  C91  1  0.47317000  0.37749000  0.26068000  1.0
  C  C92  1  0.87749000  0.52683000  0.23932000  1.0
  C  C93  1  0.62251000  0.97317000  0.23932000  1.0
  C  C94  1  0.97317000  0.87749000  0.73932000  1.0
  C  C95  1  0.52683000  0.62251000  0.73932000  1.0
  C  C96  1  0.20170000  0.53002000  0.77773000  1.0
  C  C97  1  0.29830000  0.96998000  0.77773000  1.0
  C  C98  1  0.96998000  0.20170000  0.27773000  1.0
  C  C99  1  0.53002000  0.29830000  0.27773000  1.0
  C  C100  1  0.79830000  0.46998000  0.22227000  1.0
  C  C101  1  0.70170000  0.03002000  0.22227000  1.0
  C  C102  1  0.03002000  0.79830000  0.72227000  1.0
  C  C103  1  0.46998000  0.70170000  0.72227000  1.0
  C  C104  1  0.18928000  0.60242000  0.81819000  1.0
  C  C105  1  0.31072000  0.89758000  0.81819000  1.0
  C  C106  1  0.89758000  0.18928000  0.31819000  1.0
  C  C107  1  0.60242000  0.31072000  0.31819000  1.0
  C  C108  1  0.81072000  0.39758000  0.18181000  1.0
  C  C109  1  0.68928000  0.10242000  0.18181000  1.0
  C  C110  1  0.10242000  0.81072000  0.68181000  1.0
  C  C111  1  0.39758000  0.68928000  0.68181000  1.0
  C  C112  1  0.09637000  0.61686000  0.84128000  1.0
  C  C113  1  0.40363000  0.88314000  0.84128000  1.0
  C  C114  1  0.88314000  0.09637000  0.34128000  1.0
  C  C115  1  0.61686000  0.40363000  0.34128000  1.0
  C  C116  1  0.90363000  0.38314000  0.15872000  1.0
  C  C117  1  0.59637000  0.11686000  0.15872000  1.0
  C  C118  1  0.11686000  0.90363000  0.65872000  1.0
  C  C119  1  0.38314000  0.59637000  0.65872000  1.0
  C  C120  1  0.01701000  0.56040000  0.82421000  1.0
  C  C121  1  0.48299000  0.93960000  0.82421000  1.0
  C  C122  1  0.93960000  0.01701000  0.32421000  1.0
  C  C123  1  0.56040000  0.48299000  0.32421000  1.0
  C  C124  1  0.98299000  0.43960000  0.17579000  1.0
  C  C125  1  0.51701000  0.06040000  0.17579000  1.0
  C  C126  1  0.06040000  0.98299000  0.67579000  1.0
  C  C127  1  0.43960000  0.51701000  0.67579000  1.0
  C  C128  1  0.27608000  0.66393000  0.83620000  1.0
  C  C129  1  0.22392000  0.83607000  0.83620000  1.0
  C  C130  1  0.83607000  0.27608000  0.33620000  1.0
  C  C131  1  0.66394000  0.22392000  0.33620000  1.0
  C  C132  1  0.72392000  0.33607000  0.16380000  1.0
  C  C133  1  0.77608000  0.16393000  0.16380000  1.0
  C  C134  1  0.16393000  0.72392000  0.66380000  1.0
  C  C135  1  0.33607000  0.77608000  0.66380000  1.0
  C  C136  1  0.25000000  0.75000000  0.92478000  1.0
  C  C137  1  0.75000000  0.25000000  0.42478000  1.0
  C  C138  1  0.75000000  0.25000000  0.07522000  1.0
  C  C139  1  0.25000000  0.75000000  0.57522000  1.0
  C  C140  1  0.25837000  0.66138000  0.95496000  1.0
  C  C141  1  0.24163000  0.83862000  0.95496000  1.0
  C  C142  1  0.83862000  0.25837000  0.45496000  1.0
  C  C143  1  0.66138000  0.24163000  0.45496000  1.0
  C  C144  1  0.74163000  0.33862000  0.04504000  1.0
  C  C145  1  0.75837000  0.16138000  0.04504000  1.0
  C  C146  1  0.16138000  0.74163000  0.54504000  1.0
  C  C147  1  0.33862000  0.75837000  0.54504000  1.0
  C  C148  1  0.25926000  0.66211000  0.01202000  1.0
  C  C149  1  0.24074000  0.83789000  0.01202000  1.0
  C  C150  1  0.83789000  0.25926000  0.51202000  1.0
  C  C151  1  0.66211000  0.24074000  0.51202000  1.0
  C  C152  1  0.74074000  0.33789000  0.98798000  1.0
  C  C153  1  0.75926000  0.16211000  0.98798000  1.0
  C  C154  1  0.16211000  0.74074000  0.48798000  1.0
  C  C155  1  0.33789000  0.75926000  0.48798000  1.0
  C  C156  1  0.25000000  0.75000000  0.04166000  1.0
  C  C157  1  0.75000000  0.25000000  0.54166000  1.0
  C  C158  1  0.75000000  0.25000000  0.95834000  1.0
  C  C159  1  0.25000000  0.75000000  0.45834000  1.0
  C  C160  1  0.25000000  0.75000000  0.10248000  1.0
  C  C161  1  0.75000000  0.25000000  0.60248000  1.0
  C  C162  1  0.75000000  0.25000000  0.89752000  1.0
  C  C163  1  0.25000000  0.75000000  0.39752000  1.0
  N  N164  1  0.25000000  0.75000000  0.86801000  1.0
  N  N165  1  0.75000000  0.25000000  0.36801000  1.0
  N  N166  1  0.75000000  0.25000000  0.13199000  1.0
  N  N167  1  0.25000000  0.75000000  0.63199000  1.0
  O  O168  1  0.86267000  0.44420000  0.79080000  1.0
  O  O169  1  0.63733000  0.05580000  0.79080000  1.0
  O  O170  1  0.05580000  0.86267000  0.29079000  1.0
  O  O171  1  0.44420000  0.63733000  0.29079000  1.0
  O  O172  1  0.13733000  0.55580000  0.20921000  1.0
  O  O173  1  0.36267000  0.94420000  0.20921000  1.0
  O  O174  1  0.94420000  0.13733000  0.70921000  1.0
  O  O175  1  0.55580000  0.36267000  0.70921000  1.0
  O  O176  1  0.95905000  0.36200000  0.72961000  1.0
  O  O177  1  0.54095000  0.13800000  0.72961000  1.0
  O  O178  1  0.13800000  0.95905000  0.22961000  1.0
  O  O179  1  0.36200000  0.54095000  0.22961000  1.0
  O  O180  1  0.04095000  0.63800000  0.27039000  1.0
  O  O181  1  0.45905000  0.86200000  0.27039000  1.0
  O  O182  1  0.86200000  0.04095000  0.77039000  1.0
  O  O183  1  0.63800000  0.45905000  0.77039000  1.0
  O  O184  1  0.27320000  0.66952000  0.12665000  1.0
  O  O185  1  0.22680000  0.83048000  0.12665000  1.0
  O  O186  1  0.83048000  0.27320000  0.62665000  1.0
  O  O187  1  0.66952000  0.22680000  0.62665000  1.0
  O  O188  1  0.72680000  0.33048000  0.87335000  1.0
  O  O189  1  0.77320000  0.16952000  0.87335000  1.0
  O  O190  1  0.16952000  0.72680000  0.37335000  1.0
  O  O191  1  0.33048000  0.77320000  0.37335000  1.0
  O  O192  1  0.75000000  0.25000000  0.75000000  1.0
  O  O193  1  0.25000000  0.75000000  0.25000000  1.0
