# generated using pymatgen
data_ThH12(C7O3)3
_symmetry_space_group_name_H-M   'P 1'
_cell_length_a   8.86524000
_cell_length_b   9.04898000
_cell_length_c   14.54260000
_cell_angle_alpha   84.69350000
_cell_angle_beta   79.11730000
_cell_angle_gamma   60.66920000
_symmetry_Int_Tables_number   1
_chemical_formula_structural   ThH12(C7O3)3
_chemical_formula_sum   'Th2 H24 C42 O18'
_cell_volume   998.78160233
_cell_formula_units_Z   2
loop_
 _symmetry_equiv_pos_site_id
 _symmetry_equiv_pos_as_xyz
  1  'x, y, z'
loop_
 _atom_site_type_symbol
 _atom_site_label
 _atom_site_symmetry_multiplicity
 _atom_site_fract_x
 _atom_site_fract_y
 _atom_site_fract_z
 _atom_site_occupancy
  Th  Th0  1  0.87502000  0.24996000  0.00000000  1.0
  Th  Th1  1  0.12498000  0.75004000  0.00000000  1.0
  H  H2  1  0.20551000  0.00000000  0.06684000  1.0
  H  H3  1  0.79450000  0.00000000  0.93316000  1.0
  H  H4  1  0.75971000  0.49864000  0.21992000  1.0
  H  H5  1  0.74165000  0.49864000  0.78008000  1.0
  H  H6  1  0.24029000  0.50136000  0.78009000  1.0
  H  H7  1  0.25835000  0.50136000  0.21991000  1.0
  H  H8  1  0.74632000  0.54305000  0.38997000  1.0
  H  H9  1  0.71063000  0.54305000  0.61003000  1.0
  H  H10  1  0.25368000  0.45695000  0.61003000  1.0
  H  H11  1  0.28937000  0.45695000  0.38997000  1.0
  H  H12  1  0.18254000  0.82425000  0.42273000  1.0
  H  H13  1  0.99321000  0.82424000  0.57727000  1.0
  H  H14  1  0.81745000  0.17576000  0.57727000  1.0
  H  H15  1  0.00679000  0.17576000  0.42273000  1.0
  H  H16  1  0.19806000  0.78612000  0.25324000  1.0
  H  H17  1  0.01582000  0.78612000  0.74676000  1.0
  H  H18  1  0.80193000  0.21389000  0.74676000  1.0
  H  H19  1  0.98418000  0.21389000  0.25324000  1.0
  H  H20  1  0.34802000  0.72622000  0.69003000  1.0
  H  H21  1  0.92576000  0.72622000  0.30997000  1.0
  H  H22  1  0.65197000  0.27379000  0.30997000  1.0
  H  H23  1  0.07424000  0.27379000  0.69003000  1.0
  H  H24  1  0.35718000  0.00000000  0.43172000  1.0
  H  H25  1  0.64282000  0.00000000  0.56828000  1.0
  C  C26  1  0.48983000  0.60260000  0.12687000  1.0
  C  C27  1  0.90757000  0.60260000  0.87312000  1.0
  C  C28  1  0.51016000  0.39740000  0.87312000  1.0
  C  C29  1  0.09244000  0.39741000  0.12688000  1.0
  C  C30  1  0.48059000  0.63952000  0.22615000  1.0
  C  C31  1  0.87989000  0.63952000  0.77385000  1.0
  C  C32  1  0.51940000  0.36048000  0.77385000  1.0
  C  C33  1  0.12011000  0.36048000  0.22615000  1.0
  C  C34  1  0.63457000  0.57145000  0.26485000  1.0
  C  C35  1  0.79397000  0.57145000  0.73515000  1.0
  C  C36  1  0.36542000  0.42855000  0.73515000  1.0
  C  C37  1  0.20603000  0.42854000  0.26485000  1.0
  C  C38  1  0.62777000  0.59500000  0.35895000  1.0
  C  C39  1  0.77724000  0.59500000  0.64106000  1.0
  C  C40  1  0.37223000  0.40500000  0.64106000  1.0
  C  C41  1  0.22277000  0.40500000  0.35894000  1.0
  C  C42  1  0.46482000  0.68513000  0.41530000  1.0
  C  C43  1  0.85004000  0.68513000  0.58470000  1.0
  C  C44  1  0.53517000  0.31487000  0.58470000  1.0
  C  C45  1  0.14996000  0.31486000  0.41530000  1.0
  C  C46  1  0.30916000  0.75559000  0.37786000  1.0
  C  C47  1  0.93525000  0.75559000  0.62214000  1.0
  C  C48  1  0.69083000  0.24441000  0.62214000  1.0
  C  C49  1  0.06476000  0.24441000  0.37786000  1.0
  C  C50  1  0.31793000  0.73449000  0.28316000  1.0
  C  C51  1  0.94758000  0.73449000  0.71684000  1.0
  C  C52  1  0.68207000  0.26551000  0.71684000  1.0
  C  C53  1  0.05243000  0.26551000  0.28316000  1.0
  C  C54  1  0.35896000  0.84771000  0.55542000  1.0
  C  C55  1  0.79332000  0.84771000  0.44458000  1.0
  C  C56  1  0.64104000  0.15229000  0.44458000  1.0
  C  C57  1  0.20668000  0.15229000  0.55542000  1.0
  C  C58  1  0.30943000  0.84541000  0.65219000  1.0
  C  C59  1  0.84516000  0.84542000  0.34781000  1.0
  C  C60  1  0.69058000  0.15459000  0.34781000  1.0
  C  C61  1  0.15484000  0.15459000  0.65219000  1.0
  C  C62  1  0.20787000  0.00000000  0.70015000  1.0
  C  C63  1  0.79212000  0.00000000  0.29986000  1.0
  C  C64  1  0.14659000  0.99999000  0.80383000  1.0
  C  C65  1  0.85342000  0.99999000  0.19617000  1.0
  C  C66  1  0.31199000  0.00000000  0.50659000  1.0
  C  C67  1  0.68801000  0.00000000  0.49341000  1.0
  O  O68  1  0.63467000  0.49029000  0.08345000  1.0
  O  O69  1  0.87504000  0.49029000  0.91656000  1.0
  O  O70  1  0.36533000  0.50970000  0.91655000  1.0
  O  O71  1  0.12497000  0.50970000  0.08345000  1.0
  O  O72  1  0.35078000  0.68382000  0.09059000  1.0
  O  O73  1  0.96540000  0.68382000  0.90941000  1.0
  O  O74  1  0.64923000  0.31618000  0.90941000  1.0
  O  O75  1  0.03460000  0.31618000  0.09058000  1.0
  O  O76  1  0.46405000  0.69368000  0.51002000  1.0
  O  O77  1  0.84227000  0.69368000  0.48998000  1.0
  O  O78  1  0.53594000  0.30632000  0.48998000  1.0
  O  O79  1  0.15774000  0.30632000  0.51002000  1.0
  O  O80  1  0.19224000  0.85632000  0.84381000  1.0
  O  O81  1  0.95144000  0.85631000  0.15619000  1.0
  O  O82  1  0.80776000  0.14368000  0.15619000  1.0
  O  O83  1  0.04857000  0.14368000  0.84381000  1.0
  O  O84  1  0.14049000  0.00000000  0.02010000  1.0
  O  O85  1  0.85952000  0.00000000  0.97990000  1.0
