# generated using pymatgen
data_HgH6C7SNClO2
_symmetry_space_group_name_H-M   'P 1'
_cell_length_a   7.49698000
_cell_length_b   8.48152000
_cell_length_c   8.49114000
_cell_angle_alpha   68.25160000
_cell_angle_beta   75.19660000
_cell_angle_gamma   71.51720000
_symmetry_Int_Tables_number   1
_chemical_formula_structural   HgH6C7SNClO2
_chemical_formula_sum   'Hg2 H12 C14 S2 N2 Cl2 O4'
_cell_volume   469.74186664
_cell_formula_units_Z   2
loop_
 _symmetry_equiv_pos_site_id
 _symmetry_equiv_pos_as_xyz
  1  'x, y, z'
loop_
 _atom_site_type_symbol
 _atom_site_label
 _atom_site_symmetry_multiplicity
 _atom_site_fract_x
 _atom_site_fract_y
 _atom_site_fract_z
 _atom_site_occupancy
  Hg  Hg0  1  0.06848000  0.22341000  0.02618000  1.0
  Hg  Hg1  1  0.93152000  0.77658000  0.97382000  1.0
  H  H2  1  0.68934000  0.87676000  0.30052000  1.0
  H  H3  1  0.31066000  0.12324000  0.69949000  1.0
  H  H4  1  0.41586000  0.91704000  0.16831000  1.0
  H  H5  1  0.58414000  0.08296000  0.83170000  1.0
  H  H6  1  0.21104000  0.43815000  0.15560000  1.0
  H  H7  1  0.78897000  0.56185000  0.84440000  1.0
  H  H8  1  0.47198000  0.42058000  0.29242000  1.0
  H  H9  1  0.52802000  0.57942000  0.70758000  1.0
  H  H10  1  0.62353000  0.32848000  0.52866000  1.0
  H  H11  1  0.37647000  0.67152000  0.47134000  1.0
  H  H12  1  0.87257000  0.28292000  0.52423000  1.0
  H  H13  1  0.12743000  0.71709000  0.47577000  1.0
  C  C14  1  0.58968000  0.00517000  0.26875000  1.0
  C  C15  1  0.41032000  0.99483000  0.73126000  1.0
  C  C16  1  0.43597000  0.02577000  0.19508000  1.0
  C  C17  1  0.56403000  0.97423000  0.80492000  1.0
  C  C18  1  0.32088000  0.31709000  0.18970000  1.0
  C  C19  1  0.67912000  0.68291000  0.81030000  1.0
  C  C20  1  0.46936000  0.30555000  0.26573000  1.0
  C  C21  1  0.53064000  0.69446000  0.73427000  1.0
  C  C22  1  0.60979000  0.14733000  0.30428000  1.0
  C  C23  1  0.39021000  0.85267000  0.69572000  1.0
  C  C24  1  0.76287000  0.31063000  0.44606000  1.0
  C  C25  1  0.23712000  0.68938000  0.55394000  1.0
  C  C26  1  0.77419000  0.48086000  0.29714000  1.0
  C  C27  1  0.22581000  0.51914000  0.70285000  1.0
  S  S28  1  0.81048000  0.11397000  0.39089000  1.0
  S  S29  1  0.18952000  0.88604000  0.60911000  1.0
  N  N30  1  0.30460000  0.18036000  0.15398000  1.0
  N  N31  1  0.69540000  0.81964000  0.84602000  1.0
  Cl  Cl32  1  0.85622000  0.21528000  0.86637000  1.0
  Cl  Cl33  1  0.14378000  0.78472000  0.13363000  1.0
  O  O34  1  0.88564000  0.47127000  0.15714000  1.0
  O  O35  1  0.11437000  0.52872000  0.84286000  1.0
  O  O36  1  0.67535000  0.62035000  0.32574000  1.0
  O  O37  1  0.32465000  0.37965000  0.67426000  1.0
