# generated using pymatgen
data_ZnH6C27N6(Cl2O7)2
_symmetry_space_group_name_H-M   'P 1'
_cell_length_a   9.55670000
_cell_length_b   10.78920000
_cell_length_c   28.01160000
_cell_angle_alpha   90.48080000
_cell_angle_beta   91.21380000
_cell_angle_gamma   93.54320000
_symmetry_Int_Tables_number   1
_chemical_formula_structural   ZnH6C27N6(Cl2O7)2
_chemical_formula_sum   'Zn2 H12 C54 N12 Cl8 O28'
_cell_volume   2881.94821981
_cell_formula_units_Z   2
loop_
 _symmetry_equiv_pos_site_id
 _symmetry_equiv_pos_as_xyz
  1  'x, y, z'
loop_
 _atom_site_type_symbol
 _atom_site_label
 _atom_site_symmetry_multiplicity
 _atom_site_fract_x
 _atom_site_fract_y
 _atom_site_fract_z
 _atom_site_occupancy
  Zn  Zn0  1  0.64279000  0.50992000  0.50147000  1.0
  Zn  Zn1  1  0.34648000  0.49377000  0.49977000  1.0
  H  H2  1  0.27341000  0.46904000  0.64892000  1.0
  H  H3  1  0.27129000  0.48524000  0.34865000  1.0
  H  H4  1  0.37026000  0.19848000  0.87497000  1.0
  H  H5  1  0.36290000  0.78236000  0.12513000  1.0
  H  H6  1  0.71539000  0.49414000  0.26003000  1.0
  H  H7  1  0.71305000  0.54911000  0.74496000  1.0
  H  H8  1  0.73960000  0.93988000  0.50956000  1.0
  H  H9  1  0.25448000  0.06311000  0.48404000  1.0
  H  H10  1  0.08491000  0.47776000  0.42087000  1.0
  H  H11  1  0.90553000  0.52881000  0.58037000  1.0
  H  H12  1  0.86913000  0.32075000  0.46547000  1.0
  H  H13  1  0.12001000  0.68599000  0.53544000  1.0
  C  C14  1  0.49491000  0.26445000  0.49615000  1.0
  C  C15  1  0.49872000  0.73902000  0.50099000  1.0
  C  C16  1  0.49431000  0.50488000  0.59299000  1.0
  C  C17  1  0.49007000  0.49871000  0.40820000  1.0
  C  C18  1  0.45691000  0.38829000  0.81991000  1.0
  C  C19  1  0.44905000  0.60212000  0.18130000  1.0
  C  C20  1  0.51488000  0.61881000  0.82256000  1.0
  C  C21  1  0.52133000  0.38187000  0.17909000  1.0
  C  C22  1  0.61613000  0.53138000  0.72423000  1.0
  C  C23  1  0.61738000  0.49137000  0.27920000  1.0
  C  C24  1  0.61696000  0.53654000  0.67473000  1.0
  C  C25  1  0.61928000  0.48838000  0.32880000  1.0
  C  C26  1  0.36914000  0.48771000  0.67018000  1.0
  C  C27  1  0.36813000  0.48527000  0.32895000  1.0
  C  C28  1  0.36499000  0.48718000  0.71992000  1.0
  C  C29  1  0.36414000  0.48338000  0.27922000  1.0
  C  C30  1  0.48962000  0.50674000  0.74709000  1.0
  C  C31  1  0.48989000  0.48887000  0.25423000  1.0
  C  C32  1  0.47094000  0.50233000  0.89904000  1.0
  C  C33  1  0.47139000  0.49242000  0.10219000  1.0
  C  C34  1  0.44366000  0.39107000  0.87243000  1.0
  C  C35  1  0.43996000  0.59934000  0.12853000  1.0
  C  C36  1  0.40018000  0.28262000  0.89548000  1.0
  C  C37  1  0.39531000  0.70267000  0.10492000  1.0
  C  C38  1  0.50801000  0.61493000  0.87539000  1.0
  C  C39  1  0.51204000  0.38467000  0.12620000  1.0
  C  C40  1  0.49503000  0.51247000  0.64669000  1.0
  C  C41  1  0.49502000  0.48792000  0.35468000  1.0
  C  C42  1  0.47853000  0.38249000  0.02457000  1.0
  C  C43  1  0.47620000  0.61367000  0.97675000  1.0
  C  C44  1  0.44142000  0.60796000  0.02721000  1.0
  C  C45  1  0.44311000  0.38406000  0.97369000  1.0
  C  C46  1  0.46383000  0.49428000  0.05127000  1.0
  C  C47  1  0.46337000  0.50012000  0.94986000  1.0
  C  C48  1  0.53247000  0.28150000  0.04872000  1.0
  C  C49  1  0.52794000  0.72095000  0.95314000  1.0
  C  C50  1  0.54706000  0.28360000  0.09896000  1.0
  C  C51  1  0.54125000  0.72037000  0.90303000  1.0
  C  C52  1  0.39623000  0.28107000  0.94524000  1.0
  C  C53  1  0.39326000  0.70505000  0.05511000  1.0
  C  C54  1  0.57960000  0.04500000  0.46135000  1.0
  C  C55  1  0.41457000  0.95855000  0.53184000  1.0
  C  C56  1  0.44468000  0.95319000  0.45455000  1.0
  C  C57  1  0.54950000  0.04965000  0.53876000  1.0
  C  C58  1  0.50162000  0.87709000  0.49799000  1.0
  C  C59  1  0.49318000  0.12628000  0.49498000  1.0
  C  C60  1  0.63314000  0.96884000  0.50399000  1.0
  C  C61  1  0.36122000  0.03455000  0.48929000  1.0
  C  C62  1  0.03881000  0.48847000  0.45583000  1.0
  C  C63  1  0.95059000  0.51784000  0.54525000  1.0
  C  C64  1  0.96292000  0.60112000  0.47508000  1.0
  C  C65  1  0.02631000  0.40548000  0.52611000  1.0
  C  C66  1  0.93076000  0.40055000  0.48063000  1.0
  C  C67  1  0.05892000  0.60553000  0.52044000  1.0
  N  N68  1  0.48741000  0.50461000  0.79828000  1.0
  N  N69  1  0.48780000  0.49114000  0.20303000  1.0
  N  N70  1  0.85430000  0.51195000  0.50017000  1.0
  N  N71  1  0.13504000  0.49401000  0.50091000  1.0
  N  N72  1  0.66131000  0.09713000  0.42173000  1.0
  N  N73  1  0.33100000  0.90145000  0.57000000  1.0
  N  N74  1  0.75944000  0.48210000  0.35174000  1.0
  N  N75  1  0.75164000  0.57476000  0.65296000  1.0
  N  N76  1  0.60148000  0.17128000  0.12143000  1.0
  N  N77  1  0.59338000  0.83894000  0.88109000  1.0
  N  N78  1  0.32452000  0.16909000  0.96636000  1.0
  N  N79  1  0.32161000  0.80980000  0.03330000  1.0
  Cl  Cl80  1  0.91119000  0.72633000  0.44358000  1.0
  Cl  Cl81  1  0.07750000  0.28168000  0.55877000  1.0
  Cl  Cl82  1  0.20629000  0.46422000  0.74723000  1.0
  Cl  Cl83  1  0.20499000  0.47389000  0.24928000  1.0
  Cl  Cl84  1  0.59094000  0.15645000  0.01860000  1.0
  Cl  Cl85  1  0.58582000  0.85289000  0.98390000  1.0
  Cl  Cl86  1  0.38288000  0.88975000  0.40098000  1.0
  Cl  Cl87  1  0.61158000  0.11515000  0.59191000  1.0
  O  O88  1  0.61146000  0.32193000  0.48765000  1.0
  O  O89  1  0.38064000  0.68283000  0.49134000  1.0
  O  O90  1  0.38105000  0.30998000  0.50733000  1.0
  O  O91  1  0.61268000  0.69276000  0.51280000  1.0
  O  O92  1  0.60700000  0.47709000  0.57333000  1.0
  O  O93  1  0.37343000  0.46721000  0.42709000  1.0
  O  O94  1  0.37854000  0.52360000  0.57209000  1.0
  O  O95  1  0.60055000  0.54149000  0.42986000  1.0
  O  O96  1  0.44278000  0.29274000  0.79596000  1.0
  O  O97  1  0.42497000  0.69330000  0.20538000  1.0
  O  O98  1  0.55639000  0.29104000  0.20132000  1.0
  O  O99  1  0.54326000  0.71475000  0.80072000  1.0
  O  O100  1  0.79033000  0.08939000  0.42340000  1.0
  O  O101  1  0.59270000  0.14409000  0.38943000  1.0
  O  O102  1  0.20139000  0.90349000  0.56639000  1.0
  O  O103  1  0.39773000  0.85365000  0.60261000  1.0
  O  O104  1  0.85162000  0.56015000  0.33901000  1.0
  O  O105  1  0.77724000  0.39714000  0.38009000  1.0
  O  O106  1  0.85323000  0.51239000  0.66281000  1.0
  O  O107  1  0.75508000  0.66768000  0.62746000  1.0
  O  O108  1  0.51473000  0.08577000  0.12975000  1.0
  O  O109  1  0.72998000  0.17223000  0.12664000  1.0
  O  O110  1  0.50585000  0.91500000  0.87256000  1.0
  O  O111  1  0.72143000  0.85203000  0.87642000  1.0
  O  O112  1  0.32880000  0.07001000  0.94425000  1.0
  O  O113  1  0.25957000  0.18546000  0.00347000  1.0
  O  O114  1  0.32704000  0.90910000  0.05566000  1.0
  O  O115  1  0.25553000  0.78705000  0.99540000  1.0
