# generated using pymatgen
data_KH4C2N7O
_symmetry_space_group_name_H-M   'P 1'
_cell_length_a   8.00229000
_cell_length_b   8.00171000
_cell_length_c   11.86501099
_cell_angle_alpha   93.50928740
_cell_angle_beta   108.94037501
_cell_angle_gamma   115.34100000
_symmetry_Int_Tables_number   1
_chemical_formula_structural   KH4C2N7O
_chemical_formula_sum   'K4 H16 C8 N28 O4'
_cell_volume   631.40937814
_cell_formula_units_Z   4
loop_
 _symmetry_equiv_pos_site_id
 _symmetry_equiv_pos_as_xyz
  1  'x, y, z'
loop_
 _atom_site_type_symbol
 _atom_site_label
 _atom_site_symmetry_multiplicity
 _atom_site_fract_x
 _atom_site_fract_y
 _atom_site_fract_z
 _atom_site_occupancy
  K  K0  1  0.03310000  0.77172000  0.03447000  1.0
  K  K1  1  0.23686000  0.99827000  0.46566000  1.0
  K  K2  1  0.96690000  0.22828000  0.96553000  1.0
  K  K3  1  0.76314000  0.00174000  0.53434000  1.0
  H  H4  1  0.81799000  0.37340000  0.43891000  1.0
  H  H5  1  0.43444000  0.37906000  0.06105000  1.0
  H  H6  1  0.18201000  0.62660000  0.56109000  1.0
  H  H7  1  0.56556000  0.62094000  0.93895000  1.0
  H  H8  1  0.99655000  0.32078000  0.43524000  1.0
  H  H9  1  0.38522000  0.56115000  0.06472000  1.0
  H  H10  1  0.00345000  0.67922000  0.56476000  1.0
  H  H11  1  0.61477000  0.43885000  0.93528000  1.0
  H  H12  1  0.50563000  0.98666000  0.24422000  1.0
  H  H13  1  0.24232000  0.26136000  0.25574000  1.0
  H  H14  1  0.49437000  0.01334000  0.75578000  1.0
  H  H15  1  0.75768000  0.73864000  0.74426000  1.0
  H  H16  1  0.44526000  0.92535000  0.08668000  1.0
  H  H17  1  0.33872000  0.35849000  0.41332000  1.0
  H  H18  1  0.55474000  0.07465000  0.91332000  1.0
  H  H19  1  0.66128000  0.64151000  0.58668000  1.0
  C  C20  1  0.94638000  0.46216000  0.23608000  1.0
  C  C21  1  0.72593000  0.71028000  0.26385000  1.0
  C  C22  1  0.05362000  0.53785000  0.76392000  1.0
  C  C23  1  0.27407000  0.28972000  0.73615000  1.0
  C  C24  1  0.65989000  0.19398000  0.16830000  1.0
  C  C25  1  0.52558000  0.49155000  0.33165000  1.0
  C  C26  1  0.34011000  0.80602000  0.83170000  1.0
  C  C27  1  0.47442000  0.50845000  0.66835000  1.0
  N  N28  1  0.68437000  0.26364000  0.07178000  1.0
  N  N29  1  0.69180000  0.61254000  0.42816000  1.0
  N  N30  1  0.31563000  0.73636000  0.92822000  1.0
  N  N31  1  0.30820000  0.38746000  0.57184000  1.0
  N  N32  1  0.86787000  0.43174000  0.11544000  1.0
  N  N33  1  0.81624000  0.75235000  0.38448000  1.0
  N  N34  1  0.13213000  0.56826000  0.88456000  1.0
  N  N35  1  0.18376000  0.24766000  0.61552000  1.0
  N  N36  1  0.12353000  0.60652000  0.32273000  1.0
  N  N37  1  0.78364000  0.80085000  0.17723000  1.0
  N  N38  1  0.87647000  0.39348000  0.67727000  1.0
  N  N39  1  0.21636000  0.19915000  0.82277000  1.0
  N  N40  1  0.24132000  0.71109000  0.27275000  1.0
  N  N41  1  0.93833000  0.96853000  0.22729000  1.0
  N  N42  1  0.75868000  0.28891000  0.72725000  1.0
  N  N43  1  0.06167000  0.03148000  0.77271000  1.0
  N  N44  1  0.81865000  0.31715000  0.27344000  1.0
  N  N45  1  0.54359000  0.54517000  0.22651000  1.0
  N  N46  1  0.18135000  0.68285000  0.72656000  1.0
  N  N47  1  0.45641000  0.45483000  0.77349000  1.0
  N  N48  1  0.84822000  0.28582000  0.39111000  1.0
  N  N49  1  0.39456000  0.45699000  0.10884000  1.0
  N  N50  1  0.15178000  0.71419000  0.60889000  1.0
  N  N51  1  0.60544000  0.54302000  0.89116000  1.0
  N  N52  1  0.50366000  0.03132000  0.16407000  1.0
  N  N53  1  0.36716000  0.33957000  0.33588000  1.0
  N  N54  1  0.49634000  0.96868000  0.83593000  1.0
  N  N55  1  0.63284000  0.66044000  0.66412000  1.0
  O  O56  1  0.40670000  0.85077000  0.35078000  1.0
  O  O57  1  0.99991000  0.05602000  0.14930000  1.0
  O  O58  1  0.59330000  0.14923000  0.64922000  1.0
  O  O59  1  0.00009000  0.94398000  0.85070000  1.0
