# generated using pymatgen
data_AgPH19C23BrN
_symmetry_space_group_name_H-M   'P 1'
_cell_length_a   9.03505000
_cell_length_b   9.53142000
_cell_length_c   12.88320000
_cell_angle_alpha   104.65300000
_cell_angle_beta   109.31400000
_cell_angle_gamma   92.35620000
_symmetry_Int_Tables_number   1
_chemical_formula_structural   AgPH19C23BrN
_chemical_formula_sum   'Ag2 P2 H38 C46 Br2 N2'
_cell_volume   1003.46237514
_cell_formula_units_Z   2
loop_
 _symmetry_equiv_pos_site_id
 _symmetry_equiv_pos_as_xyz
  1  'x, y, z'
loop_
 _atom_site_type_symbol
 _atom_site_label
 _atom_site_symmetry_multiplicity
 _atom_site_fract_x
 _atom_site_fract_y
 _atom_site_fract_z
 _atom_site_occupancy
  Ag  Ag0  1  0.03766000  0.48446000  0.89142000  1.0
  Ag  Ag1  1  0.96234000  0.51554000  0.10858000  1.0
  P  P2  1  0.00171000  0.28199000  0.72976000  1.0
  P  P3  1  0.99830000  0.71800000  0.27024000  1.0
  H  H4  1  0.04645000  0.80710000  0.86604000  1.0
  H  H5  1  0.95355000  0.19290000  0.13396000  1.0
  H  H6  1  0.23161000  0.02830000  0.90622000  1.0
  H  H7  1  0.76840000  0.97170000  0.09378000  1.0
  H  H8  1  0.61258000  0.79515000  0.05372000  1.0
  H  H9  1  0.38743000  0.20485000  0.94628000  1.0
  H  H10  1  0.41002000  0.58647000  0.00817000  1.0
  H  H11  1  0.58998000  0.41353000  0.99183000  1.0
  H  H12  1  0.29744000  0.44923000  0.77759000  1.0
  H  H13  1  0.70256000  0.55077000  0.22241000  1.0
  H  H14  1  0.55481000  0.38667000  0.76130000  1.0
  H  H15  1  0.44519000  0.61333000  0.23869000  1.0
  H  H16  1  0.59186000  0.12448000  0.69958000  1.0
  H  H17  1  0.40814000  0.87551000  0.30042000  1.0
  H  H18  1  0.37436000  0.92738000  0.65963000  1.0
  H  H19  1  0.62564000  0.07262000  0.34037000  1.0
  H  H20  1  0.11564000  0.99085000  0.67035000  1.0
  H  H21  1  0.88436000  0.00915000  0.32965000  1.0
  H  H22  1  0.79641000  0.03675000  0.53340000  1.0
  H  H23  1  0.20359000  0.96324000  0.46661000  1.0
  H  H24  1  0.64844000  0.80736000  0.52438000  1.0
  H  H25  1  0.35155000  0.19263000  0.47563000  1.0
  H  H26  1  0.66000000  0.75042000  0.70681000  1.0
  H  H27  1  0.34000000  0.24959000  0.29320000  1.0
  H  H28  1  0.81126000  0.92640000  0.89332000  1.0
  H  H29  1  0.18875000  0.07361000  0.10669000  1.0
  H  H30  1  0.95649000  0.16186000  0.90305000  1.0
  H  H31  1  0.04352000  0.83814000  0.09695000  1.0
  H  H32  1  0.08538000  0.24906000  0.51896000  1.0
  H  H33  1  0.91462000  0.75094000  0.48104000  1.0
  H  H34  1  0.94418000  0.29569000  0.33329000  1.0
  H  H35  1  0.05582000  0.70431000  0.66666667  1.0
  H  H36  1  0.67904000  0.38087000  0.29635000  1.0
  H  H37  1  0.32095000  0.61913000  0.70365000  1.0
  H  H38  1  0.56647000  0.43696000  0.45162000  1.0
  H  H39  1  0.43353000  0.56303000  0.54839000  1.0
  H  H40  1  0.71314000  0.39917000  0.64149000  1.0
  H  H41  1  0.28686000  0.60082000  0.35851000  1.0
  C  C42  1  0.17372000  0.80937000  0.90684000  1.0
  C  C43  1  0.82628000  0.19063000  0.09316000  1.0
  C  C44  1  0.27883000  0.93343000  0.93047000  1.0
  C  C45  1  0.72117000  0.06657000  0.06953000  1.0
  C  C46  1  0.44201000  0.93467000  0.98554000  1.0
  C  C47  1  0.55799000  0.06534000  0.01446000  1.0
  C  C48  1  0.48908000  0.80573000  0.01224000  1.0
  C  C49  1  0.51092000  0.19427000  0.98776000  1.0
  C  C50  1  0.37605000  0.68636000  0.98567000  1.0
  C  C51  1  0.62396000  0.31364000  0.01433000  1.0
  C  C52  1  0.18871000  0.22469000  0.72219000  1.0
  C  C53  1  0.81129000  0.77531000  0.27780000  1.0
  C  C54  1  0.31390000  0.33513000  0.74849000  1.0
  C  C55  1  0.68610000  0.66487000  0.25151000  1.0
  C  C56  1  0.45764000  0.29956000  0.73867000  1.0
  C  C57  1  0.54236000  0.70044000  0.26133000  1.0
  C  C58  1  0.47916000  0.15263000  0.70601000  1.0
  C  C59  1  0.52083000  0.84736000  0.29399000  1.0
  C  C60  1  0.35717000  0.04210000  0.68356000  1.0
  C  C61  1  0.64283000  0.95789000  0.31643000  1.0
  C  C62  1  0.21158000  0.07770000  0.69046000  1.0
  C  C63  1  0.78842000  0.92230000  0.30954000  1.0
  C  C64  1  0.88785000  0.11299000  0.71874000  1.0
  C  C65  1  0.11215000  0.88701000  0.28126000  1.0
  C  C66  1  0.80082000  0.01279000  0.61255000  1.0
  C  C67  1  0.19918000  0.98721000  0.38746000  1.0
  C  C68  1  0.71788000  0.88293000  0.60768000  1.0
  C  C69  1  0.28212000  0.11706000  0.39232000  1.0
  C  C70  1  0.72287000  0.85185000  0.70900000  1.0
  C  C71  1  0.27713000  0.14815000  0.29100000  1.0
  C  C72  1  0.80899000  0.95177000  0.81502000  1.0
  C  C73  1  0.19101000  0.04824000  0.18499000  1.0
  C  C74  1  0.89060000  0.08249000  0.82042000  1.0
  C  C75  1  0.10940000  0.91751000  0.17959000  1.0
  C  C76  1  0.90623000  0.31657000  0.59125000  1.0
  C  C77  1  0.09378000  0.68342000  0.40875000  1.0
  C  C78  1  0.97172000  0.29020000  0.50470000  1.0
  C  C79  1  0.02828000  0.70980000  0.49530000  1.0
  C  C80  1  0.89148000  0.31572000  0.39963000  1.0
  C  C81  1  0.10852000  0.68428000  0.60037000  1.0
  C  C82  1  0.74416000  0.36528000  0.37949000  1.0
  C  C83  1  0.25584000  0.63473000  0.62051000  1.0
  C  C84  1  0.68010000  0.39537000  0.46661000  1.0
  C  C85  1  0.31990000  0.60463000  0.53339000  1.0
  C  C86  1  0.76128000  0.37302000  0.57252000  1.0
  C  C87  1  0.23872000  0.62698000  0.42748000  1.0
  Br  Br88  1  0.79009000  0.61854000  0.91903000  1.0
  Br  Br89  1  0.20991000  0.38146000  0.08097000  1.0
  N  N90  1  0.22028000  0.68696000  0.93413000  1.0
  N  N91  1  0.77972000  0.31304000  0.06587000  1.0
