# generated using pymatgen
data_AgH20C18N5O3
_symmetry_space_group_name_H-M   'P 1'
_cell_length_a   8.14379000
_cell_length_b   8.14379000
_cell_length_c   16.37520000
_cell_angle_alpha   75.67910000
_cell_angle_beta   75.67910000
_cell_angle_gamma   66.93830000
_symmetry_Int_Tables_number   1
_chemical_formula_structural   AgH20C18N5O3
_chemical_formula_sum   'Ag2 H40 C36 N10 O6'
_cell_volume   954.29446825
_cell_formula_units_Z   2
loop_
 _symmetry_equiv_pos_site_id
 _symmetry_equiv_pos_as_xyz
  1  'x, y, z'
loop_
 _atom_site_type_symbol
 _atom_site_label
 _atom_site_symmetry_multiplicity
 _atom_site_fract_x
 _atom_site_fract_y
 _atom_site_fract_z
 _atom_site_occupancy
  Ag  Ag0  1  0.80278000  0.09890000  0.34832000  1.0
  Ag  Ag1  1  0.90110000  0.19722000  0.65168000  1.0
  H  H2  1  0.60011000  0.99547000  0.24291000  1.0
  H  H3  1  0.00453000  0.39989000  0.75709000  1.0
  H  H4  1  0.59140000  0.71879000  0.20379000  1.0
  H  H5  1  0.28121000  0.40860000  0.79621000  1.0
  H  H6  1  0.74225000  0.41476000  0.28499000  1.0
  H  H7  1  0.58524000  0.25775000  0.71501000  1.0
  H  H8  1  0.89968000  0.68140000  0.43349000  1.0
  H  H9  1  0.31860000  0.10033000  0.56651000  1.0
  H  H10  1  0.01438000  0.37548000  0.45827000  1.0
  H  H11  1  0.62452000  0.98562000  0.54173000  1.0
  H  H12  1  0.11281000  0.10418000  0.50925000  1.0
  H  H13  1  0.89582000  0.88719000  0.49075000  1.0
  H  H14  1  0.17500000  0.87953000  0.37191000  1.0
  H  H15  1  0.12047000  0.82500000  0.62809000  1.0
  H  H16  1  0.30226000  0.01138000  0.37368000  1.0
  H  H17  1  0.98862000  0.69773000  0.62632000  1.0
  H  H18  1  0.40738000  0.81228000  0.50776000  1.0
  H  H19  1  0.18772000  0.59262000  0.49224000  1.0
  H  H20  1  0.45526000  0.67974000  0.42875000  1.0
  H  H21  1  0.32027000  0.54474000  0.57125000  1.0
  H  H22  1  0.05223000  0.31894000  0.19588000  1.0
  H  H23  1  0.68106000  0.94778000  0.80412000  1.0
  H  H24  1  0.29632000  0.27360000  0.06689000  1.0
  H  H25  1  0.72640000  0.70368000  0.93311000  1.0
  H  H26  1  0.45448000  0.95782000  0.03073000  1.0
  H  H27  1  0.04218000  0.54552000  0.96928000  1.0
  H  H28  1  0.09289000  0.78159000  0.24152000  1.0
  H  H29  1  0.21841000  0.90712000  0.75848000  1.0
  H  H30  1  0.30900000  0.56200000  0.15907000  1.0
  H  H31  1  0.43800000  0.69101000  0.84093000  1.0
  H  H32  1  0.49420000  0.34951000  0.08969000  1.0
  H  H33  1  0.65049000  0.50580000  0.91031000  1.0
  H  H34  1  0.76237000  0.33156000  0.13585000  1.0
  H  H35  1  0.66844000  0.23763000  0.86415000  1.0
  H  H36  1  0.85368000  0.41448000  0.03119000  1.0
  H  H37  1  0.58551000  0.14632000  0.96881000  1.0
  H  H38  1  0.99579000  0.07980000  0.06053000  1.0
  H  H39  1  0.92020000  0.00421000  0.93947000  1.0
  H  H40  1  0.78160000  0.05645000  0.08833000  1.0
  H  H41  1  0.94355000  0.21841000  0.91167000  1.0
  C  C42  1  0.66528000  0.85939000  0.27630000  1.0
  C  C43  1  0.14061000  0.33472000  0.72370000  1.0
  C  C44  1  0.66089000  0.70569000  0.25521000  1.0
  C  C45  1  0.29431000  0.33912000  0.74479000  1.0
  C  C46  1  0.74666000  0.53599000  0.30035000  1.0
  C  C47  1  0.46401000  0.25334000  0.69965000  1.0
  C  C48  1  0.83534000  0.52426000  0.36591000  1.0
  C  C49  1  0.47574000  0.16467000  0.63409000  1.0
  C  C50  1  0.83221000  0.68625000  0.38267000  1.0
  C  C51  1  0.31375000  0.16779000  0.61733000  1.0
  C  C52  1  0.93738000  0.35704000  0.41691000  1.0
  C  C53  1  0.64296000  0.06262000  0.58309000  1.0
  C  C54  1  0.06266000  0.04766000  0.46956000  1.0
  C  C55  1  0.95234000  0.93734000  0.53044000  1.0
  C  C56  1  0.22520000  0.92772000  0.41461000  1.0
  C  C57  1  0.07228000  0.77480000  0.58539000  1.0
  C  C58  1  0.34396000  0.76617000  0.46996000  1.0
  C  C59  1  0.23383000  0.65604000  0.53004000  1.0
  C  C60  1  0.11961000  0.18617000  0.17627000  1.0
  C  C61  1  0.81383000  0.88039000  0.82373000  1.0
  C  C62  1  0.25901000  0.15962000  0.10565000  1.0
  C  C63  1  0.84038000  0.74099000  0.89435000  1.0
  C  C64  1  0.34451000  0.98690000  0.08486000  1.0
  C  C65  1  0.01309000  0.65549000  0.91514000  1.0
  C  C66  1  0.28714000  0.84577000  0.13441000  1.0
  C  C67  1  0.15422000  0.71286000  0.86559000  1.0
  C  C68  1  0.14227000  0.88781000  0.20215000  1.0
  C  C69  1  0.11219000  0.85774000  0.79785000  1.0
  C  C70  1  0.37015000  0.65939000  0.11725000  1.0
  C  C71  1  0.34060000  0.62986000  0.88276000  1.0
  C  C72  1  0.57879000  0.42491000  0.04673000  1.0
  C  C73  1  0.57509000  0.42121000  0.95327000  1.0
  C  C74  1  0.77072000  0.33283000  0.06774000  1.0
  C  C75  1  0.66717000  0.22928000  0.93226000  1.0
  C  C76  1  0.85732000  0.14154000  0.04673000  1.0
  C  C77  1  0.85846000  0.14269000  0.95327000  1.0
  N  N78  1  0.74982000  0.84993000  0.33948000  1.0
  N  N79  1  0.15007000  0.25018000  0.66052000  1.0
  N  N80  1  0.94481000  0.19699000  0.41601000  1.0
  N  N81  1  0.80301000  0.05519000  0.58399000  1.0
  N  N82  1  0.40285000  0.33988000  0.33367000  1.0
  N  N83  1  0.66012000  0.59715000  0.66633000  1.0
  N  N84  1  0.05976000  0.05390000  0.22285000  1.0
  N  N85  1  0.94609000  0.94025000  0.77715000  1.0
  N  N86  1  0.50816000  0.61248000  0.05874000  1.0
  N  N87  1  0.38751000  0.49185000  0.94126000  1.0
  O  O88  1  0.53504000  0.29251000  0.27188000  1.0
  O  O89  1  0.70749000  0.46496000  0.72813000  1.0
  O  O90  1  0.25144000  0.45188000  0.31680000  1.0
  O  O91  1  0.54811000  0.74856000  0.68320000  1.0
  O  O92  1  0.42730000  0.27327000  0.41010000  1.0
  O  O93  1  0.72673000  0.57270000  0.58990000  1.0
