# generated using pymatgen
data_CuH26C14O5
_symmetry_space_group_name_H-M   'P 1'
_cell_length_a   8.85293000
_cell_length_b   9.81988000
_cell_length_c   10.96760000
_cell_angle_alpha   84.81410000
_cell_angle_beta   66.35630000
_cell_angle_gamma   71.36810000
_symmetry_Int_Tables_number   1
_chemical_formula_structural   CuH26C14O5
_chemical_formula_sum   'Cu2 H52 C28 O10'
_cell_volume   826.87003151
_cell_formula_units_Z   2
loop_
 _symmetry_equiv_pos_site_id
 _symmetry_equiv_pos_as_xyz
  1  'x, y, z'
loop_
 _atom_site_type_symbol
 _atom_site_label
 _atom_site_symmetry_multiplicity
 _atom_site_fract_x
 _atom_site_fract_y
 _atom_site_fract_z
 _atom_site_occupancy
  Cu  Cu0  1  0.12593000  0.52390000  0.00974000  1.0
  Cu  Cu1  1  0.87410000  0.47611000  0.99026000  1.0
  H  H2  1  0.16677000  0.48868000  0.54823000  1.0
  H  H3  1  0.83322000  0.51132000  0.45178000  1.0
  H  H4  1  0.35223000  0.51203000  0.56076000  1.0
  H  H5  1  0.64776000  0.48797000  0.43924000  1.0
  H  H6  1  0.58508000  0.29424000  0.59161000  1.0
  H  H7  1  0.41491000  0.70576000  0.40840000  1.0
  H  H8  1  0.43046000  0.24109000  0.73239000  1.0
  H  H9  1  0.56954000  0.75890000  0.26761000  1.0
  H  H10  1  0.56532000  0.11969000  0.59228000  1.0
  H  H11  1  0.43467000  0.88031000  0.40771000  1.0
  H  H12  1  0.52416000  0.16080000  0.37589000  1.0
  H  H13  1  0.47582000  0.83920000  0.62411000  1.0
  H  H14  1  0.35378000  0.30919000  0.36251000  1.0
  H  H15  1  0.64620000  0.69081000  0.63750000  1.0
  H  H16  1  0.53872000  0.33795000  0.36997000  1.0
  H  H17  1  0.46127000  0.66206000  0.63002000  1.0
  H  H18  1  0.16523000  0.20391000  0.71673000  1.0
  H  H19  1  0.83475000  0.79609000  0.28327000  1.0
  H  H20  1  0.12929000  0.24038000  0.56782000  1.0
  H  H21  1  0.87070000  0.75963000  0.43218000  1.0
  H  H22  1  0.30095000  0.08753000  0.57305000  1.0
  H  H23  1  0.69903000  0.91247000  0.42695000  1.0
  H  H24  1  0.65195000  0.96146000  0.99705000  1.0
  H  H25  1  0.34807000  0.03854000  0.00295000  1.0
  H  H26  1  0.83715000  0.99283000  0.00324000  1.0
  H  H27  1  0.16288000  0.00717000  0.99675000  1.0
  H  H28  1  0.84218000  0.75319000  0.74094000  1.0
  H  H29  1  0.15781000  0.24681000  0.25907000  1.0
  H  H30  1  0.65211000  0.90381000  0.77687000  1.0
  H  H31  1  0.34788000  0.09619000  0.22314000  1.0
  H  H32  1  0.83698000  0.89444000  0.62736000  1.0
  H  H33  1  0.16300000  0.10556000  0.37264000  1.0
  H  H34  1  0.11682000  0.78424000  0.74879000  1.0
  H  H35  1  0.88318000  0.21575000  0.25120000  1.0
  H  H36  1  0.10841000  0.92434000  0.63468000  1.0
  H  H37  1  0.89158000  0.07565000  0.36530000  1.0
  H  H38  1  0.11420000  0.95579000  0.78961000  1.0
  H  H39  1  0.88582000  0.04420000  0.21037000  1.0
  H  H40  1  0.83944000  0.13596000  0.67995000  1.0
  H  H41  1  0.16056000  0.86403000  0.32004000  1.0
  H  H42  1  0.65308000  0.15144000  0.82976000  1.0
  H  H43  1  0.34692000  0.84856000  0.17024000  1.0
  H  H44  1  0.84225000  0.17381000  0.83467000  1.0
  H  H45  1  0.15776000  0.82618000  0.16532000  1.0
  H  H46  1  0.39345000  0.68127000  0.86519000  1.0
  H  H47  1  0.60654000  0.31873000  0.13482000  1.0
  H  H48  1  0.50783000  0.69769000  0.96411000  1.0
  H  H49  1  0.49217000  0.30231000  0.03589000  1.0
  H  H50  1  0.28812000  0.48459000  0.21897000  1.0
  H  H51  1  0.71187000  0.51541000  0.78103000  1.0
  H  H52  1  0.44461000  0.57959000  0.17635000  1.0
  H  H53  1  0.55538000  0.42041000  0.82367000  1.0
  C  C54  1  0.15885000  0.48139000  0.74583000  1.0
  C  C55  1  0.84115000  0.51861000  0.25417000  1.0
  C  C56  1  0.25864000  0.45146000  0.59722000  1.0
  C  C57  1  0.74136000  0.54854000  0.40278000  1.0
  C  C58  1  0.35731000  0.28872000  0.56074000  1.0
  C  C59  1  0.64268000  0.71128000  0.43927000  1.0
  C  C60  1  0.49184000  0.23323000  0.62304000  1.0
  C  C61  1  0.50815000  0.76677000  0.37697000  1.0
  C  C62  1  0.44904000  0.27372000  0.40842000  1.0
  C  C63  1  0.55094000  0.72629000  0.59158000  1.0
  C  C64  1  0.23059000  0.20052000  0.60776000  1.0
  C  C65  1  0.76940000  0.79949000  0.39224000  1.0
  C  C66  1  0.86088000  0.77088000  0.98621000  1.0
  C  C67  1  0.13916000  0.22912000  0.01379000  1.0
  C  C68  1  0.79457000  0.92683000  0.95578000  1.0
  C  C69  1  0.20546000  0.07316000  0.04421000  1.0
  C  C70  1  0.86302000  0.95048000  0.80321000  1.0
  C  C71  1  0.13698000  0.04952000  0.19679000  1.0
  C  C72  1  0.79476000  0.87025000  0.73354000  1.0
  C  C73  1  0.20523000  0.12975000  0.26646000  1.0
  C  C74  1  0.06207000  0.90026000  0.74083000  1.0
  C  C75  1  0.93794000  0.09974000  0.25915000  1.0
  C  C76  1  0.79574000  0.11249000  0.78635000  1.0
  C  C77  1  0.20426000  0.88751000  0.21365000  1.0
  C  C78  1  0.45779000  0.62529000  0.93076000  1.0
  C  C79  1  0.54221000  0.37472000  0.06924000  1.0
  C  C80  1  0.39658000  0.50972000  0.13766000  1.0
  C  C81  1  0.60341000  0.49028000  0.86235000  1.0
  O  O82  1  0.23724000  0.50942000  0.81131000  1.0
  O  O83  1  0.76277000  0.49058000  0.18869000  1.0
  O  O84  1  0.99406000  0.52884000  0.20563000  1.0
  O  O85  1  0.00594000  0.47116000  0.79438000  1.0
  O  O86  1  0.00292000  0.73189000  0.00292000  1.0
  O  O87  1  0.99711000  0.26812000  0.99708000  1.0
  O  O88  1  0.22662000  0.31091000  0.01272000  1.0
  O  O89  1  0.77342000  0.68909000  0.98728000  1.0
  O  O90  1  0.32595000  0.58780000  0.04476000  1.0
  O  O91  1  0.67405000  0.41221000  0.95525000  1.0
