# generated using pymatgen
data_MnH24C30(NO2)4
_symmetry_space_group_name_H-M   'P 1'
_cell_length_a   8.25977000
_cell_length_b   9.51968000
_cell_length_c   9.64420000
_cell_angle_alpha   108.25000000
_cell_angle_beta   104.52300000
_cell_angle_gamma   107.61600000
_symmetry_Int_Tables_number   1
_chemical_formula_structural   MnH24C30(NO2)4
_chemical_formula_sum   'Mn1 H24 C30 N4 O8'
_cell_volume   634.42649249
_cell_formula_units_Z   1
loop_
 _symmetry_equiv_pos_site_id
 _symmetry_equiv_pos_as_xyz
  1  'x, y, z'
loop_
 _atom_site_type_symbol
 _atom_site_label
 _atom_site_symmetry_multiplicity
 _atom_site_fract_x
 _atom_site_fract_y
 _atom_site_fract_z
 _atom_site_occupancy
  Mn  Mn0  1  0.00000000  0.50000000  0.00000000  1.0
  H  H1  1  0.93303000  0.76336000  0.82275000  1.0
  H  H2  1  0.06697000  0.23664000  0.17725000  1.0
  H  H3  1  0.82342000  0.97330000  0.93406000  1.0
  H  H4  1  0.17658000  0.02670000  0.06594000  1.0
  H  H5  1  0.58221000  0.01331000  0.75626000  1.0
  H  H6  1  0.41779000  0.98669000  0.24374000  1.0
  H  H7  1  0.45345000  0.84719000  0.46843000  1.0
  H  H8  1  0.54655000  0.15282000  0.53157000  1.0
  H  H9  1  0.54555000  0.40265000  0.13311000  1.0
  H  H10  1  0.45445000  0.59735000  0.86689000  1.0
  H  H11  1  0.18623000  0.27514000  0.96699000  1.0
  H  H12  1  0.81378000  0.72486000  0.03301000  1.0
  H  H13  1  0.19579000  0.05590000  0.75763000  1.0
  H  H14  1  0.80421000  0.94410000  0.24237000  1.0
  H  H15  1  0.81335000  0.13237000  0.42046000  1.0
  H  H16  1  0.18665000  0.86763000  0.57954000  1.0
  H  H17  1  0.83115000  0.35489000  0.64365000  1.0
  H  H18  1  0.16885000  0.64511000  0.35635000  1.0
  H  H19  1  0.93842000  0.57799000  0.58726000  1.0
  H  H20  1  0.06157000  0.42202000  0.41274000  1.0
  H  H21  1  0.27335000  0.73058000  0.04242000  1.0
  H  H22  1  0.72665000  0.26942000  0.95758000  1.0
  H  H23  1  0.16336000  0.65912000  0.85411000  1.0
  H  H24  1  0.83664000  0.34088000  0.14589000  1.0
  C  C25  1  0.82762000  0.78178000  0.74604000  1.0
  C  C26  1  0.17238000  0.21821000  0.25396000  1.0
  C  C27  1  0.76479000  0.89730000  0.80732000  1.0
  C  C28  1  0.23521000  0.10270000  0.19268000  1.0
  C  C29  1  0.62848000  0.92029000  0.70750000  1.0
  C  C30  1  0.37152000  0.07971000  0.29250000  1.0
  C  C31  1  0.55562000  0.82682000  0.54618000  1.0
  C  C32  1  0.44438000  0.17318000  0.45382000  1.0
  C  C33  1  0.61365000  0.70586000  0.47965000  1.0
  C  C34  1  0.38635000  0.29414000  0.52035000  1.0
  C  C35  1  0.53970000  0.60118000  0.31386000  1.0
  C  C36  1  0.46030000  0.39882000  0.68614000  1.0
  C  C37  1  0.60050000  0.48409000  0.25809000  1.0
  C  C38  1  0.39950000  0.51591000  0.74191000  1.0
  C  C39  1  0.74903000  0.47209000  0.36169000  1.0
  C  C40  1  0.25097000  0.52792000  0.63831000  1.0
  C  C41  1  0.75220000  0.68544000  0.58235000  1.0
  C  C42  1  0.24779000  0.31456000  0.41765000  1.0
  C  C43  1  0.39866000  0.62474000  0.20087000  1.0
  C  C44  1  0.60134000  0.37526000  0.79913000  1.0
  C  C45  1  0.10575000  0.23953000  0.84385000  1.0
  C  C46  1  0.89425000  0.76047000  0.15615000  1.0
  C  C47  1  0.10760000  0.11422000  0.72418000  1.0
  C  C48  1  0.89240000  0.88578000  0.27582000  1.0
  C  C49  1  0.00144000  0.06663000  0.56488000  1.0
  C  C50  1  0.99856000  0.93337000  0.43512000  1.0
  C  C51  1  0.89922000  0.15716000  0.53880000  1.0
  C  C52  1  0.10078000  0.84284000  0.46120000  1.0
  C  C53  1  0.90736000  0.28343000  0.66412000  1.0
  C  C54  1  0.09264000  0.71657000  0.33588000  1.0
  N  N55  1  0.81504000  0.57190000  0.51856000  1.0
  N  N56  1  0.18496000  0.42810000  0.48144000  1.0
  N  N57  1  0.00724000  0.32664000  0.81777000  1.0
  N  N58  1  0.99276000  0.67335000  0.18223000  1.0
  O  O59  1  0.82517000  0.37785000  0.31505000  1.0
  O  O60  1  0.17483000  0.62215000  0.68495000  1.0
  O  O61  1  0.45236000  0.74725000  0.17111000  1.0
  O  O62  1  0.54764000  0.25276000  0.82889000  1.0
  O  O63  1  0.23302000  0.51659000  0.14430000  1.0
  O  O64  1  0.76698000  0.48341000  0.85570000  1.0
  O  O65  1  0.14652000  0.68901000  0.95817000  1.0
  O  O66  1  0.85349000  0.31099000  0.04183000  1.0
