# generated using pymatgen
data_CuH10C10NO4
_symmetry_space_group_name_H-M   'P 1'
_cell_length_a   6.51081000
_cell_length_b   11.24500000
_cell_length_c   14.38630000
_cell_angle_alpha   108.46200000
_cell_angle_beta   90.00000000
_cell_angle_gamma   90.00000000
_symmetry_Int_Tables_number   1
_chemical_formula_structural   CuH10C10NO4
_chemical_formula_sum   'Cu4 H40 C40 N4 O16'
_cell_volume   999.07121625
_cell_formula_units_Z   4
loop_
 _symmetry_equiv_pos_site_id
 _symmetry_equiv_pos_as_xyz
  1  'x, y, z'
loop_
 _atom_site_type_symbol
 _atom_site_label
 _atom_site_symmetry_multiplicity
 _atom_site_fract_x
 _atom_site_fract_y
 _atom_site_fract_z
 _atom_site_occupancy
  Cu  Cu0  1  0.96772000  0.54431000  0.42685000  1.0
  Cu  Cu1  1  0.46772000  0.95569000  0.07315000  1.0
  Cu  Cu2  1  0.03228000  0.45569000  0.57316000  1.0
  Cu  Cu3  1  0.53229000  0.04431000  0.92685000  1.0
  H  H4  1  0.54293000  0.55455000  0.35821000  1.0
  H  H5  1  0.04294000  0.94545000  0.14179000  1.0
  H  H6  1  0.45706000  0.44545000  0.64179000  1.0
  H  H7  1  0.95705000  0.05455000  0.85821000  1.0
  H  H8  1  0.34653000  0.53267000  0.20701000  1.0
  H  H9  1  0.84654000  0.96733000  0.29298000  1.0
  H  H10  1  0.65347000  0.46733000  0.79299000  1.0
  H  H11  1  0.15347000  0.03267000  0.70701000  1.0
  H  H12  1  0.89630000  0.63543000  0.08325000  1.0
  H  H13  1  0.39631000  0.86456000  0.41674000  1.0
  H  H14  1  0.10370000  0.36457000  0.91675000  1.0
  H  H15  1  0.60371000  0.13543000  0.58325000  1.0
  H  H16  1  0.07566000  0.64491000  0.23877000  1.0
  H  H17  1  0.57566000  0.85509000  0.26123000  1.0
  H  H18  1  0.92434000  0.35509000  0.76123000  1.0
  H  H19  1  0.42434000  0.14491000  0.73877000  1.0
  H  H20  1  0.32927000  0.59141000  0.05278000  1.0
  H  H21  1  0.82928000  0.90860000  0.44722000  1.0
  H  H22  1  0.67073000  0.40859000  0.94722000  1.0
  H  H23  1  0.17074000  0.09140000  0.55278000  1.0
  H  H24  1  0.55423000  0.63519000  0.00350000  1.0
  H  H25  1  0.05422000  0.86480000  0.49649000  1.0
  H  H26  1  0.44578000  0.36480000  0.99649000  1.0
  H  H27  1  0.94579000  0.13519000  0.50351000  1.0
  H  H28  1  0.51380000  0.70703000  0.72331000  1.0
  H  H29  1  0.01380000  0.79297000  0.77669000  1.0
  H  H30  1  0.48619000  0.29297000  0.27670000  1.0
  H  H31  1  0.98619000  0.20703000  0.22331000  1.0
  H  H32  1  0.67186000  0.82699000  0.70960000  1.0
  H  H33  1  0.17186000  0.67301000  0.79040000  1.0
  H  H34  1  0.32813000  0.17301000  0.29042000  1.0
  H  H35  1  0.82812000  0.32699000  0.20958000  1.0
  H  H36  1  0.32528000  0.85688000  0.65696000  1.0
  H  H37  1  0.82529000  0.64312000  0.84304000  1.0
  H  H38  1  0.67471000  0.14312000  0.34305000  1.0
  H  H39  1  0.17470000  0.35688000  0.15695000  1.0
  H  H40  1  0.48692000  0.81578000  0.55177000  1.0
  H  H41  1  0.98692000  0.68422000  0.94823000  1.0
  H  H42  1  0.51308000  0.18423000  0.44824000  1.0
  H  H43  1  0.01308000  0.31577000  0.05176000  1.0
  C  C44  1  0.61810000  0.56907000  0.29514000  1.0
  C  C45  1  0.11811000  0.93093000  0.20486000  1.0
  C  C46  1  0.38189000  0.43093000  0.70486000  1.0
  C  C47  1  0.88189000  0.06907000  0.79514000  1.0
  C  C48  1  0.50848000  0.55781000  0.20993000  1.0
  C  C49  1  0.00849000  0.94219000  0.29007000  1.0
  C  C50  1  0.49151000  0.44220000  0.79007000  1.0
  C  C51  1  0.99152000  0.05781000  0.70993000  1.0
  C  C52  1  0.60548000  0.57936000  0.12994000  1.0
  C  C53  1  0.10549000  0.92064000  0.37006000  1.0
  C  C54  1  0.39452000  0.42064000  0.87006000  1.0
  C  C55  1  0.89452000  0.07936000  0.62994000  1.0
  C  C56  1  0.81384000  0.61230000  0.14123000  1.0
  C  C57  1  0.31385000  0.88770000  0.35877000  1.0
  C  C58  1  0.18616000  0.38770000  0.85877000  1.0
  C  C59  1  0.68616000  0.11230000  0.64122000  1.0
  C  C60  1  0.91382000  0.61903000  0.22835000  1.0
  C  C61  1  0.41382000  0.88097000  0.27165000  1.0
  C  C62  1  0.08618000  0.38097000  0.77165000  1.0
  C  C63  1  0.58618000  0.11903000  0.72835000  1.0
  C  C64  1  0.49205000  0.56714000  0.03649000  1.0
  C  C65  1  0.99205000  0.93286000  0.46350000  1.0
  C  C66  1  0.50796000  0.43286000  0.96350000  1.0
  C  C67  1  0.00797000  0.06714000  0.53649000  1.0
  C  C68  1  0.73410000  0.64847000  0.60731000  1.0
  C  C69  1  0.23409000  0.85153000  0.89269000  1.0
  C  C70  1  0.26590000  0.35154000  0.39269000  1.0
  C  C71  1  0.76590000  0.14846000  0.10731000  1.0
  C  C72  1  0.58250000  0.74389000  0.66861000  1.0
  C  C73  1  0.08250000  0.75611000  0.83139000  1.0
  C  C74  1  0.41750000  0.25611000  0.33140000  1.0
  C  C75  1  0.91749000  0.24389000  0.16861000  1.0
  C  C76  1  0.41821000  0.78102000  0.60773000  1.0
  C  C77  1  0.91821000  0.71899000  0.89227000  1.0
  C  C78  1  0.58179000  0.21899000  0.39228000  1.0
  C  C79  1  0.08178000  0.28101000  0.10772000  1.0
  C  C80  1  0.26912000  0.67520000  0.55934000  1.0
  C  C81  1  0.76912000  0.82480000  0.94065000  1.0
  C  C82  1  0.73088000  0.32481000  0.44066000  1.0
  C  C83  1  0.23088000  0.17519000  0.05934000  1.0
  N  N84  1  0.81993000  0.59684000  0.30451000  1.0
  N  N85  1  0.31994000  0.90316000  0.19548000  1.0
  N  N86  1  0.18007000  0.40316000  0.69549000  1.0
  N  N87  1  0.68007000  0.09684000  0.80451000  1.0
  O  O88  1  0.76916000  0.65313000  0.52147000  1.0
  O  O89  1  0.26916000  0.84688000  0.97853000  1.0
  O  O90  1  0.23084000  0.34688000  0.47854000  1.0
  O  O91  1  0.73084000  0.15312000  0.02146000  1.0
  O  O92  1  0.81662000  0.57397000  0.64743000  1.0
  O  O93  1  0.31662000  0.92602000  0.85257000  1.0
  O  O94  1  0.18339000  0.42603000  0.35258000  1.0
  O  O95  1  0.68338000  0.07396000  0.14742000  1.0
  O  O96  1  0.18778000  0.67318000  0.47828000  1.0
  O  O97  1  0.68778000  0.82682000  0.02172000  1.0
  O  O98  1  0.81222000  0.32683000  0.52173000  1.0
  O  O99  1  0.31221000  0.17317000  0.97827000  1.0
  O  O100  1  0.23305000  0.59891000  0.60636000  1.0
  O  O101  1  0.73305000  0.90110000  0.89364000  1.0
  O  O102  1  0.76696000  0.40109000  0.39365000  1.0
  O  O103  1  0.26696000  0.09891000  0.10635000  1.0
