# generated using pymatgen
data_HgH20C28Br2(N4O)2
_symmetry_space_group_name_H-M   'P 1'
_cell_length_a   3.95324000
_cell_length_b   11.85500000
_cell_length_c   14.20070000
_cell_angle_alpha   97.16040000
_cell_angle_beta   92.72930000
_cell_angle_gamma   90.13990000
_symmetry_Int_Tables_number   1
_chemical_formula_structural   HgH20C28Br2(N4O)2
_chemical_formula_sum   'Hg1 H20 C28 Br2 N8 O2'
_cell_volume   659.56219879
_cell_formula_units_Z   1
loop_
 _symmetry_equiv_pos_site_id
 _symmetry_equiv_pos_as_xyz
  1  'x, y, z'
loop_
 _atom_site_type_symbol
 _atom_site_label
 _atom_site_symmetry_multiplicity
 _atom_site_fract_x
 _atom_site_fract_y
 _atom_site_fract_z
 _atom_site_occupancy
  Hg  Hg0  1  0.50000000  0.50000000  0.50000000  1.0
  H  H1  1  0.93991000  0.62536000  0.15270000  1.0
  H  H2  1  0.06008000  0.37464000  0.84729000  1.0
  H  H3  1  0.78443000  0.64732000  0.32479000  1.0
  H  H4  1  0.21557000  0.35269000  0.67521000  1.0
  H  H5  1  0.28079000  0.33681000  0.28086000  1.0
  H  H6  1  0.71921000  0.66319000  0.71914000  1.0
  H  H7  1  0.17878000  0.07971000  0.00119000  1.0
  H  H8  1  0.82120000  0.92029000  0.99881000  1.0
  H  H9  1  0.17896000  0.92413000  0.86416000  1.0
  H  H10  1  0.82105000  0.07587000  0.13584000  1.0
  H  H11  1  0.36602000  0.85750000  0.70021000  1.0
  H  H12  1  0.63400000  0.14249000  0.29979000  1.0
  H  H13  1  0.64609000  0.89948000  0.55568000  1.0
  H  H14  1  0.35391000  0.10052000  0.44432000  1.0
  H  H15  1  0.87963000  0.09410000  0.54748000  1.0
  H  H16  1  0.12035000  0.90590000  0.45252000  1.0
  H  H17  1  0.84758000  0.24368000  0.68445000  1.0
  H  H18  1  0.15241000  0.75632000  0.31555000  1.0
  H  H19  1  0.62659000  0.35287000  0.99021000  1.0
  H  H20  1  0.37340000  0.64713000  0.00978000  1.0
  C  C21  1  0.78577000  0.56098000  0.17974000  1.0
  C  C22  1  0.21423000  0.43902000  0.82026000  1.0
  C  C23  1  0.70505000  0.57318000  0.27539000  1.0
  C  C24  1  0.29495000  0.42682000  0.72460000  1.0
  C  C25  1  0.42386000  0.40218000  0.25180000  1.0
  C  C26  1  0.57614000  0.59782000  0.74820000  1.0
  C  C27  1  0.49742000  0.39174000  0.15577000  1.0
  C  C28  1  0.50257000  0.60826000  0.84423000  1.0
  C  C29  1  0.37086000  0.28888000  0.09121000  1.0
  C  C30  1  0.62915000  0.71112000  0.90878000  1.0
  C  C31  1  0.45738000  0.19572000  0.92638000  1.0
  C  C32  1  0.54262000  0.80428000  0.07362000  1.0
  C  C33  1  0.29501000  0.09090000  0.93534000  1.0
  C  C34  1  0.70499000  0.90911000  0.06466000  1.0
  C  C35  1  0.29857000  0.00621000  0.85997000  1.0
  C  C36  1  0.70144000  0.99379000  0.14004000  1.0
  C  C37  1  0.45589000  0.02552000  0.77590000  1.0
  C  C38  1  0.54411000  0.97448000  0.22410000  1.0
  C  C39  1  0.47570000  0.94125000  0.69655000  1.0
  C  C40  1  0.52432000  0.05875000  0.30345000  1.0
  C  C41  1  0.62875000  0.96526000  0.61601000  1.0
  C  C42  1  0.37126000  0.03474000  0.38400000  1.0
  C  C43  1  0.76144000  0.07525000  0.61156000  1.0
  C  C44  1  0.23857000  0.92475000  0.38844000  1.0
  C  C45  1  0.74609000  0.15903000  0.68785000  1.0
  C  C46  1  0.25391000  0.84097000  0.31215000  1.0
  C  C47  1  0.59940000  0.13607000  0.77256000  1.0
  C  C48  1  0.40060000  0.86393000  0.22744000  1.0
  Br  Br49  1  0.93054000  0.66933000  0.52449000  1.0
  Br  Br50  1  0.06946000  0.33068000  0.47551000  1.0
  N  N51  1  0.68269000  0.47010000  0.11987000  1.0
  N  N52  1  0.31731000  0.52990000  0.88013000  1.0
  N  N53  1  0.52895000  0.49349000  0.31115000  1.0
  N  N54  1  0.47106000  0.50651000  0.68885000  1.0
  N  N55  1  0.48378000  0.28419000  0.00157000  1.0
  N  N56  1  0.51620000  0.71581000  0.99842000  1.0
  N  N57  1  0.60164000  0.21899000  0.84847000  1.0
  N  N58  1  0.39836000  0.78101000  0.15153000  1.0
  O  O59  1  0.18434000  0.21834000  0.12087000  1.0
  O  O60  1  0.81564000  0.78165000  0.87913000  1.0
